#       Name:                AV-unprocessed.smi:3245
#       Creating user name   scv26
#       Creation time:       Fri Mar 27 18:28:55 2020


#       File generated by GOLD software.
#

@<TRIPOS>MOLECULE
AV-unprocessed.smi:3245
    41    42     1
SMALL
NO_CHARGES


@<TRIPOS>ATOM
      1 ****        -1.2721  -1.0583   2.1025 C.3            1 S1                 0.0000
      2 ****        -0.8862   0.0542   1.1126 C.3            1 S1                 0.0000
      3 ****        -1.3995  -0.2141  -0.3224 C.3            1 S1                 0.0000
      4 ****        -2.8327  -0.4381  -0.3790 N.pl3          1 S1                 0.0000
      5 ****        -3.5066  -1.5947  -0.7104 C.2            1 S1                 0.0000
      6 ****        -4.8425  -1.3216  -0.6368 C.2            1 S1                 0.0000
      7 ****        -4.8870   0.0480  -0.2538 C.2            1 S1                 0.0000
      8 ****        -3.6827   0.5753  -0.1040 N.2            1 S1                 0.0000
      9 ****         0.5677   0.1573   1.1178 N.3            1 S1                 0.0000
     10 ****         1.0329   1.4480   0.6285 C.3            1 S1                 0.0000
     11 ****         2.5707   1.5069   0.6581 C.3            1 S1                 0.0000
     12 ****         3.1771   0.6601  -0.3771 N.am           1 S1                 0.0000
     13 ****         3.2649   1.0006  -1.6668 C.2            1 S1                 0.0000
     14 ****         2.8801   2.0405  -2.2022 O.2            1 S1                 0.0000
     15 ****         3.9346  -0.1405  -2.3959 C.3            1 S1                 0.0000
     16 ****         4.1723  -1.0894  -1.3323 N.pl3          1 S1                -1.0000
     17 ****         3.7033  -0.5640  -0.1759 C.2            1 S1                 0.0000
     18 ****         3.7306  -1.0945   0.9343 O.2            1 S1                 0.0000
     19 ****        -2.3538  -1.1384   2.2112 H              1 S1                 0.0000
     20 ****        -0.8646  -0.8612   3.0945 H              1 S1                 0.0000
     21 ****        -0.8981  -2.0292   1.7752 H              1 S1                 0.0000
     22 ****        -1.3083   0.9891   1.4842 H              1 S1                 0.0000
     23 ****        -1.1695   0.6187  -0.9870 H              1 S1                 0.0000
     24 ****        -0.9014  -1.0904  -0.7402 H              1 S1                 0.0000
     25 ****        -2.9851  -2.5052  -0.9663 H              1 S1                 0.0000
     26 ****        -5.6631  -1.9966  -0.8292 H              1 S1                 0.0000
     27 ****        -5.7523   0.6714  -0.0836 H              1 S1                 0.0000
     28 ****         0.9149   0.0198   2.0562 H              1 S1                 0.0000
     29 ****         0.6701   1.6426  -0.3800 H              1 S1                 0.0000
     30 ****         0.6299   2.2318   1.2708 H              1 S1                 0.0000
     31 ****         2.8898   2.5372   0.4936 H              1 S1                 0.0000
     32 ****         2.9425   1.2465   1.6505 H              1 S1                 0.0000
     33 ****         3.2728  -0.5227  -3.1738 H              1 S1                 0.0000
     34 ****         4.8499   0.2104  -2.8736 H              1 S1                 0.0000
     35 ****        -3.4531   1.5136   0.1548 LP             1 S1                 0.0000
     36 ****         0.9162  -0.5505   0.5033 LP             1 S1                 0.0000
     37 ****         2.4412   2.7524  -1.6539 LP             1 S1                 0.0000
     38 ****         3.0065   2.1732  -3.1853 LP             1 S1                 0.0000
     39 ****         4.6094  -1.9831  -1.4333 LP             1 S1                 0.0000
     40 ****         3.3536  -0.6152   1.7269 LP             1 S1                 0.0000
     41 ****         4.1298  -2.0048   1.0438 LP             1 S1                 0.0000
@<TRIPOS>BOND
    1    1    2 1     
    2    1   19 1     
    3    1   20 1     
    4    1   21 1     
    5    2    3 1     
    6    2    9 1     
    7    2   22 1     
    8    3    4 1     
    9    3   23 1     
   10    3   24 1     
   11    4    8 1     
   12    4    5 1     
   13    5    6 2     
   14    5   25 1     
   15    6    7 1     
   16    6   26 1     
   17    7    8 2     
   18    7   27 1     
   19    9   10 1     
   20    9   28 1     
   21   10   11 1     
   22   10   29 1     
   23   10   30 1     
   24   11   12 1     
   25   11   31 1     
   26   11   32 1     
   27   12   17 am    
   28   12   13 am    
   29   13   14 2     
   30   13   15 1     
   31   15   16 1     
   32   15   33 1     
   33   15   34 1     
   34   16   17 1     
   35   17   18 2     
   36    8   35 1     
   37    9   36 1     
   38   14   37 1     
   39   14   38 1     
   40   16   39 1     
   41   18   40 1     
   42   18   41 1     
@<TRIPOS>SUBSTRUCTURE
      1 S1             1
@<TRIPOS>SET
LONE_PAIRS      STATIC     ATOMS    <user>   **** ""
7 35 36 37 38 39 40 41
DONOR_HYDROGENS      STATIC     ATOMS    <user>   **** ""
1 28
ATOM$BLUE        STATIC     ATOMS    COLORGROUP SYSTEM
7 35 36 37 38 39 40 41
ATOM$RED        STATIC     ATOMS    COLORGROUP SYSTEM
1 28
