AV-unprocessed.smi:2027|AV-procd|sdf|8216|dock5
  -GOLD-   2272010483D 1   1.00000     0.00000
 Structure written by MMmdl.
 50 52  0  0  0  0  0  0  0  0  2 V2000
  152.0664  144.2163  161.3625 C   0  0  0  0  0  0  0  0  0  0  0  0
  151.9898  143.3424  160.1222 C   0  0  0  0  0  0  0  0  0  0  0  0
  151.2008  143.7823  159.0353 C   0  0  0  0  0  0  0  0  0  0  0  0
  151.1496  142.9611  157.9151 C   0  0  0  0  0  0  0  0  0  0  0  0
  150.4757  143.1112  156.7011 N   0  3  0  0  0  0  0  0  0  0  0  0
  150.7312  142.0377  155.9032 C   0  0  0  0  0  0  0  0  0  0  0  0
  151.5571  141.2031  156.5903 N   0  0  0  0  0  0  0  0  0  0  0  0
  152.1346  139.9124  156.1887 C   0  0  0  0  0  0  0  0  0  0  0  0
  151.0714  138.9268  155.6623 C   0  0  1  0  0  0  0  0  0  0  0  0
  150.6817  139.2605  154.3444 O   0  0  0  0  0  0  0  0  0  0  0  0
  151.4552  137.4301  155.6984 C   0  0  0  0  0  0  0  0  0  0  0  0
  150.3638  136.5105  156.0367 N   0  0  0  0  0  0  0  0  0  0  0  0
  149.5839  137.0237  157.1597 C   0  0  0  0  0  0  0  0  0  0  0  0
  150.8418  135.1564  156.3309 C   0  0  0  0  0  0  0  0  0  0  0  0
  150.1164  134.1063  155.5323 C   0  0  0  0  0  0  0  0  0  0  0  0
  150.2044  132.6907  155.6611 C   0  0  0  0  0  0  0  0  0  0  0  0
  149.4343  132.0468  154.7988 N   0  0  0  0  0  0  0  0  0  0  0  0
  148.8350  133.0240  154.0879 N   0  0  0  0  0  0  0  0  0  0  0  0
  147.9032  132.6763  153.0368 C   0  0  0  0  0  0  0  0  0  0  0  0
  149.2288  134.2759  154.5066 C   0  0  0  0  0  0  0  0  0  0  0  0
  151.8477  141.7395  157.8508 C   0  0  0  0  0  0  0  0  0  0  0  0
  152.6323  141.2937  158.9126 C   0  0  0  0  0  0  0  0  0  0  0  0
  152.6963  142.1136  160.0614 C   0  0  0  0  0  0  0  0  0  0  0  0
  153.5432  141.6492  161.2342 C   0  0  0  0  0  0  0  0  0  0  0  0
  151.5168  145.1485  161.2284 H   0  0  0  0  0  0  0  0  0  0  0  0
  153.1016  144.4714  161.5902 H   0  0  0  0  0  0  0  0  0  0  0  0
  151.6396  143.6977  162.2213 H   0  0  0  0  0  0  0  0  0  0  0  0
  150.6614  144.7176  159.0742 H   0  0  0  0  0  0  0  0  0  0  0  0
  150.3497  141.8786  154.9048 H   0  0  0  0  0  0  0  0  0  0  0  0
  152.9116  140.0964  155.4491 H   0  0  0  0  0  0  0  0  0  0  0  0
  152.6300  139.4938  157.0653 H   0  0  0  0  0  0  0  0  0  0  0  0
  150.1807  139.0453  156.2804 H   0  0  0  0  0  0  0  0  0  0  0  0
  149.7407  139.3469  154.3266 H   0  0  0  0  0  0  0  0  0  0  0  0
  151.9094  137.1361  154.7508 H   0  0  0  0  0  0  0  0  0  0  0  0
  152.2538  137.3336  156.4360 H   0  0  0  0  0  0  0  0  0  0  0  0
  148.7412  136.3704  157.3881 H   0  0  0  0  0  0  0  0  0  0  0  0
  149.1752  138.0081  156.9288 H   0  0  0  0  0  0  0  0  0  0  0  0
  150.1973  137.1133  158.0574 H   0  0  0  0  0  0  0  0  0  0  0  0
  151.9084  135.0769  156.1367 H   0  0  0  0  0  0  0  0  0  0  0  0
  150.7466  134.9634  157.4005 H   0  0  0  0  0  0  0  0  0  0  0  0
  150.7998  132.1156  156.3547 H   0  0  0  0  0  0  0  0  0  0  0  0
  147.7165  133.5435  152.4025 H   0  0  0  0  0  0  0  0  0  0  0  0
  146.9610  132.3475  153.4759 H   0  0  0  0  0  0  0  0  0  0  0  0
  148.3139  131.8729  152.4240 H   0  0  0  0  0  0  0  0  0  0  0  0
  148.8478  135.1767  154.0482 H   0  0  0  0  0  0  0  0  0  0  0  0
  153.1765  140.3622  158.8680 H   0  0  0  0  0  0  0  0  0  0  0  0
  153.9750  140.6652  161.0490 H   0  0  0  0  0  0  0  0  0  0  0  0
  152.9413  141.5820  162.1406 H   0  0  0  0  0  0  0  0  0  0  0  0
  154.3632  142.3453  161.4120 H   0  0  0  0  0  0  0  0  0  0  0  0
  149.8864  143.8890  156.4328 H   0  0  0  0  0  0  0  0  0  0  0  0
  1  2  1  0  0  0  0
  1 25  1  0  0  0  0
  1 26  1  0  0  0  0
  1 27  1  0  0  0  0
  2 23  1  0  0  0  0
  2  3  2  0  0  0  0
  3  4  1  0  0  0  0
  3 28  1  0  0  0  0
  4 21  2  0  0  0  0
  4  5  1  0  0  0  0
  5  6  2  0  0  0  0
  5 50  1  0  0  0  0
  6  7  1  0  0  0  0
  6 29  1  0  0  0  0
  7  8  1  0  0  0  0
  7 21  1  0  0  0  0
  8  9  1  0  0  0  0
  8 30  1  0  0  0  0
  8 31  1  0  0  0  0
  9 10  1  0  0  0  0
  9 11  1  0  0  0  0
  9 32  1  0  0  0  0
 10 33  1  0  0  0  0
 11 12  1  0  0  0  0
 11 34  1  0  0  0  0
 11 35  1  0  0  0  0
 12 13  1  0  0  0  0
 12 14  1  0  0  0  0
 13 36  1  0  0  0  0
 13 37  1  0  0  0  0
 13 38  1  0  0  0  0
 14 15  1  0  0  0  0
 14 39  1  0  0  0  0
 14 40  1  0  0  0  0
 15 20  2  0  0  0  0
 15 16  1  0  0  0  0
 16 17  2  0  0  0  0
 16 41  1  0  0  0  0
 17 18  1  0  0  0  0
 18 19  1  0  0  0  0
 18 20  1  0  0  0  0
 19 42  1  0  0  0  0
 19 43  1  0  0  0  0
 19 44  1  0  0  0  0
 20 45  1  0  0  0  0
 21 22  1  0  0  0  0
 22 23  2  0  0  0  0
 22 46  1  0  0  0  0
 23 24  1  0  0  0  0
 24 47  1  0  0  0  0
 24 48  1  0  0  0  0
 24 49  1  0  0  0  0
M  CHG  1   5   1
M  END
> <s_m_source_file>
AV-unprocessed.smi

> <i_m_source_file_index>
2027

> <i_lp_mmshare_version>
43012

> <i_f3d_flags>
0

> <s_epik_input>
W0NIM11jKFtjSF0xKWMoW0NIM10pW2NIXWMoYzEyKW4oW2NIXW4yKVtDSDJdW0NASF0oW09IXSlbQ0gyXU4oW0NIM10pW0NIMl1jM1tjSF1ubihbQ0gzXSlbY0hdMw==

> <s_epik_cmdline>
J2VwaWtfcHl0aG9uJywgJy1waCcsICc3LjAnLCAnLXRuJywgJzgnLCAnLW1hJywgJzIwMCcsICctbWV0YWxfYmluZGluZycsICctaW1hZScsICc8aW5maWxlLm1hZT4nLCAnLW9tYWUnLCAnPG91dGZpbGUubWFlPic=

> <r_epik_Ionization_Penalty>
1.48134

> <r_epik_Ionization_Penalty_Charging>
1.21121

> <r_epik_Ionization_Penalty_Neutral>
0.270133

> <r_epik_State_Penalty>
1.53013

> <r_epik_Charging_Adjusted_Penalty>
2.74134

> <i_epik_Tot_Q>
1

> <i_epik_Tot_abs_Q>
1

> <r_epik_Metal_State_Penalty>
1.60443

> <b_epik_Metal_Only>
0

> <s_lp_Force_Field>
OPLS_2005

> <r_lp_Energy>
28.2554

> <b_lp_Chiralities_Consistent>
1

> <s_lp_Variant>
AV-unprocessed.smi:2027-8

> <Gold.Version>
5.8.1

> <Gold.Id.Protein>
6NUR|6NUR_protein|mol2

> <Gold.PLP.Fitness>
58.6929

> <Gold.PLP.PLP>
-49.7115

> <Gold.PLP.part.hbond>
-2.0000

> <Gold.PLP.part.metal>
0.0000

> <Gold.PLP.part.buried>
-5.9282

> <Gold.PLP.part.nonpolar>
-40.7741

> <Gold.PLP.part.repulsive>
0.1080

> <Gold.PLP.ligand.clash>
0.0000

> <Gold.PLP.ligand.torsion>
1.5606

> <Gold.PLP.Chemscore.Hbond>
2.9913

> <Gold.PLP.Chemscore.CHOScore>
1.0000

> <Gold.PLP.Chemscore.Metal>
0.0000

> <Gold.Chemscore.Hbonds>
donor molecule, donor type, donor heavy atom, donor atom, acceptor molecule, acceptor atom, score
      L1  H     5    50       P1  8028  1.85
      P1  H  7989  7998       L1    10  0.96
      L1  C    20    45       P1  7948  1.00

> <Gold.PLP.Chemscore.Internal.Correction>
0.1288

> <Gold.Rescore>
     Score         DG    S(hbond)    S(metal)    S(lipo)     H(rot)  DE(clash)    DE(int)     intcor
     18.37     -20.25       1.76        0.00     130.77       2.50       0.39       1.49       ----

> <Gold.Chemscore.Fitness>
18.3689

> <Gold.Chemscore.DG>
-20.2506

> <Gold.Chemscore.ZeroCoef>
-5.4800

> <Gold.Chemscore.Hbond>
1.7577

> <Gold.Chemscore.Metal>
0.0000

> <Gold.Chemscore.Lipo>
130.7686

> <Gold.Chemscore.Internal_Hbond>
0.0000

> <Gold.Chemscore.DEClash>
0.3912

> <Gold.Chemscore.DEInternal>
1.4905

> <Gold.Chemscore.Rot>
2.5000

> <Gold.Chemscore.Internal.Correction>
   9.000000E+99

> <Gold.Chemscore.Hbonds>
donor molecule, donor type, donor heavy atom, donor atom, acceptor molecule, acceptor atom, score
      L1  H     5    50       P1  8028  0.88
      P1  H  7989  7998       L1    10  0.73

> <Gold.Chemscore.Hbond.Weighted>
-5.8706

> <Gold.Chemscore.Metal.Weighted>
-0.0000

> <Gold.Chemscore.Lipo.Weighted>
-15.2999

> <Gold.Chemscore.Internal_Hbond.Weighted>
0.0000

> <Gold.Chemscore.DEClash.Weighted>
0.3912

> <Gold.Chemscore.DEInternal.Weighted>
1.4905

> <Gold.Chemscore.Rot.Weighted>
6.3999

> <Gold.Chemscore.Internal.Correction.Weighted>
   9.000000E+99

> <Gold.Protein.RotatedTorsions>
[ 6907 6896 6895 6894 ] final  -40.20 input  -60.11 | X-H torsion
[ 7974 7965 7964 7962 ] final  124.64 input  175.53 | X-H torsion
[ 8008 7997 7996 7995 ] final  132.27 input   59.86 | X-H torsion
[ 10167 10162 10161 10158 ] final  -55.87 input  -65.29 | X-H torsion
[ 10718 10713 10712 10709 ] final -100.57 input   66.30 | X-H torsion
[ 10763 10752 10751 10750 ] final -141.40 input  -60.55 | X-H torsion
[ 11005 11000 10999 10996 ] final  -41.46 input  -57.11 | X-H torsion

> <Gold.Protein.ActiveResidues>
 VAL166  LYS551  ARG553  GLY616  TRP617  ASP618  TYR619  PRO620  LYS621  CYS622 
 ASP623  PHE694  ASN695  SER759  ASP760  ASP761  ALA762  ILE779  LEU786  VAL792 
 PHE793  MET794  SER795  GLU796  ALA797  LYS798  CYS799  TRP800  GLU811  SER814 

> <Gold.Protein.RotatedAtoms>
  150.9812  134.9167  159.7845 H   0  0  0  0  0  0  0  0  0  0  0  0  # atno 6907 bound_to 6896
  152.5222  134.3407  159.9226 H   0  0  0  0  0  0  0  0  0  0  0  0  # atno 6908 bound_to 6896
  151.3415  133.3920  159.2706 H   0  0  0  0  0  0  0  0  0  0  0  0  # atno 6909 bound_to 6896
  145.0820  139.3650  143.4904 H   0  0  0  0  0  0  0  0  0  0  0  0  # atno 7974 bound_to 7965
  156.2980  140.2550  156.3062 H   0  0  0  0  0  0  0  0  0  0  0  0  # atno 8008 bound_to 7997
  154.9370  140.0397  157.2096 H   0  0  0  0  0  0  0  0  0  0  0  0  # atno 8009 bound_to 7997
  154.8163  140.2852  155.5822 H   0  0  0  0  0  0  0  0  0  0  0  0  # atno 8010 bound_to 7997
  140.6350  143.2477  151.5142 H   0  0  0  0  0  0  0  0  0  0  0  0  # atno 10167 bound_to 10162
  156.0167  130.5333  150.6836 H   0  0  0  0  0  0  0  0  0  0  0  0  # atno 10718 bound_to 10713
  154.8546  135.3525  154.5862 H   0  0  0  0  0  0  0  0  0  0  0  0  # atno 10763 bound_to 10752
  153.6472  135.6995  153.5226 H   0  0  0  0  0  0  0  0  0  0  0  0  # atno 10764 bound_to 10752
  153.2923  135.4231  155.1136 H   0  0  0  0  0  0  0  0  0  0  0  0  # atno 10765 bound_to 10752
  141.0248  133.6846  156.2461 H   0  0  0  0  0  0  0  0  0  0  0  0  # atno 11005 bound_to 11000
  146.3531  140.0615  142.8629 LP  0  0  0  0  0  0  0  0  0  0  0  0  # atno 17320 bound_to 7965
  145.1167  140.9438  143.4625 LP  0  0  0  0  0  0  0  0  0  0  0  0  # atno 17321 bound_to 7965
  139.5561  144.2272  152.1614 LP  0  0  0  0  0  0  0  0  0  0  0  0  # atno 17342 bound_to 10162
  140.1526  144.5100  150.6678 LP  0  0  0  0  0  0  0  0  0  0  0  0  # atno 17343 bound_to 10162
  157.4533  131.0875  151.0823 LP  0  0  0  0  0  0  0  0  0  0  0  0  # atno 17370 bound_to 10713
  157.1333  130.6111  149.5535 LP  0  0  0  0  0  0  0  0  0  0  0  0  # atno 17371 bound_to 10713
  140.6511  134.5066  157.5577 LP  0  0  0  0  0  0  0  0  0  0  0  0  # atno 17394 bound_to 11000
  139.9169  134.8229  156.1338 LP  0  0  0  0  0  0  0  0  0  0  0  0  # atno 17395 bound_to 11000

$$$$
