AV-unprocessed.smi:2550|AV-procd|sdf|10011|dock10
  -GOLD-   2272014 53D 1   1.00000     0.00000
 Structure written by MMmdl.
 28 29  0  0  0  0  0  0  0  0  2 V2000
  147.7266  129.2060  153.6398 C   0  0  0  0  0  0  0  0  0  0  0  0
  146.5752  129.0134  152.6395 C   0  0  0  0  0  0  0  0  0  0  0  0
  146.9840  128.1289  151.4505 C   0  0  0  0  0  0  0  0  0  0  0  0
  145.5380  128.3371  153.3254 O   0  0  0  0  0  0  0  0  0  0  0  0
  146.0049  130.3349  152.1827 C   0  0  0  0  0  0  0  0  0  0  0  0
  144.9937  130.6064  151.3006 C   0  0  0  0  0  0  0  0  0  0  0  0
  144.9220  131.9827  151.3037 N   0  0  0  0  0  0  0  0  0  0  0  0
  144.0785  132.8175  150.5017 C   0  0  0  0  0  0  0  0  0  0  0  0
  144.1380  132.7751  148.9746 C   0  0  0  0  0  0  0  0  0  0  0  0
  143.8436  134.2026  148.9854 N   0  3  0  0  0  0  0  0  0  0  0  0
  144.3846  134.3044  150.3351 C   0  0  0  0  0  0  0  0  0  0  0  0
  145.8673  132.5294  152.1017 N   0  0  0  0  0  0  0  0  0  0  0  0
  146.5112  131.5496  152.6523 N   0  0  0  0  0  0  0  0  0  0  0  0
  148.5664  129.7269  153.1786 H   0  0  0  0  0  0  0  0  0  0  0  0
  148.0979  128.2495  154.0092 H   0  0  0  0  0  0  0  0  0  0  0  0
  147.4093  129.7935  154.5023 H   0  0  0  0  0  0  0  0  0  0  0  0
  147.7766  128.5961  150.8651 H   0  0  0  0  0  0  0  0  0  0  0  0
  146.1420  127.9505  150.7804 H   0  0  0  0  0  0  0  0  0  0  0  0
  147.3525  127.1584  151.7846 H   0  0  0  0  0  0  0  0  0  0  0  0
  144.8573  128.9605  153.5279 H   0  0  0  0  0  0  0  0  0  0  0  0
  144.3542  129.9710  150.7056 H   0  0  0  0  0  0  0  0  0  0  0  0
  143.0575  132.6654  150.8590 H   0  0  0  0  0  0  0  0  0  0  0  0
  145.1338  132.5652  148.5791 H   0  0  0  0  0  0  0  0  0  0  0  0
  143.3690  132.1649  148.5001 H   0  0  0  0  0  0  0  0  0  0  0  0
  144.3554  134.7341  148.2956 H   0  0  0  0  0  0  0  0  0  0  0  0
  143.8209  134.9670  150.9924 H   0  0  0  0  0  0  0  0  0  0  0  0
  145.4519  134.5343  150.3347 H   0  0  0  0  0  0  0  0  0  0  0  0
  142.8483  134.3750  148.9720 H   0  0  0  0  0  0  0  0  0  0  0  0
  1  2  1  0  0  0  0
  1 14  1  0  0  0  0
  1 15  1  0  0  0  0
  1 16  1  0  0  0  0
  2  3  1  0  0  0  0
  2  4  1  0  0  0  0
  2  5  1  0  0  0  0
  3 17  1  0  0  0  0
  3 18  1  0  0  0  0
  3 19  1  0  0  0  0
  4 20  1  0  0  0  0
  5 13  1  0  0  0  0
  5  6  2  0  0  0  0
  6  7  1  0  0  0  0
  6 21  1  0  0  0  0
  7  8  1  0  0  0  0
  7 12  1  0  0  0  0
  8 11  1  0  0  0  0
  8  9  1  0  0  0  0
  8 22  1  0  0  0  0
  9 10  1  0  0  0  0
  9 23  1  0  0  0  0
  9 24  1  0  0  0  0
 10 11  1  0  0  0  0
 10 25  1  0  0  0  0
 10 28  1  0  0  0  0
 11 26  1  0  0  0  0
 11 27  1  0  0  0  0
 12 13  2  0  0  0  0
M  CHG  1  10   1
M  END
> <s_m_source_file>
AV-unprocessed.smi

> <i_m_source_file_index>
2550

> <i_lp_mmshare_version>
43012

> <i_f3d_flags>
0

> <s_epik_input>
W0NIM11DKFtDSDNdKShbT0hdKWMxW2NIXW4obm4xKVtDSF0yW0NIMl1bTkhdW0NIMl0y

> <s_epik_cmdline>
J2VwaWtfcHl0aG9uJywgJy1waCcsICc3LjAnLCAnLXRuJywgJzgnLCAnLW1hJywgJzIwMCcsICctbWV0YWxfYmluZGluZycsICctaW1hZScsICc8aW5maWxlLm1hZT4nLCAnLW9tYWUnLCAnPG91dGZpbGUubWFlPic=

> <r_lp_tautomer_probability>
1

> <r_epik_Ionization_Penalty>
0.215038

> <r_epik_Ionization_Penalty_Charging>
0.215038

> <r_epik_Ionization_Penalty_Neutral>
3.71976e-07

> <r_epik_State_Penalty>
0.20523

> <r_epik_Charging_Adjusted_Penalty>
0.420268

> <i_epik_Tot_Q>
1

> <i_epik_Tot_abs_Q>
1

> <r_epik_Metal_State_Penalty>
0.20531

> <b_epik_Metal_Only>
0

> <s_lp_Force_Field>
OPLS_2005

> <r_lp_Energy>
9.80929

> <b_lp_Chiralities_Consistent>
1

> <s_lp_Variant>
AV-unprocessed.smi:2550-1

> <Gold.Version>
5.8.1

> <Gold.Id.Protein>
6NUR|6NUR_protein|mol2

> <Gold.PLP.Fitness>
40.2508

> <Gold.PLP.PLP>
-29.2545

> <Gold.PLP.part.hbond>
-3.0000

> <Gold.PLP.part.metal>
0.0000

> <Gold.PLP.part.buried>
-5.0027

> <Gold.PLP.part.nonpolar>
-21.2293

> <Gold.PLP.part.repulsive>
0.3861

> <Gold.PLP.ligand.clash>
0.0000

> <Gold.PLP.ligand.torsion>
0.2427

> <Gold.PLP.Chemscore.Hbond>
3.7196

> <Gold.PLP.Chemscore.CHOScore>
0.0000

> <Gold.PLP.Chemscore.Metal>
0.0000

> <Gold.Chemscore.Hbonds>
donor molecule, donor type, donor heavy atom, donor atom, acceptor molecule, acceptor atom, score
      L1  H     4    20       P1 10956  0.84
      L1  H    10    25       P1  7921  0.77
      L1  H    10    28       P1 10186  2.00

> <Gold.PLP.Chemscore.Internal.Correction>
0.3229

> <Gold.Rescore>
     Score         DG    S(hbond)    S(metal)    S(lipo)     H(rot)  DE(clash)    DE(int)     intcor
     18.26     -18.47       2.87        0.00      68.04       1.78       0.00       0.22       ----

> <Gold.Chemscore.Fitness>
18.2560

> <Gold.Chemscore.DG>
-18.4725

> <Gold.Chemscore.ZeroCoef>
-5.4800

> <Gold.Chemscore.Hbond>
2.8687

> <Gold.Chemscore.Metal>
0.0000

> <Gold.Chemscore.Lipo>
68.0447

> <Gold.Chemscore.Internal_Hbond>
0.0000

> <Gold.Chemscore.DEClash>
0.0000

> <Gold.Chemscore.DEInternal>
0.2165

> <Gold.Chemscore.Rot>
1.7775

> <Gold.Chemscore.Internal.Correction>
   9.000000E+99

> <Gold.Chemscore.Hbonds>
donor molecule, donor type, donor heavy atom, donor atom, acceptor molecule, acceptor atom, score
      L1  H     4    20       P1 10956  0.71
      L1  H    10    25       P1  7921  0.76
      L1  H    10    28       P1 10186  0.99

> <Gold.Chemscore.Hbond.Weighted>
-9.5815

> <Gold.Chemscore.Metal.Weighted>
-0.0000

> <Gold.Chemscore.Lipo.Weighted>
-7.9612

> <Gold.Chemscore.Internal_Hbond.Weighted>
0.0000

> <Gold.Chemscore.DEClash.Weighted>
0.0000

> <Gold.Chemscore.DEInternal.Weighted>
0.2165

> <Gold.Chemscore.Rot.Weighted>
4.5503

> <Gold.Chemscore.Internal.Correction.Weighted>
   9.000000E+99

> <Gold.Protein.RotatedTorsions>
[ 6907 6896 6895 6894 ] final -101.98 input  -60.11 | X-H torsion
[ 7974 7965 7964 7962 ] final  107.91 input  175.53 | X-H torsion
[ 8008 7997 7996 7995 ] final -127.44 input   59.86 | X-H torsion
[ 10167 10162 10161 10158 ] final   47.43 input  -65.29 | X-H torsion
[ 10718 10713 10712 10709 ] final   89.32 input   66.30 | X-H torsion
[ 10763 10752 10751 10750 ] final -169.85 input  -60.55 | X-H torsion
[ 11005 11000 10999 10996 ] final  -53.70 input  -57.11 | X-H torsion

> <Gold.Protein.ActiveResidues>
 VAL166  LYS551  ARG553  GLY616  TRP617  ASP618  TYR619  PRO620  LYS621  CYS622 
 ASP623  PHE694  ASN695  SER759  ASP760  ASP761  ALA762  ILE779  LEU786  VAL792 
 PHE793  MET794  SER795  GLU796  ALA797  LYS798  CYS799  TRP800  GLU811  SER814 

> <Gold.Protein.RotatedAtoms>
  150.7177  134.0651  159.3844 H   0  0  0  0  0  0  0  0  0  0  0  0  # atno 6907 bound_to 6896
  151.8632  135.0514  160.0481 H   0  0  0  0  0  0  0  0  0  0  0  0  # atno 6908 bound_to 6896
  152.2701  133.5339  159.5470 H   0  0  0  0  0  0  0  0  0  0  0  0  # atno 6909 bound_to 6896
  145.2875  139.2611  143.3882 H   0  0  0  0  0  0  0  0  0  0  0  0  # atno 7974 bound_to 7965
  155.2462  140.0430  157.2981 H   0  0  0  0  0  0  0  0  0  0  0  0  # atno 8008 bound_to 7997
  154.5797  140.2397  155.8041 H   0  0  0  0  0  0  0  0  0  0  0  0  # atno 8009 bound_to 7997
  156.2184  140.2977  155.9902 H   0  0  0  0  0  0  0  0  0  0  0  0  # atno 8010 bound_to 7997
  140.3037  144.2903  150.6213 H   0  0  0  0  0  0  0  0  0  0  0  0  # atno 10167 bound_to 10162
  157.6954  131.0328  150.3407 H   0  0  0  0  0  0  0  0  0  0  0  0  # atno 10718 bound_to 10713
  154.6479  135.2907  155.0023 H   0  0  0  0  0  0  0  0  0  0  0  0  # atno 10763 bound_to 10752
  154.1126  135.6560  153.4892 H   0  0  0  0  0  0  0  0  0  0  0  0  # atno 10764 bound_to 10752
  153.0361  135.5269  154.7374 H   0  0  0  0  0  0  0  0  0  0  0  0  # atno 10765 bound_to 10752
  141.0989  133.6620  156.4211 H   0  0  0  0  0  0  0  0  0  0  0  0  # atno 11005 bound_to 11000
  146.3196  140.3358  142.8644 LP  0  0  0  0  0  0  0  0  0  0  0  0  # atno 17320 bound_to 7965
  144.9201  140.7857  143.5754 LP  0  0  0  0  0  0  0  0  0  0  0  0  # atno 17321 bound_to 7965
  140.5629  143.2190  151.7734 LP  0  0  0  0  0  0  0  0  0  0  0  0  # atno 17342 bound_to 10162
  139.4909  144.4324  151.9857 LP  0  0  0  0  0  0  0  0  0  0  0  0  # atno 17343 bound_to 10162
  156.3869  130.3890  149.7059 LP  0  0  0  0  0  0  0  0  0  0  0  0  # atno 17370 bound_to 10713
  156.4423  130.7867  151.2888 LP  0  0  0  0  0  0  0  0  0  0  0  0  # atno 17371 bound_to 10713
  140.5071  134.6430  157.5270 LP  0  0  0  0  0  0  0  0  0  0  0  0  # atno 17394 bound_to 11000
  139.9834  134.7100  155.9817 LP  0  0  0  0  0  0  0  0  0  0  0  0  # atno 17395 bound_to 11000

$$$$
