AV-unprocessed.smi:3330|AV-procd|sdf|12802|dock4
  -GOLD-   2272019163D 1   1.00000     0.00000
 Structure written by MMmdl.
 39 40  0  0  0  0  0  0  0  0  2 V2000
  150.5300  135.7375  155.7239 C   0  0  0  0  0  0  0  0  0  0  0  0
  149.9811  137.1752  155.8474 C   0  0  1  0  0  0  0  0  0  0  0  0
  150.2683  137.7215  157.1941 N   0  3  0  0  0  0  0  0  0  0  0  0
  149.9307  136.8367  158.3280 C   0  0  0  0  0  0  0  0  0  0  0  0
  148.4079  136.7454  158.5097 C   0  0  0  0  0  0  0  0  0  0  0  0
  148.0539  135.8756  159.6346 N   0  0  0  0  0  0  0  0  0  0  0  0
  147.5985  136.3180  160.8137 C   0  0  0  0  0  0  0  0  0  0  0  0
  147.4047  137.4858  161.1494 O   0  0  0  0  0  0  0  0  0  0  0  0
  147.3575  135.1251  161.7129 C   0  0  0  0  0  0  0  0  0  0  0  0
  147.7723  134.0681  160.8155 N   0  0  0  0  0  0  0  0  0  0  0  0
  148.1711  134.5353  159.6253 C   0  0  0  0  0  0  0  0  0  0  0  0
  148.5791  133.8455  158.6923 O   0  0  0  0  0  0  0  0  0  0  0  0
  150.5515  138.1322  154.7661 C   0  0  2  0  0  0  0  0  0  0  0  0
  152.0769  138.3186  154.8859 C   0  0  0  0  0  0  0  0  0  0  0  0
  149.8882  139.4304  154.7695 N   0  0  0  0  0  0  0  0  0  0  0  0
  148.5454  139.7040  154.6070 C   0  0  0  0  0  0  0  0  0  0  0  0
  148.3915  141.0582  154.6854 C   0  0  0  0  0  0  0  0  0  0  0  0
  149.7140  141.5372  154.8979 C   0  0  0  0  0  0  0  0  0  0  0  0
  150.6070  140.5620  154.9490 N   0  0  0  0  0  0  0  0  0  0  0  0
  150.2785  135.2886  154.7629 H   0  0  0  0  0  0  0  0  0  0  0  0
  150.1173  135.0775  156.4862 H   0  0  0  0  0  0  0  0  0  0  0  0
  151.6158  135.7196  155.8226 H   0  0  0  0  0  0  0  0  0  0  0  0
  148.8976  137.1374  155.7219 H   0  0  0  0  0  0  0  0  0  0  0  0
  151.2452  137.9725  157.2447 H   0  0  0  0  0  0  0  0  0  0  0  0
  150.3436  135.8436  158.1451 H   0  0  0  0  0  0  0  0  0  0  0  0
  150.3885  137.2145  159.2421 H   0  0  0  0  0  0  0  0  0  0  0  0
  147.9912  137.7419  158.6676 H   0  0  0  0  0  0  0  0  0  0  0  0
  147.9442  136.3741  157.5938 H   0  0  0  0  0  0  0  0  0  0  0  0
  147.9790  135.1616  162.6080 H   0  0  0  0  0  0  0  0  0  0  0  0
  146.3059  135.0317  161.9858 H   0  0  0  0  0  0  0  0  0  0  0  0
  147.7598  133.0916  161.0733 H   0  0  0  0  0  0  0  0  0  0  0  0
  150.3528  137.6876  153.7894 H   0  0  0  0  0  0  0  0  0  0  0  0
  152.6091  137.3760  154.7593 H   0  0  0  0  0  0  0  0  0  0  0  0
  152.3560  138.7274  155.8576 H   0  0  0  0  0  0  0  0  0  0  0  0
  152.4469  139.0023  154.1212 H   0  0  0  0  0  0  0  0  0  0  0  0
  147.8177  138.9210  154.4518 H   0  0  0  0  0  0  0  0  0  0  0  0
  147.4738  141.6215  154.6021 H   0  0  0  0  0  0  0  0  0  0  0  0
  150.0492  142.5571  155.0164 H   0  0  0  0  0  0  0  0  0  0  0  0
  149.7176  138.5615  157.3014 H   0  0  0  0  0  0  0  0  0  0  0  0
  1  2  1  0  0  0  0
  1 20  1  0  0  0  0
  1 21  1  0  0  0  0
  1 22  1  0  0  0  0
  2  3  1  0  0  0  0
  2 13  1  0  0  0  0
  2 23  1  0  0  0  0
  3  4  1  0  0  0  0
  3 24  1  0  0  0  0
  3 39  1  0  0  0  0
  4  5  1  0  0  0  0
  4 25  1  0  0  0  0
  4 26  1  0  0  0  0
  5  6  1  0  0  0  0
  5 27  1  0  0  0  0
  5 28  1  0  0  0  0
  6 11  1  0  0  0  0
  6  7  1  0  0  0  0
  7  8  2  0  0  0  0
  7  9  1  0  0  0  0
  9 10  1  0  0  0  0
  9 29  1  0  0  0  0
  9 30  1  0  0  0  0
 10 11  1  0  0  0  0
 10 31  1  0  0  0  0
 11 12  2  0  0  0  0
 13 14  1  0  0  0  0
 13 15  1  0  0  0  0
 13 32  1  0  0  0  0
 14 33  1  0  0  0  0
 14 34  1  0  0  0  0
 14 35  1  0  0  0  0
 15 19  1  0  0  0  0
 15 16  1  0  0  0  0
 16 17  2  0  0  0  0
 16 36  1  0  0  0  0
 17 18  1  0  0  0  0
 17 37  1  0  0  0  0
 18 19  2  0  0  0  0
 18 38  1  0  0  0  0
M  CHG  1   3   1
M  END
> <s_m_source_file>
AV-unprocessed.smi

> <i_m_source_file_index>
3330

> <i_lp_mmshare_version>
43012

> <i_f3d_flags>
0

> <s_epik_input>
bjFbY0hdW2NIXVtjSF1uMVtDQEBIXShbQ0gzXSlbQ0BIXShbQ0gzXSlbTkhdW0NIMl1bQ0gyXU4yQyg9TylbQ0gyXVtOSF1DMj1P

> <s_epik_cmdline>
J2VwaWtfcHl0aG9uJywgJy1waCcsICc3LjAnLCAnLXRuJywgJzgnLCAnLW1hJywgJzIwMCcsICctbWV0YWxfYmluZGluZycsICctaW1hZScsICc8aW5maWxlLm1hZT4nLCAnLW9tYWUnLCAnPG91dGZpbGUubWFlPic=

> <r_lp_tautomer_probability>
1

> <r_epik_Ionization_Penalty>
0.0124905

> <r_epik_Ionization_Penalty_Charging>
0.0123685

> <r_epik_Ionization_Penalty_Neutral>
0.000122059

> <r_epik_State_Penalty>
0.00957041

> <r_epik_Charging_Adjusted_Penalty>
0.0219389

> <i_epik_Tot_Q>
1

> <i_epik_Tot_abs_Q>
1

> <r_epik_Metal_State_Penalty>
0.0858301

> <b_epik_Metal_Only>
0

> <s_lp_Force_Field>
OPLS_2005

> <r_lp_Energy>
24.6959

> <b_lp_Chiralities_Consistent>
1

> <s_lp_Variant>
AV-unprocessed.smi:3330-2

> <Gold.Version>
5.8.1

> <Gold.Id.Protein>
6NUR|6NUR_protein|mol2

> <Gold.PLP.Fitness>
43.6383

> <Gold.PLP.PLP>
-30.0293

> <Gold.PLP.part.hbond>
-3.9128

> <Gold.PLP.part.metal>
0.0000

> <Gold.PLP.part.buried>
-2.9577

> <Gold.PLP.part.nonpolar>
-23.2524

> <Gold.PLP.part.repulsive>
0.1663

> <Gold.PLP.ligand.clash>
0.0000

> <Gold.PLP.ligand.torsion>
0.2815

> <Gold.PLP.Chemscore.Hbond>
3.6873

> <Gold.PLP.Chemscore.CHOScore>
1.0000

> <Gold.PLP.Chemscore.Metal>
0.0000

> <Gold.Chemscore.Hbonds>
donor molecule, donor type, donor heavy atom, donor atom, acceptor molecule, acceptor atom, score
      P1  H  6896  6909       L1    12  0.38
      P1  H  6931  6943       L1     8  0.72
      P1  H  6934  6947       L1     8  0.98
      P1  H  7989  7998       L1    19  0.99
      L1  C    18    38       P1  8028  1.00

> <Gold.PLP.Chemscore.Internal.Correction>
0.1101

> <Gold.Rescore>
     Score         DG    S(hbond)    S(metal)    S(lipo)     H(rot)  DE(clash)    DE(int)     intcor
     13.09     -13.57       2.57        0.00      53.99       2.67       0.12       0.36       ----

> <Gold.Chemscore.Fitness>
13.0879

> <Gold.Chemscore.DG>
-13.5703

> <Gold.Chemscore.ZeroCoef>
-5.4800

> <Gold.Chemscore.Hbond>
2.5747

> <Gold.Chemscore.Metal>
0.0000

> <Gold.Chemscore.Lipo>
53.9942

> <Gold.Chemscore.Internal_Hbond>
0.0000

> <Gold.Chemscore.DEClash>
0.1223

> <Gold.Chemscore.DEInternal>
0.3600

> <Gold.Chemscore.Rot>
2.6666

> <Gold.Chemscore.Internal.Correction>
   9.000000E+99

> <Gold.Chemscore.Hbonds>
donor molecule, donor type, donor heavy atom, donor atom, acceptor molecule, acceptor atom, score
      P1  H  6896  6909       L1    12  0.05
      P1  H  6931  6943       L1     8  0.56
      P1  H  6934  6947       L1     8  0.90
      P1  H  7989  7998       L1    19  0.24

> <Gold.Chemscore.Hbond.Weighted>
-8.5994

> <Gold.Chemscore.Metal.Weighted>
-0.0000

> <Gold.Chemscore.Lipo.Weighted>
-6.3173

> <Gold.Chemscore.Internal_Hbond.Weighted>
0.0000

> <Gold.Chemscore.DEClash.Weighted>
0.1223

> <Gold.Chemscore.DEInternal.Weighted>
0.3600

> <Gold.Chemscore.Rot.Weighted>
6.8265

> <Gold.Chemscore.Internal.Correction.Weighted>
   9.000000E+99

> <Gold.Protein.RotatedTorsions>
[ 6907 6896 6895 6894 ] final    3.47 input  -60.11 | X-H torsion
[ 7974 7965 7964 7962 ] final  -14.54 input  175.53 | X-H torsion
[ 8008 7997 7996 7995 ] final  -34.92 input   59.86 | X-H torsion
[ 10167 10162 10161 10158 ] final  132.44 input  -65.29 | X-H torsion
[ 10718 10713 10712 10709 ] final  168.85 input   66.30 | X-H torsion
[ 10763 10752 10751 10750 ] final  -55.87 input  -60.55 | X-H torsion
[ 11005 11000 10999 10996 ] final  -35.74 input  -57.11 | X-H torsion

> <Gold.Protein.ActiveResidues>
 VAL166  LYS551  ARG553  GLY616  TRP617  ASP618  TYR619  PRO620  LYS621  CYS622 
 ASP623  PHE694  ASN695  SER759  ASP760  ASP761  ALA762  ILE779  LEU786  VAL792 
 PHE793  MET794  SER795  GLU796  ALA797  LYS798  CYS799  TRP800  GLU811  SER814 

> <Gold.Protein.RotatedAtoms>
  151.6256  135.1028  160.0110 H   0  0  0  0  0  0  0  0  0  0  0  0  # atno 6907 bound_to 6896
  152.4134  133.6996  159.6426 H   0  0  0  0  0  0  0  0  0  0  0  0  # atno 6908 bound_to 6896
  150.8023  133.8500  159.3243 H   0  0  0  0  0  0  0  0  0  0  0  0  # atno 6909 bound_to 6896
  146.2070  140.3363  142.8404 H   0  0  0  0  0  0  0  0  0  0  0  0  # atno 7974 bound_to 7965
  154.4108  140.1671  156.2128 H   0  0  0  0  0  0  0  0  0  0  0  0  # atno 8008 bound_to 7997
  155.9430  140.3406  155.6320 H   0  0  0  0  0  0  0  0  0  0  0  0  # atno 8009 bound_to 7997
  155.6966  140.0740  157.2418 H   0  0  0  0  0  0  0  0  0  0  0  0  # atno 8010 bound_to 7997
  139.5340  144.6662  151.4851 H   0  0  0  0  0  0  0  0  0  0  0  0  # atno 10167 bound_to 10162
  157.0311  131.0260  151.2744 H   0  0  0  0  0  0  0  0  0  0  0  0  # atno 10718 bound_to 10713
  154.1976  135.6416  153.5077 H   0  0  0  0  0  0  0  0  0  0  0  0  # atno 10763 bound_to 10752
  153.0020  135.5443  154.6349 H   0  0  0  0  0  0  0  0  0  0  0  0  # atno 10764 bound_to 10752
  154.5754  135.2920  155.0759 H   0  0  0  0  0  0  0  0  0  0  0  0  # atno 10765 bound_to 10752
  140.9820  133.7051  156.1699 H   0  0  0  0  0  0  0  0  0  0  0  0  # atno 11005 bound_to 11000
  144.8817  140.7409  143.5982 LP  0  0  0  0  0  0  0  0  0  0  0  0  # atno 17320 bound_to 7965
  145.3283  139.1767  143.4550 LP  0  0  0  0  0  0  0  0  0  0  0  0  # atno 17321 bound_to 7965
  140.6535  143.8647  150.6810 LP  0  0  0  0  0  0  0  0  0  0  0  0  # atno 17342 bound_to 10162
  140.2019  143.3952  152.1785 LP  0  0  0  0  0  0  0  0  0  0  0  0  # atno 17343 bound_to 10162
  157.5177  130.7978  149.7774 LP  0  0  0  0  0  0  0  0  0  0  0  0  # atno 17370 bound_to 10713
  156.0069  130.3851  150.2399 LP  0  0  0  0  0  0  0  0  0  0  0  0  # atno 17371 bound_to 10713
  140.7172  134.4397  157.5577 LP  0  0  0  0  0  0  0  0  0  0  0  0  # atno 17394 bound_to 11000
  139.8954  134.8684  156.2133 LP  0  0  0  0  0  0  0  0  0  0  0  0  # atno 17395 bound_to 11000

$$$$
