AV-unprocessed.smi:195|AV-procd|sdf|1526|dock2
  -GOLD-   2262019373D 1   1.00000     0.00000
 Structure written by MMmdl.
 45 48  0  0  0  0  0  0  0  0  1 V2000
  148.0449  135.1796  159.1532 N   0  0  0  0  0  0  0  0  0  0  0  0
  148.2321  135.7402  158.1587 C   0  0  0  0  0  0  0  0  0  0  0  0
  148.4694  136.4523  156.8931 C   0  0  0  0  0  0  0  0  0  0  0  0
  149.0574  135.5623  155.7941 C   0  0  0  0  0  0  0  0  0  0  0  0
  148.0027  134.6981  155.4263 O   0  0  0  0  0  0  0  0  0  0  0  0
  149.7648  136.2588  154.6277 C   0  0  0  0  0  0  0  0  0  0  0  0
  151.0350  135.9126  155.2607 N   0  0  0  0  0  0  0  0  0  0  0  0
  151.6481  137.0042  155.9528 C   0  0  0  0  0  0  0  0  0  0  0  0
  152.6800  136.7946  156.8149 N   0  0  0  0  0  0  0  0  0  0  0  0
  153.2601  137.8094  157.4621 C   0  0  0  0  0  0  0  0  0  0  0  0
  152.9802  139.1108  157.3914 N   0  0  0  0  0  0  0  0  0  0  0  0
  151.9632  139.3422  156.5149 C   0  0  0  0  0  0  0  0  0  0  0  0
  151.2562  138.3610  155.7628 C   0  0  0  0  0  0  0  0  0  0  0  0
  150.2949  138.9792  154.9711 N   0  0  0  0  0  0  0  0  0  0  0  0
  150.4213  140.2493  155.2452 C   0  0  0  0  0  0  0  0  0  0  0  0
  151.3979  140.5548  156.1650 N   0  0  0  0  0  0  0  0  0  0  0  0
  151.7532  141.8741  156.6573 C   0  0  0  0  0  0  0  0  0  0  0  0
  151.8161  141.9277  158.1968 C   0  0  2  0  0  0  0  0  0  0  0  0
  150.5125  141.7536  158.7193 O   0  0  0  0  0  0  0  0  0  0  0  0
  152.3865  143.2613  158.7147 C   0  0  1  0  0  0  0  0  0  0  0  0
  151.6467  144.5027  158.2100 C   0  0  0  0  0  0  0  0  0  0  0  0
  151.9493  145.5066  159.2979 C   0  0  0  0  0  0  0  0  0  0  0  0
  151.8718  144.6345  160.5459 C   0  0  0  0  0  0  0  0  0  0  0  0
  152.2802  143.3320  160.1361 O   0  0  0  0  0  0  0  0  0  0  0  0
  150.3973  134.8698  156.0651 C   0  0  0  0  0  0  0  0  0  0  0  0
  147.5268  136.8996  156.5761 H   0  0  0  0  0  0  0  0  0  0  0  0
  149.1384  137.2817  157.1213 H   0  0  0  0  0  0  0  0  0  0  0  0
  148.1760  133.8625  155.8325 H   0  0  0  0  0  0  0  0  0  0  0  0
  149.6352  135.7481  153.6726 H   0  0  0  0  0  0  0  0  0  0  0  0
  149.5497  137.3253  154.5494 H   0  0  0  0  0  0  0  0  0  0  0  0
  154.0643  137.5389  158.1307 H   0  0  0  0  0  0  0  0  0  0  0  0
  149.7986  141.0023  154.7841 H   0  0  0  0  0  0  0  0  0  0  0  0
  152.7188  142.1442  156.2283 H   0  0  0  0  0  0  0  0  0  0  0  0
  151.0306  142.5973  156.2763 H   0  0  0  0  0  0  0  0  0  0  0  0
  152.4365  141.1074  158.5606 H   0  0  0  0  0  0  0  0  0  0  0  0
  150.2854  140.8382  158.6589 H   0  0  0  0  0  0  0  0  0  0  0  0
  153.4440  143.3470  158.4583 H   0  0  0  0  0  0  0  0  0  0  0  0
  151.9822  144.8275  157.2247 H   0  0  0  0  0  0  0  0  0  0  0  0
  150.5722  144.3195  158.1619 H   0  0  0  0  0  0  0  0  0  0  0  0
  152.9589  145.9010  159.1743 H   0  0  0  0  0  0  0  0  0  0  0  0
  151.2526  146.3449  159.3178 H   0  0  0  0  0  0  0  0  0  0  0  0
  152.4939  145.0123  161.3578 H   0  0  0  0  0  0  0  0  0  0  0  0
  150.8436  144.5763  160.9057 H   0  0  0  0  0  0  0  0  0  0  0  0
  150.6794  134.8081  157.1158 H   0  0  0  0  0  0  0  0  0  0  0  0
  150.4770  133.8946  155.5823 H   0  0  0  0  0  0  0  0  0  0  0  0
  1  2  3  0  0  0  0
  2  3  1  0  0  0  0
  3  4  1  0  0  0  0
  3 26  1  0  0  0  0
  3 27  1  0  0  0  0
  4 25  1  0  0  0  0
  4  5  1  0  0  0  0
  4  6  1  0  0  0  0
  5 28  1  0  0  0  0
  6  7  1  0  0  0  0
  6 29  1  0  0  0  0
  6 30  1  0  0  0  0
  7  8  1  0  0  0  0
  7 25  1  0  0  0  0
  8 13  1  0  0  0  0
  8  9  2  0  0  0  0
  9 10  1  0  0  0  0
 10 11  2  0  0  0  0
 10 31  1  0  0  0  0
 11 12  1  0  0  0  0
 12 16  1  0  0  0  0
 12 13  2  0  0  0  0
 13 14  1  0  0  0  0
 14 15  2  0  0  0  0
 15 16  1  0  0  0  0
 15 32  1  0  0  0  0
 16 17  1  0  0  0  0
 17 18  1  0  0  0  0
 17 33  1  0  0  0  0
 17 34  1  0  0  0  0
 18 19  1  0  0  0  0
 18 20  1  0  0  0  0
 18 35  1  0  0  0  0
 19 36  1  0  0  0  0
 20 24  1  0  0  0  0
 20 21  1  0  0  0  0
 20 37  1  0  0  0  0
 21 22  1  0  0  0  0
 21 38  1  0  0  0  0
 21 39  1  0  0  0  0
 22 23  1  0  0  0  0
 22 40  1  0  0  0  0
 22 41  1  0  0  0  0
 23 24  1  0  0  0  0
 23 42  1  0  0  0  0
 23 43  1  0  0  0  0
 25 44  1  0  0  0  0
 25 45  1  0  0  0  0
M  END
> <s_m_source_file>
AV-unprocessed.smi

> <i_m_source_file_index>
195

> <i_lp_mmshare_version>
43012

> <i_f3d_flags>
0

> <s_epik_input>
TiNDW0NIMl1DMShbT0hdKVtDSDJdTihbQ0gyXTEpYyhuW2NIXW4yKWMoYzIzKW5bY0hdbjNbQ0gyXVtDQEhdKFtPSF0pW0NAQEhdNFtDSDJdW0NIMl1bQ0gyXU80

> <s_epik_cmdline>
J2VwaWtfcHl0aG9uJywgJy1waCcsICc3LjAnLCAnLXRuJywgJzgnLCAnLW1hJywgJzIwMCcsICctbWV0YWxfYmluZGluZycsICctaW1hZScsICc8aW5maWxlLm1hZT4nLCAnLW9tYWUnLCAnPG91dGZpbGUubWFlPic=

> <r_lp_tautomer_probability>
1

> <r_epik_Ionization_Penalty>
0.00307146

> <r_epik_Ionization_Penalty_Charging>
0

> <r_epik_Ionization_Penalty_Neutral>
0.00307146

> <r_epik_State_Penalty>
0.0020279

> <r_epik_Charging_Adjusted_Penalty>
0.0020279

> <i_epik_Tot_Q>
0

> <i_epik_Tot_abs_Q>
0

> <r_epik_Metal_State_Penalty>
-0

> <b_epik_Metal_Only>
0

> <s_lp_Force_Field>
OPLS_2005

> <r_lp_Energy>
44.1004

> <b_lp_Chiralities_Consistent>
1

> <s_lp_Variant>
AV-unprocessed.smi:195-3

> <Gold.Version>
5.8.1

> <Gold.Id.Protein>
6NUR|6NUR_protein|mol2

> <Gold.PLP.Fitness>
43.6269

> <Gold.PLP.PLP>
-36.0396

> <Gold.PLP.part.hbond>
-4.3928

> <Gold.PLP.part.metal>
0.0000

> <Gold.PLP.part.buried>
-3.2438

> <Gold.PLP.part.nonpolar>
-29.5400

> <Gold.PLP.part.repulsive>
0.2414

> <Gold.PLP.ligand.clash>
0.0000

> <Gold.PLP.ligand.torsion>
0.4627

> <Gold.PLP.Chemscore.Hbond>
2.7200

> <Gold.PLP.Chemscore.CHOScore>
0.0000

> <Gold.PLP.Chemscore.Metal>
0.0000

> <Gold.Chemscore.Hbonds>
donor molecule, donor type, donor heavy atom, donor atom, acceptor molecule, acceptor atom, score
      P1  H  7997  8008       L1    11  0.95
      P1  H 10752 10764       L1     9  0.22

> <Gold.PLP.Chemscore.Internal.Correction>
0.3527

> <Gold.Rescore>
     Score         DG    S(hbond)    S(metal)    S(lipo)     H(rot)  DE(clash)    DE(int)     intcor
      8.98     -12.79       2.09        0.00      84.39       3.72       1.87       1.94       ----

> <Gold.Chemscore.Fitness>
8.9828

> <Gold.Chemscore.DG>
-12.7942

> <Gold.Chemscore.ZeroCoef>
-5.4800

> <Gold.Chemscore.Hbond>
2.0857

> <Gold.Chemscore.Metal>
0.0000

> <Gold.Chemscore.Lipo>
84.3884

> <Gold.Chemscore.Internal_Hbond>
0.0000

> <Gold.Chemscore.DEClash>
1.8700

> <Gold.Chemscore.DEInternal>
1.9414

> <Gold.Chemscore.Rot>
3.7210

> <Gold.Chemscore.Internal.Correction>
   9.000000E+99

> <Gold.Chemscore.Hbonds>
donor molecule, donor type, donor heavy atom, donor atom, acceptor molecule, acceptor atom, score
      P1  H  7997  8008       L1    11  0.17
      P1  H 10752 10764       L1     9  0.01

> <Gold.Chemscore.Hbond.Weighted>
-6.9664

> <Gold.Chemscore.Metal.Weighted>
-0.0000

> <Gold.Chemscore.Lipo.Weighted>
-9.8734

> <Gold.Chemscore.Internal_Hbond.Weighted>
0.0000

> <Gold.Chemscore.DEClash.Weighted>
1.8700

> <Gold.Chemscore.DEInternal.Weighted>
1.9414

> <Gold.Chemscore.Rot.Weighted>
9.5256

> <Gold.Chemscore.Internal.Correction.Weighted>
   9.000000E+99

> <Gold.Protein.RotatedTorsions>
[ 6907 6896 6895 6894 ] final  -79.57 input  -60.11 | X-H torsion
[ 7974 7965 7964 7962 ] final  -24.05 input  175.53 | X-H torsion
[ 8008 7997 7996 7995 ] final  -50.31 input   59.86 | X-H torsion
[ 10167 10162 10161 10158 ] final    3.00 input  -65.29 | X-H torsion
[ 10718 10713 10712 10709 ] final -118.96 input   66.30 | X-H torsion
[ 10763 10752 10751 10750 ] final    2.14 input  -60.55 | X-H torsion
[ 11005 11000 10999 10996 ] final   83.45 input  -57.11 | X-H torsion

> <Gold.Protein.ActiveResidues>
 VAL166  LYS551  ARG553  GLY616  TRP617  ASP618  TYR619  PRO620  LYS621  CYS622 
 ASP623  PHE694  ASN695  SER759  ASP760  ASP761  ALA762  ILE779  LEU786  VAL792 
 PHE793  MET794  SER795  GLU796  ALA797  LYS798  CYS799  TRP800  GLU811  SER814 

> <Gold.Protein.RotatedAtoms>
  150.6947  134.4102  159.5157 H   0  0  0  0  0  0  0  0  0  0  0  0  # atno 6907 bound_to 6896
  152.1861  134.8709  160.0531 H   0  0  0  0  0  0  0  0  0  0  0  0  # atno 6908 bound_to 6896
  151.9682  133.3682  159.4098 H   0  0  0  0  0  0  0  0  0  0  0  0  # atno 6909 bound_to 6896
  146.1578  140.4699  142.8584 H   0  0  0  0  0  0  0  0  0  0  0  0  # atno 7974 bound_to 7965
  154.4059  140.1275  156.4644 H   0  0  0  0  0  0  0  0  0  0  0  0  # atno 8008 bound_to 7997
  155.7241  140.3492  155.5009 H   0  0  0  0  0  0  0  0  0  0  0  0  # atno 8009 bound_to 7997
  155.9187  140.1049  157.1213 H   0  0  0  0  0  0  0  0  0  0  0  0  # atno 8010 bound_to 7997
  140.6607  143.7310  150.7734 H   0  0  0  0  0  0  0  0  0  0  0  0  # atno 10167 bound_to 10162
  156.1145  130.6275  150.9356 H   0  0  0  0  0  0  0  0  0  0  0  0  # atno 10718 bound_to 10713
  153.2993  135.6954  153.7218 H   0  0  0  0  0  0  0  0  0  0  0  0  # atno 10763 bound_to 10752
  153.6138  135.3439  155.2988 H   0  0  0  0  0  0  0  0  0  0  0  0  # atno 10764 bound_to 10752
  154.8546  135.4370  154.2099 H   0  0  0  0  0  0  0  0  0  0  0  0  # atno 10765 bound_to 10752
  139.9031  134.8145  156.2311 H   0  0  0  0  0  0  0  0  0  0  0  0  # atno 11005 bound_to 11000
  144.7987  140.6172  143.6493 LP  0  0  0  0  0  0  0  0  0  0  0  0  # atno 17320 bound_to 7965
  145.4663  139.1507  143.3838 LP  0  0  0  0  0  0  0  0  0  0  0  0  # atno 17321 bound_to 7965
  140.0979  143.4816  152.2442 LP  0  0  0  0  0  0  0  0  0  0  0  0  # atno 17342 bound_to 10162
  139.5841  144.7523  151.3566 LP  0  0  0  0  0  0  0  0  0  0  0  0  # atno 17343 bound_to 10162
  157.6328  131.0919  150.8408 LP  0  0  0  0  0  0  0  0  0  0  0  0  # atno 17370 bound_to 10713
  156.8514  130.5081  149.5311 LP  0  0  0  0  0  0  0  0  0  0  0  0  # atno 17371 bound_to 10713
  141.0345  133.6971  156.1488 LP  0  0  0  0  0  0  0  0  0  0  0  0  # atno 17394 bound_to 11000
  140.7048  134.4525  157.5584 LP  0  0  0  0  0  0  0  0  0  0  0  0  # atno 17395 bound_to 11000

$$$$
