#       Name:                AV-unprocessed.smi:2078
#       Creating user name   scv26
#       Creation time:       Fri Mar 27 11:17:29 2020


#       File generated by GOLD software.
#

@<TRIPOS>MOLECULE
AV-unprocessed.smi:2078
    47    48     1
SMALL
NO_CHARGES


@<TRIPOS>ATOM
      1 ****        -6.4673   5.1792   1.3151 C.3            1 S1                 0.0000
      2 ****        -5.2099   4.4081   1.0999 C.2            1 S1                 0.0000
      3 ****        -4.7003   3.2828   1.6839 C.2            1 S1                 0.0000
      4 ****        -3.4659   3.0992   1.0055 C.2            1 S1                 0.0000
      5 ****        -2.6155   2.0109   1.3345 N.am           1 S1                 0.0000
      6 ****        -1.4159   1.6909   0.8164 C.2            1 S1                 0.0000
      7 ****        -0.9234   2.3732  -0.0902 O.2            1 S1                 0.0000
      8 ****        -0.8824   0.5821   1.4000 N.pl3          1 S1                -1.0000
      9 ****         0.4274   0.0181   1.0794 C.3            1 S1                 0.0000
     10 ****         0.3303  -0.8885  -0.1639 C.3            1 S1                 0.0000
     11 ****         1.6450  -1.4957  -0.4987 N.4            1 S1                 1.0000
     12 ****         2.4016  -0.7390  -1.5340 C.3            1 S1                 0.0000
     13 ****         3.8198  -1.3055  -1.7029 C.3            1 S1                 0.0000
     14 ****         3.7771  -2.8039  -2.0351 C.3            1 S1                 0.0000
     15 ****         2.9396  -3.5831  -1.0036 C.3            1 S1                 0.0000
     16 ****         3.6620  -3.7517   0.3447 C.3            1 S1                 0.0000
     17 ****         1.5468  -2.9400  -0.8391 C.3            1 S1                 0.0000
     18 ****        -3.2438   4.0287   0.0878 N.2            1 S1                 0.0000
     19 ****        -4.3595   4.8725   0.1443 O.3            1 S1                 0.0000
     20 ****        -7.2832   4.5167   1.6044 H              1 S1                 0.0000
     21 ****        -6.7651   5.7035   0.4069 H              1 S1                 0.0000
     22 ****        -6.3352   5.9181   2.1055 H              1 S1                 0.0000
     23 ****        -5.1400   2.6885   2.4711 H              1 S1                 0.0000
     24 ****        -2.9514   1.4022   2.0660 H              1 S1                 0.0000
     25 ****         1.1769   0.7911   0.9040 H              1 S1                 0.0000
     26 ****         0.8129  -0.5719   1.9112 H              1 S1                 0.0000
     27 ****        -0.4005  -1.6718   0.0437 H              1 S1                 0.0000
     28 ****        -0.0574  -0.3391  -1.0236 H              1 S1                 0.0000
     29 ****         1.8641  -0.7817  -2.4826 H              1 S1                 0.0000
     30 ****         2.4674   0.3140  -1.2572 H              1 S1                 0.0000
     31 ****         4.3428  -0.7659  -2.4929 H              1 S1                 0.0000
     32 ****         4.3931  -1.1409  -0.7901 H              1 S1                 0.0000
     33 ****         3.3383  -2.9352  -3.0251 H              1 S1                 0.0000
     34 ****         4.7881  -3.2087  -2.0939 H              1 S1                 0.0000
     35 ****         2.7908  -4.5885  -1.3994 H              1 S1                 0.0000
     36 ****         3.8274  -2.7954   0.8412 H              1 S1                 0.0000
     37 ****         4.6332  -4.2291   0.2125 H              1 S1                 0.0000
     38 ****         3.0803  -4.3763   1.0232 H              1 S1                 0.0000
     39 ****         0.9937  -3.4691  -0.0613 H              1 S1                 0.0000
     40 ****         0.9729  -3.0497  -1.7607 H              1 S1                 0.0000
     41 ****         2.1865  -1.4488   0.3526 H              1 S1                 0.0000
     42 ****        -1.4174   3.1681  -0.4424 LP             1 S1                 0.0000
     43 ****        -0.0313   2.1298  -0.4709 LP             1 S1                 0.0000
     44 ****        -1.4271   0.1196   2.0996 LP             1 S1                 0.0000
     45 ****        -2.4503   4.1100  -0.5152 LP             1 S1                 0.0000
     46 ****        -4.0681   5.8007   0.3756 LP             1 S1                 0.0000
     47 ****        -4.8214   4.8794  -0.7426 LP             1 S1                 0.0000
@<TRIPOS>BOND
    1    1    2 1     
    2    1   20 1     
    3    1   21 1     
    4    1   22 1     
    5    2   19 1     
    6    2    3 2     
    7    3    4 1     
    8    3   23 1     
    9    4    5 1     
   10    4   18 2     
   11    5    6 am    
   12    5   24 1     
   13    6    7 2     
   14    6    8 1     
   15    8    9 1     
   16    9   10 1     
   17    9   25 1     
   18    9   26 1     
   19   10   11 1     
   20   10   27 1     
   21   10   28 1     
   22   11   17 1     
   23   11   12 1     
   24   11   41 1     
   25   12   13 1     
   26   12   29 1     
   27   12   30 1     
   28   13   14 1     
   29   13   31 1     
   30   13   32 1     
   31   14   15 1     
   32   14   33 1     
   33   14   34 1     
   34   15   16 1     
   35   15   17 1     
   36   15   35 1     
   37   16   36 1     
   38   16   37 1     
   39   16   38 1     
   40   17   39 1     
   41   17   40 1     
   42   18   19 1     
   43    7   42 1     
   44    7   43 1     
   45    8   44 1     
   46   18   45 1     
   47   19   46 1     
   48   19   47 1     
@<TRIPOS>SUBSTRUCTURE
      1 S1             1
@<TRIPOS>SET
LONE_PAIRS      STATIC     ATOMS    <user>   **** ""
6 42 43 44 45 46 47
DONOR_HYDROGENS      STATIC     ATOMS    <user>   **** ""
2 24 41
ATOM$BLUE        STATIC     ATOMS    COLORGROUP SYSTEM
6 42 43 44 45 46 47
ATOM$RED        STATIC     ATOMS    COLORGROUP SYSTEM
2 24 41
