AV-unprocessed.smi:193|AV-procd|sdf|1502|dock3
  -GOLD-   2262019333D 1   1.00000     0.00000
 Structure written by MMmdl.
 62 66  0  0  0  0  0  0  0  0  2 V2000
  146.9777  142.8828  153.8088 C   0  0  0  0  0  0  0  0  0  0  0  0
  147.8313  141.6392  154.1007 C   0  0  2  0  0  0  0  0  0  0  0  0
  146.9703  140.5183  154.7144 C   0  0  0  0  0  0  0  0  0  0  0  0
  147.4902  139.1925  154.3846 N   0  0  0  0  0  0  0  0  0  0  0  0
  146.5356  138.2393  154.4098 C   0  0  0  0  0  0  0  0  0  0  0  0
  146.0025  137.9191  155.6137 N   0  0  0  0  0  0  0  0  0  0  0  0
  145.0562  136.9777  155.6926 C   0  0  0  0  0  0  0  0  0  0  0  0
  144.5131  136.2546  154.7101 N   0  0  0  0  0  0  0  0  0  0  0  0
  145.0493  136.5790  153.4982 C   0  0  0  0  0  0  0  0  0  0  0  0
  146.0589  137.5519  153.2593 C   0  0  0  0  0  0  0  0  0  0  0  0
  146.3567  137.6084  151.9032 N   0  0  0  0  0  0  0  0  0  0  0  0
  145.5636  136.7192  151.3692 C   0  0  0  0  0  0  0  0  0  0  0  0
  144.7406  136.0584  152.2537 N   0  0  0  0  0  0  0  0  0  0  0  0
  143.7636  135.0289  151.9319 C   0  0  0  0  0  0  0  0  0  0  0  0
  144.3681  133.7887  151.2280 C   0  0  0  0  0  0  0  0  0  0  0  0
  144.1686  133.9464  149.8336 O   0  0  0  0  0  0  0  0  0  0  0  0
  145.8845  133.7013  151.4952 C   0  0  0  0  0  0  0  0  0  0  0  0
  146.4947  132.3942  150.9575 C   0  0  0  0  0  0  0  0  0  0  0  0
  145.8079  131.2753  151.5042 O   0  0  0  0  0  0  0  0  0  0  0  0
  144.4374  131.2332  151.1266 C   0  0  0  0  0  0  0  0  0  0  0  0
  143.6991  132.4689  151.6709 C   0  0  0  0  0  0  0  0  0  0  0  0
  148.7392  138.7375  154.9879 C   0  0  0  0  0  0  0  0  0  0  0  0
  149.9173  139.6978  154.7647 C   0  0  0  0  0  0  0  0  0  0  0  0
  149.7699  140.9044  155.6137 N   0  3  1  0  0  0  0  0  0  0  0  0
  151.0577  141.3398  156.2038 C   0  0  1  0  0  0  0  0  0  0  0  0
  150.9548  141.7841  157.6456 C   0  0  0  0  0  0  0  0  0  0  0  0
  151.5903  140.4514  157.3139 C   0  0  1  0  0  0  0  0  0  0  0  0
  150.9207  139.1582  157.7422 C   0  0  0  0  0  0  0  0  0  0  0  0
  149.0487  142.0340  154.9699 C   0  0  0  0  0  0  0  0  0  0  0  0
  146.5444  143.2915  154.7222 H   0  0  0  0  0  0  0  0  0  0  0  0
  146.1580  142.6471  153.1292 H   0  0  0  0  0  0  0  0  0  0  0  0
  147.5728  143.6680  153.3411 H   0  0  0  0  0  0  0  0  0  0  0  0
  148.1949  141.2904  153.1327 H   0  0  0  0  0  0  0  0  0  0  0  0
  146.8919  140.6397  155.7956 H   0  0  0  0  0  0  0  0  0  0  0  0
  145.9544  140.5951  154.3219 H   0  0  0  0  0  0  0  0  0  0  0  0
  144.6807  136.7738  156.6847 H   0  0  0  0  0  0  0  0  0  0  0  0
  145.5516  136.5224  150.3069 H   0  0  0  0  0  0  0  0  0  0  0  0
  143.2615  134.7349  152.8548 H   0  0  0  0  0  0  0  0  0  0  0  0
  142.9954  135.4781  151.3010 H   0  0  0  0  0  0  0  0  0  0  0  0
  144.9779  134.2448  149.4475 H   0  0  0  0  0  0  0  0  0  0  0  0
  146.4005  134.5602  151.0637 H   0  0  0  0  0  0  0  0  0  0  0  0
  146.0644  133.7469  152.5701 H   0  0  0  0  0  0  0  0  0  0  0  0
  146.4591  132.3610  149.8676 H   0  0  0  0  0  0  0  0  0  0  0  0
  147.5458  132.3310  151.2393 H   0  0  0  0  0  0  0  0  0  0  0  0
  144.3496  131.1694  150.0410 H   0  0  0  0  0  0  0  0  0  0  0  0
  143.9902  130.3254  151.5317 H   0  0  0  0  0  0  0  0  0  0  0  0
  143.6952  132.4170  152.7604 H   0  0  0  0  0  0  0  0  0  0  0  0
  142.6547  132.4370  151.3588 H   0  0  0  0  0  0  0  0  0  0  0  0
  148.5967  138.5659  156.0553 H   0  0  0  0  0  0  0  0  0  0  0  0
  148.9951  137.7700  154.5524 H   0  0  0  0  0  0  0  0  0  0  0  0
  150.8240  139.1668  155.0582 H   0  0  0  0  0  0  0  0  0  0  0  0
  150.0516  139.9545  153.7132 H   0  0  0  0  0  0  0  0  0  0  0  0
  151.7417  141.8490  155.5270 H   0  0  0  0  0  0  0  0  0  0  0  0
  151.6182  142.5814  157.9747 H   0  0  0  0  0  0  0  0  0  0  0  0
  149.9763  141.7713  158.1228 H   0  0  0  0  0  0  0  0  0  0  0  0
  152.6754  140.4124  157.3904 H   0  0  0  0  0  0  0  0  0  0  0  0
  149.8360  139.2639  157.7771 H   0  0  0  0  0  0  0  0  0  0  0  0
  151.2656  138.8740  158.7366 H   0  0  0  0  0  0  0  0  0  0  0  0
  151.1730  138.3565  157.0479 H   0  0  0  0  0  0  0  0  0  0  0  0
  149.7482  142.6003  154.3530 H   0  0  0  0  0  0  0  0  0  0  0  0
  148.7266  142.7087  155.7640 H   0  0  0  0  0  0  0  0  0  0  0  0
  149.1977  140.6117  156.3928 H   0  0  0  0  0  0  0  0  0  0  0  0
  1  2  1  0  0  0  0
  1 30  1  0  0  0  0
  1 31  1  0  0  0  0
  1 32  1  0  0  0  0
  2 29  1  0  0  0  0
  2  3  1  0  0  0  0
  2 33  1  0  0  0  0
  3  4  1  0  0  0  0
  3 34  1  0  0  0  0
  3 35  1  0  0  0  0
  4  5  1  0  0  0  0
  4 22  1  0  0  0  0
  5 10  1  0  0  0  0
  5  6  2  0  0  0  0
  6  7  1  0  0  0  0
  7  8  2  0  0  0  0
  7 36  1  0  0  0  0
  8  9  1  0  0  0  0
  9 13  1  0  0  0  0
  9 10  2  0  0  0  0
 10 11  1  0  0  0  0
 11 12  2  0  0  0  0
 12 13  1  0  0  0  0
 12 37  1  0  0  0  0
 13 14  1  0  0  0  0
 14 15  1  0  0  0  0
 14 38  1  0  0  0  0
 14 39  1  0  0  0  0
 15 21  1  0  0  0  0
 15 16  1  0  0  0  0
 15 17  1  0  0  0  0
 16 40  1  0  0  0  0
 17 18  1  0  0  0  0
 17 41  1  0  0  0  0
 17 42  1  0  0  0  0
 18 19  1  0  0  0  0
 18 43  1  0  0  0  0
 18 44  1  0  0  0  0
 19 20  1  0  0  0  0
 20 21  1  0  0  0  0
 20 45  1  0  0  0  0
 20 46  1  0  0  0  0
 21 47  1  0  0  0  0
 21 48  1  0  0  0  0
 22 23  1  0  0  0  0
 22 49  1  0  0  0  0
 22 50  1  0  0  0  0
 23 24  1  0  0  0  0
 23 51  1  0  0  0  0
 23 52  1  0  0  0  0
 24 25  1  0  0  0  0
 24 29  1  0  0  0  0
 24 62  1  0  0  0  0
 25 27  1  0  0  0  0
 25 26  1  0  0  0  0
 25 53  1  0  0  0  0
 26 27  1  0  0  0  0
 26 54  1  0  0  0  0
 26 55  1  0  0  0  0
 27 28  1  0  0  0  0
 27 56  1  0  0  0  0
 28 57  1  0  0  0  0
 28 58  1  0  0  0  0
 28 59  1  0  0  0  0
 29 60  1  0  0  0  0
 29 61  1  0  0  0  0
M  CHG  1  24   1
M  END
> <s_m_source_file>
AV-unprocessed.smi

> <i_m_source_file_index>
193

> <i_lp_mmshare_version>
43012

> <i_f3d_flags>
0

> <s_epik_input>
W0NIM11bQ0BASF0xW0NIMl1bQ0BIXTFOKFtDSDJdMilbQ0gyXVtDSDJdTihbQ0gyXVtDQEhdMltDSDNdKWMobltjSF1uMyljKGMzNCluW2NIXW40W0NIMl1DNShbT0hdKVtDSDJdW0NIMl1PW0NIMl1bQ0gyXTU=

> <s_epik_cmdline>
J2VwaWtfcHl0aG9uJywgJy1waCcsICc3LjAnLCAnLXRuJywgJzgnLCAnLW1hJywgJzIwMCcsICctbWV0YWxfYmluZGluZycsICctaW1hZScsICc8aW5maWxlLm1hZT4nLCAnLW9tYWUnLCAnPG91dGZpbGUubWFlPic=

> <r_lp_tautomer_probability>
1

> <r_epik_Ionization_Penalty>
0.0540825

> <r_epik_Ionization_Penalty_Charging>
0.0538476

> <r_epik_Ionization_Penalty_Neutral>
0.000234891

> <r_epik_State_Penalty>
0.0200719

> <r_epik_Charging_Adjusted_Penalty>
0.0739194

> <i_epik_Tot_Q>
1

> <i_epik_Tot_abs_Q>
1

> <r_epik_Metal_State_Penalty>
0.0199414

> <b_epik_Metal_Only>
0

> <s_lp_Force_Field>
OPLS_2005

> <r_lp_Energy>
58.7768

> <b_lp_Chiralities_Consistent>
1

> <s_lp_Variant>
AV-unprocessed.smi:193-7

> <Gold.Version>
5.8.1

> <Gold.Id.Protein>
6NUR|6NUR_protein|mol2

> <Gold.PLP.Fitness>
42.6233

> <Gold.PLP.PLP>
-40.2566

> <Gold.PLP.part.hbond>
-1.9924

> <Gold.PLP.part.metal>
0.0000

> <Gold.PLP.part.buried>
-0.0690

> <Gold.PLP.part.nonpolar>
-39.5270

> <Gold.PLP.part.repulsive>
0.9553

> <Gold.PLP.ligand.clash>
0.0000

> <Gold.PLP.ligand.torsion>
1.5896

> <Gold.PLP.Chemscore.Hbond>
1.0000

> <Gold.PLP.Chemscore.CHOScore>
0.3052

> <Gold.PLP.Chemscore.Metal>
0.0000

> <Gold.Chemscore.Hbonds>
donor molecule, donor type, donor heavy atom, donor atom, acceptor molecule, acceptor atom, score
      L1  H    16    40       P1  7921  0.51
      L1  C    12    37       P1 10171  0.16

> <Gold.PLP.Chemscore.Internal.Correction>
1.6304

> <Gold.Rescore>
     Score         DG    S(hbond)    S(metal)    S(lipo)     H(rot)  DE(clash)    DE(int)     intcor
     10.04     -15.70       0.98        0.00     107.46       2.20       3.71       1.95       ----

> <Gold.Chemscore.Fitness>
10.0355

> <Gold.Chemscore.DG>
-15.6998

> <Gold.Chemscore.ZeroCoef>
-5.4800

> <Gold.Chemscore.Hbond>
0.9831

> <Gold.Chemscore.Metal>
0.0000

> <Gold.Chemscore.Lipo>
107.4608

> <Gold.Chemscore.Internal_Hbond>
0.0000

> <Gold.Chemscore.DEClash>
3.7094

> <Gold.Chemscore.DEInternal>
1.9549

> <Gold.Chemscore.Rot>
2.2018

> <Gold.Chemscore.Internal.Correction>
   9.000000E+99

> <Gold.Chemscore.Hbonds>
donor molecule, donor type, donor heavy atom, donor atom, acceptor molecule, acceptor atom, score
      L1  H    16    40       P1  7921  0.48

> <Gold.Chemscore.Hbond.Weighted>
-3.2835

> <Gold.Chemscore.Metal.Weighted>
-0.0000

> <Gold.Chemscore.Lipo.Weighted>
-12.5729

> <Gold.Chemscore.Internal_Hbond.Weighted>
0.0000

> <Gold.Chemscore.DEClash.Weighted>
3.7094

> <Gold.Chemscore.DEInternal.Weighted>
1.9549

> <Gold.Chemscore.Rot.Weighted>
5.6366

> <Gold.Chemscore.Internal.Correction.Weighted>
   9.000000E+99

> <Gold.Protein.RotatedTorsions>
[ 6907 6896 6895 6894 ] final  -95.44 input  -60.11 | X-H torsion
[ 7974 7965 7964 7962 ] final   64.12 input  175.53 | X-H torsion
[ 8008 7997 7996 7995 ] final   99.21 input   59.86 | X-H torsion
[ 10167 10162 10161 10158 ] final -166.59 input  -65.29 | X-H torsion
[ 10718 10713 10712 10709 ] final  167.85 input   66.30 | X-H torsion
[ 10763 10752 10751 10750 ] final  158.48 input  -60.55 | X-H torsion
[ 11005 11000 10999 10996 ] final -132.48 input  -57.11 | X-H torsion

> <Gold.Protein.ActiveResidues>
 VAL166  LYS551  ARG553  GLY616  TRP617  ASP618  TYR619  PRO620  LYS621  CYS622 
 ASP623  PHE694  ASN695  SER759  ASP760  ASP761  ALA762  ILE779  LEU786  VAL792 
 PHE793  MET794  SER795  GLU796  ALA797  LYS798  CYS799  TRP800  GLU811  SER814 

> <Gold.Protein.RotatedAtoms>
  150.6964  134.1656  159.4192 H   0  0  0  0  0  0  0  0  0  0  0  0  # atno 6907 bound_to 6896
  151.9636  135.0109  160.0558 H   0  0  0  0  0  0  0  0  0  0  0  0  # atno 6908 bound_to 6896
  152.1905  133.4735  159.5042 H   0  0  0  0  0  0  0  0  0  0  0  0  # atno 6909 bound_to 6896
  145.8539  139.3271  143.0859 H   0  0  0  0  0  0  0  0  0  0  0  0  # atno 7974 bound_to 7965
  156.1082  140.3232  155.8036 H   0  0  0  0  0  0  0  0  0  0  0  0  # atno 8008 bound_to 7997
  155.4719  140.0547  157.2995 H   0  0  0  0  0  0  0  0  0  0  0  0  # atno 8009 bound_to 7997
  154.4742  140.2025  155.9934 H   0  0  0  0  0  0  0  0  0  0  0  0  # atno 8010 bound_to 7997
  139.6105  144.0824  152.1837 H   0  0  0  0  0  0  0  0  0  0  0  0  # atno 10167 bound_to 10162
  157.0455  131.0299  151.2699 H   0  0  0  0  0  0  0  0  0  0  0  0  # atno 10718 bound_to 10713
  154.2168  135.2784  155.2939 H   0  0  0  0  0  0  0  0  0  0  0  0  # atno 10763 bound_to 10752
  154.5734  135.5611  153.7120 H   0  0  0  0  0  0  0  0  0  0  0  0  # atno 10764 bound_to 10752
  153.0051  135.6327  154.2307 H   0  0  0  0  0  0  0  0  0  0  0  0  # atno 10765 bound_to 10752
  140.9166  134.1499  157.4347 H   0  0  0  0  0  0  0  0  0  0  0  0  # atno 11005 bound_to 11000
  145.9326  140.9037  143.0348 LP  0  0  0  0  0  0  0  0  0  0  0  0  # atno 17320 bound_to 7965
  144.6728  140.1439  143.7435 LP  0  0  0  0  0  0  0  0  0  0  0  0  # atno 17321 bound_to 7965
  140.0442  144.5984  150.7387 LP  0  0  0  0  0  0  0  0  0  0  0  0  # atno 17342 bound_to 10162
  140.7316  143.2696  151.3932 LP  0  0  0  0  0  0  0  0  0  0  0  0  # atno 17343 bound_to 10162
  157.5071  130.7915  149.7665 LP  0  0  0  0  0  0  0  0  0  0  0  0  # atno 17370 bound_to 10713
  156.0024  130.3873  150.2555 LP  0  0  0  0  0  0  0  0  0  0  0  0  # atno 17371 bound_to 10713
  139.8767  134.9956  156.5751 LP  0  0  0  0  0  0  0  0  0  0  0  0  # atno 17394 bound_to 11000
  140.8042  133.8481  155.8753 LP  0  0  0  0  0  0  0  0  0  0  0  0  # atno 17395 bound_to 11000

$$$$
