AV-unprocessed.smi:895|AV-procd|sdf|4073|dock9
  -GOLD-   22720 1563D 1   1.00000     0.00000
 Structure written by MMmdl.
 44 45  0  0  0  0  0  0  0  0  1 V2000
  144.0465  133.4950  150.7666 C   0  0  0  0  0  0  0  0  0  0  0  0
  145.3210  134.3187  151.0177 C   0  0  0  0  0  0  0  0  0  0  0  0
  146.5739  133.4623  150.7475 C   0  0  0  0  0  0  0  0  0  0  0  0
  145.2827  135.3701  150.0732 O   0  0  0  0  0  0  0  0  0  0  0  0
  145.2769  134.9403  152.4375 C   0  0  0  0  0  0  0  0  0  0  0  0
  146.3504  135.8951  152.6991 N   0  0  0  0  0  0  0  0  0  0  0  0
  146.2057  137.0605  153.3437 C   0  0  0  0  0  0  0  0  0  0  0  0
  145.1361  137.4703  153.7935 O   0  0  0  0  0  0  0  0  0  0  0  0
  147.3691  137.7198  153.4395 N   0  0  0  0  0  0  0  0  0  0  0  0
  147.5678  139.0141  154.0922 C   0  0  2  0  0  0  0  0  0  0  0  0
  146.7582  140.0762  153.3218 C   0  0  0  0  0  0  0  0  0  0  0  0
  146.9858  141.4893  153.8783 C   0  0  0  0  0  0  0  0  0  0  0  0
  148.4780  141.8477  153.8764 C   0  0  0  0  0  0  0  0  0  0  0  0
  149.2877  140.8158  154.6740 C   0  0  0  0  0  0  0  0  0  0  0  0
  149.0753  139.3837  154.1351 C   0  0  1  0  0  0  0  0  0  0  0  0
  149.8548  138.4161  154.8989 N   0  0  0  0  0  0  0  0  0  0  0  0
  150.8664  137.5939  154.4473 C   0  0  0  0  0  0  0  0  0  0  0  0
  151.2789  136.8334  155.5035 C   0  0  0  0  0  0  0  0  0  0  0  0
  150.4475  137.2641  156.5744 C   0  0  0  0  0  0  0  0  0  0  0  0
  149.5969  138.2090  156.2104 N   0  0  0  0  0  0  0  0  0  0  0  0
  143.9878  132.6435  151.4450 H   0  0  0  0  0  0  0  0  0  0  0  0
  144.0166  133.1048  149.7484 H   0  0  0  0  0  0  0  0  0  0  0  0
  143.1484  134.0960  150.9153 H   0  0  0  0  0  0  0  0  0  0  0  0
  146.6610  132.6552  151.4757 H   0  0  0  0  0  0  0  0  0  0  0  0
  147.4903  134.0516  150.7923 H   0  0  0  0  0  0  0  0  0  0  0  0
  146.5351  133.0075  149.7570 H   0  0  0  0  0  0  0  0  0  0  0  0
  145.4399  135.0075  149.2142 H   0  0  0  0  0  0  0  0  0  0  0  0
  144.3011  135.3836  152.6466 H   0  0  0  0  0  0  0  0  0  0  0  0
  145.4039  134.1476  153.1756 H   0  0  0  0  0  0  0  0  0  0  0  0
  147.2700  135.6466  152.3653 H   0  0  0  0  0  0  0  0  0  0  0  0
  148.1872  137.2914  153.0328 H   0  0  0  0  0  0  0  0  0  0  0  0
  147.1813  138.9824  155.1128 H   0  0  0  0  0  0  0  0  0  0  0  0
  147.0372  140.0597  152.2670 H   0  0  0  0  0  0  0  0  0  0  0  0
  145.6953  139.8353  153.3622 H   0  0  0  0  0  0  0  0  0  0  0  0
  146.4284  142.2158  153.2864 H   0  0  0  0  0  0  0  0  0  0  0  0
  146.5947  141.5513  154.8945 H   0  0  0  0  0  0  0  0  0  0  0  0
  148.8454  141.8914  152.8504 H   0  0  0  0  0  0  0  0  0  0  0  0
  148.6221  142.8418  154.3007 H   0  0  0  0  0  0  0  0  0  0  0  0
  150.3467  141.0736  154.6375 H   0  0  0  0  0  0  0  0  0  0  0  0
  148.9929  140.8714  155.7227 H   0  0  0  0  0  0  0  0  0  0  0  0
  149.4565  139.3618  153.1127 H   0  0  0  0  0  0  0  0  0  0  0  0
  151.2014  137.6139  153.4208 H   0  0  0  0  0  0  0  0  0  0  0  0
  152.0533  136.0809  155.5095 H   0  0  0  0  0  0  0  0  0  0  0  0
  150.4354  136.9193  157.5977 H   0  0  0  0  0  0  0  0  0  0  0  0
  1  2  1  0  0  0  0
  1 21  1  0  0  0  0
  1 22  1  0  0  0  0
  1 23  1  0  0  0  0
  2  3  1  0  0  0  0
  2  4  1  0  0  0  0
  2  5  1  0  0  0  0
  3 24  1  0  0  0  0
  3 25  1  0  0  0  0
  3 26  1  0  0  0  0
  4 27  1  0  0  0  0
  5  6  1  0  0  0  0
  5 28  1  0  0  0  0
  5 29  1  0  0  0  0
  6  7  1  0  0  0  0
  6 30  1  0  0  0  0
  7  8  2  0  0  0  0
  7  9  1  0  0  0  0
  9 10  1  0  0  0  0
  9 31  1  0  0  0  0
 10 15  1  0  0  0  0
 10 11  1  0  0  0  0
 10 32  1  0  0  0  0
 11 12  1  0  0  0  0
 11 33  1  0  0  0  0
 11 34  1  0  0  0  0
 12 13  1  0  0  0  0
 12 35  1  0  0  0  0
 12 36  1  0  0  0  0
 13 14  1  0  0  0  0
 13 37  1  0  0  0  0
 13 38  1  0  0  0  0
 14 15  1  0  0  0  0
 14 39  1  0  0  0  0
 14 40  1  0  0  0  0
 15 16  1  0  0  0  0
 15 41  1  0  0  0  0
 16 20  1  0  0  0  0
 16 17  1  0  0  0  0
 17 18  2  0  0  0  0
 17 42  1  0  0  0  0
 18 19  1  0  0  0  0
 18 43  1  0  0  0  0
 19 20  2  0  0  0  0
 19 44  1  0  0  0  0
M  END
> <s_m_source_file>
AV-unprocessed.smi

> <i_m_source_file_index>
895

> <i_lp_mmshare_version>
43012

> <i_f3d_flags>
0

> <s_epik_input>
W0NIM11DKFtDSDNdKShbT0hdKVtDSDJdW05IXUMoPU8pW05IXVtDQEBIXTFbQ0gyXVtDSDJdW0NIMl1bQ0gyXVtDQEhdMW4yW2NIXVtjSF1bY0hdbjI=

> <s_epik_cmdline>
J2VwaWtfcHl0aG9uJywgJy1waCcsICc3LjAnLCAnLXRuJywgJzgnLCAnLW1hJywgJzIwMCcsICctbWV0YWxfYmluZGluZycsICctaW1hZScsICc8aW5maWxlLm1hZT4nLCAnLW9tYWUnLCAnPG91dGZpbGUubWFlPic=

> <r_lp_tautomer_probability>
1

> <r_epik_Ionization_Penalty>
0.000440451

> <r_epik_Ionization_Penalty_Charging>
0

> <r_epik_Ionization_Penalty_Neutral>
0.000440451

> <r_epik_State_Penalty>
-0

> <r_epik_Charging_Adjusted_Penalty>
0

> <i_epik_Tot_Q>
0

> <i_epik_Tot_abs_Q>
0

> <r_epik_Metal_State_Penalty>
-0

> <b_epik_Metal_Only>
0

> <s_lp_Force_Field>
OPLS_2005

> <r_lp_Energy>
10.7008

> <b_lp_Chiralities_Consistent>
1

> <s_lp_Variant>
AV-unprocessed.smi:895-1

> <Gold.Version>
5.8.1

> <Gold.Id.Protein>
6NUR|6NUR_protein|mol2

> <Gold.PLP.Fitness>
41.1085

> <Gold.PLP.PLP>
-29.5725

> <Gold.PLP.part.hbond>
-3.0000

> <Gold.PLP.part.metal>
0.0000

> <Gold.PLP.part.buried>
-0.6215

> <Gold.PLP.part.nonpolar>
-26.0066

> <Gold.PLP.part.repulsive>
0.1664

> <Gold.PLP.ligand.clash>
0.0000

> <Gold.PLP.ligand.torsion>
0.1941

> <Gold.PLP.Chemscore.Hbond>
2.9600

> <Gold.PLP.Chemscore.CHOScore>
0.9997

> <Gold.PLP.Chemscore.Metal>
0.0000

> <Gold.Chemscore.Hbonds>
donor molecule, donor type, donor heavy atom, donor atom, acceptor molecule, acceptor atom, score
      L1  H     4    27       P1  7921  1.00
      L1  H     6    30       P1  7948  0.96
      L1  H     9    31       P1  7948  1.00
      L1  C    17    42       P1  7949  1.00

> <Gold.PLP.Chemscore.Internal.Correction>
0.0449

> <Gold.Rescore>
     Score         DG    S(hbond)    S(metal)    S(lipo)     H(rot)  DE(clash)    DE(int)     intcor
     18.18     -18.70       2.92        0.00      77.54       2.19       0.34       0.18       ----

> <Gold.Chemscore.Fitness>
18.1834

> <Gold.Chemscore.DG>
-18.6988

> <Gold.Chemscore.ZeroCoef>
-5.4800

> <Gold.Chemscore.Hbond>
2.9215

> <Gold.Chemscore.Metal>
0.0000

> <Gold.Chemscore.Lipo>
77.5396

> <Gold.Chemscore.Internal_Hbond>
0.0000

> <Gold.Chemscore.DEClash>
0.3356

> <Gold.Chemscore.DEInternal>
0.1798

> <Gold.Chemscore.Rot>
2.1919

> <Gold.Chemscore.Internal.Correction>
   9.000000E+99

> <Gold.Chemscore.Hbonds>
donor molecule, donor type, donor heavy atom, donor atom, acceptor molecule, acceptor atom, score
      L1  H     4    27       P1  7921  0.99
      L1  H     6    30       P1  7948  0.92
      L1  H     9    31       P1  7948  0.96

> <Gold.Chemscore.Hbond.Weighted>
-9.7580

> <Gold.Chemscore.Metal.Weighted>
-0.0000

> <Gold.Chemscore.Lipo.Weighted>
-9.0721

> <Gold.Chemscore.Internal_Hbond.Weighted>
0.0000

> <Gold.Chemscore.DEClash.Weighted>
0.3356

> <Gold.Chemscore.DEInternal.Weighted>
0.1798

> <Gold.Chemscore.Rot.Weighted>
5.6113

> <Gold.Chemscore.Internal.Correction.Weighted>
   9.000000E+99

> <Gold.Protein.RotatedTorsions>
[ 6907 6896 6895 6894 ] final -177.02 input  -60.11 | X-H torsion
[ 7974 7965 7964 7962 ] final  134.55 input  175.53 | X-H torsion
[ 8008 7997 7996 7995 ] final  131.65 input   59.86 | X-H torsion
[ 10167 10162 10161 10158 ] final  -14.00 input  -65.29 | X-H torsion
[ 10718 10713 10712 10709 ] final  -43.77 input   66.30 | X-H torsion
[ 10763 10752 10751 10750 ] final -149.63 input  -60.55 | X-H torsion
[ 11005 11000 10999 10996 ] final  -42.77 input  -57.11 | X-H torsion

> <Gold.Protein.ActiveResidues>
 VAL166  LYS551  ARG553  GLY616  TRP617  ASP618  TYR619  PRO620  LYS621  CYS622 
 ASP623  PHE694  ASN695  SER759  ASP760  ASP761  ALA762  ILE779  LEU786  VAL792 
 PHE793  MET794  SER795  GLU796  ALA797  LYS798  CYS799  TRP800  GLU811  SER814 

> <Gold.Protein.RotatedAtoms>
  151.6142  133.3344  159.3073 H   0  0  0  0  0  0  0  0  0  0  0  0  # atno 6907 bound_to 6896
  150.8140  134.7315  159.6725 H   0  0  0  0  0  0  0  0  0  0  0  0  # atno 6908 bound_to 6896
  152.4237  134.5914  160.0026 H   0  0  0  0  0  0  0  0  0  0  0  0  # atno 6909 bound_to 6896
  144.9752  139.4563  143.5413 H   0  0  0  0  0  0  0  0  0  0  0  0  # atno 7974 bound_to 7965
  156.2973  140.2566  156.2960 H   0  0  0  0  0  0  0  0  0  0  0  0  # atno 8008 bound_to 7997
  154.9464  140.0395  157.2141 H   0  0  0  0  0  0  0  0  0  0  0  0  # atno 8009 bound_to 7997
  154.8078  140.2839  155.5879 H   0  0  0  0  0  0  0  0  0  0  0  0  # atno 8010 bound_to 7997
  140.7193  143.5367  150.9457 H   0  0  0  0  0  0  0  0  0  0  0  0  # atno 10167 bound_to 10162
  156.2456  130.4183  149.8710 H   0  0  0  0  0  0  0  0  0  0  0  0  # atno 10718 bound_to 10713
  154.8166  135.3304  154.7158 H   0  0  0  0  0  0  0  0  0  0  0  0  # atno 10763 bound_to 10752
  153.7797  135.6919  153.4895 H   0  0  0  0  0  0  0  0  0  0  0  0  # atno 10764 bound_to 10752
  153.1988  135.4523  155.0189 H   0  0  0  0  0  0  0  0  0  0  0  0  # atno 10765 bound_to 10752
  141.0338  133.6808  156.2640 H   0  0  0  0  0  0  0  0  0  0  0  0  # atno 11005 bound_to 11000
  146.3393  139.8989  142.8797 LP  0  0  0  0  0  0  0  0  0  0  0  0  # atno 17320 bound_to 7965
  145.2501  141.0041  143.3886 LP  0  0  0  0  0  0  0  0  0  0  0  0  # atno 17321 bound_to 7965
  139.9088  143.6745  152.3119 LP  0  0  0  0  0  0  0  0  0  0  0  0  # atno 17342 bound_to 10162
  139.7121  144.7618  151.1095 LP  0  0  0  0  0  0  0  0  0  0  0  0  # atno 17343 bound_to 10162
  156.6276  130.8652  151.3488 LP  0  0  0  0  0  0  0  0  0  0  0  0  # atno 17370 bound_to 10713
  157.7193  130.9538  150.1377 LP  0  0  0  0  0  0  0  0  0  0  0  0  # atno 17371 bound_to 10713
  140.6359  134.5216  157.5564 LP  0  0  0  0  0  0  0  0  0  0  0  0  # atno 17394 bound_to 11000
  139.9226  134.8118  156.1164 LP  0  0  0  0  0  0  0  0  0  0  0  0  # atno 17395 bound_to 11000

$$$$
