AV-unprocessed.smi:3312|AV-procd|sdf|12728|dock3
  -GOLD-   2272019 73D 1   1.00000     0.00000
 Structure written by MMmdl.
 38 39  0  0  0  0  0  0  0  0  1 V2000
  153.1058  142.9173  162.3954 C   0  0  0  0  0  0  0  0  0  0  0  0
  152.5355  143.3275  161.0682 C   0  0  0  0  0  0  0  0  0  0  0  0
  151.9496  144.5766  160.7157 C   0  0  0  0  0  0  0  0  0  0  0  0
  151.5399  144.6160  159.4583 N   0  0  0  0  0  0  0  0  0  0  0  0
  151.8451  143.3971  158.9658 N   0  0  0  0  0  0  0  0  0  0  0  0
  151.5315  143.0756  157.5845 C   0  0  0  0  0  0  0  0  0  0  0  0
  150.7129  141.7801  157.4480 C   0  0  0  0  0  0  0  0  0  0  0  0
  149.5640  141.9988  156.5737 N   0  0  0  0  0  0  0  0  0  0  0  0
  149.7257  141.3715  155.2506 C   0  0  0  0  0  0  0  0  0  0  0  0
  149.2451  139.9094  155.1438 C   0  0  0  0  0  0  0  0  0  0  0  0
  148.0393  139.6672  155.2231 O   0  0  0  0  0  0  0  0  0  0  0  0
  150.1611  138.9299  154.9490 N   0  0  0  0  0  0  0  0  0  0  0  0
  149.8191  137.5047  154.9176 C   0  0  0  0  0  0  0  0  0  0  0  0
  150.5257  136.8118  156.0972 C   0  0  0  0  0  0  0  0  0  0  0  0
  151.9330  137.0245  156.0094 O   0  0  0  0  0  0  0  0  0  0  0  0
  152.2926  138.4044  156.0048 C   0  0  0  0  0  0  0  0  0  0  0  0
  151.6105  139.1094  154.8192 C   0  0  0  0  0  0  0  0  0  0  0  0
  152.4504  142.6007  159.9146 C   0  0  0  0  0  0  0  0  0  0  0  0
  153.3996  143.7801  162.9936 H   0  0  0  0  0  0  0  0  0  0  0  0
  153.9911  142.2918  162.2786 H   0  0  0  0  0  0  0  0  0  0  0  0
  152.3849  142.3486  162.9830 H   0  0  0  0  0  0  0  0  0  0  0  0
  151.8110  145.4517  161.3334 H   0  0  0  0  0  0  0  0  0  0  0  0
  150.9745  143.9114  157.1591 H   0  0  0  0  0  0  0  0  0  0  0  0
  152.4613  143.0023  157.0187 H   0  0  0  0  0  0  0  0  0  0  0  0
  151.3394  140.9818  157.0475 H   0  0  0  0  0  0  0  0  0  0  0  0
  150.3880  141.4613  158.4379 H   0  0  0  0  0  0  0  0  0  0  0  0
  149.4150  142.9939  156.4870 H   0  0  0  0  0  0  0  0  0  0  0  0
  149.1570  141.9582  154.5285 H   0  0  0  0  0  0  0  0  0  0  0  0
  150.7749  141.4448  154.9620 H   0  0  0  0  0  0  0  0  0  0  0  0
  148.7455  137.3212  154.9753 H   0  0  0  0  0  0  0  0  0  0  0  0
  150.1501  137.0724  153.9723 H   0  0  0  0  0  0  0  0  0  0  0  0
  150.1508  137.1893  157.0499 H   0  0  0  0  0  0  0  0  0  0  0  0
  150.3291  135.7397  156.0785 H   0  0  0  0  0  0  0  0  0  0  0  0
  152.0084  138.8688  156.9505 H   0  0  0  0  0  0  0  0  0  0  0  0
  153.3762  138.4860  155.9206 H   0  0  0  0  0  0  0  0  0  0  0  0
  151.9418  138.6617  153.8812 H   0  0  0  0  0  0  0  0  0  0  0  0
  151.9273  140.1495  154.7716 H   0  0  0  0  0  0  0  0  0  0  0  0
  152.7643  141.5912  159.6933 H   0  0  0  0  0  0  0  0  0  0  0  0
  1  2  1  0  0  0  0
  1 19  1  0  0  0  0
  1 20  1  0  0  0  0
  1 21  1  0  0  0  0
  2 18  2  0  0  0  0
  2  3  1  0  0  0  0
  3  4  2  0  0  0  0
  3 22  1  0  0  0  0
  4  5  1  0  0  0  0
  5  6  1  0  0  0  0
  5 18  1  0  0  0  0
  6  7  1  0  0  0  0
  6 23  1  0  0  0  0
  6 24  1  0  0  0  0
  7  8  1  0  0  0  0
  7 25  1  0  0  0  0
  7 26  1  0  0  0  0
  8  9  1  0  0  0  0
  8 27  1  0  0  0  0
  9 10  1  0  0  0  0
  9 28  1  0  0  0  0
  9 29  1  0  0  0  0
 10 11  2  0  0  0  0
 10 12  1  0  0  0  0
 12 17  1  0  0  0  0
 12 13  1  0  0  0  0
 13 14  1  0  0  0  0
 13 30  1  0  0  0  0
 13 31  1  0  0  0  0
 14 15  1  0  0  0  0
 14 32  1  0  0  0  0
 14 33  1  0  0  0  0
 15 16  1  0  0  0  0
 16 17  1  0  0  0  0
 16 34  1  0  0  0  0
 16 35  1  0  0  0  0
 17 36  1  0  0  0  0
 17 37  1  0  0  0  0
 18 38  1  0  0  0  0
M  END
> <s_m_source_file>
AV-unprocessed.smi

> <i_m_source_file_index>
3312

> <i_lp_mmshare_version>
43012

> <i_f3d_flags>
0

> <s_epik_input>
W0NIM11jMVtjSF1ubihbY0hdMSlbQ0gyXVtDSDJdW05IXVtDSDJdQyg9TylOMltDSDJdW0NIMl1PW0NIMl1bQ0gyXTI=

> <s_epik_cmdline>
J2VwaWtfcHl0aG9uJywgJy1waCcsICc3LjAnLCAnLXRuJywgJzgnLCAnLW1hJywgJzIwMCcsICctbWV0YWxfYmluZGluZycsICctaW1hZScsICc8aW5maWxlLm1hZT4nLCAnLW9tYWUnLCAnPG91dGZpbGUubWFlPic=

> <r_lp_tautomer_probability>
1

> <r_epik_Ionization_Penalty>
0.513825

> <r_epik_Ionization_Penalty_Charging>
0

> <r_epik_Ionization_Penalty_Neutral>
0.513825

> <r_epik_State_Penalty>
0.518565

> <r_epik_Charging_Adjusted_Penalty>
0.518565

> <i_epik_Tot_Q>
0

> <i_epik_Tot_abs_Q>
0

> <r_epik_Metal_State_Penalty>
0.515505

> <b_epik_Metal_Only>
0

> <s_lp_Force_Field>
OPLS_2005

> <r_lp_Energy>
26.2636

> <b_lp_Chiralities_Consistent>
1

> <s_lp_Variant>
AV-unprocessed.smi:3312-2

> <Gold.Version>
5.8.1

> <Gold.Id.Protein>
6NUR|6NUR_protein|mol2

> <Gold.PLP.Fitness>
44.7576

> <Gold.PLP.PLP>
-40.9078

> <Gold.PLP.part.hbond>
-2.0000

> <Gold.PLP.part.metal>
0.0000

> <Gold.PLP.part.buried>
-3.9377

> <Gold.PLP.part.nonpolar>
-34.8524

> <Gold.PLP.part.repulsive>
0.1491

> <Gold.PLP.ligand.clash>
0.0000

> <Gold.PLP.ligand.torsion>
0.9546

> <Gold.PLP.Chemscore.Hbond>
1.9120

> <Gold.PLP.Chemscore.CHOScore>
0.0000

> <Gold.PLP.Chemscore.Metal>
0.0000

> <Gold.Chemscore.Hbonds>
donor molecule, donor type, donor heavy atom, donor atom, acceptor molecule, acceptor atom, score
      L1  H     8    27       P1  8028  1.00
      P1  H 10752 10765       L1    15  0.67

> <Gold.PLP.Chemscore.Internal.Correction>
0.0230

> <Gold.Rescore>
     Score         DG    S(hbond)    S(metal)    S(lipo)     H(rot)  DE(clash)    DE(int)     intcor
     16.47     -17.95       1.77        0.00      95.87       1.82       0.37       1.11       ----

> <Gold.Chemscore.Fitness>
16.4692

> <Gold.Chemscore.DG>
-17.9479

> <Gold.Chemscore.ZeroCoef>
-5.4800

> <Gold.Chemscore.Hbond>
1.7703

> <Gold.Chemscore.Metal>
0.0000

> <Gold.Chemscore.Lipo>
95.8748

> <Gold.Chemscore.Internal_Hbond>
0.0000

> <Gold.Chemscore.DEClash>
0.3718

> <Gold.Chemscore.DEInternal>
1.1068

> <Gold.Chemscore.Rot>
1.8213

> <Gold.Chemscore.Internal.Correction>
   9.000000E+99

> <Gold.Chemscore.Hbonds>
donor molecule, donor type, donor heavy atom, donor atom, acceptor molecule, acceptor atom, score
      L1  H     8    27       P1  8028  0.97
      P1  H 10752 10765       L1    15  0.60

> <Gold.Chemscore.Hbond.Weighted>
-5.9129

> <Gold.Chemscore.Metal.Weighted>
-0.0000

> <Gold.Chemscore.Lipo.Weighted>
-11.2174

> <Gold.Chemscore.Internal_Hbond.Weighted>
0.0000

> <Gold.Chemscore.DEClash.Weighted>
0.3718

> <Gold.Chemscore.DEInternal.Weighted>
1.1068

> <Gold.Chemscore.Rot.Weighted>
4.6624

> <Gold.Chemscore.Internal.Correction.Weighted>
   9.000000E+99

> <Gold.Protein.RotatedTorsions>
[ 6907 6896 6895 6894 ] final  138.45 input  -60.11 | X-H torsion
[ 7974 7965 7964 7962 ] final   95.32 input  175.53 | X-H torsion
[ 8008 7997 7996 7995 ] final   36.52 input   59.86 | X-H torsion
[ 10167 10162 10161 10158 ] final  161.60 input  -65.29 | X-H torsion
[ 10718 10713 10712 10709 ] final   35.19 input   66.30 | X-H torsion
[ 10763 10752 10751 10750 ] final -160.05 input  -60.55 | X-H torsion
[ 11005 11000 10999 10996 ] final   89.62 input  -57.11 | X-H torsion

> <Gold.Protein.ActiveResidues>
 VAL166  LYS551  ARG553  GLY616  TRP617  ASP618  TYR619  PRO620  LYS621  CYS622 
 ASP623  PHE694  ASN695  SER759  ASP760  ASP761  ALA762  ILE779  LEU786  VAL792 
 PHE793  MET794  SER795  GLU796  ALA797  LYS798  CYS799  TRP800  GLU811  SER814 

> <Gold.Protein.RotatedAtoms>
  152.2664  133.5343  159.5412 H   0  0  0  0  0  0  0  0  0  0  0  0  # atno 6907 bound_to 6896
  150.7143  134.0759  159.3889 H   0  0  0  0  0  0  0  0  0  0  0  0  # atno 6908 bound_to 6896
  151.8675  135.0502  160.0526 H   0  0  0  0  0  0  0  0  0  0  0  0  # atno 6909 bound_to 6896
  145.4537  139.2291  143.3025 H   0  0  0  0  0  0  0  0  0  0  0  0  # atno 7974 bound_to 7965
  155.1888  140.3306  155.4362 H   0  0  0  0  0  0  0  0  0  0  0  0  # atno 8008 bound_to 7997
  156.2450  140.1914  156.6932 H   0  0  0  0  0  0  0  0  0  0  0  0  # atno 8009 bound_to 7997
  154.6220  140.0594  156.9612 H   0  0  0  0  0  0  0  0  0  0  0  0  # atno 8010 bound_to 7997
  139.4851  144.4520  151.8817 H   0  0  0  0  0  0  0  0  0  0  0  0  # atno 10167 bound_to 10162
  157.3196  130.7441  149.6777 H   0  0  0  0  0  0  0  0  0  0  0  0  # atno 10718 bound_to 10713
  154.7423  135.3072  154.8706 H   0  0  0  0  0  0  0  0  0  0  0  0  # atno 10763 bound_to 10752
  153.9516  135.6763  153.4748 H   0  0  0  0  0  0  0  0  0  0  0  0  # atno 10764 bound_to 10752
  153.1022  135.4906  154.8811 H   0  0  0  0  0  0  0  0  0  0  0  0  # atno 10765 bound_to 10752
  139.8872  134.8563  156.3168 H   0  0  0  0  0  0  0  0  0  0  0  0  # atno 11005 bound_to 11000
  146.2490  140.5299  142.8901 LP  0  0  0  0  0  0  0  0  0  0  0  0  # atno 17320 bound_to 7965
  144.8045  140.6275  143.6456 LP  0  0  0  0  0  0  0  0  0  0  0  0  # atno 17321 bound_to 7965
  140.3977  144.2533  150.5895 LP  0  0  0  0  0  0  0  0  0  0  0  0  # atno 17342 bound_to 10162
  140.5086  143.2297  151.8570 LP  0  0  0  0  0  0  0  0  0  0  0  0  # atno 17343 bound_to 10162
  155.9684  130.4227  150.4528 LP  0  0  0  0  0  0  0  0  0  0  0  0  # atno 17370 bound_to 10713
  157.2541  131.0552  151.2361 LP  0  0  0  0  0  0  0  0  0  0  0  0  # atno 17371 bound_to 10713
  140.9813  133.7265  156.0677 LP  0  0  0  0  0  0  0  0  0  0  0  0  # atno 17394 bound_to 11000
  140.7745  134.3795  157.5501 LP  0  0  0  0  0  0  0  0  0  0  0  0  # atno 17395 bound_to 11000

$$$$
