#       Name:                AV-unprocessed.smi:2748
#       Creating user name   scv26
#       Creation time:       Fri Mar 27 15:03:35 2020


#       File generated by GOLD software.
#

@<TRIPOS>MOLECULE
AV-unprocessed.smi:2748
    36    38     1
SMALL
NO_CHARGES


@<TRIPOS>ATOM
      1 ****        -5.4324   0.8092   1.9890 O.2            1 S1                 0.0000
      2 ****        -4.2156   0.6831   1.8657 C.2            1 S1                 0.0000
      3 ****        -3.3897   1.8095   1.9274 N.am           1 S1                 0.0000
      4 ****        -1.9999   1.8053   1.8050 C.2            1 S1                 0.0000
      5 ****        -1.3748   2.8642   1.8653 O.2            1 S1                 0.0000
      6 ****        -1.3821   0.5487   1.6103 N.am           1 S1                 0.0000
      7 ****         0.0519   0.5165   1.4609 C.3            1 S1                 0.0000
      8 ****         0.5167   0.8828   0.0380 C.3            1 S1                 0.0000
      9 ****         2.0628   0.9067  -0.0959 C.3            1 S1                 0.0000
     10 ****         2.2945  -0.1264  -1.1420 C.ar           1 S1                 0.0000
     11 ****         3.5156  -0.5564  -1.6888 C.ar           1 S1                 0.0000
     12 ****         3.4766  -1.5661  -2.6758 C.ar           1 S1                 0.0000
     13 ****         2.2396  -2.1166  -3.0898 C.ar           1 S1                 0.0000
     14 ****         1.0267  -1.6649  -2.5222 C.ar           1 S1                 0.0000
     15 ****         1.0818  -0.6595  -1.5409 C.ar           1 S1                 0.0000
     16 ****         0.0187  -0.1014  -0.8897 O.3            1 S1                 0.0000
     17 ****        -2.1627  -0.5943   1.5322 C.2            1 S1                 0.0000
     18 ****        -3.5125  -0.5807   1.6489 C.2            1 S1                 0.0000
     19 ****        -4.4175  -2.0479   1.5388 Cl             1 S1                 0.0000
     20 ****        -3.8380   2.7031   2.0683 H              1 S1                 0.0000
     21 ****         0.4751   1.1760   2.2216 H              1 S1                 0.0000
     22 ****         0.3664  -0.4942   1.7270 H              1 S1                 0.0000
     23 ****         0.1185   1.8553  -0.2544 H              1 S1                 0.0000
     24 ****         2.4282   1.8786  -0.4289 H              1 S1                 0.0000
     25 ****         2.5732   0.6328   0.8280 H              1 S1                 0.0000
     26 ****         4.4532  -0.1297  -1.3645 H              1 S1                 0.0000
     27 ****         4.3964  -1.9207  -3.1172 H              1 S1                 0.0000
     28 ****         2.2228  -2.8876  -3.8461 H              1 S1                 0.0000
     29 ****         0.0806  -2.0813  -2.8350 H              1 S1                 0.0000
     30 ****        -1.6750  -1.5445   1.3662 H              1 S1                 0.0000
     31 ****        -6.0255   0.0054   1.9433 LP             1 S1                 0.0000
     32 ****        -5.8289   1.7156   2.1349 LP             1 S1                 0.0000
     33 ****        -1.8632   3.7261   2.0018 LP             1 S1                 0.0000
     34 ****        -0.3786   2.8625   1.7777 LP             1 S1                 0.0000
     35 ****        -0.5903   0.3362  -1.5513 LP             1 S1                 0.0000
     36 ****        -0.4826  -0.8100  -0.3931 LP             1 S1                 0.0000
@<TRIPOS>BOND
    1    1    2 2     
    2    2   18 1     
    3    2    3 1     
    4    3   20 1     
    5    3    4 1     
    6    4    5 2     
    7    4    6 1     
    8    6    7 1     
    9    6   17 1     
   10    7    8 1     
   11    7   21 1     
   12    7   22 1     
   13    8   16 1     
   14    8    9 1     
   15    8   23 1     
   16    9   10 1     
   17    9   24 1     
   18    9   25 1     
   19   10   15 ar    
   20   10   11 ar    
   21   11   12 ar    
   22   11   26 1     
   23   12   13 ar    
   24   12   27 1     
   25   13   14 ar    
   26   13   28 1     
   27   14   15 ar    
   28   14   29 1     
   29   15   16 1     
   30   17   18 2     
   31   17   30 1     
   32   18   19 1     
   33    1   31 1     
   34    1   32 1     
   35    5   33 1     
   36    5   34 1     
   37   16   35 1     
   38   16   36 1     
@<TRIPOS>SUBSTRUCTURE
      1 S1             1
@<TRIPOS>SET
LONE_PAIRS      STATIC     ATOMS    <user>   **** ""
6 31 32 33 34 35 36
DONOR_HYDROGENS      STATIC     ATOMS    <user>   **** ""
1 20
ATOM$BLUE        STATIC     ATOMS    COLORGROUP SYSTEM
6 31 32 33 34 35 36
ATOM$RED        STATIC     ATOMS    COLORGROUP SYSTEM
1 20
