#       Name:                AV-unprocessed.smi:2904
#       Creating user name   scv26
#       Creation time:       Fri Mar 27 16:04:45 2020


#       File generated by GOLD software.
#

@<TRIPOS>MOLECULE
AV-unprocessed.smi:2904
    44    45     1
SMALL
NO_CHARGES


@<TRIPOS>ATOM
      1 ****        -2.2445   2.5069   1.4884 C.3            1 S1                 0.0000
      2 ****        -2.6486   1.0606   1.4764 C.2            1 S1                 0.0000
      3 ****        -3.9331   0.7475   1.4735 N.2            1 S1                 0.0000
      4 ****        -3.9615  -0.6012   1.4416 N.pl3          1 S1                 0.0000
      5 ****        -5.2407  -1.2901   1.4607 C.3            1 S1                 0.0000
      6 ****        -5.6691  -1.4125   2.7165 F              1 S1                 0.0000
      7 ****        -6.1423  -0.6259   0.7358 F              1 S1                 0.0000
      8 ****        -2.6888  -1.1394   1.4616 C.2            1 S1                 0.0000
      9 ****        -2.4480  -2.6140   1.4597 C.3            1 S1                 0.0000
     10 ****        -1.8080  -0.0907   1.4748 C.2            1 S1                 0.0000
     11 ****        -0.2980  -0.1228   1.4864 C.3            1 S1                 0.0000
     12 ****         0.2840  -0.1242   0.0671 C.2            1 S1                 0.0000
     13 ****        -0.4430  -0.2207  -0.9232 O.2            1 S1                 0.0000
     14 ****         1.6188  -0.0154  -0.0135 N.am           1 S1                 0.0000
     15 ****         2.3879   0.0075  -1.2543 C.3            1 S1                 0.0000
     16 ****         3.8238  -0.4675  -0.9887 C.3            1 S1                 0.0000
     17 ****         4.6879  -0.3137  -2.2509 C.3            1 S1                 0.0000
     18 ****         4.6646   1.0389  -2.6945 O.3            1 S1                 0.0000
     19 ****         3.3626   1.4787  -3.0664 C.3            1 S1                 0.0000
     20 ****         2.4211   1.4243  -1.8523 C.3            1 S1                 0.0000
     21 ****        -1.3316   2.6644   0.9134 H              1 S1                 0.0000
     22 ****        -2.0600   2.8507   2.5062 H              1 S1                 0.0000
     23 ****        -3.0178   3.1427   1.0559 H              1 S1                 0.0000
     24 ****        -5.1453  -2.2882   1.0337 H              1 S1                 0.0000
     25 ****        -1.3884  -2.8437   1.5692 H              1 S1                 0.0000
     26 ****        -2.7897  -3.0591   0.5252 H              1 S1                 0.0000
     27 ****        -2.9803  -3.0950   2.2806 H              1 S1                 0.0000
     28 ****         0.1031   0.7375   2.0235 H              1 S1                 0.0000
     29 ****         0.0744  -1.0022   2.0120 H              1 S1                 0.0000
     30 ****         2.1412   0.0590   0.8475 H              1 S1                 0.0000
     31 ****         1.9322  -0.6733  -1.9762 H              1 S1                 0.0000
     32 ****         4.2656   0.1167  -0.1801 H              1 S1                 0.0000
     33 ****         3.8239  -1.5074  -0.6604 H              1 S1                 0.0000
     34 ****         5.7184  -0.5959  -2.0351 H              1 S1                 0.0000
     35 ****         4.3372  -0.9742  -3.0454 H              1 S1                 0.0000
     36 ****         3.4304   2.5000  -3.4417 H              1 S1                 0.0000
     37 ****         2.9793   0.8651  -3.8830 H              1 S1                 0.0000
     38 ****         1.4187   1.7393  -2.1445 H              1 S1                 0.0000
     39 ****         2.7654   2.1362  -1.1008 H              1 S1                 0.0000
     40 ****        -4.7130   1.3733   1.4911 LP             1 S1                 0.0000
     41 ****        -1.4335  -0.3002  -0.8105 LP             1 S1                 0.0000
     42 ****        -0.0426  -0.2195  -1.8395 LP             1 S1                 0.0000
     43 ****         5.2687   1.1252  -3.4867 LP             1 S1                 0.0000
     44 ****         4.9993   1.6229  -1.9549 LP             1 S1                 0.0000
@<TRIPOS>BOND
    1    1    2 1     
    2    1   21 1     
    3    1   22 1     
    4    1   23 1     
    5    2   10 1     
    6    2    3 2     
    7    3    4 1     
    8    4    5 1     
    9    4    8 1     
   10    5    6 1     
   11    5    7 1     
   12    5   24 1     
   13    8    9 1     
   14    8   10 2     
   15    9   25 1     
   16    9   26 1     
   17    9   27 1     
   18   10   11 1     
   19   11   12 1     
   20   11   28 1     
   21   11   29 1     
   22   12   13 2     
   23   12   14 am    
   24   14   15 1     
   25   14   30 1     
   26   15   20 1     
   27   15   16 1     
   28   15   31 1     
   29   16   17 1     
   30   16   32 1     
   31   16   33 1     
   32   17   18 1     
   33   17   34 1     
   34   17   35 1     
   35   18   19 1     
   36   19   20 1     
   37   19   36 1     
   38   19   37 1     
   39   20   38 1     
   40   20   39 1     
   41    3   40 1     
   42   13   41 1     
   43   13   42 1     
   44   18   43 1     
   45   18   44 1     
@<TRIPOS>SUBSTRUCTURE
      1 S1             1
@<TRIPOS>SET
LONE_PAIRS      STATIC     ATOMS    <user>   **** ""
5 40 41 42 43 44
DONOR_HYDROGENS      STATIC     ATOMS    <user>   **** ""
1 30
ATOM$BLUE        STATIC     ATOMS    COLORGROUP SYSTEM
5 40 41 42 43 44
ATOM$RED        STATIC     ATOMS    COLORGROUP SYSTEM
1 30
