AV-unprocessed.smi:560|AV-procd|sdf|2928|dock1
  -GOLD-   2262023423D 1   1.00000     0.00000
 Structure written by MMmdl.
 42 43  0  0  0  0  0  0  0  0  2 V2000
  145.5093  131.8108  150.4717 C   0  0  0  0  0  0  0  0  0  0  0  0
  145.7349  131.6875  151.9924 C   0  0  2  0  0  0  0  0  0  0  0  0
  146.6581  132.7821  152.5566 C   0  0  0  0  0  0  0  0  0  0  0  0
  147.2592  133.5522  151.8063 O   0  0  0  0  0  0  0  0  0  0  0  0
  146.7600  132.8422  153.8947 N   0  0  0  0  0  0  0  0  0  0  0  0
  147.5985  133.7798  154.6339 C   0  0  2  0  0  0  0  0  0  0  0  0
  147.0967  135.2249  154.4522 C   0  0  0  0  0  0  0  0  0  0  0  0
  148.0384  136.2285  155.1367 C   0  0  0  0  0  0  0  0  0  0  0  0
  149.4276  136.0941  154.6225 N   0  3  1  0  0  0  0  0  0  0  0  0
  150.3462  137.1362  155.1521 C   0  0  0  0  0  0  0  0  0  0  0  0
  150.4281  138.4144  154.3032 C   0  0  0  0  0  0  0  0  0  0  0  0
  149.7328  138.4860  153.1624 N   0  0  0  0  0  0  0  0  0  0  0  0
  151.1281  139.3477  154.6867 O   0  0  0  0  0  0  0  0  0  0  0  0
  149.9497  134.7192  154.8307 C   0  0  0  0  0  0  0  0  0  0  0  0
  149.0522  133.6753  154.1446 C   0  0  0  0  0  0  0  0  0  0  0  0
  146.2199  130.3606  152.3579 N   0  0  0  0  0  0  0  0  0  0  0  0
  145.6377  129.1388  152.0872 C   0  0  0  0  0  0  0  0  0  0  0  0
  146.4305  128.1744  152.6400 C   0  0  0  0  0  0  0  0  0  0  0  0
  147.4880  128.9106  153.2422 C   0  0  0  0  0  0  0  0  0  0  0  0
  147.3564  130.2167  153.0788 N   0  0  0  0  0  0  0  0  0  0  0  0
  145.0802  132.7796  150.2136 H   0  0  0  0  0  0  0  0  0  0  0  0
  144.8179  131.0453  150.1186 H   0  0  0  0  0  0  0  0  0  0  0  0
  146.4384  131.6998  149.9111 H   0  0  0  0  0  0  0  0  0  0  0  0
  144.7649  131.8193  152.4745 H   0  0  0  0  0  0  0  0  0  0  0  0
  146.2295  132.1760  154.4373 H   0  0  0  0  0  0  0  0  0  0  0  0
  147.5725  133.5216  155.6944 H   0  0  0  0  0  0  0  0  0  0  0  0
  147.0229  135.4626  153.3897 H   0  0  0  0  0  0  0  0  0  0  0  0
  146.0915  135.3314  154.8619 H   0  0  0  0  0  0  0  0  0  0  0  0
  147.6681  137.2397  154.9673 H   0  0  0  0  0  0  0  0  0  0  0  0
  148.0320  136.0700  156.2165 H   0  0  0  0  0  0  0  0  0  0  0  0
  150.0727  137.3894  156.1777 H   0  0  0  0  0  0  0  0  0  0  0  0
  151.3606  136.7376  155.1957 H   0  0  0  0  0  0  0  0  0  0  0  0
  149.7651  139.3134  152.5863 H   0  0  0  0  0  0  0  0  0  0  0  0
  149.1664  137.6982  152.8794 H   0  0  0  0  0  0  0  0  0  0  0  0
  150.9590  134.6420  154.4245 H   0  0  0  0  0  0  0  0  0  0  0  0
  150.0208  134.5130  155.9000 H   0  0  0  0  0  0  0  0  0  0  0  0
  149.4402  132.6741  154.3362 H   0  0  0  0  0  0  0  0  0  0  0  0
  149.0918  133.8207  153.0639 H   0  0  0  0  0  0  0  0  0  0  0  0
  144.7169  129.0575  151.5283 H   0  0  0  0  0  0  0  0  0  0  0  0
  146.2784  127.1055  152.6177 H   0  0  0  0  0  0  0  0  0  0  0  0
  148.3400  128.5379  153.7917 H   0  0  0  0  0  0  0  0  0  0  0  0
  149.3911  136.2306  153.6228 H   0  0  0  0  0  0  0  0  0  0  0  0
  1  2  1  0  0  0  0
  1 21  1  0  0  0  0
  1 22  1  0  0  0  0
  1 23  1  0  0  0  0
  2  3  1  0  0  0  0
  2 16  1  0  0  0  0
  2 24  1  0  0  0  0
  3  4  2  0  0  0  0
  3  5  1  0  0  0  0
  5  6  1  0  0  0  0
  5 25  1  0  0  0  0
  6 15  1  0  0  0  0
  6  7  1  0  0  0  0
  6 26  1  0  0  0  0
  7  8  1  0  0  0  0
  7 27  1  0  0  0  0
  7 28  1  0  0  0  0
  8  9  1  0  0  0  0
  8 29  1  0  0  0  0
  8 30  1  0  0  0  0
  9 10  1  0  0  0  0
  9 14  1  0  0  0  0
  9 42  1  0  0  0  0
 10 11  1  0  0  0  0
 10 31  1  0  0  0  0
 10 32  1  0  0  0  0
 11 12  1  0  0  0  0
 11 13  2  0  0  0  0
 12 33  1  0  0  0  0
 12 34  1  0  0  0  0
 14 15  1  0  0  0  0
 14 35  1  0  0  0  0
 14 36  1  0  0  0  0
 15 37  1  0  0  0  0
 15 38  1  0  0  0  0
 16 20  1  0  0  0  0
 16 17  1  0  0  0  0
 17 18  2  0  0  0  0
 17 39  1  0  0  0  0
 18 19  1  0  0  0  0
 18 40  1  0  0  0  0
 19 20  2  0  0  0  0
 19 41  1  0  0  0  0
M  CHG  1   9   1
M  END
> <s_m_source_file>
AV-unprocessed.smi

> <i_m_source_file_index>
560

> <i_lp_mmshare_version>
43012

> <i_f3d_flags>
0

> <s_epik_input>
bjFbY0hdW2NIXVtjSF1uMVtDQEhdKFtDSDNdKUMoPU8pW05IXVtDSF0yW0NIMl1bQ0gyXU4oW0NIMl1bQ0gyXTIpW0NIMl1DKD1PKVtOSDJd

> <s_epik_cmdline>
J2VwaWtfcHl0aG9uJywgJy1waCcsICc3LjAnLCAnLXRuJywgJzgnLCAnLW1hJywgJzIwMCcsICctbWV0YWxfYmluZGluZycsICctaW1hZScsICc8aW5maWxlLm1hZT4nLCAnLW9tYWUnLCAnPG91dGZpbGUubWFlPic=

> <r_lp_tautomer_probability>
1

> <r_epik_Ionization_Penalty>
1.02943

> <r_epik_Ionization_Penalty_Charging>
1.02936

> <r_epik_Ionization_Penalty_Neutral>
7.4537e-05

> <r_epik_State_Penalty>
1.08036

> <r_epik_Charging_Adjusted_Penalty>
2.10972

> <i_epik_Tot_Q>
1

> <i_epik_Tot_abs_Q>
1

> <r_epik_Metal_State_Penalty>
1.09347

> <b_epik_Metal_Only>
0

> <s_lp_Force_Field>
OPLS_2005

> <r_lp_Energy>
17.0208

> <b_lp_Chiralities_Consistent>
1

> <s_lp_Variant>
AV-unprocessed.smi:560-3

> <Gold.Version>
5.8.1

> <Gold.Id.Protein>
6NUR|6NUR_protein|mol2

> <Gold.PLP.Fitness>
47.0974

> <Gold.PLP.PLP>
-33.4302

> <Gold.PLP.part.hbond>
-4.1084

> <Gold.PLP.part.metal>
0.0000

> <Gold.PLP.part.buried>
-5.3339

> <Gold.PLP.part.nonpolar>
-24.8007

> <Gold.PLP.part.repulsive>
0.9117

> <Gold.PLP.ligand.clash>
0.0000

> <Gold.PLP.ligand.torsion>
0.5873

> <Gold.PLP.Chemscore.Hbond>
4.9040

> <Gold.PLP.Chemscore.CHOScore>
0.0000

> <Gold.PLP.Chemscore.Metal>
0.0000

> <Gold.Chemscore.Hbonds>
donor molecule, donor type, donor heavy atom, donor atom, acceptor molecule, acceptor atom, score
      L1  H     9    42       P1  7948  2.00
      L1  H    12    33       P1  7957  1.00
      L1  H    12    34       P1  7948  0.96
      P1  H  7989  7998       L1    13  1.00

> <Gold.PLP.Chemscore.Internal.Correction>
0.1298

> <Gold.Rescore>
     Score         DG    S(hbond)    S(metal)    S(lipo)     H(rot)  DE(clash)    DE(int)     intcor
     15.73     -18.87       3.67        0.00      64.84       2.52       0.02       3.12       ----

> <Gold.Chemscore.Fitness>
15.7308

> <Gold.Chemscore.DG>
-18.8687

> <Gold.Chemscore.ZeroCoef>
-5.4800

> <Gold.Chemscore.Hbond>
3.6721

> <Gold.Chemscore.Metal>
0.0000

> <Gold.Chemscore.Lipo>
64.8401

> <Gold.Chemscore.Internal_Hbond>
0.0000

> <Gold.Chemscore.DEClash>
0.0187

> <Gold.Chemscore.DEInternal>
3.1193

> <Gold.Chemscore.Rot>
2.5243

> <Gold.Chemscore.Internal.Correction>
   9.000000E+99

> <Gold.Chemscore.Hbonds>
donor molecule, donor type, donor heavy atom, donor atom, acceptor molecule, acceptor atom, score
      L1  H     9    42       P1  7948  0.74
      L1  H    12    33       P1  7957  0.90
      L1  H    12    34       P1  7948  0.91
      P1  H  7989  7998       L1    13  0.96

> <Gold.Chemscore.Hbond.Weighted>
-12.2647

> <Gold.Chemscore.Metal.Weighted>
-0.0000

> <Gold.Chemscore.Lipo.Weighted>
-7.5863

> <Gold.Chemscore.Internal_Hbond.Weighted>
0.0000

> <Gold.Chemscore.DEClash.Weighted>
0.0187

> <Gold.Chemscore.DEInternal.Weighted>
3.1193

> <Gold.Chemscore.Rot.Weighted>
6.4622

> <Gold.Chemscore.Internal.Correction.Weighted>
   9.000000E+99

> <Gold.Protein.RotatedTorsions>
[ 6907 6896 6895 6894 ] final   -3.68 input  -60.11 | X-H torsion
[ 7974 7965 7964 7962 ] final   51.34 input  175.53 | X-H torsion
[ 8008 7997 7996 7995 ] final  -32.24 input   59.86 | X-H torsion
[ 10167 10162 10161 10158 ] final -101.91 input  -65.29 | X-H torsion
[ 10718 10713 10712 10709 ] final  157.78 input   66.30 | X-H torsion
[ 10763 10752 10751 10750 ] final  -68.85 input  -60.55 | X-H torsion
[ 11005 11000 10999 10996 ] final   -4.19 input  -57.11 | X-H torsion

> <Gold.Protein.ActiveResidues>
 VAL166  LYS551  ARG553  GLY616  TRP617  ASP618  TYR619  PRO620  LYS621  CYS622 
 ASP623  PHE694  ASN695  SER759  ASP760  ASP761  ALA762  ILE779  LEU786  VAL792 
 PHE793  MET794  SER795  GLU796  ALA797  LYS798  CYS799  TRP800  GLU811  SER814 

> <Gold.Protein.RotatedAtoms>
  151.5099  135.1064  159.9850 H   0  0  0  0  0  0  0  0  0  0  0  0  # atno 6907 bound_to 6896
  152.4666  133.7932  159.6924 H   0  0  0  0  0  0  0  0  0  0  0  0  # atno 6908 bound_to 6896
  150.8653  133.7520  159.3004 H   0  0  0  0  0  0  0  0  0  0  0  0  # atno 6909 bound_to 6896
  145.9923  139.4352  143.0066 H   0  0  0  0  0  0  0  0  0  0  0  0  # atno 7974 bound_to 7965
  154.4186  140.1743  156.1695 H   0  0  0  0  0  0  0  0  0  0  0  0  # atno 8008 bound_to 7997
  155.9772  140.3380  155.6606 H   0  0  0  0  0  0  0  0  0  0  0  0  # atno 8009 bound_to 7997
  155.6547  140.0694  157.2565 H   0  0  0  0  0  0  0  0  0  0  0  0  # atno 8010 bound_to 7997
  140.2363  143.3570  152.0842 H   0  0  0  0  0  0  0  0  0  0  0  0  # atno 10167 bound_to 10162
  157.1868  131.0645  151.2101 H   0  0  0  0  0  0  0  0  0  0  0  0  # atno 10718 bound_to 10713
  154.3950  135.6044  153.5864 H   0  0  0  0  0  0  0  0  0  0  0  0  # atno 10763 bound_to 10752
  152.9787  135.5893  154.4253 H   0  0  0  0  0  0  0  0  0  0  0  0  # atno 10764 bound_to 10752
  154.4042  135.2843  155.2055 H   0  0  0  0  0  0  0  0  0  0  0  0  # atno 10765 bound_to 10752
  140.6776  133.9182  155.8534 H   0  0  0  0  0  0  0  0  0  0  0  0  # atno 11005 bound_to 11000
  145.7612  140.9934  143.1199 LP  0  0  0  0  0  0  0  0  0  0  0  0  # atno 17320 bound_to 7965
  144.6893  139.9332  143.7472 LP  0  0  0  0  0  0  0  0  0  0  0  0  # atno 17321 bound_to 7965
  139.5092  144.6864  151.5876 LP  0  0  0  0  0  0  0  0  0  0  0  0  # atno 17342 bound_to 10162
  140.6147  143.9370  150.6480 LP  0  0  0  0  0  0  0  0  0  0  0  0  # atno 17343 bound_to 10162
  157.3899  130.7276  149.6690 LP  0  0  0  0  0  0  0  0  0  0  0  0  # atno 17370 bound_to 10713
  155.9717  130.4149  150.4156 LP  0  0  0  0  0  0  0  0  0  0  0  0  # atno 17371 bound_to 10713
  141.0343  134.0712  157.3978 LP  0  0  0  0  0  0  0  0  0  0  0  0  # atno 17394 bound_to 11000
  139.8962  135.0144  156.7038 LP  0  0  0  0  0  0  0  0  0  0  0  0  # atno 17395 bound_to 11000

$$$$
