AV-unprocessed.smi:69|AV-procd|sdf|649|dock9
  -GOLD-   2262016543D 1   1.00000     0.00000
 Structure written by MMmdl.
 32 34  0  0  0  0  0  0  0  0  1 V2000
  153.0968  137.1481  162.1152 N   0  0  0  0  0  0  0  0  0  0  0  0
  153.3486  137.9996  161.1115 C   0  0  0  0  0  0  0  0  0  0  0  0
  154.2564  138.9815  161.3157 N   0  0  0  0  0  0  0  0  0  0  0  0
  154.5276  139.8390  160.3281 C   0  0  0  0  0  0  0  0  0  0  0  0
  154.0119  139.8835  159.0977 N   0  0  0  0  0  0  0  0  0  0  0  0
  153.0938  138.8941  158.8862 C   0  0  0  0  0  0  0  0  0  0  0  0
  152.7113  137.9156  159.8477 C   0  0  0  0  0  0  0  0  0  0  0  0
  151.7635  137.0614  159.3059 N   0  0  0  0  0  0  0  0  0  0  0  0
  151.6038  137.5061  158.0897 C   0  0  0  0  0  0  0  0  0  0  0  0
  152.3511  138.6141  157.7490 N   0  0  0  0  0  0  0  0  0  0  0  0
  152.3645  139.2840  156.3996 C   0  0  2  0  0  0  0  0  0  0  0  0
  151.0645  139.6722  156.0905 O   0  0  0  0  0  0  0  0  0  0  0  0
  150.4425  138.6763  155.2917 C   0  0  1  0  0  0  0  0  0  0  0  0
  149.2888  139.2995  154.4919 C   0  0  0  0  0  0  0  0  0  0  0  0
  148.9120  138.4431  153.4349 O   0  0  0  0  0  0  0  0  0  0  0  0
  151.5952  138.1749  154.4077 C   0  0  2  0  0  0  0  0  0  0  0  0
  151.4144  136.8089  154.0928 O   0  0  0  0  0  0  0  0  0  0  0  0
  152.8542  138.3750  155.2574 C   0  0  1  0  0  0  0  0  0  0  0  0
  153.8598  139.0081  154.4910 O   0  0  0  0  0  0  0  0  0  0  0  0
  152.9901  140.1652  156.5510 H   0  0  0  0  0  0  0  0  0  0  0  0
  150.0711  137.8765  155.9324 H   0  0  0  0  0  0  0  0  0  0  0  0
  151.6483  138.7628  153.4897 H   0  0  0  0  0  0  0  0  0  0  0  0
  153.2665  137.4464  155.6505 H   0  0  0  0  0  0  0  0  0  0  0  0
  152.4253  136.4049  161.9863 H   0  0  0  0  0  0  0  0  0  0  0  0
  153.5847  137.2461  162.9936 H   0  0  0  0  0  0  0  0  0  0  0  0
  155.2629  140.5971  160.5542 H   0  0  0  0  0  0  0  0  0  0  0  0
  150.9269  137.0281  157.3965 H   0  0  0  0  0  0  0  0  0  0  0  0
  148.4327  139.5162  155.1311 H   0  0  0  0  0  0  0  0  0  0  0  0
  149.6093  140.2425  154.0481 H   0  0  0  0  0  0  0  0  0  0  0  0
  148.9378  138.9327  152.6272 H   0  0  0  0  0  0  0  0  0  0  0  0
  151.0503  136.7485  153.2228 H   0  0  0  0  0  0  0  0  0  0  0  0
  153.6871  138.8443  153.5764 H   0  0  0  0  0  0  0  0  0  0  0  0
  1  2  1  0  0  0  0
  1 24  1  0  0  0  0
  1 25  1  0  0  0  0
  2  7  1  0  0  0  0
  2  3  2  0  0  0  0
  3  4  1  0  0  0  0
  4  5  2  0  0  0  0
  4 26  1  0  0  0  0
  5  6  1  0  0  0  0
  6 10  1  0  0  0  0
  6  7  2  0  0  0  0
  7  8  1  0  0  0  0
  8  9  2  0  0  0  0
  9 10  1  0  0  0  0
  9 27  1  0  0  0  0
 10 11  1  0  0  0  0
 11 20  1  0  0  0  0
 11 18  1  0  0  0  0
 11 12  1  0  0  0  0
 12 13  1  0  0  0  0
 13 21  1  0  0  0  0
 13 14  1  0  0  0  0
 13 16  1  0  0  0  0
 14 15  1  0  0  0  0
 14 28  1  0  0  0  0
 14 29  1  0  0  0  0
 15 30  1  0  0  0  0
 16 22  1  0  0  0  0
 16 17  1  0  0  0  0
 16 18  1  0  0  0  0
 17 31  1  0  0  0  0
 18 23  1  0  0  0  0
 18 19  1  0  0  0  0
 19 32  1  0  0  0  0
M  END
> <s_m_source_file>
AV-unprocessed.smi

> <i_m_source_file_index>
69

> <i_lp_mmshare_version>
43012

> <i_f3d_flags>
0

> <s_epik_input>
bjFbY0hdbmMoW05IMl0pYyhjMTIpbltjSF1uMltDQEBIXTNPW0NASF0oW0NIMl1bT0hdKVtDQEBIXShbT0hdKVtDQEhdM1tPSF0=

> <s_epik_cmdline>
J2VwaWtfcHl0aG9uJywgJy1waCcsICc3LjAnLCAnLXRuJywgJzgnLCAnLW1hJywgJzIwMCcsICctbWV0YWxfYmluZGluZycsICctaW1hZScsICc8aW5maWxlLm1hZT4nLCAnLW9tYWUnLCAnPG91dGZpbGUubWFlPic=

> <r_lp_tautomer_probability>
1

> <r_epik_Ionization_Penalty>
0.000428445

> <r_epik_Ionization_Penalty_Charging>
0

> <r_epik_Ionization_Penalty_Neutral>
0.000428445

> <r_epik_State_Penalty>
-0

> <r_epik_Charging_Adjusted_Penalty>
0

> <i_epik_Tot_Q>
0

> <i_epik_Tot_abs_Q>
0

> <r_epik_Metal_State_Penalty>
-0

> <b_epik_Metal_Only>
0

> <s_epik_Chemistry_Notes>
This compound contains an acetal/aminal-like group ( X-CH(R)-Y where X, Y are N, S, or O) that may be acid/base labile, releasing an aldehyde.

> <s_lp_Force_Field>
OPLS_2005

> <r_lp_Energy>
31.8637

> <b_lp_Chiralities_Consistent>
1

> <s_lp_Variant>
AV-unprocessed.smi:69-7

> <Gold.Version>
5.8.1

> <Gold.Id.Protein>
6NUR|6NUR_protein|mol2

> <Gold.PLP.Fitness>
45.8379

> <Gold.PLP.PLP>
-28.0976

> <Gold.PLP.part.hbond>
-7.0000

> <Gold.PLP.part.metal>
0.0000

> <Gold.PLP.part.buried>
-3.5130

> <Gold.PLP.part.nonpolar>
-17.9694

> <Gold.PLP.part.repulsive>
0.0706

> <Gold.PLP.ligand.clash>
0.0000

> <Gold.PLP.ligand.torsion>
0.1270

> <Gold.PLP.Chemscore.Hbond>
5.9913

> <Gold.PLP.Chemscore.CHOScore>
0.0000

> <Gold.PLP.Chemscore.Metal>
0.0000

> <Gold.Chemscore.Hbonds>
donor molecule, donor type, donor heavy atom, donor atom, acceptor molecule, acceptor atom, score
      L1  H    15    30       P1  7957  1.00
      L1  H    17    31       P1  7949  0.94
      P1  H  6896  6908       L1     8  1.00
      P1  H  7997  8008       L1     5  0.93
      P1  H  7997  8009       L1    19  1.00
      P1  H 10752 10763       L1    17  1.00

> <Gold.PLP.Chemscore.Internal.Correction>
0.0206

> <Gold.Rescore>
     Score         DG    S(hbond)    S(metal)    S(lipo)     H(rot)  DE(clash)    DE(int)     intcor
     13.60     -14.21       4.46        0.00      35.33       4.03       0.34       0.27       ----

> <Gold.Chemscore.Fitness>
13.5979

> <Gold.Chemscore.DG>
-14.2113

> <Gold.Chemscore.ZeroCoef>
-5.4800

> <Gold.Chemscore.Hbond>
4.4638

> <Gold.Chemscore.Metal>
0.0000

> <Gold.Chemscore.Lipo>
35.3268

> <Gold.Chemscore.Internal_Hbond>
0.0000

> <Gold.Chemscore.DEClash>
0.3430

> <Gold.Chemscore.DEInternal>
0.2705

> <Gold.Chemscore.Rot>
4.0277

> <Gold.Chemscore.Internal.Correction>
   9.000000E+99

> <Gold.Chemscore.Hbonds>
donor molecule, donor type, donor heavy atom, donor atom, acceptor molecule, acceptor atom, score
      L1  H    15    30       P1  7957  0.98
      L1  H    17    31       P1  7949  0.32
      P1  H  6896  6908       L1     8  0.88
      P1  H  7997  8008       L1     5  0.43
      P1  H  7997  8009       L1    19  0.48
      P1  H 10752 10763       L1    17  0.83

> <Gold.Chemscore.Hbond.Weighted>
-14.9091

> <Gold.Chemscore.Metal.Weighted>
-0.0000

> <Gold.Chemscore.Lipo.Weighted>
-4.1332

> <Gold.Chemscore.Internal_Hbond.Weighted>
0.0000

> <Gold.Chemscore.DEClash.Weighted>
0.3430

> <Gold.Chemscore.DEInternal.Weighted>
0.2705

> <Gold.Chemscore.Rot.Weighted>
10.3110

> <Gold.Chemscore.Internal.Correction.Weighted>
   9.000000E+99

> <Gold.Protein.RotatedTorsions>
[ 6907 6896 6895 6894 ] final -113.33 input  -60.11 | X-H torsion
[ 7974 7965 7964 7962 ] final -139.36 input  175.53 | X-H torsion
[ 8008 7997 7996 7995 ] final -118.06 input   59.86 | X-H torsion
[ 10167 10162 10161 10158 ] final -144.87 input  -65.29 | X-H torsion
[ 10718 10713 10712 10709 ] final  156.12 input   66.30 | X-H torsion
[ 10763 10752 10751 10750 ] final   54.25 input  -60.55 | X-H torsion
[ 11005 11000 10999 10996 ] final  -17.76 input  -57.11 | X-H torsion

> <Gold.Protein.ActiveResidues>
 VAL166  LYS551  ARG553  GLY616  TRP617  ASP618  TYR619  PRO620  LYS621  CYS622 
 ASP623  PHE694  ASN695  SER759  ASP760  ASP761  ALA762  ILE779  LEU786  VAL792 
 PHE793  MET794  SER795  GLU796  ALA797  LYS798  CYS799  TRP800  GLU811  SER814 

> <Gold.Protein.RotatedAtoms>
  150.7822  133.8960  159.3326 H   0  0  0  0  0  0  0  0  0  0  0  0  # atno 6907 bound_to 6896
  151.6820  135.0958  160.0227 H   0  0  0  0  0  0  0  0  0  0  0  0  # atno 6908 bound_to 6896
  152.3876  133.6594  159.6247 H   0  0  0  0  0  0  0  0  0  0  0  0  # atno 6909 bound_to 6896
  144.8683  140.6328  143.5283 H   0  0  0  0  0  0  0  0  0  0  0  0  # atno 7974 bound_to 7965
  155.0937  140.0395  157.2676 H   0  0  0  0  0  0  0  0  0  0  0  0  # atno 8008 bound_to 7997
  154.6812  140.2633  155.6882 H   0  0  0  0  0  0  0  0  0  0  0  0  # atno 8009 bound_to 7997
  156.2695  140.2778  156.1357 H   0  0  0  0  0  0  0  0  0  0  0  0  # atno 8010 bound_to 7997
  139.7859  143.8035  152.2644 H   0  0  0  0  0  0  0  0  0  0  0  0  # atno 10167 bound_to 10162
  157.2092  131.0694  151.1979 H   0  0  0  0  0  0  0  0  0  0  0  0  # atno 10718 bound_to 10713
  152.9803  135.5751  154.4874 H   0  0  0  0  0  0  0  0  0  0  0  0  # atno 10763 bound_to 10752
  154.4413  135.2776  155.1847 H   0  0  0  0  0  0  0  0  0  0  0  0  # atno 10764 bound_to 10752
  154.3514  135.6208  153.5698 H   0  0  0  0  0  0  0  0  0  0  0  0  # atno 10765 bound_to 10752
  140.8200  133.8075  155.9650 H   0  0  0  0  0  0  0  0  0  0  0  0  # atno 11005 bound_to 11000
  145.4178  139.1569  143.4090 LP  0  0  0  0  0  0  0  0  0  0  0  0  # atno 17320 bound_to 7965
  146.2912  140.4287  142.8739 LP  0  0  0  0  0  0  0  0  0  0  0  0  # atno 17321 bound_to 7965
  139.8111  144.7335  150.9695 LP  0  0  0  0  0  0  0  0  0  0  0  0  # atno 17342 bound_to 10162
  140.7819  143.4249  151.0783 LP  0  0  0  0  0  0  0  0  0  0  0  0  # atno 17343 bound_to 10162
  157.3689  130.7170  149.6551 LP  0  0  0  0  0  0  0  0  0  0  0  0  # atno 17370 bound_to 10713
  155.9692  130.4204  150.4422 LP  0  0  0  0  0  0  0  0  0  0  0  0  # atno 17371 bound_to 10713
  140.9109  134.2262  157.4986 LP  0  0  0  0  0  0  0  0  0  0  0  0  # atno 17394 bound_to 11000
  139.8709  134.9749  156.4865 LP  0  0  0  0  0  0  0  0  0  0  0  0  # atno 17395 bound_to 11000

$$$$
