AV-unprocessed.smi:1493|AV-procd|sdf|6051|dock7
  -GOLD-   22720 6163D 1   1.00000     0.00000
 Structure written by MMmdl.
 34 34  0  0  0  0  0  0  0  0  1 V2000
  151.4211  145.0642  160.4187 C   0  0  0  0  0  0  0  0  0  0  0  0
  151.2890  144.0858  159.2467 C   0  0  0  0  0  0  0  0  0  0  0  0
  152.6528  143.5847  158.7397 C   0  0  0  0  0  0  0  0  0  0  0  0
  153.2222  142.4092  159.5570 C   0  0  1  0  0  0  0  0  0  0  0  0
  153.2111  142.7043  161.0636 C   0  0  0  0  0  0  0  0  0  0  0  0
  152.4544  141.1927  159.2975 N   0  0  0  0  0  0  0  0  0  0  0  0
  152.8835  140.1179  158.6180 C   0  0  0  0  0  0  0  0  0  0  0  0
  154.0038  140.0374  158.1123 O   0  0  0  0  0  0  0  0  0  0  0  0
  151.8715  138.9709  158.4780 C   0  0  0  0  0  0  0  0  0  0  0  0
  151.2774  138.8722  157.1370 N   0  0  0  0  0  0  0  0  0  0  0  0
  151.7290  137.7909  156.3956 N   0  0  0  0  0  0  0  0  0  0  0  0
  151.2721  137.5892  155.2061 C   0  0  0  0  0  0  0  0  0  0  0  0
  151.7443  136.5047  154.5085 O   0  0  0  0  0  0  0  0  0  0  0  0
  150.2917  138.4765  154.6200 C   0  0  0  0  0  0  0  0  0  0  0  0
  149.8606  139.5295  155.3485 C   0  0  0  0  0  0  0  0  0  0  0  0
  150.3580  139.7876  156.7012 C   0  0  0  0  0  0  0  0  0  0  0  0
  149.9845  140.7393  157.3866 O   0  0  0  0  0  0  0  0  0  0  0  0
  151.1804  136.4280  153.7542 H   0  0  0  0  0  0  0  0  0  0  0  0
  150.4407  145.4008  160.7561 H   0  0  0  0  0  0  0  0  0  0  0  0
  151.9952  145.9461  160.1331 H   0  0  0  0  0  0  0  0  0  0  0  0
  151.9224  144.5969  161.2666 H   0  0  0  0  0  0  0  0  0  0  0  0
  150.6720  143.2428  159.5589 H   0  0  0  0  0  0  0  0  0  0  0  0
  150.7535  144.5733  158.4312 H   0  0  0  0  0  0  0  0  0  0  0  0
  152.5469  143.2743  157.6994 H   0  0  0  0  0  0  0  0  0  0  0  0
  153.3668  144.4097  158.7377 H   0  0  0  0  0  0  0  0  0  0  0  0
  154.2623  142.2710  159.2570 H   0  0  0  0  0  0  0  0  0  0  0  0
  153.7897  143.5998  161.2924 H   0  0  0  0  0  0  0  0  0  0  0  0
  153.6471  141.8791  161.6279 H   0  0  0  0  0  0  0  0  0  0  0  0
  152.1964  142.8602  161.4312 H   0  0  0  0  0  0  0  0  0  0  0  0
  151.5162  141.1663  159.6697 H   0  0  0  0  0  0  0  0  0  0  0  0
  152.3532  138.0273  158.7414 H   0  0  0  0  0  0  0  0  0  0  0  0
  151.0901  139.1181  159.2257 H   0  0  0  0  0  0  0  0  0  0  0  0
  149.9191  138.2932  153.6229 H   0  0  0  0  0  0  0  0  0  0  0  0
  149.1283  140.2002  154.9236 H   0  0  0  0  0  0  0  0  0  0  0  0
  1  2  1  0  0  0  0
  1 19  1  0  0  0  0
  1 20  1  0  0  0  0
  1 21  1  0  0  0  0
  2  3  1  0  0  0  0
  2 22  1  0  0  0  0
  2 23  1  0  0  0  0
  3  4  1  0  0  0  0
  3 24  1  0  0  0  0
  3 25  1  0  0  0  0
  4  5  1  0  0  0  0
  4  6  1  0  0  0  0
  4 26  1  0  0  0  0
  5 27  1  0  0  0  0
  5 28  1  0  0  0  0
  5 29  1  0  0  0  0
  6  7  1  0  0  0  0
  6 30  1  0  0  0  0
  7  8  2  0  0  0  0
  7  9  1  0  0  0  0
  9 31  1  0  0  0  0
  9 32  1  0  0  0  0
  9 10  1  0  0  0  0
 10 11  1  0  0  0  0
 10 16  1  0  0  0  0
 11 12  2  0  0  0  0
 12 13  1  0  0  0  0
 12 14  1  0  0  0  0
 13 18  1  0  0  0  0
 14 33  1  0  0  0  0
 14 15  2  0  0  0  0
 15 34  1  0  0  0  0
 15 16  1  0  0  0  0
 16 17  2  0  0  0  0
M  END
> <s_m_source_file>
AV-unprocessed.smi

> <i_m_source_file_index>
1493

> <i_lp_mmshare_version>
43012

> <i_f3d_flags>
0

> <s_epik_input>
W0NIM11bQ0gyXVtDSDJdW0NASF0oW0NIM10pW05IXUMoPU8pW0NIMl1uMVtuSF1jKD1PKVtjSF1bY0hdYzE9Tw==

> <s_epik_cmdline>
J2VwaWtfcHl0aG9uJywgJy1waCcsICc3LjAnLCAnLXRuJywgJzgnLCAnLW1hJywgJzIwMCcsICctbWV0YWxfYmluZGluZycsICctaW1hZScsICc8aW5maWxlLm1hZT4nLCAnLW9tYWUnLCAnPG91dGZpbGUubWFlPic=

> <r_lp_tautomer_probability>
0.9996

> <r_epik_Ionization_Penalty>
2.12047

> <r_epik_Ionization_Penalty_Charging>
3.81971e-08

> <r_epik_Ionization_Penalty_Neutral>
2.12047

> <r_epik_State_Penalty>
1.69728

> <r_epik_Charging_Adjusted_Penalty>
1.69728

> <i_epik_Tot_Q>
0

> <i_epik_Tot_abs_Q>
0

> <r_epik_Metal_State_Penalty>
1.69728

> <b_epik_Metal_Only>
0

> <s_lp_Force_Field>
OPLS_2005

> <r_lp_Energy>
15.6532

> <b_lp_Chiralities_Consistent>
1

> <s_lp_Variant>
AV-unprocessed.smi:1493-4

> <Gold.Version>
5.8.1

> <Gold.Id.Protein>
6NUR|6NUR_protein|mol2

> <Gold.PLP.Fitness>
44.6716

> <Gold.PLP.PLP>
-37.2378

> <Gold.PLP.part.hbond>
-3.0000

> <Gold.PLP.part.metal>
0.0000

> <Gold.PLP.part.buried>
-2.3715

> <Gold.PLP.part.nonpolar>
-31.4227

> <Gold.PLP.part.repulsive>
0.1934

> <Gold.PLP.ligand.clash>
0.0000

> <Gold.PLP.ligand.torsion>
0.5666

> <Gold.PLP.Chemscore.Hbond>
2.8450

> <Gold.PLP.Chemscore.CHOScore>
0.0000

> <Gold.PLP.Chemscore.Metal>
0.0000

> <Gold.Chemscore.Hbonds>
donor molecule, donor type, donor heavy atom, donor atom, acceptor molecule, acceptor atom, score
      L1  H    13    18       P1  7949  0.28
      P1  H  7997  8010       L1     8  0.18
      P1  H 10752 10763       L1    13  0.94

> <Gold.PLP.Chemscore.Internal.Correction>
0.0319

> <Gold.Rescore>
     Score         DG    S(hbond)    S(metal)    S(lipo)     H(rot)  DE(clash)    DE(int)     intcor
     13.89     -14.48       1.97        0.00      81.52       2.78       0.02       0.57       ----

> <Gold.Chemscore.Fitness>
13.8920

> <Gold.Chemscore.DG>
-14.4804

> <Gold.Chemscore.ZeroCoef>
-5.4800

> <Gold.Chemscore.Hbond>
1.9688

> <Gold.Chemscore.Metal>
0.0000

> <Gold.Chemscore.Lipo>
81.5189

> <Gold.Chemscore.Internal_Hbond>
0.0000

> <Gold.Chemscore.DEClash>
0.0164

> <Gold.Chemscore.DEInternal>
0.5720

> <Gold.Chemscore.Rot>
2.7785

> <Gold.Chemscore.Internal.Correction>
   9.000000E+99

> <Gold.Chemscore.Hbonds>
donor molecule, donor type, donor heavy atom, donor atom, acceptor molecule, acceptor atom, score
      L1  H    13    18       P1  7949  0.13
      P1  H  7997  8010       L1     8  0.18
      P1  H 10752 10763       L1    13  0.85

> <Gold.Chemscore.Hbond.Weighted>
-6.5756

> <Gold.Chemscore.Metal.Weighted>
-0.0000

> <Gold.Chemscore.Lipo.Weighted>
-9.5377

> <Gold.Chemscore.Internal_Hbond.Weighted>
0.0000

> <Gold.Chemscore.DEClash.Weighted>
0.0164

> <Gold.Chemscore.DEInternal.Weighted>
0.5720

> <Gold.Chemscore.Rot.Weighted>
7.1129

> <Gold.Chemscore.Internal.Correction.Weighted>
   9.000000E+99

> <Gold.Protein.RotatedTorsions>
[ 6907 6896 6895 6894 ] final   14.60 input  -60.11 | X-H torsion
[ 7974 7965 7964 7962 ] final  -48.73 input  175.53 | X-H torsion
[ 8008 7997 7996 7995 ] final   20.81 input   59.86 | X-H torsion
[ 10167 10162 10161 10158 ] final  129.32 input  -65.29 | X-H torsion
[ 10718 10713 10712 10709 ] final   10.93 input   66.30 | X-H torsion
[ 10763 10752 10751 10750 ] final   61.75 input  -60.55 | X-H torsion
[ 11005 11000 10999 10996 ] final    7.43 input  -57.11 | X-H torsion

> <Gold.Protein.ActiveResidues>
 VAL166  LYS551  ARG553  GLY616  TRP617  ASP618  TYR619  PRO620  LYS621  CYS622 
 ASP623  PHE694  ASN695  SER759  ASP760  ASP761  ALA762  ILE779  LEU786  VAL792 
 PHE793  MET794  SER795  GLU796  ALA797  LYS798  CYS799  TRP800  GLU811  SER814 

> <Gold.Protein.RotatedAtoms>
  151.8048  135.0698  160.0404 H   0  0  0  0  0  0  0  0  0  0  0  0  # atno 6907 bound_to 6896
  152.3063  133.5702  159.5659 H   0  0  0  0  0  0  0  0  0  0  0  0  # atno 6908 bound_to 6896
  150.7297  134.0134  159.3719 H   0  0  0  0  0  0  0  0  0  0  0  0  # atno 6909 bound_to 6896
  145.9481  140.7598  142.9518 H   0  0  0  0  0  0  0  0  0  0  0  0  # atno 7974 bound_to 7965
  154.9412  140.3053  155.5120 H   0  0  0  0  0  0  0  0  0  0  0  0  # atno 8008 bound_to 7997
  156.2996  140.2336  156.4419 H   0  0  0  0  0  0  0  0  0  0  0  0  # atno 8009 bound_to 7997
  154.8143  140.0427  157.1354 H   0  0  0  0  0  0  0  0  0  0  0  0  # atno 8010 bound_to 7997
  139.5483  144.6792  151.4402 H   0  0  0  0  0  0  0  0  0  0  0  0  # atno 10167 bound_to 10162
  156.9882  130.6032  149.5683 H   0  0  0  0  0  0  0  0  0  0  0  0  # atno 10718 bound_to 10713
  152.9960  135.5489  154.6083 H   0  0  0  0  0  0  0  0  0  0  0  0  # atno 10763 bound_to 10752
  154.5410  135.2820  155.1098 H   0  0  0  0  0  0  0  0  0  0  0  0  # atno 10764 bound_to 10752
  154.2375  135.6422  153.5249 H   0  0  0  0  0  0  0  0  0  0  0  0  # atno 10765 bound_to 10752
  140.5484  134.0307  155.7928 H   0  0  0  0  0  0  0  0  0  0  0  0  # atno 11005 bound_to 11000
  144.6791  140.2390  143.7346 LP  0  0  0  0  0  0  0  0  0  0  0  0  # atno 17320 bound_to 7965
  145.8208  139.2043  143.1939 LP  0  0  0  0  0  0  0  0  0  0  0  0  # atno 17321 bound_to 7965
  140.6738  143.8234  150.7033 LP  0  0  0  0  0  0  0  0  0  0  0  0  # atno 17342 bound_to 10162
  140.1667  143.4229  152.2030 LP  0  0  0  0  0  0  0  0  0  0  0  0  # atno 17343 bound_to 10162
  156.0217  130.5312  150.8295 LP  0  0  0  0  0  0  0  0  0  0  0  0  # atno 17370 bound_to 10713
  157.5478  131.0943  150.9739 LP  0  0  0  0  0  0  0  0  0  0  0  0  # atno 17371 bound_to 10713
  141.1186  133.9498  157.2773 LP  0  0  0  0  0  0  0  0  0  0  0  0  # atno 17394 bound_to 11000
  139.9468  135.0182  156.8875 LP  0  0  0  0  0  0  0  0  0  0  0  0  # atno 17395 bound_to 11000

$$$$
