AV-unprocessed.smi:2962|AV-procd|sdf|11316|dock2
  -GOLD-   2272016223D 1   1.00000     0.00000
 Structure written by MMmdl.
 36 37  0  0  0  0  0  0  0  0  1 V2000
  149.7245  141.2029  154.9560 C   0  0  0  0  0  0  0  0  0  0  0  0
  150.7487  140.2262  154.9031 O   0  0  0  0  0  0  0  0  0  0  0  0
  151.7082  140.3867  155.9350 C   0  0  0  0  0  0  0  0  0  0  0  0
  151.0411  140.1768  157.3011 C   0  0  0  0  0  0  0  0  0  0  0  0
  151.7405  140.8850  158.3639 N   0  0  0  0  0  0  0  0  0  0  0  0
  152.4937  140.3705  159.3682 C   0  0  0  0  0  0  0  0  0  0  0  0
  152.7710  138.6404  159.5524 S   0  0  0  0  0  0  0  0  0  0  0  0
  153.9450  138.7004  160.9405 C   0  0  1  0  0  0  0  0  0  0  0  0
  154.1822  137.3008  161.5367 C   0  0  0  0  0  0  0  0  0  0  0  0
  155.2513  139.3852  160.5208 C   0  0  0  0  0  0  0  0  0  0  0  0
  156.1651  139.5753  161.4765 N   0  0  0  0  0  0  0  0  0  0  0  0
  155.4414  139.7405  159.3586 O   0  0  0  0  0  0  0  0  0  0  0  0
  153.0066  141.2583  160.2196 N   0  0  0  0  0  0  0  0  0  0  0  0
  152.5495  142.4612  159.7188 C   0  0  0  0  0  0  0  0  0  0  0  0
  152.7520  143.7831  160.1757 C   0  0  0  0  0  0  0  0  0  0  0  0
  152.1719  144.8713  159.4913 C   0  0  0  0  0  0  0  0  0  0  0  0
  151.3825  144.6538  158.3435 C   0  0  0  0  0  0  0  0  0  0  0  0
  151.1687  143.3445  157.8712 C   0  0  0  0  0  0  0  0  0  0  0  0
  151.7519  142.2623  158.5570 C   0  0  0  0  0  0  0  0  0  0  0  0
  149.0134  141.0315  154.1479 H   0  0  0  0  0  0  0  0  0  0  0  0
  150.1321  142.2079  154.8388 H   0  0  0  0  0  0  0  0  0  0  0  0
  149.1800  141.1532  155.8998 H   0  0  0  0  0  0  0  0  0  0  0  0
  152.5180  139.6672  155.8066 H   0  0  0  0  0  0  0  0  0  0  0  0
  152.1473  141.3843  155.8843 H   0  0  0  0  0  0  0  0  0  0  0  0
  150.0008  140.4971  157.2646 H   0  0  0  0  0  0  0  0  0  0  0  0
  151.0232  139.1149  157.5478 H   0  0  0  0  0  0  0  0  0  0  0  0
  153.5038  139.3201  161.7221 H   0  0  0  0  0  0  0  0  0  0  0  0
  154.9370  137.3258  162.3238 H   0  0  0  0  0  0  0  0  0  0  0  0
  154.5163  136.5943  160.7758 H   0  0  0  0  0  0  0  0  0  0  0  0
  153.2704  136.9014  161.9801 H   0  0  0  0  0  0  0  0  0  0  0  0
  157.0467  140.0129  161.2521 H   0  0  0  0  0  0  0  0  0  0  0  0
  155.9727  139.2705  162.4196 H   0  0  0  0  0  0  0  0  0  0  0  0
  153.3539  143.9595  161.0548 H   0  0  0  0  0  0  0  0  0  0  0  0
  152.3322  145.8777  159.8495 H   0  0  0  0  0  0  0  0  0  0  0  0
  150.9406  145.4928  157.8261 H   0  0  0  0  0  0  0  0  0  0  0  0
  150.5639  143.1740  156.9931 H   0  0  0  0  0  0  0  0  0  0  0  0
  1  2  1  0  0  0  0
  1 20  1  0  0  0  0
  1 21  1  0  0  0  0
  1 22  1  0  0  0  0
  2  3  1  0  0  0  0
  3  4  1  0  0  0  0
  3 23  1  0  0  0  0
  3 24  1  0  0  0  0
  4  5  1  0  0  0  0
  4 25  1  0  0  0  0
  4 26  1  0  0  0  0
  5 19  1  0  0  0  0
  5  6  1  0  0  0  0
  6  7  1  0  0  0  0
  6 13  2  0  0  0  0
  7  8  1  0  0  0  0
  8  9  1  0  0  0  0
  8 10  1  0  0  0  0
  8 27  1  0  0  0  0
  9 28  1  0  0  0  0
  9 29  1  0  0  0  0
  9 30  1  0  0  0  0
 10 11  1  0  0  0  0
 10 12  2  0  0  0  0
 11 31  1  0  0  0  0
 11 32  1  0  0  0  0
 13 14  1  0  0  0  0
 14 19  2  0  0  0  0
 14 15  1  0  0  0  0
 15 16  2  0  0  0  0
 15 33  1  0  0  0  0
 16 17  1  0  0  0  0
 16 34  1  0  0  0  0
 17 18  2  0  0  0  0
 17 35  1  0  0  0  0
 18 19  1  0  0  0  0
 18 36  1  0  0  0  0
M  END
> <s_m_source_file>
AV-unprocessed.smi

> <i_m_source_file_index>
2962

> <i_lp_mmshare_version>
43012

> <i_f3d_flags>
0

> <s_epik_input>
W2NIXTFbY0hdW2NIXVtjSF1jKGMxMiluKFtDSDJdW0NIMl1PW0NIM10pYyhuMilTW0NASF0oW0NIM10pQyg9TylbTkgyXQ==

> <s_epik_cmdline>
J2VwaWtfcHl0aG9uJywgJy1waCcsICc3LjAnLCAnLXRuJywgJzgnLCAnLW1hJywgJzIwMCcsICctbWV0YWxfYmluZGluZycsICctaW1hZScsICc8aW5maWxlLm1hZT4nLCAnLW9tYWUnLCAnPG91dGZpbGUubWFlPic=

> <r_epik_Ionization_Penalty>
0.0199986

> <r_epik_Ionization_Penalty_Charging>
0

> <r_epik_Ionization_Penalty_Neutral>
0.0199986

> <r_epik_State_Penalty>
0.0160044

> <r_epik_Charging_Adjusted_Penalty>
0.0160044

> <i_epik_Tot_Q>
0

> <i_epik_Tot_abs_Q>
0

> <r_epik_Metal_State_Penalty>
0.015472

> <b_epik_Metal_Only>
0

> <s_lp_Force_Field>
OPLS_2005

> <r_lp_Energy>
4.7896

> <b_lp_Chiralities_Consistent>
1

> <s_lp_Variant>
AV-unprocessed.smi:2962-2

> <Gold.Version>
5.8.1

> <Gold.Id.Protein>
6NUR|6NUR_protein|mol2

> <Gold.PLP.Fitness>
46.4276

> <Gold.PLP.PLP>
-41.1037

> <Gold.PLP.part.hbond>
-2.0000

> <Gold.PLP.part.metal>
0.0000

> <Gold.PLP.part.buried>
-5.2265

> <Gold.PLP.part.nonpolar>
-32.6890

> <Gold.PLP.part.repulsive>
0.0633

> <Gold.PLP.ligand.clash>
0.0000

> <Gold.PLP.ligand.torsion>
0.3626

> <Gold.PLP.Chemscore.Hbond>
1.9920

> <Gold.PLP.Chemscore.CHOScore>
0.0000

> <Gold.PLP.Chemscore.Metal>
0.0000

> <Gold.Chemscore.Hbonds>
donor molecule, donor type, donor heavy atom, donor atom, acceptor molecule, acceptor atom, score
      P1  H  7989  7998       L1     2  0.90
      P1  H  7997  8009       L1    12  0.90

> <Gold.PLP.Chemscore.Internal.Correction>
0.0732

> <Gold.Rescore>
     Score         DG    S(hbond)    S(metal)    S(lipo)     H(rot)  DE(clash)    DE(int)     intcor
     15.85     -16.60       1.70        0.00     101.24       2.50       0.25       0.50       ----

> <Gold.Chemscore.Fitness>
15.8504

> <Gold.Chemscore.DG>
-16.5990

> <Gold.Chemscore.ZeroCoef>
-5.4800

> <Gold.Chemscore.Hbond>
1.7008

> <Gold.Chemscore.Metal>
0.0000

> <Gold.Chemscore.Lipo>
101.2424

> <Gold.Chemscore.Internal_Hbond>
0.0000

> <Gold.Chemscore.DEClash>
0.2504

> <Gold.Chemscore.DEInternal>
0.4982

> <Gold.Chemscore.Rot>
2.5027

> <Gold.Chemscore.Internal.Correction>
   9.000000E+99

> <Gold.Chemscore.Hbonds>
donor molecule, donor type, donor heavy atom, donor atom, acceptor molecule, acceptor atom, score
      P1  H  7989  7998       L1     2  0.05
      P1  H  7997  8009       L1    12  0.83

> <Gold.Chemscore.Hbond.Weighted>
-5.6807

> <Gold.Chemscore.Metal.Weighted>
-0.0000

> <Gold.Chemscore.Lipo.Weighted>
-11.8454

> <Gold.Chemscore.Internal_Hbond.Weighted>
0.0000

> <Gold.Chemscore.DEClash.Weighted>
0.2504

> <Gold.Chemscore.DEInternal.Weighted>
0.4982

> <Gold.Chemscore.Rot.Weighted>
6.4070

> <Gold.Chemscore.Internal.Correction.Weighted>
   9.000000E+99

> <Gold.Protein.RotatedTorsions>
[ 6907 6896 6895 6894 ] final  -42.27 input  -60.11 | X-H torsion
[ 7974 7965 7964 7962 ] final  -51.47 input  175.53 | X-H torsion
[ 8008 7997 7996 7995 ] final   88.12 input   59.86 | X-H torsion
[ 10167 10162 10161 10158 ] final  157.73 input  -65.29 | X-H torsion
[ 10718 10713 10712 10709 ] final  165.84 input   66.30 | X-H torsion
[ 10763 10752 10751 10750 ] final   86.69 input  -60.55 | X-H torsion
[ 11005 11000 10999 10996 ] final -108.78 input  -57.11 | X-H torsion

> <Gold.Protein.ActiveResidues>
 VAL166  LYS551  ARG553  GLY616  TRP617  ASP618  TYR619  PRO620  LYS621  CYS622 
 ASP623  PHE694  ASN695  SER759  ASP760  ASP761  ALA762  ILE779  LEU786  VAL792 
 PHE793  MET794  SER795  GLU796  ALA797  LYS798  CYS799  TRP800  GLU811  SER814 

> <Gold.Protein.RotatedAtoms>
  150.9572  134.8965  159.7707 H   0  0  0  0  0  0  0  0  0  0  0  0  # atno 6907 bound_to 6896
  152.5142  134.3724  159.9332 H   0  0  0  0  0  0  0  0  0  0  0  0  # atno 6908 bound_to 6896
  151.3737  133.3805  159.2737 H   0  0  0  0  0  0  0  0  0  0  0  0  # atno 6909 bound_to 6896
  145.9187  140.7853  142.9658 H   0  0  0  0  0  0  0  0  0  0  0  0  # atno 7974 bound_to 7965
  155.9838  140.3375  155.6688 H   0  0  0  0  0  0  0  0  0  0  0  0  # atno 8008 bound_to 7997
  155.6513  140.0706  157.2604 H   0  0  0  0  0  0  0  0  0  0  0  0  # atno 8009 bound_to 7997
  154.4199  140.1725  156.1665 H   0  0  0  0  0  0  0  0  0  0  0  0  # atno 8010 bound_to 7997
  139.4824  144.4890  151.8335 H   0  0  0  0  0  0  0  0  0  0  0  0  # atno 10167 bound_to 10162
  157.0744  131.0375  151.2599 H   0  0  0  0  0  0  0  0  0  0  0  0  # atno 10718 bound_to 10713
  153.1595  135.4571  154.9751 H   0  0  0  0  0  0  0  0  0  0  0  0  # atno 10763 bound_to 10752
  154.7886  135.3213  154.7831 H   0  0  0  0  0  0  0  0  0  0  0  0  # atno 10764 bound_to 10752
  153.8323  135.6937  153.4867 H   0  0  0  0  0  0  0  0  0  0  0  0  # atno 10765 bound_to 10752
  141.0883  133.9100  157.2135 H   0  0  0  0  0  0  0  0  0  0  0  0  # atno 11005 bound_to 11000
  144.6750  140.1940  143.7394 LP  0  0  0  0  0  0  0  0  0  0  0  0  # atno 17320 bound_to 7965
  145.8578  139.2208  143.1734 LP  0  0  0  0  0  0  0  0  0  0  0  0  # atno 17321 bound_to 7965
  140.4373  144.2034  150.5890 LP  0  0  0  0  0  0  0  0  0  0  0  0  # atno 17342 bound_to 10162
  140.4719  143.2410  151.9077 LP  0  0  0  0  0  0  0  0  0  0  0  0  # atno 17343 bound_to 10162
  157.4852  130.7789  149.7453 LP  0  0  0  0  0  0  0  0  0  0  0  0  # atno 17370 bound_to 10713
  155.9941  130.3920  150.2872 LP  0  0  0  0  0  0  0  0  0  0  0  0  # atno 17371 bound_to 10713
  139.9705  135.0130  156.9498 LP  0  0  0  0  0  0  0  0  0  0  0  0  # atno 17394 bound_to 11000
  140.5311  134.0812  155.7316 LP  0  0  0  0  0  0  0  0  0  0  0  0  # atno 17395 bound_to 11000

$$$$
