AV-unprocessed.smi:793|AV-procd|sdf|3754|dock1
  -GOLD-   22720 1183D 1   1.00000     0.00000
 Structure written by MMmdl.
 38 39  0  0  0  0  0  0  0  0  2 V2000
  150.0228  133.3539  155.0320 C   0  0  0  0  0  0  0  0  0  0  0  0
  149.0131  134.5001  155.1707 C   0  0  0  0  0  0  0  0  0  0  0  0
  149.2915  135.3928  156.3950 C   0  0  2  0  0  0  0  0  0  0  0  0
  150.6186  135.9071  156.2671 O   0  0  0  0  0  0  0  0  0  0  0  0
  150.8547  136.8471  155.2200 C   0  0  0  0  0  0  0  0  0  0  0  0
  152.0999  137.7119  155.4385 C   0  0  0  0  0  0  0  0  0  0  0  0
  151.8428  138.9868  154.6278 C   0  0  0  0  0  0  0  0  0  0  0  0
  150.3195  139.0835  154.4472 C   0  0  0  0  0  0  0  0  0  0  0  0
  149.7242  137.8733  155.1748 C   0  0  0  0  0  0  0  0  0  0  0  0
  149.1419  134.6125  157.7121 C   0  0  0  0  0  0  0  0  0  0  0  0
  149.7989  133.5877  157.8971 O   0  0  0  0  0  0  0  0  0  0  0  0
  148.2910  135.1484  158.6055 N   0  0  0  0  0  0  0  0  0  0  0  0
  147.9761  134.7001  159.9171 C   0  0  0  0  0  0  0  0  0  0  0  0
  147.8883  133.3318  160.2759 C   0  0  0  0  0  0  0  0  0  0  0  0
  147.5697  132.9049  161.5171 N   0  0  0  0  0  0  0  0  0  0  0  0
  147.3173  133.8369  162.4599 C   0  0  0  0  0  0  0  0  0  0  0  0
  147.3600  135.2223  162.2103 C   0  0  0  0  0  0  0  0  0  0  0  0
  147.6906  135.6625  160.9141 C   0  0  0  0  0  0  0  0  0  0  0  0
  147.7345  137.0034  160.6464 O   0  5  0  0  0  0  0  0  0  0  0  0
  149.8019  132.7464  154.1543 H   0  0  0  0  0  0  0  0  0  0  0  0
  150.0000  132.6996  155.9039 H   0  0  0  0  0  0  0  0  0  0  0  0
  151.0388  133.7350  154.9257 H   0  0  0  0  0  0  0  0  0  0  0  0
  149.0433  135.1015  154.2610 H   0  0  0  0  0  0  0  0  0  0  0  0
  148.0057  134.0864  155.2319 H   0  0  0  0  0  0  0  0  0  0  0  0
  148.5716  136.2127  156.3837 H   0  0  0  0  0  0  0  0  0  0  0  0
  150.9101  136.3585  154.2463 H   0  0  0  0  0  0  0  0  0  0  0  0
  152.1889  137.9654  156.4958 H   0  0  0  0  0  0  0  0  0  0  0  0
  153.0196  137.2090  155.1381 H   0  0  0  0  0  0  0  0  0  0  0  0
  152.2512  139.8647  155.1293 H   0  0  0  0  0  0  0  0  0  0  0  0
  152.3256  138.9144  153.6523 H   0  0  0  0  0  0  0  0  0  0  0  0
  149.9198  140.0197  154.8381 H   0  0  0  0  0  0  0  0  0  0  0  0
  150.0721  139.0410  153.3858 H   0  0  0  0  0  0  0  0  0  0  0  0
  148.8281  137.4882  154.6877 H   0  0  0  0  0  0  0  0  0  0  0  0
  149.4500  138.1614  156.1905 H   0  0  0  0  0  0  0  0  0  0  0  0
  147.8920  136.0424  158.3570 H   0  0  0  0  0  0  0  0  0  0  0  0
  148.0522  132.5442  159.5571 H   0  0  0  0  0  0  0  0  0  0  0  0
  147.0674  133.4673  163.4434 H   0  0  0  0  0  0  0  0  0  0  0  0
  147.1427  135.9289  162.9980 H   0  0  0  0  0  0  0  0  0  0  0  0
  1  2  1  0  0  0  0
  1 20  1  0  0  0  0
  1 21  1  0  0  0  0
  1 22  1  0  0  0  0
  2  3  1  0  0  0  0
  2 23  1  0  0  0  0
  2 24  1  0  0  0  0
  3  4  1  0  0  0  0
  3 10  1  0  0  0  0
  3 25  1  0  0  0  0
  4  5  1  0  0  0  0
  5  9  1  0  0  0  0
  5  6  1  0  0  0  0
  5 26  1  0  0  0  0
  6  7  1  0  0  0  0
  6 27  1  0  0  0  0
  6 28  1  0  0  0  0
  7  8  1  0  0  0  0
  7 29  1  0  0  0  0
  7 30  1  0  0  0  0
  8  9  1  0  0  0  0
  8 31  1  0  0  0  0
  8 32  1  0  0  0  0
  9 33  1  0  0  0  0
  9 34  1  0  0  0  0
 10 11  2  0  0  0  0
 10 12  1  0  0  0  0
 12 35  1  0  0  0  0
 12 13  1  0  0  0  0
 13 18  1  0  0  0  0
 13 14  2  0  0  0  0
 14 36  1  0  0  0  0
 14 15  1  0  0  0  0
 15 16  2  0  0  0  0
 16 37  1  0  0  0  0
 16 17  1  0  0  0  0
 17 18  2  0  0  0  0
 17 38  1  0  0  0  0
 18 19  1  0  0  0  0
M  CHG  1  19  -1
M  END
> <s_m_source_file>
AV-unprocessed.smi

> <i_m_source_file_index>
793

> <i_lp_mmshare_version>
43012

> <i_f3d_flags>
0

> <s_epik_input>
W0NIMl0xW0NIMl1bQ0gyXVtDSDJdW0NIXTFPW0NAQEhdKFtDSDJdW0NIM10pQyg9TylbTkhdYzJbY0hdbltjSF1bY0hdYzJbT0hd

> <s_epik_cmdline>
J2VwaWtfcHl0aG9uJywgJy1waCcsICc3LjAnLCAnLXRuJywgJzgnLCAnLW1hJywgJzIwMCcsICctbWV0YWxfYmluZGluZycsICctaW1hZScsICc8aW5maWxlLm1hZT4nLCAnLW9tYWUnLCAnPG91dGZpbGUubWFlPic=

> <r_lp_tautomer_probability>
1

> <r_epik_Ionization_Penalty>
5.91611

> <r_epik_Ionization_Penalty_Charging>
1.01889

> <r_epik_Ionization_Penalty_Neutral>
4.89722

> <r_epik_State_Penalty>
4.89706

> <r_epik_Charging_Adjusted_Penalty>
5.91595

> <i_epik_Tot_Q>
-1

> <i_epik_Tot_abs_Q>
1

> <r_epik_Metal_State_Penalty>
1.05012

> <b_epik_Metal_Only>
1

> <s_lp_Force_Field>
OPLS_2005

> <r_lp_Energy>
28.2146

> <b_lp_Chiralities_Consistent>
1

> <s_lp_Variant>
AV-unprocessed.smi:793-3

> <Gold.Version>
5.8.1

> <Gold.Id.Protein>
6NUR|6NUR_protein|mol2

> <Gold.PLP.Fitness>
44.1356

> <Gold.PLP.PLP>
-31.6019

> <Gold.PLP.part.hbond>
-3.0000

> <Gold.PLP.part.metal>
0.0000

> <Gold.PLP.part.buried>
-3.5114

> <Gold.PLP.part.nonpolar>
-25.3749

> <Gold.PLP.part.repulsive>
0.0860

> <Gold.PLP.ligand.clash>
0.0000

> <Gold.PLP.ligand.torsion>
0.5083

> <Gold.PLP.Chemscore.Hbond>
4.4880

> <Gold.PLP.Chemscore.CHOScore>
0.0000

> <Gold.PLP.Chemscore.Metal>
0.0000

> <Gold.Chemscore.Hbonds>
donor molecule, donor type, donor heavy atom, donor atom, acceptor molecule, acceptor atom, score
      P1  H  6896  6908       L1    11  1.00
      P1  H  6931  6943       L1    19  1.01
      P1  H  6934  6947       L1    19  1.48

> <Gold.PLP.Chemscore.Internal.Correction>
0.0864

> <Gold.Rescore>
     Score         DG    S(hbond)    S(metal)    S(lipo)     H(rot)  DE(clash)    DE(int)     intcor
     17.19     -19.56       2.61        0.00      78.60       1.49       0.16       2.21       ----

> <Gold.Chemscore.Fitness>
17.1894

> <Gold.Chemscore.DG>
-19.5566

> <Gold.Chemscore.ZeroCoef>
-5.4800

> <Gold.Chemscore.Hbond>
2.6056

> <Gold.Chemscore.Metal>
0.0000

> <Gold.Chemscore.Lipo>
78.6021

> <Gold.Chemscore.Internal_Hbond>
0.0000

> <Gold.Chemscore.DEClash>
0.1596

> <Gold.Chemscore.DEInternal>
2.2076

> <Gold.Chemscore.Rot>
1.4932

> <Gold.Chemscore.Internal.Correction>
   9.000000E+99

> <Gold.Chemscore.Hbonds>
donor molecule, donor type, donor heavy atom, donor atom, acceptor molecule, acceptor atom, score
      P1  H  6896  6908       L1    11  0.82
      P1  H  6931  6943       L1    19  0.48
      P1  H  6934  6947       L1    19  0.70

> <Gold.Chemscore.Hbond.Weighted>
-8.7028

> <Gold.Chemscore.Metal.Weighted>
-0.0000

> <Gold.Chemscore.Lipo.Weighted>
-9.1964

> <Gold.Chemscore.Internal_Hbond.Weighted>
0.0000

> <Gold.Chemscore.DEClash.Weighted>
0.1596

> <Gold.Chemscore.DEInternal.Weighted>
2.2076

> <Gold.Chemscore.Rot.Weighted>
3.8226

> <Gold.Chemscore.Internal.Correction.Weighted>
   9.000000E+99

> <Gold.Protein.RotatedTorsions>
[ 6907 6896 6895 6894 ] final  115.70 input  -60.11 | X-H torsion
[ 7974 7965 7964 7962 ] final -104.74 input  175.53 | X-H torsion
[ 8008 7997 7996 7995 ] final   54.88 input   59.86 | X-H torsion
[ 10167 10162 10161 10158 ] final  155.68 input  -65.29 | X-H torsion
[ 10718 10713 10712 10709 ] final -109.76 input   66.30 | X-H torsion
[ 10763 10752 10751 10750 ] final  -65.65 input  -60.55 | X-H torsion
[ 11005 11000 10999 10996 ] final   39.70 input  -57.11 | X-H torsion

> <Gold.Protein.ActiveResidues>
 VAL166  LYS551  ARG553  GLY616  TRP617  ASP618  TYR619  PRO620  LYS621  CYS622 
 ASP623  PHE694  ASN695  SER759  ASP760  ASP761  ALA762  ILE779  LEU786  VAL792 
 PHE793  MET794  SER795  GLU796  ALA797  LYS798  CYS799  TRP800  GLU811  SER814 

> <Gold.Protein.RotatedAtoms>
  152.4725  133.8063  159.6979 H   0  0  0  0  0  0  0  0  0  0  0  0  # atno 6907 bound_to 6896
  150.8723  133.7479  159.2964 H   0  0  0  0  0  0  0  0  0  0  0  0  # atno 6908 bound_to 6896
  151.5010  135.1065  159.9881 H   0  0  0  0  0  0  0  0  0  0  0  0  # atno 6909 bound_to 6896
  145.2394  140.9199  143.3159 H   0  0  0  0  0  0  0  0  0  0  0  0  # atno 7974 bound_to 7965
  155.4919  140.3472  155.4356 H   0  0  0  0  0  0  0  0  0  0  0  0  # atno 8008 bound_to 7997
  156.0971  140.1425  156.9545 H   0  0  0  0  0  0  0  0  0  0  0  0  # atno 8009 bound_to 7997
  154.4670  140.0914  156.7024 H   0  0  0  0  0  0  0  0  0  0  0  0  # atno 8010 bound_to 7997
  139.4821  144.5077  151.8072 H   0  0  0  0  0  0  0  0  0  0  0  0  # atno 10167 bound_to 10162
  156.0554  130.5780  150.8144 H   0  0  0  0  0  0  0  0  0  0  0  0  # atno 10718 bound_to 10713
  154.3482  135.6142  153.5629 H   0  0  0  0  0  0  0  0  0  0  0  0  # atno 10763 bound_to 10752
  152.9800  135.5786  154.4774 H   0  0  0  0  0  0  0  0  0  0  0  0  # atno 10764 bound_to 10752
  154.4490  135.2852  155.1771 H   0  0  0  0  0  0  0  0  0  0  0  0  # atno 10765 bound_to 10752
  140.2002  134.3879  155.8100 H   0  0  0  0  0  0  0  0  0  0  0  0  # atno 11005 bound_to 11000
  144.9603  139.3987  143.6359 LP  0  0  0  0  0  0  0  0  0  0  0  0  # atno 17320 bound_to 7965
  146.3332  139.8653  142.8849 LP  0  0  0  0  0  0  0  0  0  0  0  0  # atno 17321 bound_to 7965
  140.4577  144.1766  150.5903 LP  0  0  0  0  0  0  0  0  0  0  0  0  # atno 17342 bound_to 10162
  140.4518  143.2484  151.9338 LP  0  0  0  0  0  0  0  0  0  0  0  0  # atno 17343 bound_to 10162
  157.5519  131.0944  150.9683 LP  0  0  0  0  0  0  0  0  0  0  0  0  # atno 17370 bound_to 10713
  156.9941  130.5574  149.5306 LP  0  0  0  0  0  0  0  0  0  0  0  0  # atno 17371 bound_to 10713
  141.2227  133.7090  156.8245 LP  0  0  0  0  0  0  0  0  0  0  0  0  # atno 17394 bound_to 11000
  140.2062  134.8861  157.3224 LP  0  0  0  0  0  0  0  0  0  0  0  0  # atno 17395 bound_to 11000

$$$$
