AV-unprocessed.smi:271|AV-procd|sdf|2051|dock4
  -GOLD-   2262021283D 1   1.00000     0.00000
 Structure written by MMmdl.
 58 60  0  0  0  0  0  0  0  0  1 V2000
  152.0627  144.1575  158.9732 C   0  0  0  0  0  0  0  0  0  0  0  0
  152.0758  142.7675  159.6270 C   0  0  0  0  0  0  0  0  0  0  0  0
  153.0655  142.7420  160.8045 C   0  0  0  0  0  0  0  0  0  0  0  0
  152.3888  141.6774  158.5839 C   0  0  0  0  0  0  0  0  0  0  0  0
  151.3515  141.5945  157.4420 C   0  0  0  0  0  0  0  0  0  0  0  0
  150.6120  140.3313  157.4054 N   0  0  0  0  0  0  0  0  0  0  0  0
  151.3984  139.1700  156.9966 C   0  0  0  0  0  0  0  0  0  0  0  0
  151.8812  139.2440  155.5394 C   0  0  0  0  0  0  0  0  0  0  0  0
  151.9077  137.9244  154.8920 C   0  0  0  0  0  0  0  0  0  0  0  0
  151.9281  136.8857  154.3827 N   0  0  0  0  0  0  0  0  0  0  0  0
  149.4261  140.4140  156.7600 C   0  0  0  0  0  0  0  0  0  0  0  0
  149.4623  140.6041  155.4181 N   0  0  0  0  0  0  0  0  0  0  0  0
  148.3244  140.6358  154.7179 C   0  0  0  0  0  0  0  0  0  0  0  0
  147.0714  140.4872  155.1534 N   0  0  0  0  0  0  0  0  0  0  0  0
  147.0342  140.3030  156.5044 C   0  0  0  0  0  0  0  0  0  0  0  0
  148.1534  140.2719  157.3816 C   0  0  0  0  0  0  0  0  0  0  0  0
  147.7263  140.0835  158.6905 N   0  0  0  0  0  0  0  0  0  0  0  0
  146.4293  139.9832  158.5903 C   0  0  0  0  0  0  0  0  0  0  0  0
  145.9334  140.0673  157.3085 N   0  0  0  0  0  0  0  0  0  0  0  0
  144.5442  139.9488  156.9061 C   0  0  0  0  0  0  0  0  0  0  0  0
  143.8607  141.2991  156.5594 C   0  0  2  0  0  0  0  0  0  0  0  0
  144.5996  141.9510  155.3676 C   0  0  0  0  0  0  0  0  0  0  0  0
  143.7375  142.7668  154.5999 O   0  0  0  0  0  0  0  0  0  0  0  0
  143.6901  142.2710  157.7663 C   0  0  1  0  0  0  0  0  0  0  0  0
  142.8480  141.7241  158.9092 C   0  0  0  0  0  0  0  0  0  0  0  0
  143.2358  142.6380  160.0619 C   0  0  0  0  0  0  0  0  0  0  0  0
  144.6290  142.8422  159.8910 O   0  0  0  0  0  0  0  0  0  0  0  0
  144.9787  142.6382  158.5251 C   0  0  0  0  0  0  0  0  0  0  0  0
  153.0377  144.4067  158.5528 H   0  0  0  0  0  0  0  0  0  0  0  0
  151.8056  144.9308  159.6977 H   0  0  0  0  0  0  0  0  0  0  0  0
  151.3297  144.2078  158.1675 H   0  0  0  0  0  0  0  0  0  0  0  0
  151.0751  142.5851  160.0207 H   0  0  0  0  0  0  0  0  0  0  0  0
  154.0911  142.8876  160.4633 H   0  0  0  0  0  0  0  0  0  0  0  0
  153.0260  141.7974  161.3459 H   0  0  0  0  0  0  0  0  0  0  0  0
  152.8408  143.5319  161.5216 H   0  0  0  0  0  0  0  0  0  0  0  0
  153.3665  141.8719  158.1409 H   0  0  0  0  0  0  0  0  0  0  0  0
  152.4770  140.7209  159.1009 H   0  0  0  0  0  0  0  0  0  0  0  0
  150.6458  142.4218  157.5020 H   0  0  0  0  0  0  0  0  0  0  0  0
  151.8702  141.7121  156.4900 H   0  0  0  0  0  0  0  0  0  0  0  0
  152.2517  139.0511  157.6657 H   0  0  0  0  0  0  0  0  0  0  0  0
  150.7842  138.2773  157.1197 H   0  0  0  0  0  0  0  0  0  0  0  0
  151.2257  139.8887  154.9531 H   0  0  0  0  0  0  0  0  0  0  0  0
  152.8879  139.6571  155.4769 H   0  0  0  0  0  0  0  0  0  0  0  0
  148.4345  140.7904  153.6547 H   0  0  0  0  0  0  0  0  0  0  0  0
  145.7984  139.8154  159.4511 H   0  0  0  0  0  0  0  0  0  0  0  0
  144.4925  139.2715  156.0529 H   0  0  0  0  0  0  0  0  0  0  0  0
  144.0101  139.4577  157.7204 H   0  0  0  0  0  0  0  0  0  0  0  0
  142.8599  141.0705  156.1916 H   0  0  0  0  0  0  0  0  0  0  0  0
  145.4295  142.5616  155.7243 H   0  0  0  0  0  0  0  0  0  0  0  0
  145.0405  141.1959  154.7171 H   0  0  0  0  0  0  0  0  0  0  0  0
  143.1610  142.2090  154.1005 H   0  0  0  0  0  0  0  0  0  0  0  0
  143.2203  143.1929  157.4192 H   0  0  0  0  0  0  0  0  0  0  0  0
  141.7771  141.7473  158.7050 H   0  0  0  0  0  0  0  0  0  0  0  0
  143.1325  140.6960  159.1384 H   0  0  0  0  0  0  0  0  0  0  0  0
  142.7226  143.5972  159.9807 H   0  0  0  0  0  0  0  0  0  0  0  0
  143.0093  142.2090  161.0381 H   0  0  0  0  0  0  0  0  0  0  0  0
  145.7098  141.8302  158.4853 H   0  0  0  0  0  0  0  0  0  0  0  0
  145.4469  143.5377  158.1279 H   0  0  0  0  0  0  0  0  0  0  0  0
  1  2  1  0  0  0  0
  1 29  1  0  0  0  0
  1 30  1  0  0  0  0
  1 31  1  0  0  0  0
  2  3  1  0  0  0  0
  2  4  1  0  0  0  0
  2 32  1  0  0  0  0
  3 33  1  0  0  0  0
  3 34  1  0  0  0  0
  3 35  1  0  0  0  0
  4  5  1  0  0  0  0
  4 36  1  0  0  0  0
  4 37  1  0  0  0  0
  5  6  1  0  0  0  0
  5 38  1  0  0  0  0
  5 39  1  0  0  0  0
  6  7  1  0  0  0  0
  6 11  1  0  0  0  0
  7  8  1  0  0  0  0
  7 40  1  0  0  0  0
  7 41  1  0  0  0  0
  8  9  1  0  0  0  0
  8 42  1  0  0  0  0
  8 43  1  0  0  0  0
  9 10  3  0  0  0  0
 11 16  1  0  0  0  0
 11 12  2  0  0  0  0
 12 13  1  0  0  0  0
 13 14  2  0  0  0  0
 13 44  1  0  0  0  0
 14 15  1  0  0  0  0
 15 19  1  0  0  0  0
 15 16  2  0  0  0  0
 16 17  1  0  0  0  0
 17 18  2  0  0  0  0
 18 19  1  0  0  0  0
 18 45  1  0  0  0  0
 19 20  1  0  0  0  0
 20 21  1  0  0  0  0
 20 46  1  0  0  0  0
 20 47  1  0  0  0  0
 21 22  1  0  0  0  0
 21 24  1  0  0  0  0
 21 48  1  0  0  0  0
 22 23  1  0  0  0  0
 22 49  1  0  0  0  0
 22 50  1  0  0  0  0
 23 51  1  0  0  0  0
 24 28  1  0  0  0  0
 24 25  1  0  0  0  0
 24 52  1  0  0  0  0
 25 26  1  0  0  0  0
 25 53  1  0  0  0  0
 25 54  1  0  0  0  0
 26 27  1  0  0  0  0
 26 55  1  0  0  0  0
 26 56  1  0  0  0  0
 27 28  1  0  0  0  0
 28 57  1  0  0  0  0
 28 58  1  0  0  0  0
M  END
> <s_m_source_file>
AV-unprocessed.smi

> <i_m_source_file_index>
271

> <i_lp_mmshare_version>
43012

> <i_f3d_flags>
0

> <s_epik_input>
W0NIM11bQ0hdKFtDSDNdKVtDSDJdW0NIMl1OKFtDSDJdW0NIMl1DI04pYyhuW2NIXW4xKWMoYzEyKW5bY0hdbjJbQ0gyXVtDQEhdKFtDSDJdW09IXSlbQ0BASF0zW0NIMl1bQ0gyXU9bQ0gyXTM=

> <s_epik_cmdline>
J2VwaWtfcHl0aG9uJywgJy1waCcsICc3LjAnLCAnLXRuJywgJzgnLCAnLW1hJywgJzIwMCcsICctbWV0YWxfYmluZGluZycsICctaW1hZScsICc8aW5maWxlLm1hZT4nLCAnLW9tYWUnLCAnPG91dGZpbGUubWFlPic=

> <r_lp_tautomer_probability>
1

> <r_epik_Ionization_Penalty>
0.000825874

> <r_epik_Ionization_Penalty_Charging>
0

> <r_epik_Ionization_Penalty_Neutral>
0.000825874

> <r_epik_State_Penalty>
0.000396768

> <r_epik_Charging_Adjusted_Penalty>
0.000396768

> <i_epik_Tot_Q>
0

> <i_epik_Tot_abs_Q>
0

> <r_epik_Metal_State_Penalty>
-0

> <b_epik_Metal_Only>
0

> <s_lp_Force_Field>
OPLS_2005

> <r_lp_Energy>
35.9661

> <b_lp_Chiralities_Consistent>
1

> <s_lp_Variant>
AV-unprocessed.smi:271-3

> <Gold.Version>
5.8.1

> <Gold.Id.Protein>
6NUR|6NUR_protein|mol2

> <Gold.PLP.Fitness>
49.5561

> <Gold.PLP.PLP>
-42.0535

> <Gold.PLP.part.hbond>
-3.6660

> <Gold.PLP.part.metal>
0.0000

> <Gold.PLP.part.buried>
-5.8134

> <Gold.PLP.part.nonpolar>
-32.9845

> <Gold.PLP.part.repulsive>
0.5205

> <Gold.PLP.ligand.clash>
0.0000

> <Gold.PLP.ligand.torsion>
1.3769

> <Gold.PLP.Chemscore.Hbond>
2.1467

> <Gold.PLP.Chemscore.CHOScore>
0.9913

> <Gold.PLP.Chemscore.Metal>
0.0000

> <Gold.Chemscore.Hbonds>
donor molecule, donor type, donor heavy atom, donor atom, acceptor molecule, acceptor atom, score
      L1  H    23    51       P1 10174  0.32
      P1  H 10752 10764       L1    10  1.00
      L1  C    13    44       P1  7957  0.19

> <Gold.PLP.Chemscore.Internal.Correction>
0.8422

> <Gold.Rescore>
     Score         DG    S(hbond)    S(metal)    S(lipo)     H(rot)  DE(clash)    DE(int)     intcor
      7.38     -11.29       1.74        0.00      82.42       3.77       0.18       3.73       ----

> <Gold.Chemscore.Fitness>
7.3778

> <Gold.Chemscore.DG>
-11.2853

> <Gold.Chemscore.ZeroCoef>
-5.4800

> <Gold.Chemscore.Hbond>
1.7391

> <Gold.Chemscore.Metal>
0.0000

> <Gold.Chemscore.Lipo>
82.4217

> <Gold.Chemscore.Internal_Hbond>
0.0000

> <Gold.Chemscore.DEClash>
0.1819

> <Gold.Chemscore.DEInternal>
3.7255

> <Gold.Chemscore.Rot>
3.7683

> <Gold.Chemscore.Internal.Correction>
   9.000000E+99

> <Gold.Chemscore.Hbonds>
donor molecule, donor type, donor heavy atom, donor atom, acceptor molecule, acceptor atom, score
      L1  H    23    51       P1 10174  0.03
      P1  H 10752 10764       L1    10  0.96

> <Gold.Chemscore.Hbond.Weighted>
-5.8087

> <Gold.Chemscore.Metal.Weighted>
-0.0000

> <Gold.Chemscore.Lipo.Weighted>
-9.6433

> <Gold.Chemscore.Internal_Hbond.Weighted>
0.0000

> <Gold.Chemscore.DEClash.Weighted>
0.1819

> <Gold.Chemscore.DEInternal.Weighted>
3.7255

> <Gold.Chemscore.Rot.Weighted>
9.6468

> <Gold.Chemscore.Internal.Correction.Weighted>
   9.000000E+99

> <Gold.Protein.RotatedTorsions>
[ 6907 6896 6895 6894 ] final  132.33 input  -60.11 | X-H torsion
[ 7974 7965 7964 7962 ] final   42.29 input  175.53 | X-H torsion
[ 8008 7997 7996 7995 ] final  164.38 input   59.86 | X-H torsion
[ 10167 10162 10161 10158 ] final  -29.67 input  -65.29 | X-H torsion
[ 10718 10713 10712 10709 ] final -145.76 input   66.30 | X-H torsion
[ 10763 10752 10751 10750 ] final  -82.35 input  -60.55 | X-H torsion
[ 11005 11000 10999 10996 ] final  157.05 input  -57.11 | X-H torsion

> <Gold.Protein.ActiveResidues>
 VAL166  LYS551  ARG553  GLY616  TRP617  ASP618  TYR619  PRO620  LYS621  CYS622 
 ASP623  PHE694  ASN695  SER759  ASP760  ASP761  ALA762  ILE779  LEU786  VAL792 
 PHE793  MET794  SER795  GLU796  ALA797  LYS798  CYS799  TRP800  GLU811  SER814 

> <Gold.Protein.RotatedAtoms>
  152.3335  133.5985  159.5825 H   0  0  0  0  0  0  0  0  0  0  0  0  # atno 6907 bound_to 6896
  150.7436  133.9832  159.3592 H   0  0  0  0  0  0  0  0  0  0  0  0  # atno 6908 bound_to 6896
  151.7704  135.0788  160.0410 H   0  0  0  0  0  0  0  0  0  0  0  0  # atno 6909 bound_to 6896
  146.0753  139.5317  142.9572 H   0  0  0  0  0  0  0  0  0  0  0  0  # atno 7974 bound_to 7965
  156.1884  140.1698  156.8140 H   0  0  0  0  0  0  0  0  0  0  0  0  # atno 8008 bound_to 7997
  154.5442  140.0730  156.8593 H   0  0  0  0  0  0  0  0  0  0  0  0  # atno 8009 bound_to 7997
  155.3155  140.3370  155.4245 H   0  0  0  0  0  0  0  0  0  0  0  0  # atno 8010 bound_to 7997
  140.7258  143.3910  151.1430 H   0  0  0  0  0  0  0  0  0  0  0  0  # atno 10167 bound_to 10162
  156.3865  130.7863  151.2061 H   0  0  0  0  0  0  0  0  0  0  0  0  # atno 10718 bound_to 10713
  154.5747  135.5594  153.7128 H   0  0  0  0  0  0  0  0  0  0  0  0  # atno 10763 bound_to 10752
  153.0060  135.6305  154.2066 H   0  0  0  0  0  0  0  0  0  0  0  0  # atno 10764 bound_to 10752
  154.2006  135.2878  155.2972 H   0  0  0  0  0  0  0  0  0  0  0  0  # atno 10765 bound_to 10752
  140.1732  134.8528  157.2716 H   0  0  0  0  0  0  0  0  0  0  0  0  # atno 11005 bound_to 11000
  145.6318  141.0302  143.1859 LP  0  0  0  0  0  0  0  0  0  0  0  0  # atno 17320 bound_to 7965
  144.7257  139.7883  143.7366 LP  0  0  0  0  0  0  0  0  0  0  0  0  # atno 17321 bound_to 7965
  139.7515  143.8772  152.3078 LP  0  0  0  0  0  0  0  0  0  0  0  0  # atno 17342 bound_to 10162
  139.8627  144.7109  150.9080 LP  0  0  0  0  0  0  0  0  0  0  0  0  # atno 17343 bound_to 10162
  157.7496  131.0328  150.4245 LP  0  0  0  0  0  0  0  0  0  0  0  0  # atno 17370 bound_to 10713
  156.4498  130.4009  149.6643 LP  0  0  0  0  0  0  0  0  0  0  0  0  # atno 17371 bound_to 10713
  140.2353  134.3861  155.7504 LP  0  0  0  0  0  0  0  0  0  0  0  0  # atno 17394 bound_to 11000
  141.2219  133.7236  156.8704 LP  0  0  0  0  0  0  0  0  0  0  0  0  # atno 17395 bound_to 11000

$$$$
