AV-unprocessed.smi:415|AV-procd|sdf|2523|dock8
  -GOLD-   2262022473D 1   1.00000     0.00000
 Structure written by MMmdl.
 53 54  0  0  0  0  0  0  0  0  1 V2000
  144.6420  146.8769  158.1360 C   0  0  0  0  0  0  0  0  0  0  0  0
  144.7586  145.4656  158.1105 O   0  0  0  0  0  0  0  0  0  0  0  0
  144.6051  144.9323  156.8057 C   0  0  0  0  0  0  0  0  0  0  0  0
  144.7439  143.4018  156.8571 C   0  0  0  0  0  0  0  0  0  0  0  0
  145.7870  142.8929  155.9859 N   0  0  0  0  0  0  0  0  0  0  0  0
  145.8051  143.0946  154.6082 C   0  0  0  0  0  0  0  0  0  0  0  0
  144.7769  143.7949  154.0038 N   0  0  0  0  0  0  0  0  0  0  0  0
  146.8042  142.6080  153.8388 C   0  0  0  0  0  0  0  0  0  0  0  0
  147.9083  141.8436  154.4024 C   0  0  0  0  0  0  0  0  0  0  0  0
  148.8378  141.4110  153.7205 O   0  0  0  0  0  0  0  0  0  0  0  0
  147.8546  141.6266  155.7983 N   0  0  0  0  0  0  0  0  0  0  0  0
  148.9457  140.8685  156.4493 C   0  0  0  0  0  0  0  0  0  0  0  0
  149.6842  141.6873  157.5179 C   0  0  0  0  0  0  0  0  0  0  0  0
  149.1780  141.8807  158.6240 O   0  0  0  0  0  0  0  0  0  0  0  0
  150.8841  142.1713  157.1632 N   0  0  0  0  0  0  0  0  0  0  0  0
  151.7658  142.9625  158.0198 C   0  0  1  0  0  0  0  0  0  0  0  0
  151.3356  144.4420  157.9650 C   0  0  0  0  0  0  0  0  0  0  0  0
  152.2053  145.3098  158.8785 C   0  0  0  0  0  0  0  0  0  0  0  0
  152.1603  144.7892  160.3187 C   0  0  0  0  0  0  0  0  0  0  0  0
  152.6076  143.3165  160.4113 C   0  0  1  0  0  0  0  0  0  0  0  0
  152.5771  142.8626  161.8825 C   0  0  0  0  0  0  0  0  0  0  0  0
  151.7571  142.4131  159.4726 C   0  0  2  0  0  0  0  0  0  0  0  0
  152.2196  140.9400  159.5113 C   0  0  0  0  0  0  0  0  0  0  0  0
  146.8118  142.1340  156.6065 C   0  0  0  0  0  0  0  0  0  0  0  0
  146.8057  141.9181  157.8221 O   0  0  0  0  0  0  0  0  0  0  0  0
  144.7573  147.2355  159.1587 H   0  0  0  0  0  0  0  0  0  0  0  0
  143.6653  147.1997  157.7735 H   0  0  0  0  0  0  0  0  0  0  0  0
  145.4148  147.3462  157.5259 H   0  0  0  0  0  0  0  0  0  0  0  0
  143.6183  145.1940  156.4211 H   0  0  0  0  0  0  0  0  0  0  0  0
  145.3408  145.3656  156.1264 H   0  0  0  0  0  0  0  0  0  0  0  0
  144.9588  143.0554  157.8673 H   0  0  0  0  0  0  0  0  0  0  0  0
  143.8139  142.9018  156.5809 H   0  0  0  0  0  0  0  0  0  0  0  0
  144.0050  144.1685  154.5373 H   0  0  0  0  0  0  0  0  0  0  0  0
  144.8401  144.0973  153.0420 H   0  0  0  0  0  0  0  0  0  0  0  0
  146.7921  142.7853  152.7727 H   0  0  0  0  0  0  0  0  0  0  0  0
  148.5553  139.9525  156.8968 H   0  0  0  0  0  0  0  0  0  0  0  0
  149.6820  140.5151  155.7265 H   0  0  0  0  0  0  0  0  0  0  0  0
  151.2188  141.9677  156.2326 H   0  0  0  0  0  0  0  0  0  0  0  0
  152.7866  142.8857  157.6397 H   0  0  0  0  0  0  0  0  0  0  0  0
  151.3996  144.8173  156.9428 H   0  0  0  0  0  0  0  0  0  0  0  0
  150.2902  144.5358  158.2624 H   0  0  0  0  0  0  0  0  0  0  0  0
  153.2344  145.3118  158.5170 H   0  0  0  0  0  0  0  0  0  0  0  0
  151.8618  146.3441  158.8458 H   0  0  0  0  0  0  0  0  0  0  0  0
  152.7983  145.4135  160.9453 H   0  0  0  0  0  0  0  0  0  0  0  0
  151.1477  144.8933  160.7114 H   0  0  0  0  0  0  0  0  0  0  0  0
  153.6450  143.2673  160.0766 H   0  0  0  0  0  0  0  0  0  0  0  0
  151.5551  142.7990  162.2572 H   0  0  0  0  0  0  0  0  0  0  0  0
  153.1189  143.5633  162.5185 H   0  0  0  0  0  0  0  0  0  0  0  0
  153.0482  141.8900  162.0190 H   0  0  0  0  0  0  0  0  0  0  0  0
  150.7267  142.4410  159.8312 H   0  0  0  0  0  0  0  0  0  0  0  0
  153.2611  140.8458  159.2031 H   0  0  0  0  0  0  0  0  0  0  0  0
  151.6234  140.3086  158.8529 H   0  0  0  0  0  0  0  0  0  0  0  0
  152.1248  140.5104  160.5076 H   0  0  0  0  0  0  0  0  0  0  0  0
  1  2  1  0  0  0  0
  1 26  1  0  0  0  0
  1 27  1  0  0  0  0
  1 28  1  0  0  0  0
  2  3  1  0  0  0  0
  3  4  1  0  0  0  0
  3 29  1  0  0  0  0
  3 30  1  0  0  0  0
  4  5  1  0  0  0  0
  4 31  1  0  0  0  0
  4 32  1  0  0  0  0
  5 24  1  0  0  0  0
  5  6  1  0  0  0  0
  6  7  1  0  0  0  0
  6  8  2  0  0  0  0
  7 33  1  0  0  0  0
  7 34  1  0  0  0  0
  8  9  1  0  0  0  0
  8 35  1  0  0  0  0
  9 10  2  0  0  0  0
  9 11  1  0  0  0  0
 11 12  1  0  0  0  0
 11 24  1  0  0  0  0
 12 13  1  0  0  0  0
 12 36  1  0  0  0  0
 12 37  1  0  0  0  0
 13 14  2  0  0  0  0
 13 15  1  0  0  0  0
 15 16  1  0  0  0  0
 15 38  1  0  0  0  0
 16 22  1  0  0  0  0
 16 17  1  0  0  0  0
 16 39  1  0  0  0  0
 17 18  1  0  0  0  0
 17 40  1  0  0  0  0
 17 41  1  0  0  0  0
 18 19  1  0  0  0  0
 18 42  1  0  0  0  0
 18 43  1  0  0  0  0
 19 20  1  0  0  0  0
 19 44  1  0  0  0  0
 19 45  1  0  0  0  0
 20 21  1  0  0  0  0
 20 22  1  0  0  0  0
 20 46  1  0  0  0  0
 21 47  1  0  0  0  0
 21 48  1  0  0  0  0
 21 49  1  0  0  0  0
 22 23  1  0  0  0  0
 22 50  1  0  0  0  0
 23 51  1  0  0  0  0
 23 52  1  0  0  0  0
 23 53  1  0  0  0  0
 24 25  2  0  0  0  0
M  END
> <s_m_source_file>
AV-unprocessed.smi

> <i_m_source_file_index>
415

> <i_lp_mmshare_version>
43012

> <i_f3d_flags>
0

> <s_epik_input>
W0NIM11PW0NIMl1bQ0gyXW4xYyhbTkgyXSlbY0hdYyg9TyluKGMxPU8pW0NIMl1DKD1PKVtOSF1bQ0BASF0yW0NIMl1bQ0gyXVtDSDJdW0NAQEhdKFtDSDNdKVtDQEhdMltDSDNd

> <s_epik_cmdline>
J2VwaWtfcHl0aG9uJywgJy1waCcsICc3LjAnLCAnLXRuJywgJzgnLCAnLW1hJywgJzIwMCcsICctbWV0YWxfYmluZGluZycsICctaW1hZScsICc8aW5maWxlLm1hZT4nLCAnLW9tYWUnLCAnPG91dGZpbGUubWFlPic=

> <r_lp_tautomer_probability>
1

> <r_epik_Ionization_Penalty>
8.6647e-06

> <r_epik_Ionization_Penalty_Charging>
1.81162e-08

> <r_epik_Ionization_Penalty_Neutral>
8.64658e-06

> <r_epik_State_Penalty>
-0

> <r_epik_Charging_Adjusted_Penalty>
1.81162e-08

> <i_epik_Tot_Q>
0

> <i_epik_Tot_abs_Q>
0

> <r_epik_Metal_State_Penalty>
-0

> <b_epik_Metal_Only>
0

> <s_lp_Force_Field>
OPLS_2005

> <r_lp_Energy>
22.0049

> <b_lp_Chiralities_Consistent>
1

> <s_lp_Variant>
AV-unprocessed.smi:415-6

> <Gold.Version>
5.8.1

> <Gold.Id.Protein>
6NUR|6NUR_protein|mol2

> <Gold.PLP.Fitness>
50.9408

> <Gold.PLP.PLP>
-50.3740

> <Gold.PLP.part.hbond>
-2.5541

> <Gold.PLP.part.metal>
0.0000

> <Gold.PLP.part.buried>
-9.5094

> <Gold.PLP.part.nonpolar>
-39.7848

> <Gold.PLP.part.repulsive>
1.2488

> <Gold.PLP.ligand.clash>
0.0000

> <Gold.PLP.ligand.torsion>
0.9032

> <Gold.PLP.Chemscore.Hbond>
0.7840

> <Gold.PLP.Chemscore.CHOScore>
0.0000

> <Gold.PLP.Chemscore.Metal>
0.0000

> <Gold.Chemscore.Hbonds>
donor molecule, donor type, donor heavy atom, donor atom, acceptor molecule, acceptor atom, score
      P1  H  8011  8017       L1    10  0.78

> <Gold.PLP.Chemscore.Internal.Correction>
0.0212

> <Gold.Rescore>
     Score         DG    S(hbond)    S(metal)    S(lipo)     H(rot)  DE(clash)    DE(int)     intcor
      9.24     -15.11       0.74        0.00     110.78       2.26       0.07       5.80       ----

> <Gold.Chemscore.Fitness>
9.2363

> <Gold.Chemscore.DG>
-15.1080

> <Gold.Chemscore.ZeroCoef>
-5.4800

> <Gold.Chemscore.Hbond>
0.7377

> <Gold.Chemscore.Metal>
0.0000

> <Gold.Chemscore.Lipo>
110.7798

> <Gold.Chemscore.Internal_Hbond>
0.0000

> <Gold.Chemscore.DEClash>
0.0746

> <Gold.Chemscore.DEInternal>
5.7971

> <Gold.Chemscore.Rot>
2.2645

> <Gold.Chemscore.Internal.Correction>
   9.000000E+99

> <Gold.Chemscore.Hbonds>
donor molecule, donor type, donor heavy atom, donor atom, acceptor molecule, acceptor atom, score
      P1  H  8011  8017       L1    10  0.76

> <Gold.Chemscore.Hbond.Weighted>
-2.4639

> <Gold.Chemscore.Metal.Weighted>
-0.0000

> <Gold.Chemscore.Lipo.Weighted>
-12.9612

> <Gold.Chemscore.Internal_Hbond.Weighted>
0.0000

> <Gold.Chemscore.DEClash.Weighted>
0.0746

> <Gold.Chemscore.DEInternal.Weighted>
5.7971

> <Gold.Chemscore.Rot.Weighted>
5.7972

> <Gold.Chemscore.Internal.Correction.Weighted>
   9.000000E+99

> <Gold.Protein.RotatedTorsions>
[ 6907 6896 6895 6894 ] final -155.76 input  -60.11 | X-H torsion
[ 7974 7965 7964 7962 ] final -108.19 input  175.53 | X-H torsion
[ 8008 7997 7996 7995 ] final -117.67 input   59.86 | X-H torsion
[ 10167 10162 10161 10158 ] final   33.11 input  -65.29 | X-H torsion
[ 10718 10713 10712 10709 ] final  133.26 input   66.30 | X-H torsion
[ 10763 10752 10751 10750 ] final  125.11 input  -60.55 | X-H torsion
[ 11005 11000 10999 10996 ] final  -85.25 input  -57.11 | X-H torsion

> <Gold.Protein.ActiveResidues>
 VAL166  LYS551  ARG553  GLY616  TRP617  ASP618  TYR619  PRO620  LYS621  CYS622 
 ASP623  PHE694  ASN695  SER759  ASP760  ASP761  ALA762  ILE779  LEU786  VAL792 
 PHE793  MET794  SER795  GLU796  ALA797  LYS798  CYS799  TRP800  GLU811  SER814 

> <Gold.Protein.RotatedAtoms>
  151.2774  133.4226  159.2624 H   0  0  0  0  0  0  0  0  0  0  0  0  # atno 6907 bound_to 6896
  151.0391  134.9594  159.8162 H   0  0  0  0  0  0  0  0  0  0  0  0  # atno 6908 bound_to 6896
  152.5361  134.2733  159.9032 H   0  0  0  0  0  0  0  0  0  0  0  0  # atno 6909 bound_to 6896
  145.1960  140.9035  143.3397 H   0  0  0  0  0  0  0  0  0  0  0  0  # atno 7974 bound_to 7965
  155.0873  140.0394  157.2658 H   0  0  0  0  0  0  0  0  0  0  0  0  # atno 8008 bound_to 7997
  154.6859  140.2643  155.6836 H   0  0  0  0  0  0  0  0  0  0  0  0  # atno 8009 bound_to 7997
  156.2711  140.2769  156.1420 H   0  0  0  0  0  0  0  0  0  0  0  0  # atno 8010 bound_to 7997
  140.4437  144.1149  150.6178 H   0  0  0  0  0  0  0  0  0  0  0  0  # atno 10167 bound_to 10162
  157.4790  131.1084  150.9706 H   0  0  0  0  0  0  0  0  0  0  0  0  # atno 10718 bound_to 10713
  153.6721  135.3328  155.3156 H   0  0  0  0  0  0  0  0  0  0  0  0  # atno 10763 bound_to 10752
  154.8488  135.4388  154.1695 H   0  0  0  0  0  0  0  0  0  0  0  0  # atno 10764 bound_to 10752
  153.2689  135.6998  153.7578 H   0  0  0  0  0  0  0  0  0  0  0  0  # atno 10765 bound_to 10752
  141.1643  133.7389  156.8987 H   0  0  0  0  0  0  0  0  0  0  0  0  # atno 11005 bound_to 11000
  144.9994  139.3612  143.6175 LP  0  0  0  0  0  0  0  0  0  0  0  0  # atno 17320 bound_to 7965
  146.3427  139.9211  142.8766 LP  0  0  0  0  0  0  0  0  0  0  0  0  # atno 17321 bound_to 7965
  140.4288  143.2577  151.9622 LP  0  0  0  0  0  0  0  0  0  0  0  0  # atno 17342 bound_to 10162
  139.4791  144.5763  151.8006 LP  0  0  0  0  0  0  0  0  0  0  0  0  # atno 17343 bound_to 10162
  157.0445  130.5762  149.5361 LP  0  0  0  0  0  0  0  0  0  0  0  0  # atno 17370 bound_to 10713
  156.0112  130.5203  150.7993 LP  0  0  0  0  0  0  0  0  0  0  0  0  # atno 17371 bound_to 10713
  140.1598  134.9173  157.2700 LP  0  0  0  0  0  0  0  0  0  0  0  0  # atno 17394 bound_to 11000
  140.2625  134.3555  155.7401 LP  0  0  0  0  0  0  0  0  0  0  0  0  # atno 17395 bound_to 11000

$$$$
