AV-unprocessed.smi:2802|AV-procd|sdf|10806|dock4
  -GOLD-   2272015243D 1   1.00000     0.00000
 Structure written by MMmdl.
 47 48  0  0  0  0  0  0  0  0  1 V2000
  150.7531  142.3635  157.2619 C   0  0  0  0  0  0  0  0  0  0  0  0
  150.6551  140.8331  157.1828 C   0  0  1  0  0  0  0  0  0  0  0  0
  151.1492  140.3157  155.8192 C   0  0  0  0  0  0  0  0  0  0  0  0
  151.0749  138.7776  155.6806 C   0  0  0  0  0  0  0  0  0  0  0  0
  149.6126  138.3164  155.4977 C   0  0  0  0  0  0  0  0  0  0  0  0
  151.8396  138.3619  154.4072 C   0  0  0  0  0  0  0  0  0  0  0  0
  151.7594  138.0980  156.9011 C   0  0  0  0  0  0  0  0  0  0  0  0
  151.3643  138.6176  158.3198 C   0  0  2  0  0  0  0  0  0  0  0  0
  152.3354  138.1027  159.4244 C   0  0  0  0  0  0  0  0  0  0  0  0
  152.6543  136.7301  159.3084 O   0  0  0  0  0  0  0  0  0  0  0  0
  149.9849  138.2835  158.7032 N   0  0  0  0  0  0  0  0  0  0  0  0
  149.3967  137.0764  158.7905 C   0  0  0  0  0  0  0  0  0  0  0  0
  149.9577  136.0121  158.5361 O   0  0  0  0  0  0  0  0  0  0  0  0
  147.9326  137.0731  159.2338 C   0  0  0  0  0  0  0  0  0  0  0  0
  147.7534  136.2040  160.4657 C   0  0  0  0  0  0  0  0  0  0  0  0
  147.8697  134.8003  160.3875 C   0  0  0  0  0  0  0  0  0  0  0  0
  147.7230  134.0412  161.5640 C   0  0  0  0  0  0  0  0  0  0  0  0
  147.4628  134.7193  162.7715 C   0  0  0  0  0  0  0  0  0  0  0  0
  147.3456  136.0618  162.8580 N   0  0  0  0  0  0  0  0  0  0  0  0
  147.4868  136.7830  161.7252 C   0  0  0  0  0  0  0  0  0  0  0  0
  151.4528  140.1650  158.3188 C   0  0  0  0  0  0  0  0  0  0  0  0
  151.7844  142.7020  157.1567 H   0  0  0  0  0  0  0  0  0  0  0  0
  150.3774  142.7321  158.2167 H   0  0  0  0  0  0  0  0  0  0  0  0
  150.1657  142.8354  156.4737 H   0  0  0  0  0  0  0  0  0  0  0  0
  149.6010  140.5816  157.2981 H   0  0  0  0  0  0  0  0  0  0  0  0
  150.5810  140.7871  155.0161 H   0  0  0  0  0  0  0  0  0  0  0  0
  152.1821  140.6398  155.6818 H   0  0  0  0  0  0  0  0  0  0  0  0
  149.5389  137.2287  155.4729 H   0  0  0  0  0  0  0  0  0  0  0  0
  149.1935  138.6924  154.5640 H   0  0  0  0  0  0  0  0  0  0  0  0
  148.9599  138.6698  156.2910 H   0  0  0  0  0  0  0  0  0  0  0  0
  151.8146  137.2809  154.2648 H   0  0  0  0  0  0  0  0  0  0  0  0
  152.8877  138.6607  154.4510 H   0  0  0  0  0  0  0  0  0  0  0  0
  151.4098  138.8201  153.5157 H   0  0  0  0  0  0  0  0  0  0  0  0
  151.6263  137.0183  156.8313 H   0  0  0  0  0  0  0  0  0  0  0  0
  152.8352  138.2513  156.8001 H   0  0  0  0  0  0  0  0  0  0  0  0
  153.2888  138.6287  159.3654 H   0  0  0  0  0  0  0  0  0  0  0  0
  151.9424  138.3022  160.4224 H   0  0  0  0  0  0  0  0  0  0  0  0
  153.4748  136.6489  158.8471 H   0  0  0  0  0  0  0  0  0  0  0  0
  149.4031  139.0758  158.9322 H   0  0  0  0  0  0  0  0  0  0  0  0
  147.6083  138.0911  159.4544 H   0  0  0  0  0  0  0  0  0  0  0  0
  147.3035  136.7091  158.4204 H   0  0  0  0  0  0  0  0  0  0  0  0
  148.0792  134.3133  159.4463 H   0  0  0  0  0  0  0  0  0  0  0  0
  147.8111  132.9651  161.5429 H   0  0  0  0  0  0  0  0  0  0  0  0
  147.3469  134.1683  163.6931 H   0  0  0  0  0  0  0  0  0  0  0  0
  147.3974  137.8543  161.8293 H   0  0  0  0  0  0  0  0  0  0  0  0
  152.4960  140.4708  158.2231 H   0  0  0  0  0  0  0  0  0  0  0  0
  151.1175  140.5545  159.2816 H   0  0  0  0  0  0  0  0  0  0  0  0
  1  2  1  0  0  0  0
  1 22  1  0  0  0  0
  1 23  1  0  0  0  0
  1 24  1  0  0  0  0
  2 21  1  0  0  0  0
  2  3  1  0  0  0  0
  2 25  1  0  0  0  0
  3  4  1  0  0  0  0
  3 26  1  0  0  0  0
  3 27  1  0  0  0  0
  4  5  1  0  0  0  0
  4  6  1  0  0  0  0
  4  7  1  0  0  0  0
  5 28  1  0  0  0  0
  5 29  1  0  0  0  0
  5 30  1  0  0  0  0
  6 31  1  0  0  0  0
  6 32  1  0  0  0  0
  6 33  1  0  0  0  0
  7  8  1  0  0  0  0
  7 34  1  0  0  0  0
  7 35  1  0  0  0  0
  8  9  1  0  0  0  0
  8 11  1  0  0  0  0
  8 21  1  0  0  0  0
  9 10  1  0  0  0  0
  9 36  1  0  0  0  0
  9 37  1  0  0  0  0
 10 38  1  0  0  0  0
 11 12  1  0  0  0  0
 11 39  1  0  0  0  0
 12 13  2  0  0  0  0
 12 14  1  0  0  0  0
 14 15  1  0  0  0  0
 14 40  1  0  0  0  0
 14 41  1  0  0  0  0
 15 20  1  0  0  0  0
 15 16  2  0  0  0  0
 16 17  1  0  0  0  0
 16 42  1  0  0  0  0
 17 18  2  0  0  0  0
 17 43  1  0  0  0  0
 18 19  1  0  0  0  0
 18 44  1  0  0  0  0
 19 20  2  0  0  0  0
 20 45  1  0  0  0  0
 21 46  1  0  0  0  0
 21 47  1  0  0  0  0
M  END
> <s_m_source_file>
AV-unprocessed.smi

> <i_m_source_file_index>
2802

> <i_lp_mmshare_version>
43012

> <i_f3d_flags>
0

> <s_epik_input>
W0NIM11DMShbQ0gzXSlbQ0gyXVtDQEBIXShbQ0gzXSlbQ0gyXVtDQF0oW0NIMl0xKShbQ0gyXVtPSF0pW05IXUMoPU8pW0NIMl1jMltjSF1bY0hdW2NIXW5bY0hdMg==

> <s_epik_cmdline>
J2VwaWtfcHl0aG9uJywgJy1waCcsICc3LjAnLCAnLXRuJywgJzgnLCAnLW1hJywgJzIwMCcsICctbWV0YWxfYmluZGluZycsICctaW1hZScsICc8aW5maWxlLm1hZT4nLCAnLW9tYWUnLCAnPG91dGZpbGUubWFlPic=

> <r_epik_Ionization_Penalty>
0.004793

> <r_epik_Ionization_Penalty_Charging>
0

> <r_epik_Ionization_Penalty_Neutral>
0.004793

> <r_epik_State_Penalty>
0.00347421

> <r_epik_Charging_Adjusted_Penalty>
0.00347421

> <i_epik_Tot_Q>
0

> <i_epik_Tot_abs_Q>
0

> <r_epik_Metal_State_Penalty>
-0

> <b_epik_Metal_Only>
0

> <s_lp_Force_Field>
OPLS_2005

> <r_lp_Energy>
17.3779

> <b_lp_Chiralities_Consistent>
1

> <s_lp_Variant>
AV-unprocessed.smi:2802-4

> <Gold.Version>
5.8.1

> <Gold.Id.Protein>
6NUR|6NUR_protein|mol2

> <Gold.PLP.Fitness>
42.0345

> <Gold.PLP.PLP>
-37.5884

> <Gold.PLP.part.hbond>
-2.0000

> <Gold.PLP.part.metal>
0.0000

> <Gold.PLP.part.buried>
-6.6836

> <Gold.PLP.part.nonpolar>
-29.5080

> <Gold.PLP.part.repulsive>
0.1903

> <Gold.PLP.ligand.clash>
0.0000

> <Gold.PLP.ligand.torsion>
0.3975

> <Gold.PLP.Chemscore.Hbond>
1.7280

> <Gold.PLP.Chemscore.CHOScore>
0.0000

> <Gold.PLP.Chemscore.Metal>
0.0000

> <Gold.Chemscore.Hbonds>
donor molecule, donor type, donor heavy atom, donor atom, acceptor molecule, acceptor atom, score
      P1  H  6896  6907       L1    13  0.90
      P1  H  6896  6908       L1    10  0.78

> <Gold.PLP.Chemscore.Internal.Correction>
0.0570

> <Gold.Rescore>
     Score         DG    S(hbond)    S(metal)    S(lipo)     H(rot)  DE(clash)    DE(int)     intcor
     16.99     -17.84       1.82        0.00      97.39       2.00       0.09       0.76       ----

> <Gold.Chemscore.Fitness>
16.9928

> <Gold.Chemscore.DG>
-17.8394

> <Gold.Chemscore.ZeroCoef>
-5.4800

> <Gold.Chemscore.Hbond>
1.8237

> <Gold.Chemscore.Metal>
0.0000

> <Gold.Chemscore.Lipo>
97.3916

> <Gold.Chemscore.Internal_Hbond>
0.0000

> <Gold.Chemscore.DEClash>
0.0916

> <Gold.Chemscore.DEInternal>
0.7550

> <Gold.Chemscore.Rot>
2.0026

> <Gold.Chemscore.Internal.Correction>
   9.000000E+99

> <Gold.Chemscore.Hbonds>
donor molecule, donor type, donor heavy atom, donor atom, acceptor molecule, acceptor atom, score
      P1  H  6896  6907       L1    13  0.88
      P1  H  6896  6908       L1    10  0.37

> <Gold.Chemscore.Hbond.Weighted>
-6.0912

> <Gold.Chemscore.Metal.Weighted>
-0.0000

> <Gold.Chemscore.Lipo.Weighted>
-11.3948

> <Gold.Chemscore.Internal_Hbond.Weighted>
0.0000

> <Gold.Chemscore.DEClash.Weighted>
0.0916

> <Gold.Chemscore.DEInternal.Weighted>
0.7550

> <Gold.Chemscore.Rot.Weighted>
5.1267

> <Gold.Chemscore.Internal.Correction.Weighted>
   9.000000E+99

> <Gold.Protein.RotatedTorsions>
[ 6907 6896 6895 6894 ] final  -74.63 input  -60.11 | X-H torsion
[ 7974 7965 7964 7962 ] final  -13.99 input  175.53 | X-H torsion
[ 8008 7997 7996 7995 ] final   16.78 input   59.86 | X-H torsion
[ 10167 10162 10161 10158 ] final  -55.26 input  -65.29 | X-H torsion
[ 10718 10713 10712 10709 ] final -166.67 input   66.30 | X-H torsion
[ 10763 10752 10751 10750 ] final  -55.41 input  -60.55 | X-H torsion
[ 11005 11000 10999 10996 ] final   57.78 input  -57.11 | X-H torsion

> <Gold.Protein.ActiveResidues>
 VAL166  LYS551  ARG553  GLY616  TRP617  ASP618  TYR619  PRO620  LYS621  CYS622 
 ASP623  PHE694  ASN695  SER759  ASP760  ASP761  ALA762  ILE779  LEU786  VAL792 
 PHE793  MET794  SER795  GLU796  ALA797  LYS798  CYS799  TRP800  GLU811  SER814 

> <Gold.Protein.RotatedAtoms>
  150.7086  134.4841  159.5484 H   0  0  0  0  0  0  0  0  0  0  0  0  # atno 6907 bound_to 6896
  152.2472  134.8166  160.0460 H   0  0  0  0  0  0  0  0  0  0  0  0  # atno 6908 bound_to 6896
  151.8927  133.3484  159.3840 H   0  0  0  0  0  0  0  0  0  0  0  0  # atno 6909 bound_to 6896
  146.2092  140.3283  142.8396 H   0  0  0  0  0  0  0  0  0  0  0  0  # atno 7974 bound_to 7965
  154.8819  140.2974  155.5420 H   0  0  0  0  0  0  0  0  0  0  0  0  # atno 8008 bound_to 7997
  156.3022  140.2441  156.3756 H   0  0  0  0  0  0  0  0  0  0  0  0  # atno 8009 bound_to 7997
  154.8708  140.0401  157.1712 H   0  0  0  0  0  0  0  0  0  0  0  0  # atno 8010 bound_to 7997
  140.6384  143.2494  151.5055 H   0  0  0  0  0  0  0  0  0  0  0  0  # atno 10167 bound_to 10162
  156.6713  130.9085  151.3044 H   0  0  0  0  0  0  0  0  0  0  0  0  # atno 10718 bound_to 10713
  154.1904  135.6428  153.5058 H   0  0  0  0  0  0  0  0  0  0  0  0  # atno 10763 bound_to 10752
  153.0036  135.5427  154.6421 H   0  0  0  0  0  0  0  0  0  0  0  0  # atno 10764 bound_to 10752
  154.5808  135.2925  155.0707 H   0  0  0  0  0  0  0  0  0  0  0  0  # atno 10765 bound_to 10752
  140.0427  134.5851  155.9362 H   0  0  0  0  0  0  0  0  0  0  0  0  # atno 11005 bound_to 11000
  144.8871  140.7475  143.5950 LP  0  0  0  0  0  0  0  0  0  0  0  0  # atno 17320 bound_to 7965
  145.3204  139.1790  143.4591 LP  0  0  0  0  0  0  0  0  0  0  0  0  # atno 17321 bound_to 7965
  139.5594  144.2194  152.1666 LP  0  0  0  0  0  0  0  0  0  0  0  0  # atno 17342 bound_to 10162
  140.1458  144.5160  150.6717 LP  0  0  0  0  0  0  0  0  0  0  0  0  # atno 17343 bound_to 10162
  157.7076  130.9403  150.0982 LP  0  0  0  0  0  0  0  0  0  0  0  0  # atno 17370 bound_to 10713
  156.1937  130.3656  149.8877 LP  0  0  0  0  0  0  0  0  0  0  0  0  # atno 17371 bound_to 10713
  141.1891  133.6564  156.5353 LP  0  0  0  0  0  0  0  0  0  0  0  0  # atno 17394 bound_to 11000
  140.4044  134.7328  157.4799 LP  0  0  0  0  0  0  0  0  0  0  0  0  # atno 17395 bound_to 11000

$$$$
