#       Name:                AV-unprocessed.smi:1973
#       Creating user name   scv26
#       Creation time:       Fri Mar 27 10:15:11 2020


#       File generated by GOLD software.
#

@<TRIPOS>MOLECULE
AV-unprocessed.smi:1973
    55    57     1
SMALL
NO_CHARGES


@<TRIPOS>ATOM
      1 ****        -7.1852   1.0420   1.9951 C.3            1 S1                 0.0000
      2 ****        -6.6389  -0.2257   1.6758 O.3            1 S1                 0.0000
      3 ****        -5.2429  -0.2900   1.9136 C.3            1 S1                 0.0000
      4 ****        -4.7447  -1.7024   1.5715 C.3            1 S1                 0.0000
      5 ****        -3.2971  -1.8304   1.7713 N.am           1 S1                 0.0000
      6 ****        -2.5525  -1.7039   0.6103 N.2            1 S1                 0.0000
      7 ****        -1.2648  -1.8108   0.6469 C.2            1 S1                 0.0000
      8 ****        -0.4752  -1.6858  -0.6117 C.2            1 S1                 0.0000
      9 ****        -1.0216  -1.4055  -1.6801 O.2            1 S1                 0.0000
     10 ****         0.8488  -1.8976  -0.5117 N.am           1 S1                 0.0000
     11 ****         1.7971  -1.8429  -1.6193 C.3            1 S1                 0.0000
     12 ****         2.1535  -0.3954  -2.0085 C.3            1 S1                 0.0000
     13 ****         3.1843  -0.2891  -3.1288 C.3            1 S1                 0.0000
     14 ****         3.6990   1.1385  -2.9689 C.3            1 S1                 0.0000
     15 ****         3.7210   1.3859  -1.5117 N.4            1 S1                 1.0000
     16 ****         3.5074   2.8007  -1.1402 C.3            1 S1                 0.0000
     17 ****         4.7694   3.6291  -1.1671 C.3            1 S1                 0.0000
     18 ****         4.1780   3.1909   0.1553 C.3            1 S1                 0.0000
     19 ****         2.7718   0.4413  -0.8772 C.3            1 S1                 0.0000
     20 ****        -0.5739  -2.0516   1.9076 C.2            1 S1                 0.0000
     21 ****        -1.3146  -2.1652   3.0316 C.2            1 S1                 0.0000
     22 ****        -2.7737  -2.0563   3.0137 C.2            1 S1                 0.0000
     23 ****        -3.4678  -2.1577   4.0248 O.2            1 S1                 0.0000
     24 ****        -8.2549   1.0438   1.7853 H              1 S1                 0.0000
     25 ****        -6.7240   1.8323   1.4012 H              1 S1                 0.0000
     26 ****        -7.0497   1.2736   3.0523 H              1 S1                 0.0000
     27 ****        -4.7268   0.4496   1.2993 H              1 S1                 0.0000
     28 ****        -5.0335  -0.0551   2.9583 H              1 S1                 0.0000
     29 ****        -5.2759  -2.4420   2.1732 H              1 S1                 0.0000
     30 ****        -5.0003  -1.9344   0.5359 H              1 S1                 0.0000
     31 ****         1.2210  -2.1324   0.3974 H              1 S1                 0.0000
     32 ****         2.6961  -2.3819  -1.3183 H              1 S1                 0.0000
     33 ****         1.3926  -2.3777  -2.4802 H              1 S1                 0.0000
     34 ****         1.2502   0.1143  -2.3484 H              1 S1                 0.0000
     35 ****         3.9974  -0.9989  -2.9689 H              1 S1                 0.0000
     36 ****         2.7599  -0.4767  -4.1156 H              1 S1                 0.0000
     37 ****         4.6835   1.2832  -3.4145 H              1 S1                 0.0000
     38 ****         3.0063   1.8299  -3.4521 H              1 S1                 0.0000
     39 ****         2.5506   3.2384  -1.4208 H              1 S1                 0.0000
     40 ****         5.6935   3.1507  -1.4874 H              1 S1                 0.0000
     41 ****         4.6748   4.6805  -1.4310 H              1 S1                 0.0000
     42 ****         3.6936   3.9539   0.7615 H              1 S1                 0.0000
     43 ****         4.7093   2.4217   0.7133 H              1 S1                 0.0000
     44 ****         2.0003   0.9502  -0.2968 H              1 S1                 0.0000
     45 ****         3.3367  -0.1881  -0.1887 H              1 S1                 0.0000
     46 ****         0.5007  -2.1361   1.9665 H              1 S1                 0.0000
     47 ****        -0.8171  -2.3415   3.9740 H              1 S1                 0.0000
     48 ****         4.6403   1.1236  -1.1860 H              1 S1                 0.0000
     49 ****        -6.8086  -0.4137   0.7084 LP             1 S1                 0.0000
     50 ****        -7.0919  -0.9202   2.2347 LP             1 S1                 0.0000
     51 ****        -3.0131  -1.5291  -0.2600 LP             1 S1                 0.0000
     52 ****        -2.0101  -1.2578  -1.7126 LP             1 S1                 0.0000
     53 ****        -0.4765  -1.3257  -2.5147 LP             1 S1                 0.0000
     54 ****        -4.4622  -2.0746   3.9590 LP             1 S1                 0.0000
     55 ****        -3.0375  -2.3232   4.9121 LP             1 S1                 0.0000
@<TRIPOS>BOND
    1    1    2 1     
    2    1   24 1     
    3    1   25 1     
    4    1   26 1     
    5    2    3 1     
    6    3    4 1     
    7    3   27 1     
    8    3   28 1     
    9    4    5 1     
   10    4   29 1     
   11    4   30 1     
   12    5   22 am    
   13    5    6 1     
   14    6    7 2     
   15    7    8 1     
   16    7   20 1     
   17    8    9 2     
   18    8   10 am    
   19   10   11 1     
   20   10   31 1     
   21   11   12 1     
   22   11   32 1     
   23   11   33 1     
   24   12   19 1     
   25   12   13 1     
   26   12   34 1     
   27   13   14 1     
   28   13   35 1     
   29   13   36 1     
   30   14   15 1     
   31   14   37 1     
   32   14   38 1     
   33   15   16 1     
   34   15   19 1     
   35   15   48 1     
   36   16   18 1     
   37   16   17 1     
   38   16   39 1     
   39   17   18 1     
   40   17   40 1     
   41   17   41 1     
   42   18   42 1     
   43   18   43 1     
   44   19   44 1     
   45   19   45 1     
   46   20   21 2     
   47   20   46 1     
   48   21   22 1     
   49   21   47 1     
   50   22   23 2     
   51    2   49 1     
   52    2   50 1     
   53    6   51 1     
   54    9   52 1     
   55    9   53 1     
   56   23   54 1     
   57   23   55 1     
@<TRIPOS>SUBSTRUCTURE
      1 S1             1
@<TRIPOS>SET
LONE_PAIRS      STATIC     ATOMS    <user>   **** ""
7 49 50 51 52 53 54 55
DONOR_HYDROGENS      STATIC     ATOMS    <user>   **** ""
2 31 48
ATOM$BLUE        STATIC     ATOMS    COLORGROUP SYSTEM
7 49 50 51 52 53 54 55
ATOM$RED        STATIC     ATOMS    COLORGROUP SYSTEM
2 31 48
