AV-unprocessed.smi:2867|AV-procd|sdf|11023|dock6
  -GOLD-   2272015483D 1   1.00000     0.00000
 Structure written by MMmdl.
 40 42  0  0  0  0  0  0  0  0  1 V2000
  151.0914  145.2958  159.1657 C   0  0  0  0  0  0  0  0  0  0  0  0
  151.9625  144.5677  158.3181 O   0  0  0  0  0  0  0  0  0  0  0  0
  153.0888  144.0589  159.0102 C   0  0  0  0  0  0  0  0  0  0  0  0
  152.6304  142.9376  159.9495 C   0  0  0  0  0  0  0  0  0  0  0  0
  152.4487  141.6866  159.2309 N   0  0  0  0  0  0  0  0  0  0  0  0
  153.0855  140.5071  159.4450 C   0  0  0  0  0  0  0  0  0  0  0  0
  154.1044  140.3040  160.4650 C   0  0  0  0  0  0  0  0  0  0  0  0
  153.9903  140.9331  161.7227 C   0  0  0  0  0  0  0  0  0  0  0  0
  154.9785  140.7300  162.7057 C   0  0  0  0  0  0  0  0  0  0  0  0
  156.0844  139.9016  162.4326 C   0  0  0  0  0  0  0  0  0  0  0  0
  156.2037  139.2777  161.1754 C   0  0  0  0  0  0  0  0  0  0  0  0
  157.2678  138.4826  160.9124 F   0  0  0  0  0  0  0  0  0  0  0  0
  155.2162  139.4799  160.1919 C   0  0  0  0  0  0  0  0  0  0  0  0
  152.6978  139.5053  158.6527 N   0  0  0  0  0  0  0  0  0  0  0  0
  151.7293  140.0869  157.8590 C   0  0  0  0  0  0  0  0  0  0  0  0
  150.9377  139.5384  156.8253 C   0  0  0  0  0  0  0  0  0  0  0  0
  149.9928  140.3455  156.1571 C   0  0  0  0  0  0  0  0  0  0  0  0
  148.9967  139.6337  154.8538 S   0  0  0  0  0  0  0  0  0  0  0  0
  150.1435  139.4696  153.5833 N   0  0  0  0  0  0  0  0  0  0  0  0
  148.5712  138.2825  155.2503 O   0  0  0  0  0  0  0  0  0  0  0  0
  148.0105  140.6390  154.4287 O   0  0  0  0  0  0  0  0  0  0  0  0
  149.8222  141.7023  156.5040 C   0  0  0  0  0  0  0  0  0  0  0  0
  150.6045  142.2631  157.5317 C   0  0  0  0  0  0  0  0  0  0  0  0
  151.5476  141.4566  158.1974 C   0  0  0  0  0  0  0  0  0  0  0  0
  150.2478  145.6724  158.5875 H   0  0  0  0  0  0  0  0  0  0  0  0
  151.5999  146.1504  159.6145 H   0  0  0  0  0  0  0  0  0  0  0  0
  150.6983  144.6638  159.9632 H   0  0  0  0  0  0  0  0  0  0  0  0
  153.8222  143.6770  158.2979 H   0  0  0  0  0  0  0  0  0  0  0  0
  153.5677  144.8553  159.5828 H   0  0  0  0  0  0  0  0  0  0  0  0
  153.3646  142.7851  160.7410 H   0  0  0  0  0  0  0  0  0  0  0  0
  151.6990  143.2109  160.4448 H   0  0  0  0  0  0  0  0  0  0  0  0
  153.1442  141.5700  161.9364 H   0  0  0  0  0  0  0  0  0  0  0  0
  154.8884  141.2097  163.6692 H   0  0  0  0  0  0  0  0  0  0  0  0
  156.8416  139.7462  163.1867 H   0  0  0  0  0  0  0  0  0  0  0  0
  155.3106  138.9982  159.2294 H   0  0  0  0  0  0  0  0  0  0  0  0
  151.0578  138.5001  156.5538 H   0  0  0  0  0  0  0  0  0  0  0  0
  149.6967  139.5466  152.6700 H   0  0  0  0  0  0  0  0  0  0  0  0
  150.6641  138.5968  153.6671 H   0  0  0  0  0  0  0  0  0  0  0  0
  149.0941  142.3127  155.9901 H   0  0  0  0  0  0  0  0  0  0  0  0
  150.4784  143.2998  157.8062 H   0  0  0  0  0  0  0  0  0  0  0  0
  1  2  1  0  0  0  0
  1 25  1  0  0  0  0
  1 26  1  0  0  0  0
  1 27  1  0  0  0  0
  2  3  1  0  0  0  0
  3  4  1  0  0  0  0
  3 28  1  0  0  0  0
  3 29  1  0  0  0  0
  4  5  1  0  0  0  0
  4 30  1  0  0  0  0
  4 31  1  0  0  0  0
  5 24  1  0  0  0  0
  5  6  1  0  0  0  0
  6  7  1  0  0  0  0
  6 14  2  0  0  0  0
  7 13  1  0  0  0  0
  7  8  2  0  0  0  0
  8  9  1  0  0  0  0
  8 32  1  0  0  0  0
  9 10  2  0  0  0  0
  9 33  1  0  0  0  0
 10 11  1  0  0  0  0
 10 34  1  0  0  0  0
 11 12  1  0  0  0  0
 11 13  2  0  0  0  0
 13 35  1  0  0  0  0
 14 15  1  0  0  0  0
 15 24  2  0  0  0  0
 15 16  1  0  0  0  0
 16 17  2  0  0  0  0
 16 36  1  0  0  0  0
 17 18  1  0  0  0  0
 17 22  1  0  0  0  0
 18 19  1  0  0  0  0
 18 20  2  0  0  0  0
 18 21  2  0  0  0  0
 19 37  1  0  0  0  0
 19 38  1  0  0  0  0
 22 23  2  0  0  0  0
 22 39  1  0  0  0  0
 23 24  1  0  0  0  0
 23 40  1  0  0  0  0
M  END
> <s_m_source_file>
AV-unprocessed.smi

> <i_m_source_file_index>
2867

> <i_lp_mmshare_version>
43012

> <i_f3d_flags>
0

> <s_epik_input>
W05IMl1TKD1PKSg9TyljKFtjSF0xKVtjSF1bY0hdYyhjMTIpbihbQ0gyXVtDSDJdT1tDSDNdKWMobjIpLWMzW2NIXVtjSF1bY0hdYyhGKVtjSF0z

> <s_epik_cmdline>
J2VwaWtfcHl0aG9uJywgJy1waCcsICc3LjAnLCAnLXRuJywgJzgnLCAnLW1hJywgJzIwMCcsICctbWV0YWxfYmluZGluZycsICctaW1hZScsICc8aW5maWxlLm1hZT4nLCAnLW9tYWUnLCAnPG91dGZpbGUubWFlPic=

> <r_epik_Ionization_Penalty>
0.0786023

> <r_epik_Ionization_Penalty_Charging>
0

> <r_epik_Ionization_Penalty_Neutral>
0.0786023

> <r_epik_State_Penalty>
0.0592545

> <r_epik_Charging_Adjusted_Penalty>
0.0592545

> <i_epik_Tot_Q>
0

> <i_epik_Tot_abs_Q>
0

> <r_epik_Metal_State_Penalty>
0.300641

> <b_epik_Metal_Only>
0

> <s_lp_Force_Field>
OPLS_2005

> <r_lp_Energy>
19.4946

> <b_lp_Chiralities_Consistent>
1

> <s_lp_Variant>
AV-unprocessed.smi:2867-1

> <Gold.Version>
5.8.1

> <Gold.Id.Protein>
6NUR|6NUR_protein|mol2

> <Gold.PLP.Fitness>
44.2021

> <Gold.PLP.PLP>
-39.0341

> <Gold.PLP.part.hbond>
-2.0000

> <Gold.PLP.part.metal>
0.0000

> <Gold.PLP.part.buried>
-2.7270

> <Gold.PLP.part.nonpolar>
-33.7083

> <Gold.PLP.part.repulsive>
0.2661

> <Gold.PLP.ligand.clash>
0.0000

> <Gold.PLP.ligand.torsion>
1.7054

> <Gold.PLP.Chemscore.Hbond>
1.8480

> <Gold.PLP.Chemscore.CHOScore>
0.0000

> <Gold.PLP.Chemscore.Metal>
0.0000

> <Gold.Chemscore.Hbonds>
donor molecule, donor type, donor heavy atom, donor atom, acceptor molecule, acceptor atom, score
      L1  H    19    37       P1  7957  1.00
      P1  H  7989  7998       L1    19  0.85

> <Gold.PLP.Chemscore.Internal.Correction>
3.0349

> <Gold.Rescore>
     Score         DG    S(hbond)    S(metal)    S(lipo)     H(rot)  DE(clash)    DE(int)     intcor
     16.05     -18.40       1.06        0.00     111.92       1.45       0.19       2.16       ----

> <Gold.Chemscore.Fitness>
16.0492

> <Gold.Chemscore.DG>
-18.3999

> <Gold.Chemscore.ZeroCoef>
-5.4800

> <Gold.Chemscore.Hbond>
1.0613

> <Gold.Chemscore.Metal>
0.0000

> <Gold.Chemscore.Lipo>
111.9214

> <Gold.Chemscore.Internal_Hbond>
0.0000

> <Gold.Chemscore.DEClash>
0.1872

> <Gold.Chemscore.DEInternal>
2.1635

> <Gold.Chemscore.Rot>
1.4530

> <Gold.Chemscore.Internal.Correction>
   9.000000E+99

> <Gold.Chemscore.Hbonds>
donor molecule, donor type, donor heavy atom, donor atom, acceptor molecule, acceptor atom, score
      L1  H    19    37       P1  7957  0.95
      P1  H  7989  7998       L1    19  0.10

> <Gold.Chemscore.Hbond.Weighted>
-3.5447

> <Gold.Chemscore.Metal.Weighted>
-0.0000

> <Gold.Chemscore.Lipo.Weighted>
-13.0948

> <Gold.Chemscore.Internal_Hbond.Weighted>
0.0000

> <Gold.Chemscore.DEClash.Weighted>
0.1872

> <Gold.Chemscore.DEInternal.Weighted>
2.1635

> <Gold.Chemscore.Rot.Weighted>
3.7196

> <Gold.Chemscore.Internal.Correction.Weighted>
   9.000000E+99

> <Gold.Protein.RotatedTorsions>
[ 6907 6896 6895 6894 ] final  103.65 input  -60.11 | X-H torsion
[ 7974 7965 7964 7962 ] final  144.59 input  175.53 | X-H torsion
[ 8008 7997 7996 7995 ] final  114.47 input   59.86 | X-H torsion
[ 10167 10162 10161 10158 ] final -166.23 input  -65.29 | X-H torsion
[ 10718 10713 10712 10709 ] final  -43.92 input   66.30 | X-H torsion
[ 10763 10752 10751 10750 ] final  111.72 input  -60.55 | X-H torsion
[ 11005 11000 10999 10996 ] final   61.64 input  -57.11 | X-H torsion

> <Gold.Protein.ActiveResidues>
 VAL166  LYS551  ARG553  GLY616  TRP617  ASP618  TYR619  PRO620  LYS621  CYS622 
 ASP623  PHE694  ASN695  SER759  ASP760  ASP761  ALA762  ILE779  LEU786  VAL792 
 PHE793  MET794  SER795  GLU796  ALA797  LYS798  CYS799  TRP800  GLU811  SER814 

> <Gold.Protein.RotatedAtoms>
  152.5289  133.9795  159.7799 H   0  0  0  0  0  0  0  0  0  0  0  0  # atno 6907 bound_to 6896
  151.0051  133.6011  159.2697 H   0  0  0  0  0  0  0  0  0  0  0  0  # atno 6908 bound_to 6896
  151.3105  135.0799  159.9324 H   0  0  0  0  0  0  0  0  0  0  0  0  # atno 6909 bound_to 6896
  144.8823  139.5681  143.5837 H   0  0  0  0  0  0  0  0  0  0  0  0  # atno 7974 bound_to 7965
  156.2323  140.2958  156.0220 H   0  0  0  0  0  0  0  0  0  0  0  0  # atno 8008 bound_to 7997
  155.2191  140.0415  157.2962 H   0  0  0  0  0  0  0  0  0  0  0  0  # atno 8009 bound_to 7997
  154.6017  140.2428  155.7792 H   0  0  0  0  0  0  0  0  0  0  0  0  # atno 8010 bound_to 7997
  139.6129  144.0779  152.1859 H   0  0  0  0  0  0  0  0  0  0  0  0  # atno 10167 bound_to 10162
  156.2440  130.4182  149.8727 H   0  0  0  0  0  0  0  0  0  0  0  0  # atno 10718 bound_to 10713
  153.4675  135.3708  155.2372 H   0  0  0  0  0  0  0  0  0  0  0  0  # atno 10763 bound_to 10752
  154.8757  135.3923  154.3852 H   0  0  0  0  0  0  0  0  0  0  0  0  # atno 10764 bound_to 10752
  153.4435  135.7084  153.6218 H   0  0  0  0  0  0  0  0  0  0  0  0  # atno 10765 bound_to 10752
  140.0147  134.6243  155.9728 H   0  0  0  0  0  0  0  0  0  0  0  0  # atno 11005 bound_to 11000
  146.3002  139.7403  142.9097 LP  0  0  0  0  0  0  0  0  0  0  0  0  # atno 17320 bound_to 7965
  145.3932  141.0375  143.3112 LP  0  0  0  0  0  0  0  0  0  0  0  0  # atno 17321 bound_to 7965
  140.0402  144.6013  150.7417 LP  0  0  0  0  0  0  0  0  0  0  0  0  # atno 17342 bound_to 10162
  140.7331  143.2713  151.3879 LP  0  0  0  0  0  0  0  0  0  0  0  0  # atno 17343 bound_to 10162
  156.6299  130.8661  151.3493 LP  0  0  0  0  0  0  0  0  0  0  0  0  # atno 17370 bound_to 10713
  157.7187  130.9530  150.1354 LP  0  0  0  0  0  0  0  0  0  0  0  0  # atno 17371 bound_to 10713
  141.1735  133.6538  156.4738 LP  0  0  0  0  0  0  0  0  0  0  0  0  # atno 17394 bound_to 11000
  140.4492  134.6944  157.5031 LP  0  0  0  0  0  0  0  0  0  0  0  0  # atno 17395 bound_to 11000

$$$$
