AV-unprocessed.smi:148|AV-procd|sdf|1219|dock10
  -GOLD-   2262018403D 1   1.00000     0.00000
 Structure written by MMmdl.
 63 67  0  0  0  0  0  0  0  0  1 V2000
  148.8583  140.9630  153.2210 O   0  0  0  0  0  0  0  0  0  0  0  0
  149.9102  140.2629  153.8556 C   0  0  0  0  0  0  0  0  0  0  0  0
  149.4582  139.5851  155.1779 C   0  0  1  0  0  0  0  0  0  0  0  0
  148.2245  138.6363  155.0507 C   0  0  0  0  0  0  0  0  0  0  0  0
  147.8048  137.9744  156.2747 N   0  0  0  0  0  0  0  0  0  0  0  0
  146.6764  138.2512  157.0133 C   0  0  0  0  0  0  0  0  0  0  0  0
  146.5246  137.5267  158.0883 N   0  0  0  0  0  0  0  0  0  0  0  0
  147.6291  136.6829  158.0861 C   0  0  0  0  0  0  0  0  0  0  0  0
  148.1080  135.6653  158.9591 C   0  0  0  0  0  0  0  0  0  0  0  0
  147.5108  135.2934  160.1140 N   0  0  0  0  0  0  0  0  0  0  0  0
  147.8025  136.2675  161.1650 C   0  0  0  0  0  0  0  0  0  0  0  0
  146.9421  136.0191  162.4100 C   0  0  0  0  0  0  0  0  0  0  0  0
  147.1260  134.5803  162.9027 C   0  0  0  0  0  0  0  0  0  0  0  0
  146.8012  133.5931  161.7734 C   0  0  0  0  0  0  0  0  0  0  0  0
  147.6404  133.8751  160.4988 C   0  0  1  0  0  0  0  0  0  0  0  0
  147.3273  132.8958  159.3226 C   0  0  2  0  0  0  0  0  0  0  0  0
  145.8957  132.9529  158.7529 C   0  0  0  0  0  0  0  0  0  0  0  0
  145.5715  131.5368  158.2495 C   0  0  0  0  0  0  0  0  0  0  0  0
  146.8456  130.7103  158.4466 C   0  0  0  0  0  0  0  0  0  0  0  0
  147.5707  131.4046  159.5985 C   0  0  1  0  0  0  0  0  0  0  0  0
  148.9461  131.0821  159.6089 O   0  0  0  0  0  0  0  0  0  0  0  0
  149.2498  135.0187  158.6182 N   0  0  0  0  0  0  0  0  0  0  0  0
  149.9020  135.3591  157.5026 C   0  0  0  0  0  0  0  0  0  0  0  0
  149.5905  136.2979  156.6060 N   0  0  0  0  0  0  0  0  0  0  0  0
  148.4342  136.9391  156.9416 C   0  0  0  0  0  0  0  0  0  0  0  0
  150.6193  138.9012  155.9608 C   0  0  1  0  0  0  0  0  0  0  0  0
  151.3931  137.8318  155.1985 C   0  0  0  0  0  0  0  0  0  0  0  0
  152.3920  138.6407  154.3760 C   0  0  0  0  0  0  0  0  0  0  0  0
  152.6140  139.8393  155.1112 O   0  0  0  0  0  0  0  0  0  0  0  0
  151.7798  139.8595  156.2646 C   0  0  0  0  0  0  0  0  0  0  0  0
  148.5649  140.4567  152.4786 H   0  0  0  0  0  0  0  0  0  0  0  0
  150.2960  139.5208  153.1580 H   0  0  0  0  0  0  0  0  0  0  0  0
  150.7429  140.9439  154.0286 H   0  0  0  0  0  0  0  0  0  0  0  0
  149.1149  140.4118  155.8018 H   0  0  0  0  0  0  0  0  0  0  0  0
  147.3567  139.1695  154.6622 H   0  0  0  0  0  0  0  0  0  0  0  0
  148.4404  137.8623  154.3131 H   0  0  0  0  0  0  0  0  0  0  0  0
  145.9746  139.0241  156.7350 H   0  0  0  0  0  0  0  0  0  0  0  0
  148.8594  136.2082  161.4294 H   0  0  0  0  0  0  0  0  0  0  0  0
  147.6240  137.2792  160.7970 H   0  0  0  0  0  0  0  0  0  0  0  0
  147.2102  136.7240  163.1973 H   0  0  0  0  0  0  0  0  0  0  0  0
  145.8922  136.1978  162.1738 H   0  0  0  0  0  0  0  0  0  0  0  0
  148.1530  134.4323  163.2389 H   0  0  0  0  0  0  0  0  0  0  0  0
  146.4836  134.3922  163.7633 H   0  0  0  0  0  0  0  0  0  0  0  0
  146.9829  132.5851  162.1424 H   0  0  0  0  0  0  0  0  0  0  0  0
  145.7358  133.6551  161.5546 H   0  0  0  0  0  0  0  0  0  0  0  0
  148.6824  133.7181  160.7779 H   0  0  0  0  0  0  0  0  0  0  0  0
  147.9896  133.1361  158.4897 H   0  0  0  0  0  0  0  0  0  0  0  0
  145.1631  133.2495  159.5016 H   0  0  0  0  0  0  0  0  0  0  0  0
  145.8323  133.6832  157.9456 H   0  0  0  0  0  0  0  0  0  0  0  0
  144.7612  131.1142  158.8452 H   0  0  0  0  0  0  0  0  0  0  0  0
  145.2464  131.5347  157.2087 H   0  0  0  0  0  0  0  0  0  0  0  0
  146.6385  129.6592  158.6509 H   0  0  0  0  0  0  0  0  0  0  0  0
  147.4502  130.7588  157.5392 H   0  0  0  0  0  0  0  0  0  0  0  0
  147.1158  131.0889  160.5362 H   0  0  0  0  0  0  0  0  0  0  0  0
  149.4428  131.8859  159.6251 H   0  0  0  0  0  0  0  0  0  0  0  0
  150.8060  134.8034  157.3024 H   0  0  0  0  0  0  0  0  0  0  0  0
  150.2169  138.4832  156.8847 H   0  0  0  0  0  0  0  0  0  0  0  0
  151.9387  137.2126  155.9123 H   0  0  0  0  0  0  0  0  0  0  0  0
  150.7889  137.1546  154.5979 H   0  0  0  0  0  0  0  0  0  0  0  0
  153.3227  138.0980  154.2096 H   0  0  0  0  0  0  0  0  0  0  0  0
  151.9709  138.8994  153.4039 H   0  0  0  0  0  0  0  0  0  0  0  0
  151.4721  140.8767  156.5044 H   0  0  0  0  0  0  0  0  0  0  0  0
  152.3593  139.4866  157.1104 H   0  0  0  0  0  0  0  0  0  0  0  0
  1  2  1  0  0  0  0
  1 31  1  0  0  0  0
  2  3  1  0  0  0  0
  2 32  1  0  0  0  0
  2 33  1  0  0  0  0
  3  4  1  0  0  0  0
  3 26  1  0  0  0  0
  3 34  1  0  0  0  0
  4  5  1  0  0  0  0
  4 35  1  0  0  0  0
  4 36  1  0  0  0  0
  5 25  1  0  0  0  0
  5  6  1  0  0  0  0
  6  7  2  0  0  0  0
  6 37  1  0  0  0  0
  7  8  1  0  0  0  0
  8 25  2  0  0  0  0
  8  9  1  0  0  0  0
  9 10  1  0  0  0  0
  9 22  2  0  0  0  0
 10 15  1  0  0  0  0
 10 11  1  0  0  0  0
 11 12  1  0  0  0  0
 11 38  1  0  0  0  0
 11 39  1  0  0  0  0
 12 13  1  0  0  0  0
 12 40  1  0  0  0  0
 12 41  1  0  0  0  0
 13 14  1  0  0  0  0
 13 42  1  0  0  0  0
 13 43  1  0  0  0  0
 14 15  1  0  0  0  0
 14 44  1  0  0  0  0
 14 45  1  0  0  0  0
 15 16  1  0  0  0  0
 15 46  1  0  0  0  0
 16 20  1  0  0  0  0
 16 17  1  0  0  0  0
 16 47  1  0  0  0  0
 17 18  1  0  0  0  0
 17 48  1  0  0  0  0
 17 49  1  0  0  0  0
 18 19  1  0  0  0  0
 18 50  1  0  0  0  0
 18 51  1  0  0  0  0
 19 20  1  0  0  0  0
 19 52  1  0  0  0  0
 19 53  1  0  0  0  0
 20 21  1  0  0  0  0
 20 54  1  0  0  0  0
 21 55  1  0  0  0  0
 22 23  1  0  0  0  0
 23 24  2  0  0  0  0
 23 56  1  0  0  0  0
 24 25  1  0  0  0  0
 26 30  1  0  0  0  0
 26 27  1  0  0  0  0
 26 57  1  0  0  0  0
 27 28  1  0  0  0  0
 27 58  1  0  0  0  0
 27 59  1  0  0  0  0
 28 29  1  0  0  0  0
 28 60  1  0  0  0  0
 28 61  1  0  0  0  0
 29 30  1  0  0  0  0
 30 62  1  0  0  0  0
 30 63  1  0  0  0  0
M  END
> <s_m_source_file>
AV-unprocessed.smi

> <i_m_source_file_index>
148

> <i_lp_mmshare_version>
43012

> <i_f3d_flags>
0

> <s_epik_input>
W0NIMl0xT1tDSDJdW0NIMl1bQ0BIXTFbQ0BIXShbQ0gyXVtPSF0pW0NIMl1uKFtjSF1uMiljKGMyMyluW2NIXW5jM040W0NIMl1bQ0gyXVtDSDJdW0NIMl1bQ0BIXTRbQ0BASF01W0NIMl1bQ0gyXVtDSDJdW0NASF01W09IXQ==

> <s_epik_cmdline>
J2VwaWtfcHl0aG9uJywgJy1waCcsICc3LjAnLCAnLXRuJywgJzgnLCAnLW1hJywgJzIwMCcsICctbWV0YWxfYmluZGluZycsICctaW1hZScsICc8aW5maWxlLm1hZT4nLCAnLW9tYWUnLCAnPG91dGZpbGUubWFlPic=

> <r_lp_tautomer_probability>
1

> <r_epik_Ionization_Penalty>
0.00556303

> <r_epik_Ionization_Penalty_Charging>
0

> <r_epik_Ionization_Penalty_Neutral>
0.00556303

> <r_epik_State_Penalty>
0.00401767

> <r_epik_Charging_Adjusted_Penalty>
0.00401767

> <i_epik_Tot_Q>
0

> <i_epik_Tot_abs_Q>
0

> <r_epik_Metal_State_Penalty>
-0

> <b_epik_Metal_Only>
0

> <s_lp_Force_Field>
OPLS_2005

> <r_lp_Energy>
73.5051

> <b_lp_Chiralities_Consistent>
1

> <s_lp_Variant>
AV-unprocessed.smi:148-18

> <Gold.Version>
5.8.1

> <Gold.Id.Protein>
6NUR|6NUR_protein|mol2

> <Gold.PLP.Fitness>
40.4034

> <Gold.PLP.PLP>
-30.8785

> <Gold.PLP.part.hbond>
-4.9777

> <Gold.PLP.part.metal>
0.0000

> <Gold.PLP.part.buried>
3.3442

> <Gold.PLP.part.nonpolar>
-28.7483

> <Gold.PLP.part.repulsive>
0.0235

> <Gold.PLP.ligand.clash>
0.0000

> <Gold.PLP.ligand.torsion>
0.8856

> <Gold.PLP.Chemscore.Hbond>
3.6151

> <Gold.PLP.Chemscore.CHOScore>
0.0000

> <Gold.PLP.Chemscore.Metal>
0.0000

> <Gold.Chemscore.Hbonds>
donor molecule, donor type, donor heavy atom, donor atom, acceptor molecule, acceptor atom, score
      L1  H     1    31       P1  7957  0.46
      P1  H  6896  6909       L1    22  0.85
      P1  H  7989  7998       L1    29  0.15
      P1  H  7997  8010       L1    29  0.99
      P1  H  8011  8017       L1     1  1.00

> <Gold.PLP.Chemscore.Internal.Correction>
0.4509

> <Gold.Rescore>
     Score         DG    S(hbond)    S(metal)    S(lipo)     H(rot)  DE(clash)    DE(int)     intcor
      6.21     -13.53       1.94        0.00      86.22       3.32       1.82       5.50       ----

> <Gold.Chemscore.Fitness>
6.2117

> <Gold.Chemscore.DG>
-13.5309

> <Gold.Chemscore.ZeroCoef>
-5.4800

> <Gold.Chemscore.Hbond>
1.9351

> <Gold.Chemscore.Metal>
0.0000

> <Gold.Chemscore.Lipo>
86.2185

> <Gold.Chemscore.Internal_Hbond>
0.0000

> <Gold.Chemscore.DEClash>
1.8150

> <Gold.Chemscore.DEInternal>
5.5042

> <Gold.Chemscore.Rot>
3.3203

> <Gold.Chemscore.Internal.Correction>
   9.000000E+99

> <Gold.Chemscore.Hbonds>
donor molecule, donor type, donor heavy atom, donor atom, acceptor molecule, acceptor atom, score
      L1  H     1    31       P1  7957  0.46
      P1  H  6896  6909       L1    22  0.15
      P1  H  7997  8010       L1    29  0.40
      P1  H  8011  8017       L1     1  0.10

> <Gold.Chemscore.Hbond.Weighted>
-6.4634

> <Gold.Chemscore.Metal.Weighted>
-0.0000

> <Gold.Chemscore.Lipo.Weighted>
-10.0876

> <Gold.Chemscore.Internal_Hbond.Weighted>
0.0000

> <Gold.Chemscore.DEClash.Weighted>
1.8150

> <Gold.Chemscore.DEInternal.Weighted>
5.5042

> <Gold.Chemscore.Rot.Weighted>
8.5000

> <Gold.Chemscore.Internal.Correction.Weighted>
   9.000000E+99

> <Gold.Protein.RotatedTorsions>
[ 6907 6896 6895 6894 ] final   43.54 input  -60.11 | X-H torsion
[ 7974 7965 7964 7962 ] final  -51.56 input  175.53 | X-H torsion
[ 8008 7997 7996 7995 ] final  106.87 input   59.86 | X-H torsion
[ 10167 10162 10161 10158 ] final  156.97 input  -65.29 | X-H torsion
[ 10718 10713 10712 10709 ] final  159.19 input   66.30 | X-H torsion
[ 10763 10752 10751 10750 ] final  -79.54 input  -60.55 | X-H torsion
[ 11005 11000 10999 10996 ] final  157.71 input  -57.11 | X-H torsion

> <Gold.Protein.ActiveResidues>
 VAL166  LYS551  ARG553  GLY616  TRP617  ASP618  TYR619  PRO620  LYS621  CYS622 
 ASP623  PHE694  ASN695  SER759  ASP760  ASP761  ALA762  ILE779  LEU786  VAL792 
 PHE793  MET794  SER795  GLU796  ALA797  LYS798  CYS799  TRP800  GLU811  SER814 

> <Gold.Protein.RotatedAtoms>
  152.2216  134.8408  160.0485 H   0  0  0  0  0  0  0  0  0  0  0  0  # atno 6907 bound_to 6896
  151.9189  133.3575  159.3898 H   0  0  0  0  0  0  0  0  0  0  0  0  # atno 6908 bound_to 6896
  150.7001  134.4580  159.5411 H   0  0  0  0  0  0  0  0  0  0  0  0  # atno 6909 bound_to 6896
  145.9176  140.7861  142.9663 H   0  0  0  0  0  0  0  0  0  0  0  0  # atno 7974 bound_to 7965
  156.1778  140.3105  155.9092 H   0  0  0  0  0  0  0  0  0  0  0  0  # atno 8008 bound_to 7997
  155.3449  140.0468  157.3062 H   0  0  0  0  0  0  0  0  0  0  0  0  # atno 8009 bound_to 7997
  154.5310  140.2230  155.8815 H   0  0  0  0  0  0  0  0  0  0  0  0  # atno 8010 bound_to 7997
  139.4822  144.4960  151.8239 H   0  0  0  0  0  0  0  0  0  0  0  0  # atno 10167 bound_to 10162
  157.1676  131.0602  151.2199 H   0  0  0  0  0  0  0  0  0  0  0  0  # atno 10718 bound_to 10713
  154.5399  135.5692  153.6830 H   0  0  0  0  0  0  0  0  0  0  0  0  # atno 10763 bound_to 10752
  152.9960  135.6225  154.2516 H   0  0  0  0  0  0  0  0  0  0  0  0  # atno 10764 bound_to 10752
  154.2447  135.2861  155.2820 H   0  0  0  0  0  0  0  0  0  0  0  0  # atno 10765 bound_to 10752
  140.1795  134.8486  157.2786 H   0  0  0  0  0  0  0  0  0  0  0  0  # atno 11005 bound_to 11000
  144.6749  140.1925  143.7395 LP  0  0  0  0  0  0  0  0  0  0  0  0  # atno 17320 bound_to 7965
  145.8591  139.2214  143.1727 LP  0  0  0  0  0  0  0  0  0  0  0  0  # atno 17321 bound_to 7965
  140.4449  144.1936  150.5893 LP  0  0  0  0  0  0  0  0  0  0  0  0  # atno 17342 bound_to 10162
  140.4645  143.2436  151.9174 LP  0  0  0  0  0  0  0  0  0  0  0  0  # atno 17343 bound_to 10162
  157.4073  130.7366  149.6812 LP  0  0  0  0  0  0  0  0  0  0  0  0  # atno 17370 bound_to 10713
  155.9743  130.4104  150.3931 LP  0  0  0  0  0  0  0  0  0  0  0  0  # atno 17371 bound_to 10713
  140.2284  134.3939  155.7533 LP  0  0  0  0  0  0  0  0  0  0  0  0  # atno 17394 bound_to 11000
  141.2222  133.7202  156.8601 LP  0  0  0  0  0  0  0  0  0  0  0  0  # atno 17395 bound_to 11000

$$$$
