AV-unprocessed.smi:1492|AV-procd|sdf|6037|dock1
  -GOLD-   22720 6143D 1   1.00000     0.00000
 Structure written by MMmdl.
 52 53  0  0  0  0  0  0  0  0  1 V2000
  152.2736  138.8752  154.9551 C   0  0  0  0  0  0  0  0  0  0  0  0
  151.4583  137.5730  154.8433 C   0  0  0  0  0  0  0  0  0  0  0  0
  150.7990  137.0070  156.1471 C   0  0  2  0  0  0  0  0  0  0  0  0
  150.1243  138.1822  156.8986 C   0  0  0  0  0  0  0  0  0  0  0  0
  151.9272  136.4500  157.0715 C   0  0  0  0  0  0  0  0  0  0  0  0
  152.6945  137.5338  157.6779 N   0  0  0  0  0  0  0  0  0  0  0  0
  152.8621  137.7398  158.9916 C   0  0  0  0  0  0  0  0  0  0  0  0
  152.2169  137.1629  159.8660 O   0  0  0  0  0  0  0  0  0  0  0  0
  153.9780  138.7117  159.3701 C   0  0  0  0  0  0  0  0  0  0  0  0
  153.5116  140.1568  159.5426 C   0  0  0  0  0  0  0  0  0  0  0  0
  153.7658  140.8915  160.6650 C   0  0  0  0  0  0  0  0  0  0  0  0
  154.5193  140.3365  161.8612 C   0  0  0  0  0  0  0  0  0  0  0  0
  153.3565  142.2274  160.7774 N   0  0  0  0  0  0  0  0  0  0  0  0
  152.7340  142.7724  159.7849 C   0  0  0  0  0  0  0  0  0  0  0  0
  152.2540  144.2081  159.7755 C   0  0  0  0  0  0  0  0  0  0  0  0
  152.4468  142.0804  158.6100 N   0  0  0  0  0  0  0  0  0  0  0  0
  152.7938  140.7883  158.4180 C   0  0  0  0  0  0  0  0  0  0  0  0
  152.5214  140.2227  157.3603 O   0  0  0  0  0  0  0  0  0  0  0  0
  149.8239  135.9279  155.7958 N   0  0  0  0  0  0  0  0  0  0  0  0
  148.6278  136.3735  155.0678 C   0  0  0  0  0  0  0  0  0  0  0  0
  147.6096  135.2383  154.8743 C   0  0  0  0  0  0  0  0  0  0  0  0
  148.2257  134.1563  154.1885 O   0  0  0  0  0  0  0  0  0  0  0  0
  149.3574  133.6512  154.8844 C   0  0  0  0  0  0  0  0  0  0  0  0
  150.3906  134.7726  155.0884 C   0  0  0  0  0  0  0  0  0  0  0  0
  151.9582  142.5582  157.8670 H   0  0  0  0  0  0  0  0  0  0  0  0
  152.5804  139.2115  153.9648 H   0  0  0  0  0  0  0  0  0  0  0  0
  153.1861  138.7386  155.5349 H   0  0  0  0  0  0  0  0  0  0  0  0
  151.6985  139.6836  155.4047 H   0  0  0  0  0  0  0  0  0  0  0  0
  150.6847  137.7682  154.1010 H   0  0  0  0  0  0  0  0  0  0  0  0
  152.1037  136.8122  154.4020 H   0  0  0  0  0  0  0  0  0  0  0  0
  150.8472  138.9475  157.1783 H   0  0  0  0  0  0  0  0  0  0  0  0
  149.6523  137.8593  157.8260 H   0  0  0  0  0  0  0  0  0  0  0  0
  149.3619  138.6729  156.2940 H   0  0  0  0  0  0  0  0  0  0  0  0
  151.5161  135.8377  157.8729 H   0  0  0  0  0  0  0  0  0  0  0  0
  152.5730  135.7584  156.5307 H   0  0  0  0  0  0  0  0  0  0  0  0
  153.2645  138.0800  157.0480 H   0  0  0  0  0  0  0  0  0  0  0  0
  154.4673  138.3566  160.2780 H   0  0  0  0  0  0  0  0  0  0  0  0
  154.7514  138.6687  158.6033 H   0  0  0  0  0  0  0  0  0  0  0  0
  155.5126  139.9984  161.5663 H   0  0  0  0  0  0  0  0  0  0  0  0
  153.9797  139.4968  162.2993 H   0  0  0  0  0  0  0  0  0  0  0  0
  154.6441  141.0937  162.6364 H   0  0  0  0  0  0  0  0  0  0  0  0
  151.5618  144.3779  160.6003 H   0  0  0  0  0  0  0  0  0  0  0  0
  151.7435  144.4565  158.8444 H   0  0  0  0  0  0  0  0  0  0  0  0
  153.0999  144.8860  159.8922 H   0  0  0  0  0  0  0  0  0  0  0  0
  148.1198  137.1776  155.5942 H   0  0  0  0  0  0  0  0  0  0  0  0
  148.9051  136.7629  154.0883 H   0  0  0  0  0  0  0  0  0  0  0  0
  147.2229  134.8978  155.8352 H   0  0  0  0  0  0  0  0  0  0  0  0
  146.7571  135.5895  154.2931 H   0  0  0  0  0  0  0  0  0  0  0  0
  149.0471  133.2356  155.8437 H   0  0  0  0  0  0  0  0  0  0  0  0
  149.7931  132.8345  154.3091 H   0  0  0  0  0  0  0  0  0  0  0  0
  150.7785  135.0788  154.1168 H   0  0  0  0  0  0  0  0  0  0  0  0
  151.2222  134.3416  155.6421 H   0  0  0  0  0  0  0  0  0  0  0  0
  1  2  1  0  0  0  0
  1 26  1  0  0  0  0
  1 27  1  0  0  0  0
  1 28  1  0  0  0  0
  2  3  1  0  0  0  0
  2 29  1  0  0  0  0
  2 30  1  0  0  0  0
  3  4  1  0  0  0  0
  3  5  1  0  0  0  0
  3 19  1  0  0  0  0
  4 31  1  0  0  0  0
  4 32  1  0  0  0  0
  4 33  1  0  0  0  0
  5  6  1  0  0  0  0
  5 34  1  0  0  0  0
  5 35  1  0  0  0  0
  6  7  1  0  0  0  0
  6 36  1  0  0  0  0
  7  8  2  0  0  0  0
  7  9  1  0  0  0  0
  9 10  1  0  0  0  0
  9 37  1  0  0  0  0
  9 38  1  0  0  0  0
 10 17  1  0  0  0  0
 10 11  2  0  0  0  0
 11 12  1  0  0  0  0
 11 13  1  0  0  0  0
 12 39  1  0  0  0  0
 12 40  1  0  0  0  0
 12 41  1  0  0  0  0
 13 14  2  0  0  0  0
 14 15  1  0  0  0  0
 14 16  1  0  0  0  0
 15 42  1  0  0  0  0
 15 43  1  0  0  0  0
 15 44  1  0  0  0  0
 16 25  1  0  0  0  0
 16 17  1  0  0  0  0
 17 18  2  0  0  0  0
 19 24  1  0  0  0  0
 19 20  1  0  0  0  0
 20 21  1  0  0  0  0
 20 45  1  0  0  0  0
 20 46  1  0  0  0  0
 21 22  1  0  0  0  0
 21 47  1  0  0  0  0
 21 48  1  0  0  0  0
 22 23  1  0  0  0  0
 23 24  1  0  0  0  0
 23 49  1  0  0  0  0
 23 50  1  0  0  0  0
 24 51  1  0  0  0  0
 24 52  1  0  0  0  0
M  END
> <s_m_source_file>
AV-unprocessed.smi

> <i_m_source_file_index>
1492

> <i_lp_mmshare_version>
43012

> <i_f3d_flags>
0

> <s_epik_input>
W0NIMl0xW0NIMl1PW0NIMl1bQ0gyXU4xW0NAQF0oW0NIM10pKFtDSDJdW0NIM10pW0NIMl1bTkhdQyg9TylbQ0gyXWMyYyhbQ0gzXSluYyhbQ0gzXSlbbkhdYzI9Tw==

> <s_epik_cmdline>
J2VwaWtfcHl0aG9uJywgJy1waCcsICc3LjAnLCAnLXRuJywgJzgnLCAnLW1hJywgJzIwMCcsICctbWV0YWxfYmluZGluZycsICctaW1hZScsICc8aW5maWxlLm1hZT4nLCAnLW9tYWUnLCAnPG91dGZpbGUubWFlPic=

> <r_lp_tautomer_probability>
0.839158

> <r_epik_Ionization_Penalty>
0.328652

> <r_epik_Ionization_Penalty_Charging>
0.000364731

> <r_epik_Ionization_Penalty_Neutral>
0.328288

> <r_epik_State_Penalty>
0.414451

> <r_epik_Charging_Adjusted_Penalty>
0.414816

> <i_epik_Tot_Q>
0

> <i_epik_Tot_abs_Q>
0

> <r_epik_Metal_State_Penalty>
0.592978

> <b_epik_Metal_Only>
0

> <s_lp_Force_Field>
OPLS_2005

> <r_lp_Energy>
44.0338

> <b_lp_Chiralities_Consistent>
1

> <s_lp_Variant>
AV-unprocessed.smi:1492-2

> <Gold.Version>
5.8.1

> <Gold.Id.Protein>
6NUR|6NUR_protein|mol2

> <Gold.PLP.Fitness>
40.4806

> <Gold.PLP.PLP>
-35.4428

> <Gold.PLP.part.hbond>
-2.0000

> <Gold.PLP.part.metal>
0.0000

> <Gold.PLP.part.buried>
-5.2173

> <Gold.PLP.part.nonpolar>
-28.5725

> <Gold.PLP.part.repulsive>
0.6657

> <Gold.PLP.ligand.clash>
0.0000

> <Gold.PLP.ligand.torsion>
0.7212

> <Gold.PLP.Chemscore.Hbond>
1.9913

> <Gold.PLP.Chemscore.CHOScore>
0.0000

> <Gold.PLP.Chemscore.Metal>
0.0000

> <Gold.Chemscore.Hbonds>
donor molecule, donor type, donor heavy atom, donor atom, acceptor molecule, acceptor atom, score
      P1  H  6896  6909       L1     8  0.83
      P1  H  7997  8008       L1    18  0.90

> <Gold.PLP.Chemscore.Internal.Correction>
0.5064

> <Gold.Rescore>
     Score         DG    S(hbond)    S(metal)    S(lipo)     H(rot)  DE(clash)    DE(int)     intcor
     13.70     -15.69       1.75        0.00      83.51       2.12       0.15       1.84       ----

> <Gold.Chemscore.Fitness>
13.7036

> <Gold.Chemscore.DG>
-15.6920

> <Gold.Chemscore.ZeroCoef>
-5.4800

> <Gold.Chemscore.Hbond>
1.7535

> <Gold.Chemscore.Metal>
0.0000

> <Gold.Chemscore.Lipo>
83.5123

> <Gold.Chemscore.Internal_Hbond>
0.0000

> <Gold.Chemscore.DEClash>
0.1464

> <Gold.Chemscore.DEInternal>
1.8420

> <Gold.Chemscore.Rot>
2.1155

> <Gold.Chemscore.Internal.Correction>
   9.000000E+99

> <Gold.Chemscore.Hbonds>
donor molecule, donor type, donor heavy atom, donor atom, acceptor molecule, acceptor atom, score
      P1  H  6896  6909       L1     8  0.82
      P1  H  7997  8008       L1    18  0.16

> <Gold.Chemscore.Hbond.Weighted>
-5.8567

> <Gold.Chemscore.Metal.Weighted>
-0.0000

> <Gold.Chemscore.Lipo.Weighted>
-9.7709

> <Gold.Chemscore.Internal_Hbond.Weighted>
0.0000

> <Gold.Chemscore.DEClash.Weighted>
0.1464

> <Gold.Chemscore.DEInternal.Weighted>
1.8420

> <Gold.Chemscore.Rot.Weighted>
5.4157

> <Gold.Chemscore.Internal.Correction.Weighted>
   9.000000E+99

> <Gold.Protein.RotatedTorsions>
[ 6907 6896 6895 6894 ] final  118.62 input  -60.11 | X-H torsion
[ 7974 7965 7964 7962 ] final  -29.10 input  175.53 | X-H torsion
[ 8008 7997 7996 7995 ] final  -58.21 input   59.86 | X-H torsion
[ 10167 10162 10161 10158 ] final  -81.68 input  -65.29 | X-H torsion
[ 10718 10713 10712 10709 ] final   -4.64 input   66.30 | X-H torsion
[ 10763 10752 10751 10750 ] final -141.39 input  -60.55 | X-H torsion
[ 11005 11000 10999 10996 ] final  133.15 input  -57.11 | X-H torsion

> <Gold.Protein.ActiveResidues>
 VAL166  LYS551  ARG553  GLY616  TRP617  ASP618  TYR619  PRO620  LYS621  CYS622 
 ASP623  PHE694  ASN695  SER759  ASP760  ASP761  ALA762  ILE779  LEU786  VAL792 
 PHE793  MET794  SER795  GLU796  ALA797  LYS798  CYS799  TRP800  GLU811  SER814 

> <Gold.Protein.RotatedAtoms>
  152.4530  133.7667  159.6776 H   0  0  0  0  0  0  0  0  0  0  0  0  # atno 6907 bound_to 6896
  150.8448  133.7869  159.3053 H   0  0  0  0  0  0  0  0  0  0  0  0  # atno 6908 bound_to 6896
  151.5482  135.1070  159.9995 H   0  0  0  0  0  0  0  0  0  0  0  0  # atno 6909 bound_to 6896
  146.1240  140.5369  142.8722 H   0  0  0  0  0  0  0  0  0  0  0  0  # atno 7974 bound_to 7965
  154.4299  140.1089  156.5921 H   0  0  0  0  0  0  0  0  0  0  0  0  # atno 8008 bound_to 7997
  155.6001  140.3493  155.4572 H   0  0  0  0  0  0  0  0  0  0  0  0  # atno 8009 bound_to 7997
  156.0180  140.1233  157.0376 H   0  0  0  0  0  0  0  0  0  0  0  0  # atno 8010 bound_to 7997
  140.4390  143.2521  151.8653 H   0  0  0  0  0  0  0  0  0  0  0  0  # atno 10167 bound_to 10162
  156.7583  130.5261  149.5790 H   0  0  0  0  0  0  0  0  0  0  0  0  # atno 10718 bound_to 10713
  154.8547  135.3526  154.5860 H   0  0  0  0  0  0  0  0  0  0  0  0  # atno 10763 bound_to 10752
  153.6470  135.6996  153.5226 H   0  0  0  0  0  0  0  0  0  0  0  0  # atno 10764 bound_to 10752
  153.2924  135.4230  155.1137 H   0  0  0  0  0  0  0  0  0  0  0  0  # atno 10765 bound_to 10752
  139.9834  134.9540  156.9684 H   0  0  0  0  0  0  0  0  0  0  0  0  # atno 11005 bound_to 11000
  144.7625  140.5454  143.6726 LP  0  0  0  0  0  0  0  0  0  0  0  0  # atno 17320 bound_to 7965
  145.5404  139.1475  143.3450 LP  0  0  0  0  0  0  0  0  0  0  0  0  # atno 17321 bound_to 7965
  139.4788  144.5250  151.8747 LP  0  0  0  0  0  0  0  0  0  0  0  0  # atno 17342 bound_to 10162
  140.4340  144.2077  150.5889 LP  0  0  0  0  0  0  0  0  0  0  0  0  # atno 17343 bound_to 10162
  156.1356  130.6208  151.0395 LP  0  0  0  0  0  0  0  0  0  0  0  0  # atno 17370 bound_to 10713
  157.6746  131.0853  150.7527 LP  0  0  0  0  0  0  0  0  0  0  0  0  # atno 17371 bound_to 10713
  140.5051  134.1058  155.7258 LP  0  0  0  0  0  0  0  0  0  0  0  0  # atno 17394 bound_to 11000
  141.1503  133.8981  157.2115 LP  0  0  0  0  0  0  0  0  0  0  0  0  # atno 17395 bound_to 11000

$$$$
