AV-unprocessed.smi:1888|AV-procd|sdf|7657|dock3
  -GOLD-   22720 9393D 1   1.00000     0.00000
 Structure written by MMmdl.
 44 46  0  0  0  0  0  0  0  0  1 V2000
  153.0311  137.7114  161.2907 C   0  0  0  0  0  0  0  0  0  0  0  0
  153.7092  137.2095  160.0140 C   0  0  0  0  0  0  0  0  0  0  0  0
  152.7381  136.5777  159.1971 O   0  0  0  0  0  0  0  0  0  0  0  0
  151.8381  137.4987  158.6057 C   0  0  0  0  0  0  0  0  0  0  0  0
  152.6430  138.5323  157.8071 C   0  0  0  0  0  0  0  0  0  0  0  0
  151.7751  139.4876  157.1284 N   0  0  0  0  0  0  0  0  0  0  0  0
  151.5624  140.7944  157.4340 C   0  0  0  0  0  0  0  0  0  0  0  0
  152.2031  141.4101  158.5310 N   0  0  0  0  0  0  0  0  0  0  0  0
  152.6789  140.6593  159.5481 N   0  0  0  0  0  0  0  0  0  0  0  0
  153.1969  141.5274  160.4007 C   0  0  0  0  0  0  0  0  0  0  0  0
  153.8340  141.0291  161.6639 C   0  0  0  0  0  0  0  0  0  0  0  0
  153.0564  142.8705  159.9521 C   0  0  0  0  0  0  0  0  0  0  0  0
  152.4102  142.7597  158.7530 C   0  0  0  0  0  0  0  0  0  0  0  0
  151.9742  143.8164  157.7914 C   0  0  0  0  0  0  0  0  0  0  0  0
  150.7229  141.4351  156.6150 N   0  0  0  0  0  0  0  0  0  0  0  0
  150.3592  140.4432  155.7159 C   0  0  0  0  0  0  0  0  0  0  0  0
  150.9769  139.2703  156.0065 C   0  0  0  0  0  0  0  0  0  0  0  0
  150.7704  138.0526  155.2141 C   0  0  0  0  0  0  0  0  0  0  0  0
  151.3191  136.9814  155.4634 O   0  0  0  0  0  0  0  0  0  0  0  0
  149.9100  138.2322  154.1823 N   0  0  0  0  0  0  0  0  0  0  0  0
  149.2539  139.3822  153.8350 C   0  0  0  0  0  0  0  0  0  0  0  0
  148.4960  139.3822  152.8654 O   0  0  0  0  0  0  0  0  0  0  0  0
  149.4775  140.4998  154.6012 N   0  0  0  0  0  0  0  0  0  0  0  0
  148.8222  141.7779  154.3169 C   0  0  0  0  0  0  0  0  0  0  0  0
  149.7304  137.4241  153.6042 H   0  0  0  0  0  0  0  0  0  0  0  0
  153.7484  138.2090  161.9435 H   0  0  0  0  0  0  0  0  0  0  0  0
  152.5878  136.8858  161.8477 H   0  0  0  0  0  0  0  0  0  0  0  0
  152.2389  138.4238  161.0589 H   0  0  0  0  0  0  0  0  0  0  0  0
  154.1635  138.0457  159.4801 H   0  0  0  0  0  0  0  0  0  0  0  0
  154.5046  136.5068  160.2669 H   0  0  0  0  0  0  0  0  0  0  0  0
  151.1416  136.9721  157.9515 H   0  0  0  0  0  0  0  0  0  0  0  0
  151.2496  137.9927  159.3799 H   0  0  0  0  0  0  0  0  0  0  0  0
  153.3255  139.0687  158.4666 H   0  0  0  0  0  0  0  0  0  0  0  0
  153.2735  138.0387  157.0680 H   0  0  0  0  0  0  0  0  0  0  0  0
  154.1592  141.8563  162.2950 H   0  0  0  0  0  0  0  0  0  0  0  0
  154.7077  140.4146  161.4455 H   0  0  0  0  0  0  0  0  0  0  0  0
  153.1367  140.4240  162.2442 H   0  0  0  0  0  0  0  0  0  0  0  0
  153.3807  143.7786  160.4383 H   0  0  0  0  0  0  0  0  0  0  0  0
  152.3371  144.7974  158.0988 H   0  0  0  0  0  0  0  0  0  0  0  0
  150.8864  143.8638  157.7346 H   0  0  0  0  0  0  0  0  0  0  0  0
  152.3578  143.6146  156.7909 H   0  0  0  0  0  0  0  0  0  0  0  0
  148.2171  141.7758  153.4096 H   0  0  0  0  0  0  0  0  0  0  0  0
  149.5699  142.5639  154.2048 H   0  0  0  0  0  0  0  0  0  0  0  0
  148.1696  142.0520  155.1465 H   0  0  0  0  0  0  0  0  0  0  0  0
  1  2  1  0  0  0  0
  1 26  1  0  0  0  0
  1 27  1  0  0  0  0
  1 28  1  0  0  0  0
  2  3  1  0  0  0  0
  2 29  1  0  0  0  0
  2 30  1  0  0  0  0
  3  4  1  0  0  0  0
  4  5  1  0  0  0  0
  4 31  1  0  0  0  0
  4 32  1  0  0  0  0
  5  6  1  0  0  0  0
  5 33  1  0  0  0  0
  5 34  1  0  0  0  0
  6 17  1  0  0  0  0
  6  7  1  0  0  0  0
  7  8  1  0  0  0  0
  7 15  2  0  0  0  0
  8 13  1  0  0  0  0
  8  9  1  0  0  0  0
  9 10  2  0  0  0  0
 10 11  1  0  0  0  0
 10 12  1  0  0  0  0
 11 35  1  0  0  0  0
 11 36  1  0  0  0  0
 11 37  1  0  0  0  0
 12 13  2  0  0  0  0
 12 38  1  0  0  0  0
 13 14  1  0  0  0  0
 14 39  1  0  0  0  0
 14 40  1  0  0  0  0
 14 41  1  0  0  0  0
 15 16  1  0  0  0  0
 16 23  1  0  0  0  0
 16 17  2  0  0  0  0
 17 18  1  0  0  0  0
 18 19  2  0  0  0  0
 18 20  1  0  0  0  0
 20 25  1  0  0  0  0
 20 21  1  0  0  0  0
 21 22  2  0  0  0  0
 21 23  1  0  0  0  0
 23 24  1  0  0  0  0
 24 42  1  0  0  0  0
 24 43  1  0  0  0  0
 24 44  1  0  0  0  0
M  END
> <s_m_source_file>
AV-unprocessed.smi

> <i_m_source_file_index>
1888

> <i_lp_mmshare_version>
43012

> <i_f3d_flags>
0

> <s_epik_input>
W0NIM11uMWMoPU8pW25IXWMoPU8pYyhjMTIpbihbQ0gyXVtDSDJdT1tDSDJdW0NIM10pYyhuMiktbjNuYyhbQ0gzXSlbY0hdYzNbQ0gzXQ==

> <s_epik_cmdline>
J2VwaWtfcHl0aG9uJywgJy1waCcsICc3LjAnLCAnLXRuJywgJzgnLCAnLW1hJywgJzIwMCcsICctbWV0YWxfYmluZGluZycsICctaW1hZScsICc8aW5maWxlLm1hZT4nLCAnLW9tYWUnLCAnPG91dGZpbGUubWFlPic=

> <r_lp_tautomer_probability>
1

> <r_epik_Ionization_Penalty>
0.00155345

> <r_epik_Ionization_Penalty_Charging>
0.000715499

> <r_epik_Ionization_Penalty_Neutral>
0.000837951

> <r_epik_State_Penalty>
-0

> <r_epik_Charging_Adjusted_Penalty>
0.000715499

> <i_epik_Tot_Q>
0

> <i_epik_Tot_abs_Q>
0

> <r_epik_Metal_State_Penalty>
0.258535

> <b_epik_Metal_Only>
0

> <s_lp_Force_Field>
OPLS_2005

> <r_lp_Energy>
26.5558

> <b_lp_Chiralities_Consistent>
1

> <s_lp_Variant>
AV-unprocessed.smi:1888-1

> <Gold.Version>
5.8.1

> <Gold.Id.Protein>
6NUR|6NUR_protein|mol2

> <Gold.PLP.Fitness>
45.9610

> <Gold.PLP.PLP>
-39.0468

> <Gold.PLP.part.hbond>
-2.5819

> <Gold.PLP.part.metal>
0.0000

> <Gold.PLP.part.buried>
-6.2069

> <Gold.PLP.part.nonpolar>
-36.1533

> <Gold.PLP.part.repulsive>
4.5169

> <Gold.PLP.ligand.clash>
0.0387

> <Gold.PLP.ligand.torsion>
0.3751

> <Gold.PLP.Chemscore.Hbond>
2.4240

> <Gold.PLP.Chemscore.CHOScore>
0.0000

> <Gold.PLP.Chemscore.Metal>
0.0000

> <Gold.Chemscore.Hbonds>
donor molecule, donor type, donor heavy atom, donor atom, acceptor molecule, acceptor atom, score
      L1  H    20    25       P1  7948  0.54
      P1  H  6896  6909       L1     3  0.90
      P1  H 10752 10763       L1    19  0.28

> <Gold.PLP.Chemscore.Internal.Correction>
0.4312

> <Gold.Rescore>
     Score         DG    S(hbond)    S(metal)    S(lipo)     H(rot)  DE(clash)    DE(int)     intcor
     12.34     -17.23       1.87        0.00      84.23       1.70       1.74       3.15       ----

> <Gold.Chemscore.Fitness>
12.3382

> <Gold.Chemscore.DG>
-17.2341

> <Gold.Chemscore.ZeroCoef>
-5.4800

> <Gold.Chemscore.Hbond>
1.8679

> <Gold.Chemscore.Metal>
0.0000

> <Gold.Chemscore.Lipo>
84.2319

> <Gold.Chemscore.Internal_Hbond>
0.0000

> <Gold.Chemscore.DEClash>
1.7431

> <Gold.Chemscore.DEInternal>
3.1527

> <Gold.Chemscore.Rot>
1.6953

> <Gold.Chemscore.Internal.Correction>
   9.000000E+99

> <Gold.Chemscore.Hbonds>
donor molecule, donor type, donor heavy atom, donor atom, acceptor molecule, acceptor atom, score
      L1  H    20    25       P1  7948  0.42
      P1  H  6896  6909       L1     3  0.65
      P1  H 10752 10763       L1    19  0.29

> <Gold.Chemscore.Hbond.Weighted>
-6.2389

> <Gold.Chemscore.Metal.Weighted>
-0.0000

> <Gold.Chemscore.Lipo.Weighted>
-9.8551

> <Gold.Chemscore.Internal_Hbond.Weighted>
0.0000

> <Gold.Chemscore.DEClash.Weighted>
1.7431

> <Gold.Chemscore.DEInternal.Weighted>
3.1527

> <Gold.Chemscore.Rot.Weighted>
4.3399

> <Gold.Chemscore.Internal.Correction.Weighted>
   9.000000E+99

> <Gold.Protein.RotatedTorsions>
[ 6907 6896 6895 6894 ] final  156.27 input  -60.11 | X-H torsion
[ 7974 7965 7964 7962 ] final  -14.47 input  175.53 | X-H torsion
[ 8008 7997 7996 7995 ] final  147.84 input   59.86 | X-H torsion
[ 10167 10162 10161 10158 ] final  -15.15 input  -65.29 | X-H torsion
[ 10718 10713 10712 10709 ] final -175.45 input   66.30 | X-H torsion
[ 10763 10752 10751 10750 ] final   53.38 input  -60.55 | X-H torsion
[ 11005 11000 10999 10996 ] final  -96.63 input  -57.11 | X-H torsion

> <Gold.Protein.ActiveResidues>
 VAL166  LYS551  ARG553  GLY616  TRP617  ASP618  TYR619  PRO620  LYS621  CYS622 
 ASP623  PHE694  ASN695  SER759  ASP760  ASP761  ALA762  ILE779  LEU786  VAL792 
 PHE793  MET794  SER795  GLU796  ALA797  LYS798  CYS799  TRP800  GLU811  SER814 

> <Gold.Protein.RotatedAtoms>
  152.0321  133.3942  159.4301 H   0  0  0  0  0  0  0  0  0  0  0  0  # atno 6907 bound_to 6896
  150.6881  134.3509  159.4918 H   0  0  0  0  0  0  0  0  0  0  0  0  # atno 6908 bound_to 6896
  152.1296  134.9144  160.0610 H   0  0  0  0  0  0  0  0  0  0  0  0  # atno 6909 bound_to 6896
  146.2073  140.3352  142.8403 H   0  0  0  0  0  0  0  0  0  0  0  0  # atno 7974 bound_to 7965
  156.2811  140.2145  156.5602 H   0  0  0  0  0  0  0  0  0  0  0  0  # atno 8008 bound_to 7997
  154.7219  140.0503  157.0670 H   0  0  0  0  0  0  0  0  0  0  0  0  # atno 8009 bound_to 7997
  155.0467  140.3151  155.4709 H   0  0  0  0  0  0  0  0  0  0  0  0  # atno 8010 bound_to 7997
  140.7213  143.5248  150.9590 H   0  0  0  0  0  0  0  0  0  0  0  0  # atno 10167 bound_to 10162
  156.8001  130.9549  151.3119 H   0  0  0  0  0  0  0  0  0  0  0  0  # atno 10718 bound_to 10713
  152.9795  135.5781  154.4732 H   0  0  0  0  0  0  0  0  0  0  0  0  # atno 10763 bound_to 10752
  154.4291  135.2773  155.1926 H   0  0  0  0  0  0  0  0  0  0  0  0  # atno 10764 bound_to 10752
  154.3642  135.6182  153.5760 H   0  0  0  0  0  0  0  0  0  0  0  0  # atno 10765 bound_to 10752
  141.1405  133.8111  157.0597 H   0  0  0  0  0  0  0  0  0  0  0  0  # atno 11005 bound_to 11000
  144.8824  140.7417  143.5978 LP  0  0  0  0  0  0  0  0  0  0  0  0  # atno 17320 bound_to 7965
  145.3273  139.1770  143.4556 LP  0  0  0  0  0  0  0  0  0  0  0  0  # atno 17321 bound_to 7965
  139.8966  143.6887  152.3137 LP  0  0  0  0  0  0  0  0  0  0  0  0  # atno 17342 bound_to 10162
  139.7222  144.7600  151.0937 LP  0  0  0  0  0  0  0  0  0  0  0  0  # atno 17343 bound_to 10162
  157.6558  130.8923  149.9726 LP  0  0  0  0  0  0  0  0  0  0  0  0  # atno 17370 bound_to 10713
  156.1106  130.3650  150.0055 LP  0  0  0  0  0  0  0  0  0  0  0  0  # atno 17371 bound_to 10713
  140.0579  134.9770  157.1253 LP  0  0  0  0  0  0  0  0  0  0  0  0  # atno 17394 bound_to 11000
  140.3891  134.2203  155.7167 LP  0  0  0  0  0  0  0  0  0  0  0  0  # atno 17395 bound_to 11000

$$$$
