AV-unprocessed.smi:81|AV-procd|sdf|790|dock6
  -GOLD-   2262017163D 1   1.00000     0.00000
 Structure written by MMmdl.
 64 67  0  0  0  0  0  0  0  0  2 V2000
  149.2981  142.2604  158.4766 C   0  0  0  0  0  0  0  0  0  0  0  0
  150.7681  141.9301  158.7825 C   0  0  0  0  0  0  0  0  0  0  0  0
  151.4761  143.1463  159.3959 C   0  0  0  0  0  0  0  0  0  0  0  0
  151.5232  141.4473  157.5219 C   0  0  0  0  0  0  0  0  0  0  0  0
  150.9615  140.2436  156.8986 N   0  0  0  0  0  0  0  0  0  0  0  0
  151.1356  139.0887  157.5862 C   0  0  0  0  0  0  0  0  0  0  0  0
  152.4065  138.7486  157.9173 N   0  0  0  0  0  0  0  0  0  0  0  0
  152.6488  137.6059  158.5652 C   0  0  0  0  0  0  0  0  0  0  0  0
  151.7818  136.6733  158.9635 N   0  0  0  0  0  0  0  0  0  0  0  0
  150.5041  137.0011  158.6165 C   0  0  0  0  0  0  0  0  0  0  0  0
  150.0948  138.1788  157.9309 C   0  0  0  0  0  0  0  0  0  0  0  0
  148.7166  138.1658  157.7567 N   0  0  0  0  0  0  0  0  0  0  0  0
  148.3346  137.0445  158.3031 C   0  0  0  0  0  0  0  0  0  0  0  0
  149.3446  136.2773  158.8392 N   0  0  0  0  0  0  0  0  0  0  0  0
  149.2270  134.9818  159.4978 C   0  0  0  0  0  0  0  0  0  0  0  0
  148.4427  135.0259  160.8370 C   0  0  1  0  0  0  0  0  0  0  0  0
  148.5473  136.3394  161.3636 O   0  0  0  0  0  0  0  0  0  0  0  0
  146.9702  134.6843  160.6883 C   0  0  0  0  0  0  0  0  0  0  0  0
  146.5554  134.3293  162.1145 C   0  0  0  0  0  0  0  0  0  0  0  0
  147.7403  133.8957  162.7789 O   0  0  0  0  0  0  0  0  0  0  0  0
  148.8864  134.0411  161.9403 C   0  0  1  0  0  0  0  0  0  0  0  0
  149.2192  132.6122  161.4685 C   0  0  0  0  0  0  0  0  0  0  0  0
  150.9629  140.1943  155.4260 C   0  0  2  0  0  0  0  0  0  0  0  0
  149.8037  140.9436  154.7259 C   0  0  0  0  0  0  0  0  0  0  0  0
  148.5411  140.0877  154.5048 C   0  0  0  0  0  0  0  0  0  0  0  0
  148.8700  138.8134  153.8248 N   0  3  2  0  0  0  0  0  0  0  0  0
  147.6612  138.0396  153.4687 C   0  0  0  0  0  0  0  0  0  0  0  0
  149.8406  138.0116  154.6055 C   0  0  0  0  0  0  0  0  0  0  0  0
  151.1554  138.7829  154.8220 C   0  0  0  0  0  0  0  0  0  0  0  0
  149.2173  143.0468  157.7255 H   0  0  0  0  0  0  0  0  0  0  0  0
  148.7780  142.6010  159.3724 H   0  0  0  0  0  0  0  0  0  0  0  0
  148.7621  141.3878  158.1033 H   0  0  0  0  0  0  0  0  0  0  0  0
  150.7861  141.1460  159.5401 H   0  0  0  0  0  0  0  0  0  0  0  0
  151.4917  143.9882  158.7029 H   0  0  0  0  0  0  0  0  0  0  0  0
  152.5082  142.9093  159.6559 H   0  0  0  0  0  0  0  0  0  0  0  0
  150.9756  143.4740  160.3075 H   0  0  0  0  0  0  0  0  0  0  0  0
  151.5267  142.2531  156.7870 H   0  0  0  0  0  0  0  0  0  0  0  0
  152.5700  141.2714  157.7667 H   0  0  0  0  0  0  0  0  0  0  0  0
  153.6856  137.4093  158.7954 H   0  0  0  0  0  0  0  0  0  0  0  0
  147.2962  136.7539  158.3221 H   0  0  0  0  0  0  0  0  0  0  0  0
  148.7155  134.3081  158.8091 H   0  0  0  0  0  0  0  0  0  0  0  0
  150.2231  134.5596  159.6269 H   0  0  0  0  0  0  0  0  0  0  0  0
  149.4617  136.5325  161.5047 H   0  0  0  0  0  0  0  0  0  0  0  0
  146.3753  135.4923  160.2602 H   0  0  0  0  0  0  0  0  0  0  0  0
  146.8513  133.8119  160.0447 H   0  0  0  0  0  0  0  0  0  0  0  0
  146.1706  135.2081  162.6324 H   0  0  0  0  0  0  0  0  0  0  0  0
  145.7840  133.5594  162.1383 H   0  0  0  0  0  0  0  0  0  0  0  0
  149.7287  134.4314  162.5136 H   0  0  0  0  0  0  0  0  0  0  0  0
  150.0976  132.5784  160.8289 H   0  0  0  0  0  0  0  0  0  0  0  0
  148.3919  132.1673  160.9157 H   0  0  0  0  0  0  0  0  0  0  0  0
  149.4227  131.9665  162.3230 H   0  0  0  0  0  0  0  0  0  0  0  0
  151.8601  140.7563  155.1627 H   0  0  0  0  0  0  0  0  0  0  0  0
  149.5596  141.8631  155.2587 H   0  0  0  0  0  0  0  0  0  0  0  0
  150.1572  141.2638  153.7449 H   0  0  0  0  0  0  0  0  0  0  0  0
  148.0345  139.8720  155.4445 H   0  0  0  0  0  0  0  0  0  0  0  0
  147.8320  140.6504  153.8963 H   0  0  0  0  0  0  0  0  0  0  0  0
  147.1096  137.7427  154.3618 H   0  0  0  0  0  0  0  0  0  0  0  0
  147.9292  137.1382  152.9167 H   0  0  0  0  0  0  0  0  0  0  0  0
  146.9978  138.6308  152.8367 H   0  0  0  0  0  0  0  0  0  0  0  0
  149.3890  137.7243  155.5527 H   0  0  0  0  0  0  0  0  0  0  0  0
  150.0561  137.0844  154.0733 H   0  0  0  0  0  0  0  0  0  0  0  0
  151.6342  138.8978  153.8486 H   0  0  0  0  0  0  0  0  0  0  0  0
  151.8485  138.1885  155.4173 H   0  0  0  0  0  0  0  0  0  0  0  0
  149.3237  139.0551  152.9553 H   0  0  0  0  0  0  0  0  0  0  0  0
  1  2  1  0  0  0  0
  1 30  1  0  0  0  0
  1 31  1  0  0  0  0
  1 32  1  0  0  0  0
  2  3  1  0  0  0  0
  2  4  1  0  0  0  0
  2 33  1  0  0  0  0
  3 34  1  0  0  0  0
  3 35  1  0  0  0  0
  3 36  1  0  0  0  0
  4  5  1  0  0  0  0
  4 37  1  0  0  0  0
  4 38  1  0  0  0  0
  5  6  1  0  0  0  0
  5 23  1  0  0  0  0
  6 11  1  0  0  0  0
  6  7  2  0  0  0  0
  7  8  1  0  0  0  0
  8  9  2  0  0  0  0
  8 39  1  0  0  0  0
  9 10  1  0  0  0  0
 10 14  1  0  0  0  0
 10 11  2  0  0  0  0
 11 12  1  0  0  0  0
 12 13  2  0  0  0  0
 13 14  1  0  0  0  0
 13 40  1  0  0  0  0
 14 15  1  0  0  0  0
 15 16  1  0  0  0  0
 15 41  1  0  0  0  0
 15 42  1  0  0  0  0
 16 21  1  0  0  0  0
 16 17  1  0  0  0  0
 16 18  1  0  0  0  0
 17 43  1  0  0  0  0
 18 19  1  0  0  0  0
 18 44  1  0  0  0  0
 18 45  1  0  0  0  0
 19 20  1  0  0  0  0
 19 46  1  0  0  0  0
 19 47  1  0  0  0  0
 20 21  1  0  0  0  0
 21 22  1  0  0  0  0
 21 48  1  0  0  0  0
 22 49  1  0  0  0  0
 22 50  1  0  0  0  0
 22 51  1  0  0  0  0
 23 29  1  0  0  0  0
 23 24  1  0  0  0  0
 23 52  1  0  0  0  0
 24 25  1  0  0  0  0
 24 53  1  0  0  0  0
 24 54  1  0  0  0  0
 25 26  1  0  0  0  0
 25 55  1  0  0  0  0
 25 56  1  0  0  0  0
 26 27  1  0  0  0  0
 26 28  1  0  0  0  0
 26 64  1  0  0  0  0
 27 57  1  0  0  0  0
 27 58  1  0  0  0  0
 27 59  1  0  0  0  0
 28 29  1  0  0  0  0
 28 60  1  0  0  0  0
 28 61  1  0  0  0  0
 29 62  1  0  0  0  0
 29 63  1  0  0  0  0
M  CHG  1  26   1
M  END
> <s_m_source_file>
AV-unprocessed.smi

> <i_m_source_file_index>
81

> <i_lp_mmshare_version>
43012

> <i_f3d_flags>
0

> <s_epik_input>
W0NIMl0xW0NIMl1OKFtDSDNdKVtDSDJdW0NIMl1bQ0hdMU4oW0NIMl1bQ0hdKFtDSDNdKVtDSDNdKWMobltjSF1uMiljKGMyMyluW2NIXW4zW0NIMl1bQ0BAXTQoW09IXSlbQ0gyXVtDSDJdT1tDQEhdNFtDSDNd

> <s_epik_cmdline>
J2VwaWtfcHl0aG9uJywgJy1waCcsICc3LjAnLCAnLXRuJywgJzgnLCAnLW1hJywgJzIwMCcsICctbWV0YWxfYmluZGluZycsICctaW1hZScsICc8aW5maWxlLm1hZT4nLCAnLW9tYWUnLCAnPG91dGZpbGUubWFlPic=

> <r_lp_tautomer_probability>
1

> <r_epik_Ionization_Penalty>
0.00272708

> <r_epik_Ionization_Penalty_Charging>
0.00158983

> <r_epik_Ionization_Penalty_Neutral>
0.00113725

> <r_epik_State_Penalty>
-0

> <r_epik_Charging_Adjusted_Penalty>
0.00158983

> <i_epik_Tot_Q>
1

> <i_epik_Tot_abs_Q>
1

> <r_epik_Metal_State_Penalty>
-0

> <b_epik_Metal_Only>
0

> <s_lp_Force_Field>
OPLS_2005

> <r_lp_Energy>
53.2372

> <b_lp_Chiralities_Consistent>
1

> <s_lp_Variant>
AV-unprocessed.smi:81-5

> <Gold.Version>
5.8.1

> <Gold.Id.Protein>
6NUR|6NUR_protein|mol2

> <Gold.PLP.Fitness>
50.3133

> <Gold.PLP.PLP>
-45.6004

> <Gold.PLP.part.hbond>
-4.0000

> <Gold.PLP.part.metal>
0.0000

> <Gold.PLP.part.buried>
-5.4609

> <Gold.PLP.part.nonpolar>
-35.5323

> <Gold.PLP.part.repulsive>
0.0412

> <Gold.PLP.ligand.clash>
0.0000

> <Gold.PLP.ligand.torsion>
2.5676

> <Gold.PLP.Chemscore.Hbond>
2.8320

> <Gold.PLP.Chemscore.CHOScore>
0.0000

> <Gold.PLP.Chemscore.Metal>
0.0000

> <Gold.Chemscore.Hbonds>
donor molecule, donor type, donor heavy atom, donor atom, acceptor molecule, acceptor atom, score
      L1  H    26    64       P1  7957  0.93
      P1  H  6896  6909       L1     9  0.30

> <Gold.PLP.Chemscore.Internal.Correction>
1.3520

> <Gold.Rescore>
     Score         DG    S(hbond)    S(metal)    S(lipo)     H(rot)  DE(clash)    DE(int)     intcor
     16.90     -19.63       2.39        0.00     103.31       2.32       0.54       2.19       ----

> <Gold.Chemscore.Fitness>
16.8979

> <Gold.Chemscore.DG>
-19.6333

> <Gold.Chemscore.ZeroCoef>
-5.4800

> <Gold.Chemscore.Hbond>
2.3939

> <Gold.Chemscore.Metal>
0.0000

> <Gold.Chemscore.Lipo>
103.3114

> <Gold.Chemscore.Internal_Hbond>
0.0000

> <Gold.Chemscore.DEClash>
0.5407

> <Gold.Chemscore.DEInternal>
2.1948

> <Gold.Chemscore.Rot>
2.3163

> <Gold.Chemscore.Internal.Correction>
   9.000000E+99

> <Gold.Chemscore.Hbonds>
donor molecule, donor type, donor heavy atom, donor atom, acceptor molecule, acceptor atom, score
      L1  H    26    64       P1  7957  0.88
      P1  H  6896  6909       L1     9  0.01

> <Gold.Chemscore.Hbond.Weighted>
-7.9956

> <Gold.Chemscore.Metal.Weighted>
-0.0000

> <Gold.Chemscore.Lipo.Weighted>
-12.0874

> <Gold.Chemscore.Internal_Hbond.Weighted>
0.0000

> <Gold.Chemscore.DEClash.Weighted>
0.5407

> <Gold.Chemscore.DEInternal.Weighted>
2.1948

> <Gold.Chemscore.Rot.Weighted>
5.9297

> <Gold.Chemscore.Internal.Correction.Weighted>
   9.000000E+99

> <Gold.Protein.RotatedTorsions>
[ 6907 6896 6895 6894 ] final   88.97 input  -60.11 | X-H torsion
[ 7974 7965 7964 7962 ] final   63.64 input  175.53 | X-H torsion
[ 8008 7997 7996 7995 ] final   83.41 input   59.86 | X-H torsion
[ 10167 10162 10161 10158 ] final   -7.60 input  -65.29 | X-H torsion
[ 10718 10713 10712 10709 ] final  -56.58 input   66.30 | X-H torsion
[ 10763 10752 10751 10750 ] final  -57.41 input  -60.55 | X-H torsion
[ 11005 11000 10999 10996 ] final -120.99 input  -57.11 | X-H torsion

> <Gold.Protein.ActiveResidues>
 VAL166  LYS551  ARG553  GLY616  TRP617  ASP618  TYR619  PRO620  LYS621  CYS622 
 ASP623  PHE694  ASN695  SER759  ASP760  ASP761  ALA762  ILE779  LEU786  VAL792 
 PHE793  MET794  SER795  GLU796  ALA797  LYS798  CYS799  TRP800  GLU811  SER814 

> <Gold.Protein.RotatedAtoms>
  152.5431  134.2039  159.8722 H   0  0  0  0  0  0  0  0  0  0  0  0  # atno 6907 bound_to 6896
  151.2026  133.4595  159.2604 H   0  0  0  0  0  0  0  0  0  0  0  0  # atno 6908 bound_to 6896
  151.0975  134.9965  159.8488 H   0  0  0  0  0  0  0  0  0  0  0  0  # atno 6909 bound_to 6896
  145.8594  139.3305  143.0828 H   0  0  0  0  0  0  0  0  0  0  0  0  # atno 7974 bound_to 7965
  155.9235  140.3419  155.6192 H   0  0  0  0  0  0  0  0  0  0  0  0  # atno 8008 bound_to 7997
  155.7244  140.0787  157.2335 H   0  0  0  0  0  0  0  0  0  0  0  0  # atno 8009 bound_to 7997
  154.4073  140.1599  156.2425 H   0  0  0  0  0  0  0  0  0  0  0  0  # atno 8010 bound_to 7997
  140.7034  143.6062  150.8748 H   0  0  0  0  0  0  0  0  0  0  0  0  # atno 10167 bound_to 10162
  156.1277  130.4161  150.0324 H   0  0  0  0  0  0  0  0  0  0  0  0  # atno 10718 bound_to 10713
  154.2220  135.6376  153.5147 H   0  0  0  0  0  0  0  0  0  0  0  0  # atno 10763 bound_to 10752
  152.9967  135.5499  154.6104 H   0  0  0  0  0  0  0  0  0  0  0  0  # atno 10764 bound_to 10752
  154.5566  135.2905  155.0932 H   0  0  0  0  0  0  0  0  0  0  0  0  # atno 10765 bound_to 10752
  141.0103  134.0274  157.3422 H   0  0  0  0  0  0  0  0  0  0  0  0  # atno 11005 bound_to 11000
  145.9265  140.9078  143.0378 LP  0  0  0  0  0  0  0  0  0  0  0  0  # atno 17320 bound_to 7965
  144.6727  140.1360  143.7440 LP  0  0  0  0  0  0  0  0  0  0  0  0  # atno 17321 bound_to 7965
  139.9786  143.5976  152.2950 LP  0  0  0  0  0  0  0  0  0  0  0  0  # atno 17342 bound_to 10162
  139.6589  144.7662  151.2001 LP  0  0  0  0  0  0  0  0  0  0  0  0  # atno 17343 bound_to 10162
  156.8245  130.9370  151.3640 LP  0  0  0  0  0  0  0  0  0  0  0  0  # atno 17370 bound_to 10713
  157.6458  130.8843  149.9535 LP  0  0  0  0  0  0  0  0  0  0  0  0  # atno 17371 bound_to 10713
  139.9086  135.0185  156.7595 LP  0  0  0  0  0  0  0  0  0  0  0  0  # atno 17394 bound_to 11000
  140.6744  133.9530  155.7874 LP  0  0  0  0  0  0  0  0  0  0  0  0  # atno 17395 bound_to 11000

$$$$
