AV-unprocessed.smi:1163|AV-procd|sdf|4925|dock1
  -GOLD-   22720 3503D 1   1.00000     0.00000
 Structure written by MMmdl.
 40 41  0  0  0  0  0  0  0  0  2 V2000
  152.3645  140.7302  158.2608 C   0  0  0  0  0  0  0  0  0  0  0  0
  152.3358  140.6036  156.8433 O   0  0  0  0  0  0  0  0  0  0  0  0
  151.7261  139.4928  156.2969 C   0  0  0  0  0  0  0  0  0  0  0  0
  151.5275  138.3622  157.1136 C   0  0  0  0  0  0  0  0  0  0  0  0
  150.9103  137.2225  156.5633 C   0  0  0  0  0  0  0  0  0  0  0  0
  150.5033  137.2512  155.2073 C   0  0  0  0  0  0  0  0  0  0  0  0
  149.8846  136.1703  154.5196 N   0  0  0  0  0  0  0  0  0  0  0  0
  149.8626  134.8631  154.8321 C   0  0  0  0  0  0  0  0  0  0  0  0
  150.3679  134.3544  155.8320 O   0  0  0  0  0  0  0  0  0  0  0  0
  149.2015  134.1554  153.9052 N   0  0  0  0  0  0  0  0  0  0  0  0
  149.0057  132.7098  153.9460 C   0  0  1  0  0  0  0  0  0  0  0  0
  148.6211  132.1833  155.3280 C   0  0  0  0  0  0  0  0  0  0  0  0
  147.7798  130.9269  155.0424 C   0  0  0  0  0  0  0  0  0  0  0  0
  147.5260  130.8990  153.5812 N   0  3  1  0  0  0  0  0  0  0  0  0
  146.1941  130.3907  153.1726 C   0  0  0  0  0  0  0  0  0  0  0  0
  146.2224  128.9057  152.7714 C   0  0  0  0  0  0  0  0  0  0  0  0
  146.1572  128.1575  153.8716 F   0  0  0  0  0  0  0  0  0  0  0  0
  145.1756  128.6208  151.9971 F   0  0  0  0  0  0  0  0  0  0  0  0
  147.3455  128.6035  152.1213 F   0  0  0  0  0  0  0  0  0  0  0  0
  147.8350  132.2488  153.0782 C   0  0  0  0  0  0  0  0  0  0  0  0
  150.7533  138.4309  154.4756 C   0  0  0  0  0  0  0  0  0  0  0  0
  151.3450  139.5262  154.9964 N   0  0  0  0  0  0  0  0  0  0  0  0
  152.8739  141.6554  158.5299 H   0  0  0  0  0  0  0  0  0  0  0  0
  152.9083  139.9060  158.7246 H   0  0  0  0  0  0  0  0  0  0  0  0
  151.3572  140.7742  158.6773 H   0  0  0  0  0  0  0  0  0  0  0  0
  151.8481  138.3666  158.1450 H   0  0  0  0  0  0  0  0  0  0  0  0
  150.7770  136.3573  157.1922 H   0  0  0  0  0  0  0  0  0  0  0  0
  149.3752  136.4320  153.6880 H   0  0  0  0  0  0  0  0  0  0  0  0
  148.8081  134.6503  153.1178 H   0  0  0  0  0  0  0  0  0  0  0  0
  149.9177  132.2056  153.6196 H   0  0  0  0  0  0  0  0  0  0  0  0
  149.4934  131.9699  155.9465 H   0  0  0  0  0  0  0  0  0  0  0  0
  148.0105  132.9154  155.8588 H   0  0  0  0  0  0  0  0  0  0  0  0
  148.3087  130.0187  155.3334 H   0  0  0  0  0  0  0  0  0  0  0  0
  146.8491  130.9661  155.6109 H   0  0  0  0  0  0  0  0  0  0  0  0
  145.4644  130.5646  153.9649 H   0  0  0  0  0  0  0  0  0  0  0  0
  145.8597  130.9720  152.3118 H   0  0  0  0  0  0  0  0  0  0  0  0
  146.9721  132.9028  153.2204 H   0  0  0  0  0  0  0  0  0  0  0  0
  148.0795  132.2323  152.0156 H   0  0  0  0  0  0  0  0  0  0  0  0
  150.4697  138.5003  153.4353 H   0  0  0  0  0  0  0  0  0  0  0  0
  148.2206  130.2866  153.1769 H   0  0  0  0  0  0  0  0  0  0  0  0
  1  2  1  0  0  0  0
  1 23  1  0  0  0  0
  1 24  1  0  0  0  0
  1 25  1  0  0  0  0
  2  3  1  0  0  0  0
  3 22  1  0  0  0  0
  3  4  2  0  0  0  0
  4  5  1  0  0  0  0
  4 26  1  0  0  0  0
  5  6  2  0  0  0  0
  5 27  1  0  0  0  0
  6  7  1  0  0  0  0
  6 21  1  0  0  0  0
  7  8  1  0  0  0  0
  7 28  1  0  0  0  0
  8  9  2  0  0  0  0
  8 10  1  0  0  0  0
 10 11  1  0  0  0  0
 10 29  1  0  0  0  0
 11 20  1  0  0  0  0
 11 12  1  0  0  0  0
 11 30  1  0  0  0  0
 12 13  1  0  0  0  0
 12 31  1  0  0  0  0
 12 32  1  0  0  0  0
 13 14  1  0  0  0  0
 13 33  1  0  0  0  0
 13 34  1  0  0  0  0
 14 15  1  0  0  0  0
 14 20  1  0  0  0  0
 14 40  1  0  0  0  0
 15 16  1  0  0  0  0
 15 35  1  0  0  0  0
 15 36  1  0  0  0  0
 16 17  1  0  0  0  0
 16 18  1  0  0  0  0
 16 19  1  0  0  0  0
 20 37  1  0  0  0  0
 20 38  1  0  0  0  0
 21 22  2  0  0  0  0
 21 39  1  0  0  0  0
M  CHG  1  14   1
M  END
> <s_m_source_file>
AV-unprocessed.smi

> <i_m_source_file_index>
1163

> <i_lp_mmshare_version>
43012

> <i_f3d_flags>
0

> <s_epik_input>
W0NIM11PYzFbY0hdW2NIXWMoW2NIXW4xKVtOSF1DKD1PKVtOSF1bQ0BASF0yW0NIMl1bQ0gyXU4oW0NIMl0yKVtDSDJdQyhGKShGKUY=

> <s_epik_cmdline>
J2VwaWtfcHl0aG9uJywgJy1waCcsICc3LjAnLCAnLXRuJywgJzgnLCAnLW1hJywgJzIwMCcsICctbWV0YWxfYmluZGluZycsICctaW1hZScsICc8aW5maWxlLm1hZT4nLCAnLW9tYWUnLCAnPG91dGZpbGUubWFlPic=

> <r_lp_tautomer_probability>
1

> <r_epik_Ionization_Penalty>
1.12054

> <r_epik_Ionization_Penalty_Charging>
1.12047

> <r_epik_Ionization_Penalty_Neutral>
7.20346e-05

> <r_epik_State_Penalty>
1.17927

> <r_epik_Charging_Adjusted_Penalty>
2.29974

> <i_epik_Tot_Q>
1

> <i_epik_Tot_abs_Q>
1

> <r_epik_Metal_State_Penalty>
1.17928

> <b_epik_Metal_Only>
0

> <s_lp_Force_Field>
OPLS_2005

> <r_lp_Energy>
29.7576

> <b_lp_Chiralities_Consistent>
1

> <s_lp_Variant>
AV-unprocessed.smi:1163-6

> <Gold.Version>
5.8.1

> <Gold.Id.Protein>
6NUR|6NUR_protein|mol2

> <Gold.PLP.Fitness>
40.8885

> <Gold.PLP.PLP>
-31.6767

> <Gold.PLP.part.hbond>
-4.5280

> <Gold.PLP.part.metal>
0.0000

> <Gold.PLP.part.buried>
1.4079

> <Gold.PLP.part.nonpolar>
-27.5017

> <Gold.PLP.part.repulsive>
0.1504

> <Gold.PLP.ligand.clash>
0.0000

> <Gold.PLP.ligand.torsion>
1.4863

> <Gold.PLP.Chemscore.Hbond>
3.5803

> <Gold.PLP.Chemscore.CHOScore>
0.2826

> <Gold.PLP.Chemscore.Metal>
0.0000

> <Gold.Chemscore.Hbonds>
donor molecule, donor type, donor heavy atom, donor atom, acceptor molecule, acceptor atom, score
      L1  H     7    28       P1  7948  1.00
      L1  H    10    29       P1  7948  0.79
      P1  H  7989  7998       L1    22  1.00
      P1  H  7997  8009       L1     2  0.74
      L1  C    21    39       P1  7957  0.18

> <Gold.PLP.Chemscore.Internal.Correction>
0.5957

> <Gold.Rescore>
     Score         DG    S(hbond)    S(metal)    S(lipo)     H(rot)  DE(clash)    DE(int)     intcor
     10.29     -14.23       1.79        0.00      60.25       1.68       0.30       3.64       ----

> <Gold.Chemscore.Fitness>
10.2870

> <Gold.Chemscore.DG>
-14.2282

> <Gold.Chemscore.ZeroCoef>
-5.4800

> <Gold.Chemscore.Hbond>
1.7945

> <Gold.Chemscore.Metal>
0.0000

> <Gold.Chemscore.Lipo>
60.2541

> <Gold.Chemscore.Internal_Hbond>
0.0000

> <Gold.Chemscore.DEClash>
0.2984

> <Gold.Chemscore.DEInternal>
3.6428

> <Gold.Chemscore.Rot>
1.6778

> <Gold.Chemscore.Internal.Correction>
   9.000000E+99

> <Gold.Chemscore.Hbonds>
donor molecule, donor type, donor heavy atom, donor atom, acceptor molecule, acceptor atom, score
      L1  H     7    28       P1  7948  0.81
      L1  H    10    29       P1  7948  0.13
      P1  H  7989  7998       L1    22  0.61
      P1  H  7997  8009       L1     2  0.05

> <Gold.Chemscore.Hbond.Weighted>
-5.9935

> <Gold.Chemscore.Metal.Weighted>
-0.0000

> <Gold.Chemscore.Lipo.Weighted>
-7.0497

> <Gold.Chemscore.Internal_Hbond.Weighted>
0.0000

> <Gold.Chemscore.DEClash.Weighted>
0.2984

> <Gold.Chemscore.DEInternal.Weighted>
3.6428

> <Gold.Chemscore.Rot.Weighted>
4.2951

> <Gold.Chemscore.Internal.Correction.Weighted>
   9.000000E+99

> <Gold.Protein.RotatedTorsions>
[ 6907 6896 6895 6894 ] final  -33.10 input  -60.11 | X-H torsion
[ 7974 7965 7964 7962 ] final  100.50 input  175.53 | X-H torsion
[ 8008 7997 7996 7995 ] final -167.84 input   59.86 | X-H torsion
[ 10167 10162 10161 10158 ] final  133.49 input  -65.29 | X-H torsion
[ 10718 10713 10712 10709 ] final  127.11 input   66.30 | X-H torsion
[ 10763 10752 10751 10750 ] final -148.38 input  -60.55 | X-H torsion
[ 11005 11000 10999 10996 ] final -125.90 input  -57.11 | X-H torsion

> <Gold.Protein.ActiveResidues>
 VAL166  LYS551  ARG553  GLY616  TRP617  ASP618  TYR619  PRO620  LYS621  CYS622 
 ASP623  PHE694  ASN695  SER759  ASP760  ASP761  ALA762  ILE779  LEU786  VAL792 
 PHE793  MET794  SER795  GLU796  ALA797  LYS798  CYS799  TRP800  GLU811  SER814 

> <Gold.Protein.RotatedAtoms>
  151.0701  134.9792  159.8303 H   0  0  0  0  0  0  0  0  0  0  0  0  # atno 6907 bound_to 6896
  152.5407  134.2310  159.8835 H   0  0  0  0  0  0  0  0  0  0  0  0  # atno 6908 bound_to 6896
  151.2334  133.4394  159.2638 H   0  0  0  0  0  0  0  0  0  0  0  0  # atno 6909 bound_to 6896
  145.3847  139.2373  143.3384 H   0  0  0  0  0  0  0  0  0  0  0  0  # atno 7974 bound_to 7965
  155.8833  140.1012  157.1470 H   0  0  0  0  0  0  0  0  0  0  0  0  # atno 8008 bound_to 7997
  154.4007  140.1325  156.4287 H   0  0  0  0  0  0  0  0  0  0  0  0  # atno 8009 bound_to 7997
  155.7618  140.3463  155.5204 H   0  0  0  0  0  0  0  0  0  0  0  0  # atno 8010 bound_to 7997
  139.5295  144.6613  151.5003 H   0  0  0  0  0  0  0  0  0  0  0  0  # atno 10167 bound_to 10162
  157.5361  131.1097  150.8932 H   0  0  0  0  0  0  0  0  0  0  0  0  # atno 10718 bound_to 10713
  154.8236  135.3336  154.6965 H   0  0  0  0  0  0  0  0  0  0  0  0  # atno 10763 bound_to 10752
  153.7594  135.6933  153.4933 H   0  0  0  0  0  0  0  0  0  0  0  0  # atno 10764 bound_to 10752
  153.2120  135.4478  155.0341 H   0  0  0  0  0  0  0  0  0  0  0  0  # atno 10765 bound_to 10752
  140.9725  134.0786  157.3854 H   0  0  0  0  0  0  0  0  0  0  0  0  # atno 11005 bound_to 11000
  146.2826  140.4520  142.8770 LP  0  0  0  0  0  0  0  0  0  0  0  0  # atno 17320 bound_to 7965
  144.8482  140.6962  143.6185 LP  0  0  0  0  0  0  0  0  0  0  0  0  # atno 17321 bound_to 7965
  140.6463  143.8788  150.6740 LP  0  0  0  0  0  0  0  0  0  0  0  0  # atno 17342 bound_to 10162
  140.2138  143.3862  152.1697 LP  0  0  0  0  0  0  0  0  0  0  0  0  # atno 17343 bound_to 10162
  156.9499  130.5416  149.5282 LP  0  0  0  0  0  0  0  0  0  0  0  0  # atno 17370 bound_to 10713
  156.0460  130.5536  150.8881 LP  0  0  0  0  0  0  0  0  0  0  0  0  # atno 17371 bound_to 10713
  139.8918  135.0120  156.6809 LP  0  0  0  0  0  0  0  0  0  0  0  0  # atno 17394 bound_to 11000
  140.7308  133.9061  155.8210 LP  0  0  0  0  0  0  0  0  0  0  0  0  # atno 17395 bound_to 11000

$$$$
