AV-unprocessed.smi:1762|AV-procd|sdf|7117|dock9
  -GOLD-   22720 8343D 1   1.00000     0.00000
 Structure written by MMmdl.
 53 54  0  0  0  0  0  0  0  0  2 V2000
  150.8778  134.8509  156.2692 C   0  0  0  0  0  0  0  0  0  0  0  0
  149.8000  135.3230  155.2870 C   0  0  2  0  0  0  0  0  0  0  0  0
  149.5692  136.8429  155.3647 C   0  0  0  0  0  0  0  0  0  0  0  0
  148.4802  137.2707  154.4397 N   0  3  2  0  0  0  0  0  0  0  0  0
  148.2894  138.7623  154.4086 C   0  0  1  0  0  0  0  0  0  0  0  0
  149.6178  139.4973  154.6913 C   0  0  0  0  0  0  0  0  0  0  0  0
  150.5836  139.3401  153.9432 O   0  0  0  0  0  0  0  0  0  0  0  0
  149.6489  140.2936  155.7706 N   0  0  0  0  0  0  0  0  0  0  0  0
  150.8024  141.0761  156.1950 C   0  0  0  0  0  0  0  0  0  0  0  0
  150.9497  141.0315  157.7222 C   0  0  0  0  0  0  0  0  0  0  0  0
  151.3595  142.3733  158.3000 C   0  0  0  0  0  0  0  0  0  0  0  0
  152.5682  142.5114  159.0151 C   0  0  0  0  0  0  0  0  0  0  0  0
  152.9059  143.7810  159.5229 C   0  0  0  0  0  0  0  0  0  0  0  0
  152.0273  144.8576  159.2962 C   0  0  0  0  0  0  0  0  0  0  0  0
  150.8445  144.6160  158.5694 C   0  0  0  0  0  0  0  0  0  0  0  0
  150.5110  143.4027  158.0789 N   0  0  0  0  0  0  0  0  0  0  0  0
  147.6296  139.3015  153.0938 C   0  0  0  0  0  0  0  0  0  0  0  0
  147.1522  140.7660  153.1861 C   0  0  0  0  0  0  0  0  0  0  0  0
  146.4882  138.4061  152.5722 C   0  0  0  0  0  0  0  0  0  0  0  0
  147.2549  136.4788  154.7404 C   0  0  0  0  0  0  0  0  0  0  0  0
  147.5447  134.9661  154.6966 C   0  0  2  0  0  0  0  0  0  0  0  0
  146.3164  134.1327  155.0786 C   0  0  0  0  0  0  0  0  0  0  0  0
  148.5870  134.6584  155.6118 O   0  0  0  0  0  0  0  0  0  0  0  0
  151.8365  135.3265  156.0598 H   0  0  0  0  0  0  0  0  0  0  0  0
  151.0213  133.7723  156.2008 H   0  0  0  0  0  0  0  0  0  0  0  0
  150.6052  135.0858  157.2985 H   0  0  0  0  0  0  0  0  0  0  0  0
  150.1073  135.0475  154.2765 H   0  0  0  0  0  0  0  0  0  0  0  0
  149.3094  137.1295  156.3852 H   0  0  0  0  0  0  0  0  0  0  0  0
  150.5089  137.3420  155.1296 H   0  0  0  0  0  0  0  0  0  0  0  0
  147.6036  138.9963  155.2255 H   0  0  0  0  0  0  0  0  0  0  0  0
  148.8129  140.3716  156.3317 H   0  0  0  0  0  0  0  0  0  0  0  0
  151.6962  140.6727  155.7171 H   0  0  0  0  0  0  0  0  0  0  0  0
  150.7008  142.1121  155.8665 H   0  0  0  0  0  0  0  0  0  0  0  0
  150.0075  140.7237  158.1787 H   0  0  0  0  0  0  0  0  0  0  0  0
  151.6876  140.2793  158.0042 H   0  0  0  0  0  0  0  0  0  0  0  0
  153.2234  141.6671  159.1716 H   0  0  0  0  0  0  0  0  0  0  0  0
  153.8226  143.9262  160.0748 H   0  0  0  0  0  0  0  0  0  0  0  0
  152.2542  145.8453  159.6702 H   0  0  0  0  0  0  0  0  0  0  0  0
  150.1485  145.4189  158.3762 H   0  0  0  0  0  0  0  0  0  0  0  0
  148.3754  139.2503  152.3020 H   0  0  0  0  0  0  0  0  0  0  0  0
  146.3126  140.8741  153.8731 H   0  0  0  0  0  0  0  0  0  0  0  0
  146.8201  141.1266  152.2121 H   0  0  0  0  0  0  0  0  0  0  0  0
  147.9426  141.4348  153.5257 H   0  0  0  0  0  0  0  0  0  0  0  0
  145.6078  138.4450  153.2140 H   0  0  0  0  0  0  0  0  0  0  0  0
  146.8050  137.3654  152.4992 H   0  0  0  0  0  0  0  0  0  0  0  0
  146.1732  138.7204  151.5768 H   0  0  0  0  0  0  0  0  0  0  0  0
  146.8686  136.7652  155.7200 H   0  0  0  0  0  0  0  0  0  0  0  0
  146.4695  136.6723  154.0128 H   0  0  0  0  0  0  0  0  0  0  0  0
  147.8547  134.6816  153.6893 H   0  0  0  0  0  0  0  0  0  0  0  0
  145.4848  134.3242  154.4002 H   0  0  0  0  0  0  0  0  0  0  0  0
  145.9822  134.3625  156.0910 H   0  0  0  0  0  0  0  0  0  0  0  0
  146.5399  133.0665  155.0358 H   0  0  0  0  0  0  0  0  0  0  0  0
  148.7690  137.0078  153.5078 H   0  0  0  0  0  0  0  0  0  0  0  0
  1  2  1  0  0  0  0
  1 24  1  0  0  0  0
  1 25  1  0  0  0  0
  1 26  1  0  0  0  0
  2 23  1  0  0  0  0
  2  3  1  0  0  0  0
  2 27  1  0  0  0  0
  3  4  1  0  0  0  0
  3 28  1  0  0  0  0
  3 29  1  0  0  0  0
  4  5  1  0  0  0  0
  4 20  1  0  0  0  0
  4 53  1  0  0  0  0
  5  6  1  0  0  0  0
  5 17  1  0  0  0  0
  5 30  1  0  0  0  0
  6  7  2  0  0  0  0
  6  8  1  0  0  0  0
  8  9  1  0  0  0  0
  8 31  1  0  0  0  0
  9 10  1  0  0  0  0
  9 32  1  0  0  0  0
  9 33  1  0  0  0  0
 10 11  1  0  0  0  0
 10 34  1  0  0  0  0
 10 35  1  0  0  0  0
 11 16  1  0  0  0  0
 11 12  2  0  0  0  0
 12 13  1  0  0  0  0
 12 36  1  0  0  0  0
 13 14  2  0  0  0  0
 13 37  1  0  0  0  0
 14 15  1  0  0  0  0
 14 38  1  0  0  0  0
 15 16  2  0  0  0  0
 15 39  1  0  0  0  0
 17 18  1  0  0  0  0
 17 19  1  0  0  0  0
 17 40  1  0  0  0  0
 18 41  1  0  0  0  0
 18 42  1  0  0  0  0
 18 43  1  0  0  0  0
 19 44  1  0  0  0  0
 19 45  1  0  0  0  0
 19 46  1  0  0  0  0
 20 21  1  0  0  0  0
 20 47  1  0  0  0  0
 20 48  1  0  0  0  0
 21 22  1  0  0  0  0
 21 23  1  0  0  0  0
 21 49  1  0  0  0  0
 22 50  1  0  0  0  0
 22 51  1  0  0  0  0
 22 52  1  0  0  0  0
M  CHG  1   4   1
M  END
> <s_m_source_file>
AV-unprocessed.smi

> <i_m_source_file_index>
1762

> <i_lp_mmshare_version>
43012

> <i_f3d_flags>
0

> <s_epik_input>
W0NIM11bQ0BASF0xW0NIMl1OKFtDSDJdW0NASF0oTzEpW0NIM10pW0NAQEhdKFtDSF0oW0NIM10pW0NIM10pQyg9TylbTkhdW0NIMl1bQ0gyXWMyW2NIXVtjSF1bY0hdW2NIXW4y

> <s_epik_cmdline>
J2VwaWtfcHl0aG9uJywgJy1waCcsICc3LjAnLCAnLXRuJywgJzgnLCAnLW1hJywgJzIwMCcsICctbWV0YWxfYmluZGluZycsICctaW1hZScsICc8aW5maWxlLm1hZT4nLCAnLW9tYWUnLCAnPG91dGZpbGUubWFlPic=

> <r_epik_Ionization_Penalty>
2.27005

> <r_epik_Ionization_Penalty_Charging>
2.24983

> <r_epik_Ionization_Penalty_Neutral>
0.0202209

> <r_epik_State_Penalty>
2.40228

> <r_epik_Charging_Adjusted_Penalty>
4.65211

> <i_epik_Tot_Q>
1

> <i_epik_Tot_abs_Q>
1

> <r_epik_Metal_State_Penalty>
2.40762

> <b_epik_Metal_Only>
0

> <s_lp_Force_Field>
OPLS_2005

> <r_lp_Energy>
21.958

> <b_lp_Chiralities_Consistent>
1

> <s_lp_Variant>
AV-unprocessed.smi:1762-19

> <Gold.Version>
5.8.1

> <Gold.Id.Protein>
6NUR|6NUR_protein|mol2

> <Gold.PLP.Fitness>
46.7491

> <Gold.PLP.PLP>
-37.2630

> <Gold.PLP.part.hbond>
-2.0000

> <Gold.PLP.part.metal>
0.0000

> <Gold.PLP.part.buried>
-2.6566

> <Gold.PLP.part.nonpolar>
-34.6393

> <Gold.PLP.part.repulsive>
1.2066

> <Gold.PLP.ligand.clash>
0.4012

> <Gold.PLP.ligand.torsion>
1.1819

> <Gold.PLP.Chemscore.Hbond>
3.0000

> <Gold.PLP.Chemscore.CHOScore>
1.0000

> <Gold.PLP.Chemscore.Metal>
0.0000

> <Gold.Chemscore.Hbonds>
donor molecule, donor type, donor heavy atom, donor atom, acceptor molecule, acceptor atom, score
      L1  H     4    53       P1  7948  2.00
      P1  H  7989  7998       L1     7  1.00
      L1  C    15    39       P1  8029  0.97

> <Gold.PLP.Chemscore.Internal.Correction>
0.2512

> <Gold.Rescore>
     Score         DG    S(hbond)    S(metal)    S(lipo)     H(rot)  DE(clash)    DE(int)     intcor
     17.56     -20.63       1.95        0.00     110.19       1.66       0.11       2.96       ----

> <Gold.Chemscore.Fitness>
17.5556

> <Gold.Chemscore.DG>
-20.6261

> <Gold.Chemscore.ZeroCoef>
-5.4800

> <Gold.Chemscore.Hbond>
1.9499

> <Gold.Chemscore.Metal>
0.0000

> <Gold.Chemscore.Lipo>
110.1874

> <Gold.Chemscore.Internal_Hbond>
0.0000

> <Gold.Chemscore.DEClash>
0.1103

> <Gold.Chemscore.DEInternal>
2.9602

> <Gold.Chemscore.Rot>
1.6635

> <Gold.Chemscore.Internal.Correction>
   9.000000E+99

> <Gold.Chemscore.Hbonds>
donor molecule, donor type, donor heavy atom, donor atom, acceptor molecule, acceptor atom, score
      L1  H     4    53       P1  7948  1.00
      P1  H  7989  7998       L1     7  0.95

> <Gold.Chemscore.Hbond.Weighted>
-6.5128

> <Gold.Chemscore.Metal.Weighted>
-0.0000

> <Gold.Chemscore.Lipo.Weighted>
-12.8919

> <Gold.Chemscore.Internal_Hbond.Weighted>
0.0000

> <Gold.Chemscore.DEClash.Weighted>
0.1103

> <Gold.Chemscore.DEInternal.Weighted>
2.9602

> <Gold.Chemscore.Rot.Weighted>
4.2586

> <Gold.Chemscore.Internal.Correction.Weighted>
   9.000000E+99

> <Gold.Protein.RotatedTorsions>
[ 6907 6896 6895 6894 ] final   71.36 input  -60.11 | X-H torsion
[ 7974 7965 7964 7962 ] final -132.26 input  175.53 | X-H torsion
[ 8008 7997 7996 7995 ] final  -84.79 input   59.86 | X-H torsion
[ 10167 10162 10161 10158 ] final  105.13 input  -65.29 | X-H torsion
[ 10718 10713 10712 10709 ] final  -66.32 input   66.30 | X-H torsion
[ 10763 10752 10751 10750 ] final   48.96 input  -60.55 | X-H torsion
[ 11005 11000 10999 10996 ] final  -98.62 input  -57.11 | X-H torsion

> <Gold.Protein.ActiveResidues>
 VAL166  LYS551  ARG553  GLY616  TRP617  ASP618  TYR619  PRO620  LYS621  CYS622 
 ASP623  PHE694  ASN695  SER759  ASP760  ASP761  ALA762  ILE779  LEU786  VAL792 
 PHE793  MET794  SER795  GLU796  ALA797  LYS798  CYS799  TRP800  GLU811  SER814 

> <Gold.Protein.RotatedAtoms>
  152.4805  134.4732  159.9641 H   0  0  0  0  0  0  0  0  0  0  0  0  # atno 6907 bound_to 6896
  151.4739  133.3556  159.2835 H   0  0  0  0  0  0  0  0  0  0  0  0  # atno 6908 bound_to 6896
  150.8874  134.8299  159.7330 H   0  0  0  0  0  0  0  0  0  0  0  0  # atno 6909 bound_to 6896
  144.9301  140.7119  143.4911 H   0  0  0  0  0  0  0  0  0  0  0  0  # atno 7974 bound_to 7965
  154.6336  140.0600  156.9762 H   0  0  0  0  0  0  0  0  0  0  0  0  # atno 8008 bound_to 7997
  155.1627  140.3284  155.4390 H   0  0  0  0  0  0  0  0  0  0  0  0  # atno 8009 bound_to 7997
  156.2495  140.1928  156.6733 H   0  0  0  0  0  0  0  0  0  0  0  0  # atno 8010 bound_to 7997
  139.7118  144.7076  151.1014 H   0  0  0  0  0  0  0  0  0  0  0  0  # atno 10167 bound_to 10162
  156.0619  130.4260  150.1692 H   0  0  0  0  0  0  0  0  0  0  0  0  # atno 10718 bound_to 10713
  152.9789  135.5927  154.4011 H   0  0  0  0  0  0  0  0  0  0  0  0  # atno 10763 bound_to 10752
  154.3657  135.2767  155.2297 H   0  0  0  0  0  0  0  0  0  0  0  0  # atno 10764 bound_to 10752
  154.4274  135.6044  153.6102 H   0  0  0  0  0  0  0  0  0  0  0  0  # atno 10765 bound_to 10752
  141.1338  133.8259  157.0863 H   0  0  0  0  0  0  0  0  0  0  0  0  # atno 11005 bound_to 11000
  145.3155  139.1805  143.4616 LP  0  0  0  0  0  0  0  0  0  0  0  0  # atno 17320 bound_to 7965
  146.3243  140.3165  142.8630 LP  0  0  0  0  0  0  0  0  0  0  0  0  # atno 17321 bound_to 7965
  140.7735  143.5282  150.9454 LP  0  0  0  0  0  0  0  0  0  0  0  0  # atno 17342 bound_to 10162
  139.8967  143.6886  152.3137 LP  0  0  0  0  0  0  0  0  0  0  0  0  # atno 17343 bound_to 10162
  156.9759  130.9849  151.3448 LP  0  0  0  0  0  0  0  0  0  0  0  0  # atno 17370 bound_to 10713
  157.5633  130.8261  149.8295 LP  0  0  0  0  0  0  0  0  0  0  0  0  # atno 17371 bound_to 10713
  140.0420  134.9849  157.0979 LP  0  0  0  0  0  0  0  0  0  0  0  0  # atno 17394 bound_to 11000
  140.4121  134.1970  155.7163 LP  0  0  0  0  0  0  0  0  0  0  0  0  # atno 17395 bound_to 11000

$$$$
