AV-unprocessed.smi:1859|AV-procd|sdf|7543|dock1
  -GOLD-   22720 9253D 1   1.00000     0.00000
 Structure written by MMmdl.
 45 47  0  0  0  0  0  0  0  0  1 V2000
  147.5195  139.4143  156.2035 O   0  0  0  0  0  0  0  0  0  0  0  0
  148.7257  139.1680  156.1921 C   0  0  0  0  0  0  0  0  0  0  0  0
  149.3615  138.5857  157.2218 N   0  0  0  0  0  0  0  0  0  0  0  0
  148.7457  138.1889  158.4859 C   0  0  0  0  0  0  0  0  0  0  0  0
  147.5102  137.2910  158.2864 C   0  0  0  0  0  0  0  0  0  0  0  0
  146.9111  136.7662  159.5803 C   0  0  0  0  0  0  0  0  0  0  0  0
  146.7374  135.3806  159.7858 C   0  0  0  0  0  0  0  0  0  0  0  0
  146.1887  134.9479  161.0081 C   0  0  0  0  0  0  0  0  0  0  0  0
  145.8305  135.9118  161.9703 C   0  0  0  0  0  0  0  0  0  0  0  0
  146.0383  137.2715  161.6659 C   0  0  0  0  0  0  0  0  0  0  0  0
  146.5736  137.6969  160.5013 N   0  0  0  0  0  0  0  0  0  0  0  0
  149.5933  139.5321  154.9715 C   0  0  2  0  0  0  0  0  0  0  0  0
  150.3446  138.2988  154.4075 C   0  0  0  0  0  0  0  0  0  0  0  0
  151.6168  137.9367  155.2025 C   0  0  0  0  0  0  0  0  0  0  0  0
  152.4899  139.1821  155.4205 C   0  0  0  0  0  0  0  0  0  0  0  0
  151.6968  140.2098  156.1084 N   0  0  0  0  0  0  0  0  0  0  0  0
  151.9213  140.6858  157.3582 C   0  0  0  0  0  0  0  0  0  0  0  0
  152.6628  140.1020  158.1492 O   0  0  0  0  0  0  0  0  0  0  0  0
  151.2729  141.9877  157.7324 C   0  0  0  0  0  0  0  0  0  0  0  0
  152.1708  143.1883  157.9696 C   0  0  0  0  0  0  0  0  0  0  0  0
  151.5115  142.4999  159.1372 C   0  0  0  0  0  0  0  0  0  0  0  0
  150.5874  140.6860  155.2671 C   0  0  0  0  0  0  0  0  0  0  0  0
  150.3527  138.4178  157.1282 H   0  0  0  0  0  0  0  0  0  0  0  0
  149.4937  137.6483  159.0658 H   0  0  0  0  0  0  0  0  0  0  0  0
  148.4805  139.0643  159.0810 H   0  0  0  0  0  0  0  0  0  0  0  0
  146.7454  137.8410  157.7364 H   0  0  0  0  0  0  0  0  0  0  0  0
  147.7768  136.4404  157.6580 H   0  0  0  0  0  0  0  0  0  0  0  0
  147.0165  134.6648  159.0266 H   0  0  0  0  0  0  0  0  0  0  0  0
  146.0380  133.8963  161.2017 H   0  0  0  0  0  0  0  0  0  0  0  0
  145.3987  135.6164  162.9150 H   0  0  0  0  0  0  0  0  0  0  0  0
  145.7707  138.0375  162.3785 H   0  0  0  0  0  0  0  0  0  0  0  0
  148.9137  139.8809  154.1920 H   0  0  0  0  0  0  0  0  0  0  0  0
  149.6816  137.4337  154.3570 H   0  0  0  0  0  0  0  0  0  0  0  0
  150.6301  138.5120  153.3767 H   0  0  0  0  0  0  0  0  0  0  0  0
  151.3520  137.4994  156.1654 H   0  0  0  0  0  0  0  0  0  0  0  0
  152.1820  137.1738  154.6666 H   0  0  0  0  0  0  0  0  0  0  0  0
  153.4149  138.9240  155.9341 H   0  0  0  0  0  0  0  0  0  0  0  0
  152.8104  139.5755  154.4545 H   0  0  0  0  0  0  0  0  0  0  0  0
  150.3208  142.2263  157.2639 H   0  0  0  0  0  0  0  0  0  0  0  0
  153.2483  143.0744  157.8649 H   0  0  0  0  0  0  0  0  0  0  0  0
  151.7838  144.1588  157.6656 H   0  0  0  0  0  0  0  0  0  0  0  0
  150.6799  143.0026  159.6265 H   0  0  0  0  0  0  0  0  0  0  0  0
  152.1498  141.9156  159.7979 H   0  0  0  0  0  0  0  0  0  0  0  0
  150.9943  141.0711  154.3311 H   0  0  0  0  0  0  0  0  0  0  0  0
  150.0490  141.5242  155.7133 H   0  0  0  0  0  0  0  0  0  0  0  0
  1  2  2  0  0  0  0
  2  3  1  0  0  0  0
  2 12  1  0  0  0  0
  3  4  1  0  0  0  0
  3 23  1  0  0  0  0
  4  5  1  0  0  0  0
  4 24  1  0  0  0  0
  4 25  1  0  0  0  0
  5  6  1  0  0  0  0
  5 26  1  0  0  0  0
  5 27  1  0  0  0  0
  6 11  1  0  0  0  0
  6  7  2  0  0  0  0
  7  8  1  0  0  0  0
  7 28  1  0  0  0  0
  8  9  2  0  0  0  0
  8 29  1  0  0  0  0
  9 10  1  0  0  0  0
  9 30  1  0  0  0  0
 10 11  2  0  0  0  0
 10 31  1  0  0  0  0
 12 22  1  0  0  0  0
 12 13  1  0  0  0  0
 12 32  1  0  0  0  0
 13 14  1  0  0  0  0
 13 33  1  0  0  0  0
 13 34  1  0  0  0  0
 14 15  1  0  0  0  0
 14 35  1  0  0  0  0
 14 36  1  0  0  0  0
 15 16  1  0  0  0  0
 15 37  1  0  0  0  0
 15 38  1  0  0  0  0
 16 17  1  0  0  0  0
 16 22  1  0  0  0  0
 17 18  2  0  0  0  0
 17 19  1  0  0  0  0
 19 21  1  0  0  0  0
 19 20  1  0  0  0  0
 19 39  1  0  0  0  0
 20 21  1  0  0  0  0
 20 40  1  0  0  0  0
 20 41  1  0  0  0  0
 21 42  1  0  0  0  0
 21 43  1  0  0  0  0
 22 44  1  0  0  0  0
 22 45  1  0  0  0  0
M  END
> <s_m_source_file>
AV-unprocessed.smi

> <i_m_source_file_index>
1859

> <i_lp_mmshare_version>
43012

> <i_f3d_flags>
0

> <s_epik_input>
W0NIMl0xW0NIMl1bQ0hdMUMoPU8pTihbQ0gyXTIpW0NIMl1bQ0gyXVtDSDJdW0NASF0yQyg9TylbTkhdW0NIMl1bQ0gyXWMzW2NIXVtjSF1bY0hdW2NIXW4z

> <s_epik_cmdline>
J2VwaWtfcHl0aG9uJywgJy1waCcsICc3LjAnLCAnLXRuJywgJzgnLCAnLW1hJywgJzIwMCcsICctbWV0YWxfYmluZGluZycsICctaW1hZScsICc8aW5maWxlLm1hZT4nLCAnLW9tYWUnLCAnPG91dGZpbGUubWFlPic=

> <r_epik_Ionization_Penalty>
0.0268048

> <r_epik_Ionization_Penalty_Charging>
0

> <r_epik_Ionization_Penalty_Neutral>
0.0268048

> <r_epik_State_Penalty>
0.0219025

> <r_epik_Charging_Adjusted_Penalty>
0.0219025

> <i_epik_Tot_Q>
0

> <i_epik_Tot_abs_Q>
0

> <r_epik_Metal_State_Penalty>
0.020951

> <b_epik_Metal_Only>
0

> <s_lp_Force_Field>
OPLS_2005

> <r_lp_Energy>
24.9831

> <b_lp_Chiralities_Consistent>
1

> <s_lp_Variant>
AV-unprocessed.smi:1859-1

> <Gold.Version>
5.8.1

> <Gold.Id.Protein>
6NUR|6NUR_protein|mol2

> <Gold.PLP.Fitness>
49.5607

> <Gold.PLP.PLP>
-42.2468

> <Gold.PLP.part.hbond>
-3.0000

> <Gold.PLP.part.metal>
0.0000

> <Gold.PLP.part.buried>
-5.1664

> <Gold.PLP.part.nonpolar>
-34.9250

> <Gold.PLP.part.repulsive>
0.0487

> <Gold.PLP.ligand.clash>
0.0000

> <Gold.PLP.ligand.torsion>
0.3059

> <Gold.PLP.Chemscore.Hbond>
2.4896

> <Gold.PLP.Chemscore.CHOScore>
0.0000

> <Gold.PLP.Chemscore.Metal>
0.0000

> <Gold.Chemscore.Hbonds>
donor molecule, donor type, donor heavy atom, donor atom, acceptor molecule, acceptor atom, score
      P1  H  6934  6947       L1    11  0.96
      P1  H  7997  8009       L1    18  0.43

> <Gold.PLP.Chemscore.Internal.Correction>
0.4568

> <Gold.Rescore>
     Score         DG    S(hbond)    S(metal)    S(lipo)     H(rot)  DE(clash)    DE(int)     intcor
     17.97     -19.32       1.70        0.00     104.77       1.59       0.22       1.13       ----

> <Gold.Chemscore.Fitness>
17.9693

> <Gold.Chemscore.DG>
-19.3248

> <Gold.Chemscore.ZeroCoef>
-5.4800

> <Gold.Chemscore.Hbond>
1.6971

> <Gold.Chemscore.Metal>
0.0000

> <Gold.Chemscore.Lipo>
104.7671

> <Gold.Chemscore.Internal_Hbond>
0.0000

> <Gold.Chemscore.DEClash>
0.2249

> <Gold.Chemscore.DEInternal>
1.1306

> <Gold.Chemscore.Rot>
1.5943

> <Gold.Chemscore.Internal.Correction>
   9.000000E+99

> <Gold.Chemscore.Hbonds>
donor molecule, donor type, donor heavy atom, donor atom, acceptor molecule, acceptor atom, score
      P1  H  6934  6947       L1    11  0.27
      P1  H  7997  8009       L1    18  0.06

> <Gold.Chemscore.Hbond.Weighted>
-5.6684

> <Gold.Chemscore.Metal.Weighted>
-0.0000

> <Gold.Chemscore.Lipo.Weighted>
-12.2578

> <Gold.Chemscore.Internal_Hbond.Weighted>
0.0000

> <Gold.Chemscore.DEClash.Weighted>
0.2249

> <Gold.Chemscore.DEInternal.Weighted>
1.1306

> <Gold.Chemscore.Rot.Weighted>
4.0814

> <Gold.Chemscore.Internal.Correction.Weighted>
   9.000000E+99

> <Gold.Protein.RotatedTorsions>
[ 6907 6896 6895 6894 ] final -157.07 input  -60.11 | X-H torsion
[ 7974 7965 7964 7962 ] final  142.57 input  175.53 | X-H torsion
[ 8008 7997 7996 7995 ] final  168.50 input   59.86 | X-H torsion
[ 10167 10162 10161 10158 ] final -116.05 input  -65.29 | X-H torsion
[ 10718 10713 10712 10709 ] final    5.85 input   66.30 | X-H torsion
[ 10763 10752 10751 10750 ] final  -27.89 input  -60.55 | X-H torsion
[ 11005 11000 10999 10996 ] final -167.64 input  -57.11 | X-H torsion

> <Gold.Protein.ActiveResidues>
 VAL166  LYS551  ARG553  GLY616  TRP617  ASP618  TYR619  PRO620  LYS621  CYS622 
 ASP623  PHE694  ASN695  SER759  ASP760  ASP761  ALA762  ILE779  LEU786  VAL792 
 PHE793  MET794  SER795  GLU796  ALA797  LYS798  CYS799  TRP800  GLU811  SER814 

> <Gold.Protein.RotatedAtoms>
  151.2973  133.4138  159.2636 H   0  0  0  0  0  0  0  0  0  0  0  0  # atno 6907 bound_to 6896
  151.0226  134.9481  159.8078 H   0  0  0  0  0  0  0  0  0  0  0  0  # atno 6908 bound_to 6896
  152.5327  134.2935  159.9104 H   0  0  0  0  0  0  0  0  0  0  0  0  # atno 6909 bound_to 6896
  144.8996  139.5441  143.5760 H   0  0  0  0  0  0  0  0  0  0  0  0  # atno 7974 bound_to 7965
  156.1541  140.1589  156.8722 H   0  0  0  0  0  0  0  0  0  0  0  0  # atno 8008 bound_to 7997
  154.5098  140.0804  156.8004 H   0  0  0  0  0  0  0  0  0  0  0  0  # atno 8009 bound_to 7997
  155.3838  140.3406  155.4250 H   0  0  0  0  0  0  0  0  0  0  0  0  # atno 8010 bound_to 7997
  140.0835  143.4766  152.1912 H   0  0  0  0  0  0  0  0  0  0  0  0  # atno 10167 bound_to 10162
  156.9135  130.5764  149.5647 H   0  0  0  0  0  0  0  0  0  0  0  0  # atno 10718 bound_to 10713
  153.7394  135.6933  153.4970 H   0  0  0  0  0  0  0  0  0  0  0  0  # atno 10763 bound_to 10752
  153.2079  135.4413  155.0344 H   0  0  0  0  0  0  0  0  0  0  0  0  # atno 10764 bound_to 10752
  154.8226  135.3429  154.6921 H   0  0  0  0  0  0  0  0  0  0  0  0  # atno 10765 bound_to 10752
  140.5510  134.5428  157.5122 H   0  0  0  0  0  0  0  0  0  0  0  0  # atno 11005 bound_to 11000
  146.3101  139.7716  142.9026 LP  0  0  0  0  0  0  0  0  0  0  0  0  # atno 17320 bound_to 7965
  145.3639  141.0331  143.3269 LP  0  0  0  0  0  0  0  0  0  0  0  0  # atno 17321 bound_to 7965
  139.5766  144.7490  151.3749 LP  0  0  0  0  0  0  0  0  0  0  0  0  # atno 17342 bound_to 10162
  140.7066  143.7499  150.7492 LP  0  0  0  0  0  0  0  0  0  0  0  0  # atno 17343 bound_to 10162
  156.0525  130.5592  150.9020 LP  0  0  0  0  0  0  0  0  0  0  0  0  # atno 17370 bound_to 10713
  157.5953  131.0943  150.9052 LP  0  0  0  0  0  0  0  0  0  0  0  0  # atno 17371 bound_to 10713
  139.9455  134.7709  156.0572 LP  0  0  0  0  0  0  0  0  0  0  0  0  # atno 17394 bound_to 11000
  141.1172  133.6624  156.3123 LP  0  0  0  0  0  0  0  0  0  0  0  0  # atno 17395 bound_to 11000

$$$$
