#       Name:                AV-unprocessed.smi:21
#       Creating user name   scv26
#       Creation time:       Thu Mar 26 15:40:56 2020


#       File generated by GOLD software.
#

@<TRIPOS>MOLECULE
AV-unprocessed.smi:21
    71    74     1
SMALL
NO_CHARGES


@<TRIPOS>ATOM
      1 ****        -3.8088  -1.6125   3.1178 C.3            1 S1                 0.0000
      2 ****        -4.2597  -2.1921   1.9037 O.3            1 S1                 0.0000
      3 ****        -4.8144  -1.2477   0.9980 C.3            1 S1                 0.0000
      4 ****        -3.7260  -0.4087   0.3068 C.3            1 S1                 0.0000
      5 ****        -4.0682  -0.5079  -1.1842 C.3            1 S1                 0.0000
      6 ****        -2.8733  -0.2216  -2.1208 C.3            1 S1                 0.0000
      7 ****        -2.3249   1.1243  -1.9487 N.pl3          1 S1                 0.0000
      8 ****        -3.1225   2.2484  -2.4373 C.3            1 S1                 0.0000
      9 ****        -0.9783   1.2978  -1.8095 C.ar           1 S1                 0.0000
     10 ****        -0.4040   2.3953  -2.3751 N.ar           1 S1                 0.0000
     11 ****         0.9082   2.6188  -2.2680 C.ar           1 S1                 0.0000
     12 ****         1.8284   1.8874  -1.6408 N.ar           1 S1                 0.0000
     13 ****         1.2687   0.7902  -1.0580 C.ar           1 S1                 0.0000
     14 ****        -0.1083   0.4196  -1.0909 C.ar           1 S1                 0.0000
     15 ****        -0.2806  -0.7561  -0.3670 N.2            1 S1                 0.0000
     16 ****         0.9143  -1.0676   0.0511 C.2            1 S1                 0.0000
     17 ****         1.9042  -0.1859  -0.3118 N.pl3          1 S1                 0.0000
     18 ****         3.3158  -0.2731   0.0168 C.3            1 S1                 0.0000
     19 ****         3.7280   0.7031   1.1481 C.3            1 S1                 0.0000
     20 ****         3.0479   0.3308   2.4862 C.3            1 S1                 0.0000
     21 ****         3.2124   1.3528   3.4470 O.3            1 S1                 0.0000
     22 ****         5.2667   0.8520   1.3022 C.3            1 S1                 0.0000
     23 ****         6.0624  -0.4292   1.5064 C.3            1 S1                 0.0000
     24 ****         7.4595   0.0142   1.0954 C.3            1 S1                 0.0000
     25 ****         7.2238   0.8319  -0.0410 O.3            1 S1                 0.0000
     26 ****         5.9926   1.5307   0.1284 C.3            1 S1                 0.0000
     27 ****        -4.6411  -1.8360  -1.3246 N.3            1 S1                 0.0000
     28 ****        -5.3620  -2.0416  -2.5736 C.3            1 S1                 0.0000
     29 ****        -5.5015  -1.9800  -0.1632 C.3            1 S1                 0.0000
     30 ****        -5.5447  -0.6144   1.5047 H              1 S1                 0.0000
     31 ****        -4.8548   0.2212  -1.3844 H              1 S1                 0.0000
     32 ****        -3.4014  -2.3907   3.7630 H              1 S1                 0.0000
     33 ****        -4.6284  -1.1296   3.6515 H              1 S1                 0.0000
     34 ****        -3.0227  -0.8765   2.9461 H              1 S1                 0.0000
     35 ****        -3.7007   0.6217   0.6627 H              1 S1                 0.0000
     36 ****        -2.7500  -0.8515   0.4965 H              1 S1                 0.0000
     37 ****        -2.1187  -0.9978  -2.0167 H              1 S1                 0.0000
     38 ****        -3.2062  -0.2938  -3.1564 H              1 S1                 0.0000
     39 ****        -2.9563   3.1349  -1.8241 H              1 S1                 0.0000
     40 ****        -4.1882   2.0245  -2.4097 H              1 S1                 0.0000
     41 ****        -2.8625   2.4854  -3.4696 H              1 S1                 0.0000
     42 ****         1.2719   3.5122  -2.7541 H              1 S1                 0.0000
     43 ****         1.1048  -1.9479   0.6477 H              1 S1                 0.0000
     44 ****         3.5343  -1.3029   0.2998 H              1 S1                 0.0000
     45 ****         3.8751  -0.0816  -0.8982 H              1 S1                 0.0000
     46 ****         3.3530   1.6891   0.8681 H              1 S1                 0.0000
     47 ****         1.9759   0.1870   2.3549 H              1 S1                 0.0000
     48 ****         3.4481  -0.6039   2.8798 H              1 S1                 0.0000
     49 ****         2.7611   1.0986   4.2376 H              1 S1                 0.0000
     50 ****         5.4632   1.4818   2.1710 H              1 S1                 0.0000
     51 ****         6.0213  -0.8002   2.5309 H              1 S1                 0.0000
     52 ****         5.7298  -1.2245   0.8403 H              1 S1                 0.0000
     53 ****         7.9260   0.6095   1.8821 H              1 S1                 0.0000
     54 ****         8.1169  -0.8226   0.8590 H              1 S1                 0.0000
     55 ****         5.4326   1.4931  -0.8049 H              1 S1                 0.0000
     56 ****         6.1851   2.5814   0.3487 H              1 S1                 0.0000
     57 ****        -5.8115  -3.0348  -2.5968 H              1 S1                 0.0000
     58 ****        -4.6915  -1.9655  -3.4294 H              1 S1                 0.0000
     59 ****        -6.1579  -1.3062  -2.6977 H              1 S1                 0.0000
     60 ****        -5.6974  -3.0296   0.0588 H              1 S1                 0.0000
     61 ****        -6.4646  -1.5032  -0.3544 H              1 S1                 0.0000
     62 ****        -4.9593  -2.8736   2.1186 LP             1 S1                 0.0000
     63 ****        -3.4839  -2.6396   1.4590 LP             1 S1                 0.0000
     64 ****        -0.9741   3.0444  -2.8788 LP             1 S1                 0.0000
     65 ****         2.8017   2.1138  -1.6028 LP             1 S1                 0.0000
     66 ****        -1.1331  -1.2527  -0.2035 LP             1 S1                 0.0000
     67 ****         2.8272   2.2075   3.0991 LP             1 S1                 0.0000
     68 ****         4.1852   1.4800   3.6404 LP             1 S1                 0.0000
     69 ****         7.1732   0.2597  -0.8596 LP             1 S1                 0.0000
     70 ****         7.9704   1.4898  -0.1398 LP             1 S1                 0.0000
     71 ****        -3.9246  -2.5325  -1.3647 LP             1 S1                 0.0000
@<TRIPOS>BOND
    1    1    2 1     
    2    1   32 1     
    3    1   33 1     
    4    1   34 1     
    5    2    3 1     
    6    3   30 1     
    7    3   29 1     
    8    3    4 1     
    9    4    5 1     
   10    4   35 1     
   11    4   36 1     
   12    5   31 1     
   13    5    6 1     
   14    5   27 1     
   15    6    7 1     
   16    6   37 1     
   17    6   38 1     
   18    7    8 1     
   19    7    9 1     
   20    8   39 1     
   21    8   40 1     
   22    8   41 1     
   23    9   14 ar    
   24    9   10 ar    
   25   10   11 ar    
   26   11   12 ar    
   27   11   42 1     
   28   12   13 ar    
   29   13   17 1     
   30   13   14 ar    
   31   14   15 1     
   32   15   16 2     
   33   16   17 1     
   34   16   43 1     
   35   17   18 1     
   36   18   19 1     
   37   18   44 1     
   38   18   45 1     
   39   19   20 1     
   40   19   22 1     
   41   19   46 1     
   42   20   21 1     
   43   20   47 1     
   44   20   48 1     
   45   21   49 1     
   46   22   26 1     
   47   22   23 1     
   48   22   50 1     
   49   23   24 1     
   50   23   51 1     
   51   23   52 1     
   52   24   25 1     
   53   24   53 1     
   54   24   54 1     
   55   25   26 1     
   56   26   55 1     
   57   26   56 1     
   58   27   28 1     
   59   27   29 1     
   60   28   57 1     
   61   28   58 1     
   62   28   59 1     
   63   29   60 1     
   64   29   61 1     
   65    2   62 1     
   66    2   63 1     
   67   10   64 1     
   68   12   65 1     
   69   15   66 1     
   70   21   67 1     
   71   21   68 1     
   72   25   69 1     
   73   25   70 1     
   74   27   71 1     
@<TRIPOS>SUBSTRUCTURE
      1 S1             1
@<TRIPOS>SET
LONE_PAIRS      STATIC     ATOMS    <user>   **** ""
10 62 63 64 65 66 67 68 69 70 71
DONOR_HYDROGENS      STATIC     ATOMS    <user>   **** ""
1 49
ATOM$BLUE        STATIC     ATOMS    COLORGROUP SYSTEM
10 62 63 64 65 66 67 68 69 70 71
ATOM$RED        STATIC     ATOMS    COLORGROUP SYSTEM
1 49
