AV-unprocessed.smi:1684|AV-procd|sdf|6755|dock9
  -GOLD-   22720 7513D 1   1.00000     0.00000
 Structure written by MMmdl.
 43 44  0  0  0  0  0  0  0  0  2 V2000
  147.7680  132.9108  152.0597 C   0  0  0  0  0  0  0  0  0  0  0  0
  146.3598  132.9314  151.4877 C   0  0  0  0  0  0  0  0  0  0  0  0
  145.7229  131.7106  151.1781 C   0  0  0  0  0  0  0  0  0  0  0  0
  144.4204  131.7312  150.6508 C   0  0  0  0  0  0  0  0  0  0  0  0
  143.8058  132.9796  150.4543 C   0  0  0  0  0  0  0  0  0  0  0  0
  144.4067  134.1508  150.7479 N   0  0  0  0  0  0  0  0  0  0  0  0
  145.6654  134.1486  151.2546 C   0  0  0  0  0  0  0  0  0  0  0  0
  146.3592  135.3456  151.5909 N   0  0  0  0  0  0  0  0  0  0  0  0
  145.9184  136.3904  152.3129 C   0  0  0  0  0  0  0  0  0  0  0  0
  144.7813  136.5127  152.7689 O   0  0  0  0  0  0  0  0  0  0  0  0
  146.8876  137.3003  152.4953 N   0  0  0  0  0  0  0  0  0  0  0  0
  146.7568  138.5616  153.2271 C   0  0  2  0  0  0  0  0  0  0  0  0
  146.8785  139.7278  152.2369 C   0  0  0  0  0  0  0  0  0  0  0  0
  147.8081  138.6741  154.3563 C   0  0  0  0  0  0  0  0  0  0  0  0
  149.0407  137.8924  154.0839 N   0  3  0  0  0  0  0  0  0  0  0  0
  150.2714  138.7164  154.0903 C   0  0  0  0  0  0  0  0  0  0  0  0
  151.4869  137.8541  153.7081 C   0  0  0  0  0  0  0  0  0  0  0  0
  151.5931  136.7514  154.6008 O   0  0  0  0  0  0  0  0  0  0  0  0
  150.4466  135.9103  154.5501 C   0  0  0  0  0  0  0  0  0  0  0  0
  149.2036  136.7128  154.9676 C   0  0  0  0  0  0  0  0  0  0  0  0
  148.1292  131.8901  152.1898 H   0  0  0  0  0  0  0  0  0  0  0  0
  147.7928  133.4009  153.0335 H   0  0  0  0  0  0  0  0  0  0  0  0
  148.4579  133.4281  151.3924 H   0  0  0  0  0  0  0  0  0  0  0  0
  146.2234  130.7676  151.3421 H   0  0  0  0  0  0  0  0  0  0  0  0
  143.9061  130.8143  150.4035 H   0  0  0  0  0  0  0  0  0  0  0  0
  142.8055  133.0405  150.0521 H   0  0  0  0  0  0  0  0  0  0  0  0
  147.3105  135.3991  151.2582 H   0  0  0  0  0  0  0  0  0  0  0  0
  147.7898  137.1139  152.0815 H   0  0  0  0  0  0  0  0  0  0  0  0
  145.7567  138.6193  153.6591 H   0  0  0  0  0  0  0  0  0  0  0  0
  146.7390  140.6851  152.7399 H   0  0  0  0  0  0  0  0  0  0  0  0
  146.1245  139.6580  151.4518 H   0  0  0  0  0  0  0  0  0  0  0  0
  147.8579  139.7440  151.7574 H   0  0  0  0  0  0  0  0  0  0  0  0
  148.0709  139.7271  154.4694 H   0  0  0  0  0  0  0  0  0  0  0  0
  147.3836  138.3649  155.3127 H   0  0  0  0  0  0  0  0  0  0  0  0
  150.1716  139.5400  153.3824 H   0  0  0  0  0  0  0  0  0  0  0  0
  150.4150  139.1553  155.0790 H   0  0  0  0  0  0  0  0  0  0  0  0
  151.4026  137.4973  152.6803 H   0  0  0  0  0  0  0  0  0  0  0  0
  152.4009  138.4450  153.7662 H   0  0  0  0  0  0  0  0  0  0  0  0
  150.3250  135.4977  153.5468 H   0  0  0  0  0  0  0  0  0  0  0  0
  150.5954  135.0680  155.2258 H   0  0  0  0  0  0  0  0  0  0  0  0
  149.2995  137.0386  156.0045 H   0  0  0  0  0  0  0  0  0  0  0  0
  148.3240  136.0718  154.9150 H   0  0  0  0  0  0  0  0  0  0  0  0
  148.9465  137.5380  153.1424 H   0  0  0  0  0  0  0  0  0  0  0  0
  1  2  1  0  0  0  0
  1 21  1  0  0  0  0
  1 22  1  0  0  0  0
  1 23  1  0  0  0  0
  2  7  1  0  0  0  0
  2  3  2  0  0  0  0
  3  4  1  0  0  0  0
  3 24  1  0  0  0  0
  4  5  2  0  0  0  0
  4 25  1  0  0  0  0
  5  6  1  0  0  0  0
  5 26  1  0  0  0  0
  6  7  2  0  0  0  0
  7  8  1  0  0  0  0
  8  9  1  0  0  0  0
  8 27  1  0  0  0  0
  9 10  2  0  0  0  0
  9 11  1  0  0  0  0
 11 12  1  0  0  0  0
 11 28  1  0  0  0  0
 12 13  1  0  0  0  0
 12 14  1  0  0  0  0
 12 29  1  0  0  0  0
 13 30  1  0  0  0  0
 13 31  1  0  0  0  0
 13 32  1  0  0  0  0
 14 15  1  0  0  0  0
 14 33  1  0  0  0  0
 14 34  1  0  0  0  0
 15 20  1  0  0  0  0
 15 16  1  0  0  0  0
 15 43  1  0  0  0  0
 16 17  1  0  0  0  0
 16 35  1  0  0  0  0
 16 36  1  0  0  0  0
 17 18  1  0  0  0  0
 17 37  1  0  0  0  0
 17 38  1  0  0  0  0
 18 19  1  0  0  0  0
 19 20  1  0  0  0  0
 19 39  1  0  0  0  0
 19 40  1  0  0  0  0
 20 41  1  0  0  0  0
 20 42  1  0  0  0  0
M  CHG  1  15   1
M  END
> <s_m_source_file>
AV-unprocessed.smi

> <i_m_source_file_index>
1684

> <i_lp_mmshare_version>
43012

> <i_f3d_flags>
0

> <s_epik_input>
W0NIM11jMVtjSF1bY0hdW2NIXW5jMVtOSF1DKD1PKVtOSF1bQ0BIXShbQ0gzXSlbQ0gyXU4yW0NIMl1bQ0gyXU9bQ0gyXVtDSDJdMg==

> <s_epik_cmdline>
J2VwaWtfcHl0aG9uJywgJy1waCcsICc3LjAnLCAnLXRuJywgJzgnLCAnLW1hJywgJzIwMCcsICctbWV0YWxfYmluZGluZycsICctaW1hZScsICc8aW5maWxlLm1hZT4nLCAnLW9tYWUnLCAnPG91dGZpbGUubWFlPic=

> <r_epik_Ionization_Penalty>
0.602571

> <r_epik_Ionization_Penalty_Charging>
0.602531

> <r_epik_Ionization_Penalty_Neutral>
4.09763e-05

> <r_epik_State_Penalty>
0.617039

> <r_epik_Charging_Adjusted_Penalty>
1.21957

> <i_epik_Tot_Q>
1

> <i_epik_Tot_abs_Q>
1

> <r_epik_Metal_State_Penalty>
0.617043

> <b_epik_Metal_Only>
0

> <s_lp_Force_Field>
OPLS_2005

> <r_lp_Energy>
24.8117

> <b_lp_Chiralities_Consistent>
1

> <s_lp_Variant>
AV-unprocessed.smi:1684-3

> <Gold.Version>
5.8.1

> <Gold.Id.Protein>
6NUR|6NUR_protein|mol2

> <Gold.PLP.Fitness>
46.8989

> <Gold.PLP.PLP>
-32.8051

> <Gold.PLP.part.hbond>
-3.7508

> <Gold.PLP.part.metal>
0.0000

> <Gold.PLP.part.buried>
-2.8690

> <Gold.PLP.part.nonpolar>
-27.6449

> <Gold.PLP.part.repulsive>
0.5271

> <Gold.PLP.ligand.clash>
0.0000

> <Gold.PLP.ligand.torsion>
1.6389

> <Gold.PLP.Chemscore.Hbond>
4.7810

> <Gold.PLP.Chemscore.CHOScore>
1.0000

> <Gold.PLP.Chemscore.Metal>
0.0000

> <Gold.Chemscore.Hbonds>
donor molecule, donor type, donor heavy atom, donor atom, acceptor molecule, acceptor atom, score
      L1  H     8    27       P1  7948  0.75
      L1  H    11    28       P1  7948  0.81
      L1  H    15    43       P1  7948  2.00
      P1  H 10752 10765       L1    18  1.00
      L1  C     5    26       P1 10186  1.00

> <Gold.PLP.Chemscore.Internal.Correction>
0.0287

> <Gold.Rescore>
     Score         DG    S(hbond)    S(metal)    S(lipo)     H(rot)  DE(clash)    DE(int)     intcor
     19.55     -22.39       3.38        0.00      81.08       1.51       0.52       2.32       ----

> <Gold.Chemscore.Fitness>
19.5541

> <Gold.Chemscore.DG>
-22.3920

> <Gold.Chemscore.ZeroCoef>
-5.4800

> <Gold.Chemscore.Hbond>
3.3776

> <Gold.Chemscore.Metal>
0.0000

> <Gold.Chemscore.Lipo>
81.0818

> <Gold.Chemscore.Internal_Hbond>
0.0000

> <Gold.Chemscore.DEClash>
0.5222

> <Gold.Chemscore.DEInternal>
2.3156

> <Gold.Chemscore.Rot>
1.5061

> <Gold.Chemscore.Internal.Correction>
   9.000000E+99

> <Gold.Chemscore.Hbonds>
donor molecule, donor type, donor heavy atom, donor atom, acceptor molecule, acceptor atom, score
      L1  H     8    27       P1  7948  0.62
      L1  H    11    28       P1  7948  0.77
      L1  H    15    43       P1  7948  0.98
      P1  H 10752 10765       L1    18  0.39

> <Gold.Chemscore.Hbond.Weighted>
-11.2811

> <Gold.Chemscore.Metal.Weighted>
-0.0000

> <Gold.Chemscore.Lipo.Weighted>
-9.4866

> <Gold.Chemscore.Internal_Hbond.Weighted>
0.0000

> <Gold.Chemscore.DEClash.Weighted>
0.5222

> <Gold.Chemscore.DEInternal.Weighted>
2.3156

> <Gold.Chemscore.Rot.Weighted>
3.8557

> <Gold.Chemscore.Internal.Correction.Weighted>
   9.000000E+99

> <Gold.Protein.RotatedTorsions>
[ 6907 6896 6895 6894 ] final   89.94 input  -60.11 | X-H torsion
[ 7974 7965 7964 7962 ] final -127.03 input  175.53 | X-H torsion
[ 8008 7997 7996 7995 ] final -167.14 input   59.86 | X-H torsion
[ 10167 10162 10161 10158 ] final    9.65 input  -65.29 | X-H torsion
[ 10718 10713 10712 10709 ] final  112.23 input   66.30 | X-H torsion
[ 10763 10752 10751 10750 ] final -178.62 input  -60.55 | X-H torsion
[ 11005 11000 10999 10996 ] final  -32.66 input  -57.11 | X-H torsion

> <Gold.Protein.ActiveResidues>
 VAL166  LYS551  ARG553  GLY616  TRP617  ASP618  TYR619  PRO620  LYS621  CYS622 
 ASP623  PHE694  ASN695  SER759  ASP760  ASP761  ALA762  ILE779  LEU786  VAL792 
 PHE793  MET794  SER795  GLU796  ALA797  LYS798  CYS799  TRP800  GLU811  SER814 

> <Gold.Protein.RotatedAtoms>
  152.5440  134.1889  159.8665 H   0  0  0  0  0  0  0  0  0  0  0  0  # atno 6907 bound_to 6896
  151.1886  133.4674  159.2602 H   0  0  0  0  0  0  0  0  0  0  0  0  # atno 6908 bound_to 6896
  151.1106  135.0036  159.8547 H   0  0  0  0  0  0  0  0  0  0  0  0  # atno 6909 bound_to 6896
  144.9812  140.7642  143.4611 H   0  0  0  0  0  0  0  0  0  0  0  0  # atno 7974 bound_to 7965
  155.8735  140.0997  157.1534 H   0  0  0  0  0  0  0  0  0  0  0  0  # atno 8008 bound_to 7997
  154.3999  140.1342  156.4171 H   0  0  0  0  0  0  0  0  0  0  0  0  # atno 8009 bound_to 7997
  155.7723  140.3460  155.5256 H   0  0  0  0  0  0  0  0  0  0  0  0  # atno 8010 bound_to 7997
  140.6242  143.8138  150.7212 H   0  0  0  0  0  0  0  0  0  0  0  0  # atno 10167 bound_to 10162
  157.6403  131.0964  150.6864 H   0  0  0  0  0  0  0  0  0  0  0  0  # atno 10718 bound_to 10713
  154.5454  135.2809  155.1057 H   0  0  0  0  0  0  0  0  0  0  0  0  # atno 10763 bound_to 10752
  154.2523  135.6337  153.5248 H   0  0  0  0  0  0  0  0  0  0  0  0  # atno 10764 bound_to 10752
  152.9989  135.5586  154.6006 H   0  0  0  0  0  0  0  0  0  0  0  0  # atno 10765 bound_to 10752
  140.9570  133.7187  156.1309 H   0  0  0  0  0  0  0  0  0  0  0  0  # atno 11005 bound_to 11000
  145.2418  139.2069  143.4988 LP  0  0  0  0  0  0  0  0  0  0  0  0  # atno 17320 bound_to 7965
  146.3408  140.2315  142.8593 LP  0  0  0  0  0  0  0  0  0  0  0  0  # atno 17321 bound_to 7965
  140.1734  143.4175  152.1984 LP  0  0  0  0  0  0  0  0  0  0  0  0  # atno 17342 bound_to 10162
  139.5465  144.7303  151.4567 LP  0  0  0  0  0  0  0  0  0  0  0  0  # atno 17343 bound_to 10162
  156.7189  130.4674  149.5528 LP  0  0  0  0  0  0  0  0  0  0  0  0  # atno 17370 bound_to 10713
  156.1679  130.6417  151.0801 LP  0  0  0  0  0  0  0  0  0  0  0  0  # atno 17371 bound_to 10713
  140.7521  134.4033  157.5539 LP  0  0  0  0  0  0  0  0  0  0  0  0  # atno 17394 bound_to 11000
  139.8865  134.8907  156.2579 LP  0  0  0  0  0  0  0  0  0  0  0  0  # atno 17395 bound_to 11000

$$$$
