AV-unprocessed.smi:1165|AV-procd|sdf|4932|dock6
  -GOLD-   22720 3513D 1   1.00000     0.00000
 Structure written by MMmdl.
 40 41  0  0  0  0  0  0  0  0  2 V2000
  151.5890  144.1915  157.8788 C   0  0  0  0  0  0  0  0  0  0  0  0
  151.5852  142.9198  158.7341 C   0  0  1  0  0  0  0  0  0  0  0  0
  151.9363  141.6681  157.9094 C   0  0  0  0  0  0  0  0  0  0  0  0
  152.0523  140.4751  158.7644 N   0  0  0  0  0  0  0  0  0  0  0  0
  152.2147  138.9511  157.9474 S   0  0  0  0  0  0  0  0  0  0  0  0
  153.3522  139.0891  157.0235 O   0  0  0  0  0  0  0  0  0  0  0  0
  152.3185  137.9395  159.0122 O   0  0  0  0  0  0  0  0  0  0  0  0
  150.7861  138.9695  157.1776 N   0  5  0  0  0  0  0  0  0  0  0  0
  150.6188  138.1873  155.9629 C   0  0  0  0  0  0  0  0  0  0  0  0
  150.6972  139.0945  154.7130 C   0  0  0  0  0  0  0  0  0  0  0  0
  149.3847  139.7569  154.3071 C   0  0  0  0  0  0  0  0  0  0  0  0
  149.1801  141.1445  154.4712 C   0  0  0  0  0  0  0  0  0  0  0  0
  147.9504  141.7028  154.0734 C   0  0  0  0  0  0  0  0  0  0  0  0
  146.9716  140.8482  153.5288 C   0  0  0  0  0  0  0  0  0  0  0  0
  147.1478  139.5184  153.3766 N   0  0  0  0  0  0  0  0  0  0  0  0
  148.3301  138.9917  153.7609 C   0  0  0  0  0  0  0  0  0  0  0  0
  152.9003  140.6988  159.9523 C   0  0  0  0  0  0  0  0  0  0  0  0
  152.5165  141.9953  160.6866 C   0  0  1  0  0  0  0  0  0  0  0  0
  153.4849  142.3119  161.8316 C   0  0  0  0  0  0  0  0  0  0  0  0
  152.5359  143.0847  159.7757 O   0  0  0  0  0  0  0  0  0  0  0  0
  150.8606  144.1226  157.0702 H   0  0  0  0  0  0  0  0  0  0  0  0
  152.5686  144.3647  157.4331 H   0  0  0  0  0  0  0  0  0  0  0  0
  151.3368  145.0653  158.4797 H   0  0  0  0  0  0  0  0  0  0  0  0
  150.5911  142.8026  159.1695 H   0  0  0  0  0  0  0  0  0  0  0  0
  151.1684  141.5047  157.1533 H   0  0  0  0  0  0  0  0  0  0  0  0
  152.8801  141.8118  157.3820 H   0  0  0  0  0  0  0  0  0  0  0  0
  151.3965  137.4276  155.8835 H   0  0  0  0  0  0  0  0  0  0  0  0
  149.6766  137.6380  155.9487 H   0  0  0  0  0  0  0  0  0  0  0  0
  151.4500  139.8683  154.8693 H   0  0  0  0  0  0  0  0  0  0  0  0
  151.0521  138.5041  153.8679 H   0  0  0  0  0  0  0  0  0  0  0  0
  149.9551  141.7711  154.8875 H   0  0  0  0  0  0  0  0  0  0  0  0
  147.7640  142.7610  154.1794 H   0  0  0  0  0  0  0  0  0  0  0  0
  146.0180  141.2433  153.2112 H   0  0  0  0  0  0  0  0  0  0  0  0
  148.4395  137.9260  153.6252 H   0  0  0  0  0  0  0  0  0  0  0  0
  152.8127  139.8599  160.6410 H   0  0  0  0  0  0  0  0  0  0  0  0
  153.9429  140.7391  159.6340 H   0  0  0  0  0  0  0  0  0  0  0  0
  151.5131  141.8935  161.1038 H   0  0  0  0  0  0  0  0  0  0  0  0
  153.4983  141.5073  162.5671 H   0  0  0  0  0  0  0  0  0  0  0  0
  153.1949  143.2282  162.3460 H   0  0  0  0  0  0  0  0  0  0  0  0
  154.5023  142.4442  161.4622 H   0  0  0  0  0  0  0  0  0  0  0  0
  1  2  1  0  0  0  0
  1 21  1  0  0  0  0
  1 22  1  0  0  0  0
  1 23  1  0  0  0  0
  2 20  1  0  0  0  0
  2  3  1  0  0  0  0
  2 24  1  0  0  0  0
  3  4  1  0  0  0  0
  3 25  1  0  0  0  0
  3 26  1  0  0  0  0
  4  5  1  0  0  0  0
  4 17  1  0  0  0  0
  5  6  2  0  0  0  0
  5  7  2  0  0  0  0
  5  8  1  0  0  0  0
  8  9  1  0  0  0  0
  9 10  1  0  0  0  0
  9 27  1  0  0  0  0
  9 28  1  0  0  0  0
 10 11  1  0  0  0  0
 10 29  1  0  0  0  0
 10 30  1  0  0  0  0
 11 16  1  0  0  0  0
 11 12  2  0  0  0  0
 12 13  1  0  0  0  0
 12 31  1  0  0  0  0
 13 14  2  0  0  0  0
 13 32  1  0  0  0  0
 14 15  1  0  0  0  0
 14 33  1  0  0  0  0
 15 16  2  0  0  0  0
 16 34  1  0  0  0  0
 17 18  1  0  0  0  0
 17 35  1  0  0  0  0
 17 36  1  0  0  0  0
 18 19  1  0  0  0  0
 18 20  1  0  0  0  0
 18 37  1  0  0  0  0
 19 38  1  0  0  0  0
 19 39  1  0  0  0  0
 19 40  1  0  0  0  0
M  CHG  1   8  -1
M  END
> <s_m_source_file>
AV-unprocessed.smi

> <i_m_source_file_index>
1165

> <i_lp_mmshare_version>
43012

> <i_f3d_flags>
0

> <s_epik_input>
W0NIM11bQ0BASF0xW0NIMl1OKFtDSDJdW0NASF0oTzEpW0NIM10pUyg9TykoPU8pW05IXVtDSDJdW0NIMl1jMltjSF1bY0hdW2NIXW5bY0hdMg==

> <s_epik_cmdline>
J2VwaWtfcHl0aG9uJywgJy1waCcsICc3LjAnLCAnLXRuJywgJzgnLCAnLW1hJywgJzIwMCcsICctbWV0YWxfYmluZGluZycsICctaW1hZScsICc8aW5maWxlLm1hZT4nLCAnLW9tYWUnLCAnPG91dGZpbGUubWFlPic=

> <r_epik_Ionization_Penalty>
1.23471

> <r_epik_Ionization_Penalty_Charging>
1.20871

> <r_epik_Ionization_Penalty_Neutral>
0.025996

> <r_epik_State_Penalty>
1.46261

> <r_epik_Charging_Adjusted_Penalty>
2.67132

> <i_epik_Tot_Q>
-1

> <i_epik_Tot_abs_Q>
1

> <r_epik_Metal_State_Penalty>
0.521406

> <b_epik_Metal_Only>
0

> <s_lp_Force_Field>
OPLS_2005

> <r_lp_Energy>
1.53282

> <b_lp_Chiralities_Consistent>
1

> <s_lp_Variant>
AV-unprocessed.smi:1165-5

> <Gold.Version>
5.8.1

> <Gold.Id.Protein>
6NUR|6NUR_protein|mol2

> <Gold.PLP.Fitness>
44.8443

> <Gold.PLP.PLP>
-37.3615

> <Gold.PLP.part.hbond>
-0.9784

> <Gold.PLP.part.metal>
0.0000

> <Gold.PLP.part.buried>
-5.4012

> <Gold.PLP.part.nonpolar>
-32.3782

> <Gold.PLP.part.repulsive>
0.2051

> <Gold.PLP.ligand.clash>
0.0000

> <Gold.PLP.ligand.torsion>
1.4622

> <Gold.PLP.Chemscore.Hbond>
1.0000

> <Gold.PLP.Chemscore.CHOScore>
1.9772

> <Gold.PLP.Chemscore.Metal>
0.0000

> <Gold.Chemscore.Hbonds>
donor molecule, donor type, donor heavy atom, donor atom, acceptor molecule, acceptor atom, score
      P1  H  7997  8009       L1     6  0.83
      L1  C    14    33       P1 10175  0.93
      L1  C    16    34       P1  7948  1.00

> <Gold.PLP.Chemscore.Internal.Correction>
1.4757

> <Gold.Rescore>
     Score         DG    S(hbond)    S(metal)    S(lipo)     H(rot)  DE(clash)    DE(int)     intcor
     16.06     -17.76       1.00        0.00     108.75       1.47       0.17       1.53       ----

> <Gold.Chemscore.Fitness>
16.0598

> <Gold.Chemscore.DG>
-17.7638

> <Gold.Chemscore.ZeroCoef>
-5.4800

> <Gold.Chemscore.Hbond>
0.9976

> <Gold.Chemscore.Metal>
0.0000

> <Gold.Chemscore.Lipo>
108.7451

> <Gold.Chemscore.Internal_Hbond>
0.0000

> <Gold.Chemscore.DEClash>
0.1719

> <Gold.Chemscore.DEInternal>
1.5322

> <Gold.Chemscore.Rot>
1.4731

> <Gold.Chemscore.Internal.Correction>
   9.000000E+99

> <Gold.Chemscore.Hbonds>
donor molecule, donor type, donor heavy atom, donor atom, acceptor molecule, acceptor atom, score
      P1  H  7997  8009       L1     6  0.82

> <Gold.Chemscore.Hbond.Weighted>
-3.3318

> <Gold.Chemscore.Metal.Weighted>
-0.0000

> <Gold.Chemscore.Lipo.Weighted>
-12.7232

> <Gold.Chemscore.Internal_Hbond.Weighted>
0.0000

> <Gold.Chemscore.DEClash.Weighted>
0.1719

> <Gold.Chemscore.DEInternal.Weighted>
1.5322

> <Gold.Chemscore.Rot.Weighted>
3.7712

> <Gold.Chemscore.Internal.Correction.Weighted>
   9.000000E+99

> <Gold.Protein.RotatedTorsions>
[ 6907 6896 6895 6894 ] final  157.83 input  -60.11 | X-H torsion
[ 7974 7965 7964 7962 ] final  -37.50 input  175.53 | X-H torsion
[ 8008 7997 7996 7995 ] final  175.71 input   59.86 | X-H torsion
[ 10167 10162 10161 10158 ] final   55.62 input  -65.29 | X-H torsion
[ 10718 10713 10712 10709 ] final   85.07 input   66.30 | X-H torsion
[ 10763 10752 10751 10750 ] final  106.90 input  -60.55 | X-H torsion
[ 11005 11000 10999 10996 ] final   60.44 input  -57.11 | X-H torsion

> <Gold.Protein.ActiveResidues>
 VAL166  LYS551  ARG553  GLY616  TRP617  ASP618  TYR619  PRO620  LYS621  CYS622 
 ASP623  PHE694  ASN695  SER759  ASP760  ASP761  ALA762  ILE779  LEU786  VAL792 
 PHE793  MET794  SER795  GLU796  ALA797  LYS798  CYS799  TRP800  GLU811  SER814 

> <Gold.Protein.RotatedAtoms>
  152.0093  133.3855  159.4213 H   0  0  0  0  0  0  0  0  0  0  0  0  # atno 6907 bound_to 6896
  150.6901  134.3747  159.5017 H   0  0  0  0  0  0  0  0  0  0  0  0  # atno 6908 bound_to 6896
  152.1506  134.8991  160.0599 H   0  0  0  0  0  0  0  0  0  0  0  0  # atno 6909 bound_to 6896
  146.0569  140.6403  142.9015 H   0  0  0  0  0  0  0  0  0  0  0  0  # atno 7974 bound_to 7965
  156.0842  140.1402  156.9674 H   0  0  0  0  0  0  0  0  0  0  0  0  # atno 8008 bound_to 7997
  154.4603  140.0946  156.6922 H   0  0  0  0  0  0  0  0  0  0  0  0  # atno 8009 bound_to 7997
  155.5026  140.3451  155.4376 H   0  0  0  0  0  0  0  0  0  0  0  0  # atno 8010 bound_to 7997
  140.2175  144.3824  150.6464 H   0  0  0  0  0  0  0  0  0  0  0  0  # atno 10167 bound_to 10162
  157.6909  131.0159  150.2767 H   0  0  0  0  0  0  0  0  0  0  0  0  # atno 10718 bound_to 10713
  153.3993  135.3862  155.1977 H   0  0  0  0  0  0  0  0  0  0  0  0  # atno 10763 bound_to 10752
  154.8727  135.3767  154.4638 H   0  0  0  0  0  0  0  0  0  0  0  0  # atno 10764 bound_to 10752
  153.5134  135.7087  153.5831 H   0  0  0  0  0  0  0  0  0  0  0  0  # atno 10765 bound_to 10752
  140.0231  134.6122  155.9611 H   0  0  0  0  0  0  0  0  0  0  0  0  # atno 11005 bound_to 11000
  144.7153  140.4187  143.7049 LP  0  0  0  0  0  0  0  0  0  0  0  0  # atno 17320 bound_to 7965
  145.6628  139.1584  143.2799 LP  0  0  0  0  0  0  0  0  0  0  0  0  # atno 17321 bound_to 7965
  140.6279  143.2183  151.6558 LP  0  0  0  0  0  0  0  0  0  0  0  0  # atno 17342 bound_to 10162
  139.5156  144.3372  152.0773 LP  0  0  0  0  0  0  0  0  0  0  0  0  # atno 17343 bound_to 10162
  156.3321  130.3802  149.7482 LP  0  0  0  0  0  0  0  0  0  0  0  0  # atno 17370 bound_to 10713
  156.5018  130.8132  151.3135 LP  0  0  0  0  0  0  0  0  0  0  0  0  # atno 17371 bound_to 10713
  141.1786  133.6543  156.4929 LP  0  0  0  0  0  0  0  0  0  0  0  0  # atno 17394 bound_to 11000
  140.4352  134.7065  157.4963 LP  0  0  0  0  0  0  0  0  0  0  0  0  # atno 17395 bound_to 11000

$$$$
