#       Name:                AV-unprocessed.smi:3192
#       Creating user name   scv26
#       Creation time:       Fri Mar 27 18:03:42 2020


#       File generated by GOLD software.
#

@<TRIPOS>MOLECULE
AV-unprocessed.smi:3192
    39    40     1
SMALL
NO_CHARGES


@<TRIPOS>ATOM
      1 ****        -3.3934   3.5413   1.0358 C.3            1 S1                 0.0000
      2 ****        -3.0894   2.1628   0.9182 O.3            1 S1                 0.0000
      3 ****        -3.3594   1.6549  -0.3779 C.3            1 S1                 0.0000
      4 ****        -2.9872   0.1703  -0.4199 C.3            1 S1                 0.0000
      5 ****        -1.5675   0.0587  -0.4353 O.3            1 S1                 0.0000
      6 ****        -0.9988  -1.2006  -0.4499 C.ar           1 S1                 0.0000
      7 ****        -1.8213  -2.2799  -0.4585 N.ar           1 S1                 0.0000
      8 ****        -1.2677  -3.5095  -0.4722 C.ar           1 S1                 0.0000
      9 ****         0.1219  -3.7285  -0.4797 C.ar           1 S1                 0.0000
     10 ****         0.9756  -2.6101  -0.4725 C.ar           1 S1                 0.0000
     11 ****         0.4119  -1.3123  -0.4560 C.ar           1 S1                 0.0000
     12 ****         1.1900  -0.1442  -0.4482 N.pl3          1 S1                 0.0000
     13 ****         2.6424  -0.1977  -0.3711 C.3            1 S1                 0.0000
     14 ****         3.2103  -0.5086   1.0210 C.3            1 S1                 0.0000
     15 ****         4.3015   0.5264   0.7201 C.3            1 S1                 0.0000
     16 ****         3.3161   1.1753  -0.2598 C.3            1 S1                 0.0000
     17 ****        -3.1649   3.8817   2.0456 H              1 S1                 0.0000
     18 ****        -4.4512   3.7302   0.8478 H              1 S1                 0.0000
     19 ****        -2.8015   4.1356   0.3385 H              1 S1                 0.0000
     20 ****        -4.4224   1.7709  -0.5941 H              1 S1                 0.0000
     21 ****        -2.8075   2.2084  -1.1394 H              1 S1                 0.0000
     22 ****        -3.4192  -0.3500   0.4367 H              1 S1                 0.0000
     23 ****        -3.3958  -0.2771  -1.3276 H              1 S1                 0.0000
     24 ****        -1.9530  -4.3441  -0.4777 H              1 S1                 0.0000
     25 ****         0.5235  -4.7309  -0.4913 H              1 S1                 0.0000
     26 ****         2.0440  -2.7649  -0.4800 H              1 S1                 0.0000
     27 ****         0.7328   0.7559  -0.4076 H              1 S1                 0.0000
     28 ****         3.0944  -0.8047  -1.1575 H              1 S1                 0.0000
     29 ****         2.5547  -0.2017   1.8384 H              1 S1                 0.0000
     30 ****         3.5704  -1.5294   1.1518 H              1 S1                 0.0000
     31 ****         4.5846   1.1527   1.5664 H              1 S1                 0.0000
     32 ****         5.1728   0.0951   0.2243 H              1 S1                 0.0000
     33 ****         3.7617   1.5427  -1.1846 H              1 S1                 0.0000
     34 ****         2.6907   1.9322   0.2177 H              1 S1                 0.0000
     35 ****        -3.6389   1.6556   1.5821 LP             1 S1                 0.0000
     36 ****        -2.1186   2.0304   1.1185 LP             1 S1                 0.0000
     37 ****        -1.2271   0.5254   0.3809 LP             1 S1                 0.0000
     38 ****        -1.2439   0.5367  -1.2519 LP             1 S1                 0.0000
     39 ****        -2.8148  -2.1661  -0.4548 LP             1 S1                 0.0000
@<TRIPOS>BOND
    1    1    2 1     
    2    1   17 1     
    3    1   18 1     
    4    1   19 1     
    5    2    3 1     
    6    3    4 1     
    7    3   20 1     
    8    3   21 1     
    9    4    5 1     
   10    4   22 1     
   11    4   23 1     
   12    5    6 1     
   13    6   11 ar    
   14    6    7 ar    
   15    7    8 ar    
   16    8    9 ar    
   17    8   24 1     
   18    9   10 ar    
   19    9   25 1     
   20   10   11 ar    
   21   10   26 1     
   22   11   12 1     
   23   12   13 1     
   24   12   27 1     
   25   13   16 1     
   26   13   14 1     
   27   13   28 1     
   28   14   15 1     
   29   14   29 1     
   30   14   30 1     
   31   15   16 1     
   32   15   31 1     
   33   15   32 1     
   34   16   33 1     
   35   16   34 1     
   36    2   35 1     
   37    2   36 1     
   38    5   37 1     
   39    5   38 1     
   40    7   39 1     
@<TRIPOS>SUBSTRUCTURE
      1 S1             1
@<TRIPOS>SET
LONE_PAIRS      STATIC     ATOMS    <user>   **** ""
5 35 36 37 38 39
DONOR_HYDROGENS      STATIC     ATOMS    <user>   **** ""
1 27
ATOM$BLUE        STATIC     ATOMS    COLORGROUP SYSTEM
5 35 36 37 38 39
ATOM$RED        STATIC     ATOMS    COLORGROUP SYSTEM
1 27
