AV-unprocessed.smi:527|AV-procd|sdf|2829|dock8
  -GOLD-   2262023313D 1   1.00000     0.00000
 Structure written by MMmdl.
 43 44  0  0  0  0  0  0  0  0  2 V2000
  146.1957  142.3376  154.0580 C   0  0  0  0  0  0  0  0  0  0  0  0
  147.1738  141.2364  154.4993 C   0  0  2  0  0  0  0  0  0  0  0  0
  148.6416  141.6965  154.3912 C   0  0  0  0  0  0  0  0  0  0  0  0
  149.6059  140.6298  154.9336 C   0  0  0  0  0  0  0  0  0  0  0  0
  149.3891  139.2718  154.2490 C   0  0  0  0  0  0  0  0  0  0  0  0
  147.9212  138.8157  154.3605 C   0  0  2  0  0  0  0  0  0  0  0  0
  147.7617  137.5061  153.7305 N   0  0  0  0  0  0  0  0  0  0  0  0
  146.7583  136.6481  153.9667 C   0  0  0  0  0  0  0  0  0  0  0  0
  145.8236  136.8933  154.7322 O   0  0  0  0  0  0  0  0  0  0  0  0
  146.9158  135.5126  153.2592 N   0  0  0  0  0  0  0  0  0  0  0  0
  146.0550  134.4779  153.1677 C   0  0  0  0  0  0  0  0  0  0  0  0
  144.9605  134.4103  153.7304 O   0  0  0  0  0  0  0  0  0  0  0  0
  146.5005  133.3184  152.2749 C   0  0  0  0  0  0  0  0  0  0  0  0
  145.5542  133.1002  151.1762 N   0  0  0  0  0  0  0  0  0  0  0  0
  145.7002  132.2511  150.1088 C   0  0  0  0  0  0  0  0  0  0  0  0
  144.5698  132.3860  149.3443 C   0  0  0  0  0  0  0  0  0  0  0  0
  143.7823  133.3117  149.9755 N   0  3  0  0  0  0  0  0  0  0  0  0
  144.3817  133.7438  151.0898 C   0  0  0  0  0  0  0  0  0  0  0  0
  146.9460  139.8789  153.7820 C   0  0  2  0  0  0  0  0  0  0  0  0
  146.9980  139.9777  152.2396 C   0  0  0  0  0  0  0  0  0  0  0  0
  146.3823  142.6606  153.0339 H   0  0  0  0  0  0  0  0  0  0  0  0
  146.2880  143.2168  154.6965 H   0  0  0  0  0  0  0  0  0  0  0  0
  145.1625  141.9950  154.1207 H   0  0  0  0  0  0  0  0  0  0  0  0
  146.9741  141.0661  155.5586 H   0  0  0  0  0  0  0  0  0  0  0  0
  148.8898  141.9251  153.3544 H   0  0  0  0  0  0  0  0  0  0  0  0
  148.7815  142.6239  154.9476 H   0  0  0  0  0  0  0  0  0  0  0  0
  150.6374  140.9559  154.7959 H   0  0  0  0  0  0  0  0  0  0  0  0
  149.4583  140.5216  156.0089 H   0  0  0  0  0  0  0  0  0  0  0  0
  149.6862  139.3386  153.2019 H   0  0  0  0  0  0  0  0  0  0  0  0
  150.0448  138.5290  154.7050 H   0  0  0  0  0  0  0  0  0  0  0  0
  147.7022  138.6976  155.4239 H   0  0  0  0  0  0  0  0  0  0  0  0
  148.4727  137.2370  153.0663 H   0  0  0  0  0  0  0  0  0  0  0  0
  147.7757  135.4277  152.7376 H   0  0  0  0  0  0  0  0  0  0  0  0
  147.4871  133.5100  151.8499 H   0  0  0  0  0  0  0  0  0  0  0  0
  146.5704  132.3988  152.8582 H   0  0  0  0  0  0  0  0  0  0  0  0
  146.5742  131.6296  149.9753 H   0  0  0  0  0  0  0  0  0  0  0  0
  144.2745  131.9060  148.4225 H   0  0  0  0  0  0  0  0  0  0  0  0
  143.9970  134.4729  151.7812 H   0  0  0  0  0  0  0  0  0  0  0  0
  145.9336  139.5583  154.0315 H   0  0  0  0  0  0  0  0  0  0  0  0
  147.9692  140.3177  151.8825 H   0  0  0  0  0  0  0  0  0  0  0  0
  146.2465  140.6681  151.8586 H   0  0  0  0  0  0  0  0  0  0  0  0
  146.7945  139.0158  151.7697 H   0  0  0  0  0  0  0  0  0  0  0  0
  142.8776  133.6268  149.6479 H   0  0  0  0  0  0  0  0  0  0  0  0
  1  2  1  0  0  0  0
  1 21  1  0  0  0  0
  1 22  1  0  0  0  0
  1 23  1  0  0  0  0
  2 19  1  0  0  0  0
  2  3  1  0  0  0  0
  2 24  1  0  0  0  0
  3  4  1  0  0  0  0
  3 25  1  0  0  0  0
  3 26  1  0  0  0  0
  4  5  1  0  0  0  0
  4 27  1  0  0  0  0
  4 28  1  0  0  0  0
  5  6  1  0  0  0  0
  5 29  1  0  0  0  0
  5 30  1  0  0  0  0
  6  7  1  0  0  0  0
  6 19  1  0  0  0  0
  6 31  1  0  0  0  0
  7  8  1  0  0  0  0
  7 32  1  0  0  0  0
  8  9  2  0  0  0  0
  8 10  1  0  0  0  0
 10 11  1  0  0  0  0
 10 33  1  0  0  0  0
 11 12  2  0  0  0  0
 11 13  1  0  0  0  0
 13 14  1  0  0  0  0
 13 34  1  0  0  0  0
 13 35  1  0  0  0  0
 14 18  1  0  0  0  0
 14 15  1  0  0  0  0
 15 16  2  0  0  0  0
 15 36  1  0  0  0  0
 16 17  1  0  0  0  0
 16 37  1  0  0  0  0
 17 18  2  0  0  0  0
 17 43  1  0  0  0  0
 18 38  1  0  0  0  0
 19 20  1  0  0  0  0
 19 39  1  0  0  0  0
 20 40  1  0  0  0  0
 20 41  1  0  0  0  0
 20 42  1  0  0  0  0
M  CHG  1  17   1
M  END
> <s_m_source_file>
AV-unprocessed.smi

> <i_m_source_file_index>
527

> <i_lp_mmshare_version>
43012

> <i_f3d_flags>
0

> <s_epik_input>
W0NIM11bQ0BASF0xW0NIMl1bQ0gyXVtDSDJdW0NASF0oW0NASF0xW0NIM10pW05IXUMoPU8pW05IXUMoPU8pW0NIMl1uMltjSF1bY0hdbltjSF0y

> <s_epik_cmdline>
J2VwaWtfcHl0aG9uJywgJy1waCcsICc3LjAnLCAnLXRuJywgJzgnLCAnLW1hJywgJzIwMCcsICctbWV0YWxfYmluZGluZycsICctaW1hZScsICc8aW5maWxlLm1hZT4nLCAnLW9tYWUnLCAnPG91dGZpbGUubWFlPic=

> <r_lp_tautomer_probability>
1

> <r_epik_Ionization_Penalty>
0.816441

> <r_epik_Ionization_Penalty_Charging>
0

> <r_epik_Ionization_Penalty_Neutral>
0.816441

> <r_epik_State_Penalty>
0.849034

> <r_epik_Charging_Adjusted_Penalty>
0.849034

> <i_epik_Tot_Q>
1

> <i_epik_Tot_abs_Q>
1

> <r_epik_Metal_State_Penalty>
0.984327

> <b_epik_Metal_Only>
0

> <s_lp_Force_Field>
OPLS_2005

> <r_lp_Energy>
18.4408

> <b_lp_Chiralities_Consistent>
1

> <s_lp_Variant>
AV-unprocessed.smi:527-15

> <Gold.Version>
5.8.1

> <Gold.Id.Protein>
6NUR|6NUR_protein|mol2

> <Gold.PLP.Fitness>
48.6399

> <Gold.PLP.PLP>
-34.4514

> <Gold.PLP.part.hbond>
-3.0000

> <Gold.PLP.part.metal>
0.0000

> <Gold.PLP.part.buried>
-0.0012

> <Gold.PLP.part.nonpolar>
-31.4853

> <Gold.PLP.part.repulsive>
0.1943

> <Gold.PLP.ligand.clash>
0.0000

> <Gold.PLP.ligand.torsion>
0.3049

> <Gold.PLP.Chemscore.Hbond>
3.9360

> <Gold.PLP.Chemscore.CHOScore>
0.9902

> <Gold.PLP.Chemscore.Metal>
0.0000

> <Gold.Chemscore.Hbonds>
donor molecule, donor type, donor heavy atom, donor atom, acceptor molecule, acceptor atom, score
      L1  H     7    32       P1  7948  0.99
      L1  H    10    33       P1  7948  0.94
      L1  H    17    43       P1 10186  1.98
      L1  C    15    36       P1 10747  1.00

> <Gold.PLP.Chemscore.Internal.Correction>
0.0197

> <Gold.Rescore>
     Score         DG    S(hbond)    S(metal)    S(lipo)     H(rot)  DE(clash)    DE(int)     intcor
     16.60     -19.63       2.93        0.00      74.60       1.71       0.12       2.92       ----

> <Gold.Chemscore.Fitness>
16.5953

> <Gold.Chemscore.DG>
-19.6301

> <Gold.Chemscore.ZeroCoef>
-5.4800

> <Gold.Chemscore.Hbond>
2.9304

> <Gold.Chemscore.Metal>
0.0000

> <Gold.Chemscore.Lipo>
74.5981

> <Gold.Chemscore.Internal_Hbond>
0.0000

> <Gold.Chemscore.DEClash>
0.1190

> <Gold.Chemscore.DEInternal>
2.9158

> <Gold.Chemscore.Rot>
1.7052

> <Gold.Chemscore.Internal.Correction>
   9.000000E+99

> <Gold.Chemscore.Hbonds>
donor molecule, donor type, donor heavy atom, donor atom, acceptor molecule, acceptor atom, score
      L1  H     7    32       P1  7948  0.94
      L1  H    10    33       P1  7948  0.91
      L1  H    17    43       P1 10186  0.92

> <Gold.Chemscore.Hbond.Weighted>
-9.7874

> <Gold.Chemscore.Metal.Weighted>
-0.0000

> <Gold.Chemscore.Lipo.Weighted>
-8.7280

> <Gold.Chemscore.Internal_Hbond.Weighted>
0.0000

> <Gold.Chemscore.DEClash.Weighted>
0.1190

> <Gold.Chemscore.DEInternal.Weighted>
2.9158

> <Gold.Chemscore.Rot.Weighted>
4.3653

> <Gold.Chemscore.Internal.Correction.Weighted>
   9.000000E+99

> <Gold.Protein.RotatedTorsions>
[ 6907 6896 6895 6894 ] final -156.56 input  -60.11 | X-H torsion
[ 7974 7965 7964 7962 ] final    6.38 input  175.53 | X-H torsion
[ 8008 7997 7996 7995 ] final -169.77 input   59.86 | X-H torsion
[ 10167 10162 10161 10158 ] final  -14.22 input  -65.29 | X-H torsion
[ 10718 10713 10712 10709 ] final -122.55 input   66.30 | X-H torsion
[ 10763 10752 10751 10750 ] final  179.60 input  -60.55 | X-H torsion
[ 11005 11000 10999 10996 ] final   77.76 input  -57.11 | X-H torsion

> <Gold.Protein.ActiveResidues>
 VAL166  LYS551  ARG553  GLY616  TRP617  ASP618  TYR619  PRO620  LYS621  CYS622 
 ASP623  PHE694  ASN695  SER759  ASP760  ASP761  ALA762  ILE779  LEU786  VAL792 
 PHE793  MET794  SER795  GLU796  ALA797  LYS798  CYS799  TRP800  GLU811  SER814 

> <Gold.Protein.RotatedAtoms>
  151.2895  133.4172  159.2631 H   0  0  0  0  0  0  0  0  0  0  0  0  # atno 6907 bound_to 6896
  151.0290  134.9525  159.8111 H   0  0  0  0  0  0  0  0  0  0  0  0  # atno 6908 bound_to 6896
  152.5341  134.2857  159.9076 H   0  0  0  0  0  0  0  0  0  0  0  0  # atno 6909 bound_to 6896
  146.2435  140.0242  142.8395 H   0  0  0  0  0  0  0  0  0  0  0  0  # atno 7974 bound_to 7965
  155.9094  140.1055  157.1290 H   0  0  0  0  0  0  0  0  0  0  0  0  # atno 8008 bound_to 7997
  154.4037  140.1277  156.4603 H   0  0  0  0  0  0  0  0  0  0  0  0  # atno 8009 bound_to 7997
  155.7328  140.3468  155.5069 H   0  0  0  0  0  0  0  0  0  0  0  0  # atno 8010 bound_to 7997
  140.7197  143.5344  150.9482 H   0  0  0  0  0  0  0  0  0  0  0  0  # atno 10167 bound_to 10162
  156.1428  130.6478  150.9797 H   0  0  0  0  0  0  0  0  0  0  0  0  # atno 10718 bound_to 10713
  154.5228  135.2795  155.1248 H   0  0  0  0  0  0  0  0  0  0  0  0  # atno 10763 bound_to 10752
  154.2798  135.6287  153.5346 H   0  0  0  0  0  0  0  0  0  0  0  0  # atno 10764 bound_to 10752
  152.9940  135.5648  154.5721 H   0  0  0  0  0  0  0  0  0  0  0  0  # atno 10765 bound_to 10752
  139.9241  134.7709  156.1563 H   0  0  0  0  0  0  0  0  0  0  0  0  # atno 11005 bound_to 11000
  145.1213  140.9464  143.4598 LP  0  0  0  0  0  0  0  0  0  0  0  0  # atno 17320 bound_to 7965
  145.0478  139.3207  143.5944 LP  0  0  0  0  0  0  0  0  0  0  0  0  # atno 17321 bound_to 7965
  139.9065  143.6772  152.3122 LP  0  0  0  0  0  0  0  0  0  0  0  0  # atno 17342 bound_to 10162
  139.7140  144.7615  151.1065 LP  0  0  0  0  0  0  0  0  0  0  0  0  # atno 17343 bound_to 10162
  157.6590  131.0884  150.7881 LP  0  0  0  0  0  0  0  0  0  0  0  0  # atno 17370 bound_to 10713
  156.7955  130.4904  149.5378 LP  0  0  0  0  0  0  0  0  0  0  0  0  # atno 17371 bound_to 10713
  141.0785  133.6765  156.2286 LP  0  0  0  0  0  0  0  0  0  0  0  0  # atno 17394 bound_to 11000
  140.6388  134.5188  157.5567 LP  0  0  0  0  0  0  0  0  0  0  0  0  # atno 17395 bound_to 11000

$$$$
