AV-unprocessed.smi:1839|AV-procd|sdf|7485|dock3
  -GOLD-   22720 9183D 1   1.00000     0.00000
 Structure written by MMmdl.
 46 47  0  0  0  0  0  0  0  0  1 V2000
  144.1703  133.3097  149.6022 C   0  0  0  0  0  0  0  0  0  0  0  0
  145.0104  132.9166  150.7336 N   0  0  0  0  0  0  0  0  0  0  0  0
  145.5396  131.5505  150.6414 C   0  0  0  0  0  0  0  0  0  0  0  0
  145.4753  133.8521  151.5990 C   0  0  0  0  0  0  0  0  0  0  0  0
  145.5598  135.0426  151.2908 O   0  0  0  0  0  0  0  0  0  0  0  0
  145.8785  133.3967  152.8092 N   0  0  0  0  0  0  0  0  0  0  0  0
  145.1837  132.3156  153.5230 C   0  0  0  0  0  0  0  0  0  0  0  0
  146.2174  131.3822  154.1764 C   0  0  0  0  0  0  0  0  0  0  0  0
  147.1602  132.1717  155.1004 C   0  0  0  0  0  0  0  0  0  0  0  0
  147.7766  133.3867  154.3715 C   0  0  2  0  0  0  0  0  0  0  0  0
  148.6257  134.2352  155.3272 C   0  0  0  0  0  0  0  0  0  0  0  0
  148.7729  133.8903  156.5002 O   0  0  0  0  0  0  0  0  0  0  0  0
  149.1753  135.3464  154.8136 N   0  0  0  0  0  0  0  0  0  0  0  0
  150.0055  136.2895  155.5538 C   0  0  0  0  0  0  0  0  0  0  0  0
  150.3111  137.5496  154.7263 C   0  0  0  0  0  0  0  0  0  0  0  0
  150.2845  138.8092  155.5709 C   0  0  0  0  0  0  0  0  0  0  0  0
  150.1875  138.7308  156.9767 C   0  0  0  0  0  0  0  0  0  0  0  0
  150.1772  139.9290  157.7167 C   0  0  0  0  0  0  0  0  0  0  0  0
  150.2646  141.1533  157.0262 C   0  0  0  0  0  0  0  0  0  0  0  0
  150.3608  141.1244  155.6206 C   0  0  0  0  0  0  0  0  0  0  0  0
  150.3724  139.9811  154.9014 N   0  0  0  0  0  0  0  0  0  0  0  0
  146.6646  134.2383  153.7187 C   0  0  0  0  0  0  0  0  0  0  0  0
  143.4490  134.0777  149.8863 H   0  0  0  0  0  0  0  0  0  0  0  0
  143.6002  132.4616  149.2207 H   0  0  0  0  0  0  0  0  0  0  0  0
  144.7839  133.7003  148.7894 H   0  0  0  0  0  0  0  0  0  0  0  0
  146.5567  131.4741  151.0291 H   0  0  0  0  0  0  0  0  0  0  0  0
  145.5762  131.2110  149.6055 H   0  0  0  0  0  0  0  0  0  0  0  0
  144.9065  130.8557  151.1931 H   0  0  0  0  0  0  0  0  0  0  0  0
  144.5417  132.7528  154.2895 H   0  0  0  0  0  0  0  0  0  0  0  0
  144.5194  131.7434  152.8749 H   0  0  0  0  0  0  0  0  0  0  0  0
  145.7109  130.5994  154.7417 H   0  0  0  0  0  0  0  0  0  0  0  0
  146.7994  130.8783  153.4042 H   0  0  0  0  0  0  0  0  0  0  0  0
  146.5969  132.5065  155.9730 H   0  0  0  0  0  0  0  0  0  0  0  0
  147.9459  131.5144  155.4745 H   0  0  0  0  0  0  0  0  0  0  0  0
  148.4239  133.0105  153.5767 H   0  0  0  0  0  0  0  0  0  0  0  0
  149.0038  135.5554  153.8407 H   0  0  0  0  0  0  0  0  0  0  0  0
  149.5185  136.5580  156.4928 H   0  0  0  0  0  0  0  0  0  0  0  0
  150.9342  135.7837  155.8194 H   0  0  0  0  0  0  0  0  0  0  0  0
  151.2910  137.4591  154.2549 H   0  0  0  0  0  0  0  0  0  0  0  0
  149.5905  137.6534  153.9139 H   0  0  0  0  0  0  0  0  0  0  0  0
  150.1251  137.7755  157.4770 H   0  0  0  0  0  0  0  0  0  0  0  0
  150.1044  139.9093  158.7941 H   0  0  0  0  0  0  0  0  0  0  0  0
  150.2588  142.0917  157.5608 H   0  0  0  0  0  0  0  0  0  0  0  0
  150.4306  142.0443  155.0591 H   0  0  0  0  0  0  0  0  0  0  0  0
  147.1208  135.0768  153.1883 H   0  0  0  0  0  0  0  0  0  0  0  0
  146.0044  134.6695  154.4735 H   0  0  0  0  0  0  0  0  0  0  0  0
  1  2  1  0  0  0  0
  1 23  1  0  0  0  0
  1 24  1  0  0  0  0
  1 25  1  0  0  0  0
  2  3  1  0  0  0  0
  2  4  1  0  0  0  0
  3 26  1  0  0  0  0
  3 27  1  0  0  0  0
  3 28  1  0  0  0  0
  4  5  2  0  0  0  0
  4  6  1  0  0  0  0
  6 22  1  0  0  0  0
  6  7  1  0  0  0  0
  7  8  1  0  0  0  0
  7 29  1  0  0  0  0
  7 30  1  0  0  0  0
  8  9  1  0  0  0  0
  8 31  1  0  0  0  0
  8 32  1  0  0  0  0
  9 10  1  0  0  0  0
  9 33  1  0  0  0  0
  9 34  1  0  0  0  0
 10 11  1  0  0  0  0
 10 22  1  0  0  0  0
 10 35  1  0  0  0  0
 11 12  2  0  0  0  0
 11 13  1  0  0  0  0
 13 14  1  0  0  0  0
 13 36  1  0  0  0  0
 14 15  1  0  0  0  0
 14 37  1  0  0  0  0
 14 38  1  0  0  0  0
 15 16  1  0  0  0  0
 15 39  1  0  0  0  0
 15 40  1  0  0  0  0
 16 21  1  0  0  0  0
 16 17  2  0  0  0  0
 17 18  1  0  0  0  0
 17 41  1  0  0  0  0
 18 19  2  0  0  0  0
 18 42  1  0  0  0  0
 19 20  1  0  0  0  0
 19 43  1  0  0  0  0
 20 21  2  0  0  0  0
 20 44  1  0  0  0  0
 22 45  1  0  0  0  0
 22 46  1  0  0  0  0
M  END
> <s_m_source_file>
AV-unprocessed.smi

> <i_m_source_file_index>
1839

> <i_lp_mmshare_version>
43012

> <i_f3d_flags>
0

> <s_epik_input>
W0NIM11OKFtDSDNdKUMoPU8pTjFbQ0gyXVtDSDJdW0NIMl1bQ0BIXShbQ0gyXTEpQyg9TylbTkhdW0NIMl1bQ0gyXWMyW2NIXVtjSF1bY0hdW2NIXW4y

> <s_epik_cmdline>
J2VwaWtfcHl0aG9uJywgJy1waCcsICc3LjAnLCAnLXRuJywgJzgnLCAnLW1hJywgJzIwMCcsICctbWV0YWxfYmluZGluZycsICctaW1hZScsICc8aW5maWxlLm1hZT4nLCAnLW9tYWUnLCAnPG91dGZpbGUubWFlPic=

> <r_epik_Ionization_Penalty>
0.0268631

> <r_epik_Ionization_Penalty_Charging>
0

> <r_epik_Ionization_Penalty_Neutral>
0.0268631

> <r_epik_State_Penalty>
0.0219025

> <r_epik_Charging_Adjusted_Penalty>
0.0219025

> <i_epik_Tot_Q>
0

> <i_epik_Tot_abs_Q>
0

> <r_epik_Metal_State_Penalty>
0.0209511

> <b_epik_Metal_Only>
0

> <s_lp_Force_Field>
OPLS_2005

> <r_lp_Energy>
47.8256

> <b_lp_Chiralities_Consistent>
1

> <s_lp_Variant>
AV-unprocessed.smi:1839-2

> <Gold.Version>
5.8.1

> <Gold.Id.Protein>
6NUR|6NUR_protein|mol2

> <Gold.PLP.Fitness>
45.5420

> <Gold.PLP.PLP>
-37.4345

> <Gold.PLP.part.hbond>
-3.0000

> <Gold.PLP.part.metal>
0.0000

> <Gold.PLP.part.buried>
-2.0214

> <Gold.PLP.part.nonpolar>
-31.7576

> <Gold.PLP.part.repulsive>
0.3011

> <Gold.PLP.ligand.clash>
0.0000

> <Gold.PLP.ligand.torsion>
1.0568

> <Gold.PLP.Chemscore.Hbond>
1.9760

> <Gold.PLP.Chemscore.CHOScore>
0.9911

> <Gold.PLP.Chemscore.Metal>
0.0000

> <Gold.Chemscore.Hbonds>
donor molecule, donor type, donor heavy atom, donor atom, acceptor molecule, acceptor atom, score
      L1  H    13    36       P1  7948  0.91
      P1  H  7989  7998       L1    21  0.43

> <Gold.PLP.Chemscore.Internal.Correction>
1.3197

> <Gold.Rescore>
     Score         DG    S(hbond)    S(metal)    S(lipo)     H(rot)  DE(clash)    DE(int)     intcor
     11.23     -14.26       1.03        0.00      78.68       1.52       0.81       2.22       ----

> <Gold.Chemscore.Fitness>
11.2268

> <Gold.Chemscore.DG>
-14.2568

> <Gold.Chemscore.ZeroCoef>
-5.4800

> <Gold.Chemscore.Hbond>
1.0331

> <Gold.Chemscore.Metal>
0.0000

> <Gold.Chemscore.Lipo>
78.6818

> <Gold.Chemscore.Internal_Hbond>
0.0000

> <Gold.Chemscore.DEClash>
0.8081

> <Gold.Chemscore.DEInternal>
2.2219

> <Gold.Chemscore.Rot>
1.5155

> <Gold.Chemscore.Internal.Correction>
   9.000000E+99

> <Gold.Chemscore.Hbonds>
donor molecule, donor type, donor heavy atom, donor atom, acceptor molecule, acceptor atom, score
      L1  H    13    36       P1  7948  0.72
      P1  H  7989  7998       L1    21  0.02

> <Gold.Chemscore.Hbond.Weighted>
-3.4506

> <Gold.Chemscore.Metal.Weighted>
-0.0000

> <Gold.Chemscore.Lipo.Weighted>
-9.2058

> <Gold.Chemscore.Internal_Hbond.Weighted>
0.0000

> <Gold.Chemscore.DEClash.Weighted>
0.8081

> <Gold.Chemscore.DEInternal.Weighted>
2.2219

> <Gold.Chemscore.Rot.Weighted>
3.8796

> <Gold.Chemscore.Internal.Correction.Weighted>
   9.000000E+99

> <Gold.Protein.RotatedTorsions>
[ 6907 6896 6895 6894 ] final -150.54 input  -60.11 | X-H torsion
[ 7974 7965 7964 7962 ] final  -68.22 input  175.53 | X-H torsion
[ 8008 7997 7996 7995 ] final -105.99 input   59.86 | X-H torsion
[ 10167 10162 10161 10158 ] final  -17.60 input  -65.29 | X-H torsion
[ 10718 10713 10712 10709 ] final  -46.66 input   66.30 | X-H torsion
[ 10763 10752 10751 10750 ] final -176.97 input  -60.55 | X-H torsion
[ 11005 11000 10999 10996 ] final  -81.49 input  -57.11 | X-H torsion

> <Gold.Protein.ActiveResidues>
 VAL166  LYS551  ARG553  GLY616  TRP617  ASP618  TYR619  PRO620  LYS621  CYS622 
 ASP623  PHE694  ASN695  SER759  ASP760  ASP761  ALA762  ILE779  LEU786  VAL792 
 PHE793  MET794  SER795  GLU796  ALA797  LYS798  CYS799  TRP800  GLU811  SER814 

> <Gold.Protein.RotatedAtoms>
  151.2001  133.4616  159.2595 H   0  0  0  0  0  0  0  0  0  0  0  0  # atno 6907 bound_to 6896
  151.1078  135.0009  159.8490 H   0  0  0  0  0  0  0  0  0  0  0  0  # atno 6908 bound_to 6896
  152.5448  134.1922  159.8731 H   0  0  0  0  0  0  0  0  0  0  0  0  # atno 6909 bound_to 6896
  145.7192  140.9046  143.0639 H   0  0  0  0  0  0  0  0  0  0  0  0  # atno 7974 bound_to 7965
  154.9079  140.0411  157.1930 H   0  0  0  0  0  0  0  0  0  0  0  0  # atno 8008 bound_to 7997
  154.8377  140.2909  155.5658 H   0  0  0  0  0  0  0  0  0  0  0  0  # atno 8009 bound_to 7997
  156.2990  140.2488  156.3314 H   0  0  0  0  0  0  0  0  0  0  0  0  # atno 8010 bound_to 7997
  140.7249  143.5000  150.9882 H   0  0  0  0  0  0  0  0  0  0  0  0  # atno 10167 bound_to 10162
  156.2161  130.4163  149.9052 H   0  0  0  0  0  0  0  0  0  0  0  0  # atno 10718 bound_to 10713
  154.5658  135.2824  155.0875 H   0  0  0  0  0  0  0  0  0  0  0  0  # atno 10763 bound_to 10752
  154.2267  135.6381  153.5165 H   0  0  0  0  0  0  0  0  0  0  0  0  # atno 10764 bound_to 10752
  153.0042  135.5527  154.6266 H   0  0  0  0  0  0  0  0  0  0  0  0  # atno 10765 bound_to 10752
  141.1666  133.7199  156.8431 H   0  0  0  0  0  0  0  0  0  0  0  0  # atno 11005 bound_to 11000
  144.6921  139.9179  143.7466 LP  0  0  0  0  0  0  0  0  0  0  0  0  # atno 17320 bound_to 7965
  146.0641  139.3633  143.0563 LP  0  0  0  0  0  0  0  0  0  0  0  0  # atno 17321 bound_to 7965
  139.8708  143.7194  152.3166 LP  0  0  0  0  0  0  0  0  0  0  0  0  # atno 17342 bound_to 10162
  139.7443  144.7551  151.0604 LP  0  0  0  0  0  0  0  0  0  0  0  0  # atno 17343 bound_to 10162
  156.6714  130.8822  151.3563 LP  0  0  0  0  0  0  0  0  0  0  0  0  # atno 17370 bound_to 10713
  157.7064  130.9389  150.0944 LP  0  0  0  0  0  0  0  0  0  0  0  0  # atno 17371 bound_to 10713
  140.1969  134.8925  157.3125 LP  0  0  0  0  0  0  0  0  0  0  0  0  # atno 17394 bound_to 11000
  140.2229  134.4001  155.7557 LP  0  0  0  0  0  0  0  0  0  0  0  0  # atno 17395 bound_to 11000

$$$$
