AV-unprocessed.smi:47|AV-procd|sdf|432|dock2
  -GOLD-   2262016303D 1   1.00000     0.00000
 Structure written by MMmdl.
 32 34  0  0  0  0  0  0  0  0  2 V2000
  145.5487  141.3740  154.2221 O   0  0  0  0  0  0  0  0  0  0  0  0
  146.8942  141.4326  153.7988 C   0  0  2  0  0  0  0  0  0  0  0  0
  147.4629  140.0443  153.4839 C   0  0  0  0  0  0  0  0  0  0  0  0
  148.9089  140.1175  153.7748 N   0  3  0  0  0  0  0  0  0  0  0  0
  149.1799  141.4015  154.4557 C   0  0  2  0  0  0  0  0  0  0  0  0
  150.1205  141.0688  155.5753 C   0  0  0  0  0  0  0  0  0  0  0  0
  150.7024  139.8689  155.6708 N   0  0  0  0  0  0  0  0  0  0  0  0
  151.5052  139.8415  156.7561 N   0  0  0  0  0  0  0  0  0  0  0  0
  151.3427  141.0711  157.2417 C   0  0  0  0  0  0  0  0  0  0  0  0
  152.0469  141.5280  158.4626 C   0  0  0  0  0  0  0  0  0  0  0  0
  151.9266  142.8640  158.9177 C   0  0  0  0  0  0  0  0  0  0  0  0
  152.5943  143.3027  160.0776 C   0  0  0  0  0  0  0  0  0  0  0  0
  153.3985  142.4097  160.8075 C   0  0  0  0  0  0  0  0  0  0  0  0
  153.5321  141.0794  160.3727 C   0  0  0  0  0  0  0  0  0  0  0  0
  152.8627  140.6455  159.2121 C   0  0  0  0  0  0  0  0  0  0  0  0
  150.4918  141.8921  156.5546 N   0  0  0  0  0  0  0  0  0  0  0  0
  147.8199  141.9478  154.8965 C   0  0  0  0  0  0  0  0  0  0  0  0
  146.9730  142.0737  152.9194 H   0  0  0  0  0  0  0  0  0  0  0  0
  149.6549  142.0800  153.7452 H   0  0  0  0  0  0  0  0  0  0  0  0
  145.0658  140.8198  153.6272 H   0  0  0  0  0  0  0  0  0  0  0  0
  147.0301  139.2910  154.1439 H   0  0  0  0  0  0  0  0  0  0  0  0
  147.2729  139.7385  152.4546 H   0  0  0  0  0  0  0  0  0  0  0  0
  149.1581  139.3550  154.3896 H   0  0  0  0  0  0  0  0  0  0  0  0
  151.3173  143.5734  158.3774 H   0  0  0  0  0  0  0  0  0  0  0  0
  152.4889  144.3261  160.4063 H   0  0  0  0  0  0  0  0  0  0  0  0
  153.9114  142.7440  161.6974 H   0  0  0  0  0  0  0  0  0  0  0  0
  154.1488  140.3894  160.9298 H   0  0  0  0  0  0  0  0  0  0  0  0
  152.9845  139.6178  158.9031 H   0  0  0  0  0  0  0  0  0  0  0  0
  147.8085  143.0323  155.0095 H   0  0  0  0  0  0  0  0  0  0  0  0
  147.5308  141.5064  155.8523 H   0  0  0  0  0  0  0  0  0  0  0  0
  149.4488  140.0604  152.9235 H   0  0  0  0  0  0  0  0  0  0  0  0
  150.5904  139.0791  155.0509 H   0  0  0  0  0  0  0  0  0  0  0  0
  1  2  1  0  0  0  0
  1 20  1  0  0  0  0
  2 18  1  0  0  0  0
  2 17  1  0  0  0  0
  2  3  1  0  0  0  0
  3  4  1  0  0  0  0
  3 21  1  0  0  0  0
  3 22  1  0  0  0  0
  4  5  1  0  0  0  0
  4 23  1  0  0  0  0
  4 31  1  0  0  0  0
  5 19  1  0  0  0  0
  5  6  1  0  0  0  0
  5 17  1  0  0  0  0
  6 16  2  0  0  0  0
  6  7  1  0  0  0  0
  7  8  1  0  0  0  0
  7 32  1  0  0  0  0
  8  9  2  0  0  0  0
  9 10  1  0  0  0  0
  9 16  1  0  0  0  0
 10 15  1  0  0  0  0
 10 11  2  0  0  0  0
 11 12  1  0  0  0  0
 11 24  1  0  0  0  0
 12 13  2  0  0  0  0
 12 25  1  0  0  0  0
 13 14  1  0  0  0  0
 13 26  1  0  0  0  0
 14 15  2  0  0  0  0
 14 27  1  0  0  0  0
 15 28  1  0  0  0  0
 17 29  1  0  0  0  0
 17 30  1  0  0  0  0
M  CHG  1   4   1
M  END
> <s_m_source_file>
AV-unprocessed.smi

> <i_m_source_file_index>
47

> <i_lp_mmshare_version>
43012

> <i_f3d_flags>
0

> <s_epik_input>
W09IXVtDQEhdMVtDSDJdW05IXVtDQEBIXShbQ0gyXTEpYzJuW25IXWMobjIpLWMzW2NIXVtjSF1bY0hdW2NIXVtjSF0z

> <s_epik_cmdline>
J2VwaWtfcHl0aG9uJywgJy1waCcsICc3LjAnLCAnLXRuJywgJzgnLCAnLW1hJywgJzIwMCcsICctbWV0YWxfYmluZGluZycsICctaW1hZScsICc8aW5maWxlLm1hZT4nLCAnLW9tYWUnLCAnPG91dGZpbGUubWFlPic=

> <r_epik_Ionization_Penalty>
1.14296

> <r_epik_Ionization_Penalty_Charging>
0.0688988

> <r_epik_Ionization_Penalty_Neutral>
1.07406

> <r_epik_State_Penalty>
1.72347

> <r_epik_Charging_Adjusted_Penalty>
1.79237

> <i_epik_Tot_Q>
1

> <i_epik_Tot_abs_Q>
1

> <r_epik_Metal_State_Penalty>
2.22085

> <b_epik_Metal_Only>
0

> <s_lp_Force_Field>
OPLS_2005

> <r_lp_Energy>
30.6831

> <b_lp_Chiralities_Consistent>
1

> <s_lp_Variant>
AV-unprocessed.smi:47-10

> <Gold.Version>
5.8.1

> <Gold.Id.Protein>
6NUR|6NUR_protein|mol2

> <Gold.PLP.Fitness>
41.5034

> <Gold.PLP.PLP>
-35.7757

> <Gold.PLP.part.hbond>
-2.0000

> <Gold.PLP.part.metal>
0.0000

> <Gold.PLP.part.buried>
-2.7110

> <Gold.PLP.part.nonpolar>
-30.8219

> <Gold.PLP.part.repulsive>
0.3204

> <Gold.PLP.ligand.clash>
0.0000

> <Gold.PLP.ligand.torsion>
0.1427

> <Gold.PLP.Chemscore.Hbond>
2.0000

> <Gold.PLP.Chemscore.CHOScore>
0.0000

> <Gold.PLP.Chemscore.Metal>
0.0000

> <Gold.Chemscore.Hbonds>
donor molecule, donor type, donor heavy atom, donor atom, acceptor molecule, acceptor atom, score
      L1  H     1    20       P1 10175  1.00
      L1  H     4    31       P1  7957  1.00

> <Gold.PLP.Chemscore.Internal.Correction>
0.0132

> <Gold.Rescore>
     Score         DG    S(hbond)    S(metal)    S(lipo)     H(rot)  DE(clash)    DE(int)     intcor
     18.53     -18.59       1.96        0.00      88.98       1.50       0.01       0.05       ----

> <Gold.Chemscore.Fitness>
18.5338

> <Gold.Chemscore.DG>
-18.5945

> <Gold.Chemscore.ZeroCoef>
-5.4800

> <Gold.Chemscore.Hbond>
1.9565

> <Gold.Chemscore.Metal>
0.0000

> <Gold.Chemscore.Lipo>
88.9820

> <Gold.Chemscore.Internal_Hbond>
0.0000

> <Gold.Chemscore.DEClash>
0.0133

> <Gold.Chemscore.DEInternal>
0.0474

> <Gold.Chemscore.Rot>
1.4966

> <Gold.Chemscore.Internal.Correction>
   9.000000E+99

> <Gold.Chemscore.Hbonds>
donor molecule, donor type, donor heavy atom, donor atom, acceptor molecule, acceptor atom, score
      L1  H     1    20       P1 10175  0.85
      L1  H     4    31       P1  7957  0.97

> <Gold.Chemscore.Hbond.Weighted>
-6.5348

> <Gold.Chemscore.Metal.Weighted>
-0.0000

> <Gold.Chemscore.Lipo.Weighted>
-10.4109

> <Gold.Chemscore.Internal_Hbond.Weighted>
0.0000

> <Gold.Chemscore.DEClash.Weighted>
0.0133

> <Gold.Chemscore.DEInternal.Weighted>
0.0474

> <Gold.Chemscore.Rot.Weighted>
3.8312

> <Gold.Chemscore.Internal.Correction.Weighted>
   9.000000E+99

> <Gold.Protein.RotatedTorsions>
[ 6907 6896 6895 6894 ] final   45.97 input  -60.11 | X-H torsion
[ 7974 7965 7964 7962 ] final  118.67 input  175.53 | X-H torsion
[ 8008 7997 7996 7995 ] final   60.22 input   59.86 | X-H torsion
[ 10167 10162 10161 10158 ] final -131.26 input  -65.29 | X-H torsion
[ 10718 10713 10712 10709 ] final  145.86 input   66.30 | X-H torsion
[ 10763 10752 10751 10750 ] final  173.05 input  -60.55 | X-H torsion
[ 11005 11000 10999 10996 ] final  110.70 input  -57.11 | X-H torsion

> <Gold.Protein.ActiveResidues>
 VAL166  LYS551  ARG553  GLY616  TRP617  ASP618  TYR619  PRO620  LYS621  CYS622 
 ASP623  PHE694  ASN695  SER759  ASP760  ASP761  ALA762  ILE779  LEU786  VAL792 
 PHE793  MET794  SER795  GLU796  ALA797  LYS798  CYS799  TRP800  GLU811  SER814 

> <Gold.Protein.RotatedAtoms>
  152.2509  134.8134  160.0445 H   0  0  0  0  0  0  0  0  0  0  0  0  # atno 6907 bound_to 6896
  151.8814  133.3491  159.3776 H   0  0  0  0  0  0  0  0  0  0  0  0  # atno 6908 bound_to 6896
  150.7083  134.4941  159.5574 H   0  0  0  0  0  0  0  0  0  0  0  0  # atno 6909 bound_to 6896
  145.1524  139.3203  143.4560 H   0  0  0  0  0  0  0  0  0  0  0  0  # atno 7974 bound_to 7965
  155.5787  140.3491  155.4534 H   0  0  0  0  0  0  0  0  0  0  0  0  # atno 8008 bound_to 7997
  156.0389  140.1291  157.0202 H   0  0  0  0  0  0  0  0  0  0  0  0  # atno 8009 bound_to 7997
  154.4383  140.1028  156.6194 H   0  0  0  0  0  0  0  0  0  0  0  0  # atno 8010 bound_to 7997
  139.9208  143.6384  152.2554 H   0  0  0  0  0  0  0  0  0  0  0  0  # atno 10167 bound_to 10162
  157.3402  131.0934  151.1089 H   0  0  0  0  0  0  0  0  0  0  0  0  # atno 10718 bound_to 10713
  154.4346  135.2760  155.1889 H   0  0  0  0  0  0  0  0  0  0  0  0  # atno 10763 bound_to 10752
  154.3781  135.6094  153.5779 H   0  0  0  0  0  0  0  0  0  0  0  0  # atno 10764 bound_to 10752
  152.9838  135.5873  154.4663 H   0  0  0  0  0  0  0  0  0  0  0  0  # atno 10765 bound_to 10752
  139.8887  134.9490  156.6320 H   0  0  0  0  0  0  0  0  0  0  0  0  # atno 11005 bound_to 11000
  146.3493  140.1603  142.8591 LP  0  0  0  0  0  0  0  0  0  0  0  0  # atno 17320 bound_to 7965
  145.0417  140.8950  143.5048 LP  0  0  0  0  0  0  0  0  0  0  0  0  # atno 17321 bound_to 7965
  139.6863  144.7651  151.1518 LP  0  0  0  0  0  0  0  0  0  0  0  0  # atno 17342 bound_to 10162
  140.7662  143.5652  150.9055 LP  0  0  0  0  0  0  0  0  0  0  0  0  # atno 17343 bound_to 10162
  157.2304  130.6522  149.5847 LP  0  0  0  0  0  0  0  0  0  0  0  0  # atno 17370 bound_to 10713
  155.9706  130.4600  150.6059 LP  0  0  0  0  0  0  0  0  0  0  0  0  # atno 17371 bound_to 10713
  140.7659  133.8778  155.8454 LP  0  0  0  0  0  0  0  0  0  0  0  0  # atno 17394 bound_to 11000
  140.9882  134.1314  157.4432 LP  0  0  0  0  0  0  0  0  0  0  0  0  # atno 17395 bound_to 11000

$$$$
