AV-unprocessed.smi:3065|AV-procd|sdf|11692|dock2
  -GOLD-   2272017 93D 1   1.00000     0.00000
 Structure written by MMmdl.
 24 25  0  0  0  0  0  0  0  0  2 V2000
  149.3862  140.2403  154.2271 C   0  0  0  0  0  0  0  0  0  0  0  0
  148.5266  141.1463  154.7813 N   0  0  0  0  0  0  0  0  0  0  0  0
  149.2899  141.6055  155.7629 C   0  0  0  0  0  0  0  0  0  0  0  0
  150.4968  141.0396  155.8156 N   0  0  0  0  0  0  0  0  0  0  0  0
  151.6018  141.2568  156.7306 C   0  0  0  0  0  0  0  0  0  0  0  0
  151.3102  142.3799  157.7424 C   0  0  1  0  0  0  0  0  0  0  0  0
  152.3359  142.5200  158.8724 C   0  0  0  0  0  0  0  0  0  0  0  0
  152.1616  143.9690  159.3102 C   0  0  0  0  0  0  0  0  0  0  0  0
  151.8654  144.7003  157.9990 C   0  0  0  0  0  0  0  0  0  0  0  0
  151.2543  143.7056  157.0939 N   0  3  0  0  0  0  0  0  0  0  0  0
  150.5807  140.1365  154.8107 N   0  0  0  0  0  0  0  0  0  0  0  0
  149.1236  139.6382  153.3696 H   0  0  0  0  0  0  0  0  0  0  0  0
  148.9616  142.3649  156.4574 H   0  0  0  0  0  0  0  0  0  0  0  0
  151.8133  140.3214  157.2517 H   0  0  0  0  0  0  0  0  0  0  0  0
  152.4899  141.4959  156.1441 H   0  0  0  0  0  0  0  0  0  0  0  0
  150.3314  142.2100  158.1940 H   0  0  0  0  0  0  0  0  0  0  0  0
  152.1733  141.8098  159.6841 H   0  0  0  0  0  0  0  0  0  0  0  0
  153.3470  142.3697  158.4902 H   0  0  0  0  0  0  0  0  0  0  0  0
  151.3063  144.0505  159.9826 H   0  0  0  0  0  0  0  0  0  0  0  0
  153.0357  144.3650  159.8281 H   0  0  0  0  0  0  0  0  0  0  0  0
  151.2120  145.5609  158.1447 H   0  0  0  0  0  0  0  0  0  0  0  0
  152.7920  145.0539  157.5452 H   0  0  0  0  0  0  0  0  0  0  0  0
  151.7854  143.6836  156.2350 H   0  0  0  0  0  0  0  0  0  0  0  0
  150.2948  143.9491  156.8928 H   0  0  0  0  0  0  0  0  0  0  0  0
  1 11  2  0  0  0  0
  1  2  1  0  0  0  0
  1 12  1  0  0  0  0
  2  3  2  0  0  0  0
  3  4  1  0  0  0  0
  3 13  1  0  0  0  0
  4  5  1  0  0  0  0
  4 11  1  0  0  0  0
  5  6  1  0  0  0  0
  5 14  1  0  0  0  0
  5 15  1  0  0  0  0
  6 10  1  0  0  0  0
  6  7  1  0  0  0  0
  6 16  1  0  0  0  0
  7  8  1  0  0  0  0
  7 17  1  0  0  0  0
  7 18  1  0  0  0  0
  8  9  1  0  0  0  0
  8 19  1  0  0  0  0
  8 20  1  0  0  0  0
  9 10  1  0  0  0  0
  9 21  1  0  0  0  0
  9 22  1  0  0  0  0
 10 23  1  0  0  0  0
 10 24  1  0  0  0  0
M  CHG  1  10   1
M  END
> <s_m_source_file>
AV-unprocessed.smi

> <i_m_source_file_index>
3065

> <i_lp_mmshare_version>
43012

> <i_f3d_flags>
0

> <s_epik_input>
bjFbY0hdbltjSF1uMVtDSDJdW0NAQEhdMltDSDJdW0NIMl1bQ0gyXVtOSF0y

> <s_epik_cmdline>
J2VwaWtfcHl0aG9uJywgJy1waCcsICc3LjAnLCAnLXRuJywgJzgnLCAnLW1hJywgJzIwMCcsICctbWV0YWxfYmluZGluZycsICctaW1hZScsICc8aW5maWxlLm1hZT4nLCAnLW9tYWUnLCAnPG91dGZpbGUubWFlPic=

> <r_lp_tautomer_probability>
1

> <r_epik_Ionization_Penalty>
0.000581652

> <r_epik_Ionization_Penalty_Charging>
0.000580891

> <r_epik_Ionization_Penalty_Neutral>
7.60238e-07

> <r_epik_State_Penalty>
0.000365066

> <r_epik_Charging_Adjusted_Penalty>
0.000945958

> <i_epik_Tot_Q>
1

> <i_epik_Tot_abs_Q>
1

> <r_epik_Metal_State_Penalty>
-0

> <b_epik_Metal_Only>
0

> <s_lp_Force_Field>
OPLS_2005

> <r_lp_Energy>
26.7057

> <b_lp_Chiralities_Consistent>
1

> <s_lp_Variant>
AV-unprocessed.smi:3065-2

> <Gold.Version>
5.8.1

> <Gold.Id.Protein>
6NUR|6NUR_protein|mol2

> <Gold.PLP.Fitness>
38.7758

> <Gold.PLP.PLP>
-24.7218

> <Gold.PLP.part.hbond>
-2.0000

> <Gold.PLP.part.metal>
0.0000

> <Gold.PLP.part.buried>
-2.0515

> <Gold.PLP.part.nonpolar>
-19.9212

> <Gold.PLP.part.repulsive>
0.1952

> <Gold.PLP.ligand.clash>
0.0000

> <Gold.PLP.ligand.torsion>
0.0492

> <Gold.PLP.Chemscore.Hbond>
3.0000

> <Gold.PLP.Chemscore.CHOScore>
1.7174

> <Gold.PLP.Chemscore.Metal>
0.0000

> <Gold.Chemscore.Hbonds>
donor molecule, donor type, donor heavy atom, donor atom, acceptor molecule, acceptor atom, score
      L1  H    10    24       P1  8028  2.00
      P1  H  7989  7998       L1    11  0.95
      L1  C     1    12       P1  7957  0.96
      L1  C     3    13       P1  8028  0.76

> <Gold.PLP.Chemscore.Internal.Correction>
0.0001

> <Gold.Rescore>
     Score         DG    S(hbond)    S(metal)    S(lipo)     H(rot)  DE(clash)    DE(int)     intcor
     13.13     -13.44       1.72        0.00      52.25       1.52       0.05       0.26       ----

> <Gold.Chemscore.Fitness>
13.1331

> <Gold.Chemscore.DG>
-13.4417

> <Gold.Chemscore.ZeroCoef>
-5.4800

> <Gold.Chemscore.Hbond>
1.7207

> <Gold.Chemscore.Metal>
0.0000

> <Gold.Chemscore.Lipo>
52.2455

> <Gold.Chemscore.Internal_Hbond>
0.0000

> <Gold.Chemscore.DEClash>
0.0509

> <Gold.Chemscore.DEInternal>
0.2577

> <Gold.Chemscore.Rot>
1.5227

> <Gold.Chemscore.Internal.Correction>
   9.000000E+99

> <Gold.Chemscore.Hbonds>
donor molecule, donor type, donor heavy atom, donor atom, acceptor molecule, acceptor atom, score
      L1  H    10    24       P1  8028  0.90
      P1  H  7989  7998       L1    11  0.13

> <Gold.Chemscore.Hbond.Weighted>
-5.7471

> <Gold.Chemscore.Metal.Weighted>
-0.0000

> <Gold.Chemscore.Lipo.Weighted>
-6.1127

> <Gold.Chemscore.Internal_Hbond.Weighted>
0.0000

> <Gold.Chemscore.DEClash.Weighted>
0.0509

> <Gold.Chemscore.DEInternal.Weighted>
0.2577

> <Gold.Chemscore.Rot.Weighted>
3.8981

> <Gold.Chemscore.Internal.Correction.Weighted>
   9.000000E+99

> <Gold.Protein.RotatedTorsions>
[ 6907 6896 6895 6894 ] final   52.86 input  -60.11 | X-H torsion
[ 7974 7965 7964 7962 ] final   16.76 input  175.53 | X-H torsion
[ 8008 7997 7996 7995 ] final   85.67 input   59.86 | X-H torsion
[ 10167 10162 10161 10158 ] final  -77.66 input  -65.29 | X-H torsion
[ 10718 10713 10712 10709 ] final  -65.87 input   66.30 | X-H torsion
[ 10763 10752 10751 10750 ] final -128.72 input  -60.55 | X-H torsion
[ 11005 11000 10999 10996 ] final  151.83 input  -57.11 | X-H torsion

> <Gold.Protein.ActiveResidues>
 VAL166  LYS551  ARG553  GLY616  TRP617  ASP618  TYR619  PRO620  LYS621  CYS622 
 ASP623  PHE694  ASN695  SER759  ASP760  ASP761  ALA762  ILE779  LEU786  VAL792 
 PHE793  MET794  SER795  GLU796  ALA797  LYS798  CYS799  TRP800  GLU811  SER814 

> <Gold.Protein.RotatedAtoms>
  152.3277  134.7299  160.0297 H   0  0  0  0  0  0  0  0  0  0  0  0  # atno 6907 bound_to 6896
  151.7726  133.3337  159.3457 H   0  0  0  0  0  0  0  0  0  0  0  0  # atno 6908 bound_to 6896
  150.7405  134.5936  159.6044 H   0  0  0  0  0  0  0  0  0  0  0  0  # atno 6909 bound_to 6896
  146.2240  139.8701  142.8589 H   0  0  0  0  0  0  0  0  0  0  0  0  # atno 7974 bound_to 7965
  155.9529  140.3399  155.6424 H   0  0  0  0  0  0  0  0  0  0  0  0  # atno 8008 bound_to 7997
  155.6896  140.0747  157.2471 H   0  0  0  0  0  0  0  0  0  0  0  0  # atno 8009 bound_to 7997
  154.4126  140.1659  156.2059 H   0  0  0  0  0  0  0  0  0  0  0  0  # atno 8010 bound_to 7997
  140.4751  143.2416  151.8145 H   0  0  0  0  0  0  0  0  0  0  0  0  # atno 10167 bound_to 10162
  156.0644  130.4253  150.1626 H   0  0  0  0  0  0  0  0  0  0  0  0  # atno 10718 bound_to 10713
  154.8757  135.3919  154.3803 H   0  0  0  0  0  0  0  0  0  0  0  0  # atno 10763 bound_to 10752
  153.4552  135.7028  153.6089 H   0  0  0  0  0  0  0  0  0  0  0  0  # atno 10764 bound_to 10752
  153.4612  135.3811  155.2308 H   0  0  0  0  0  0  0  0  0  0  0  0  # atno 10765 bound_to 10752
  140.1254  134.8836  157.2130 H   0  0  0  0  0  0  0  0  0  0  0  0  # atno 11005 bound_to 11000
  145.2616  141.0079  143.3823 LP  0  0  0  0  0  0  0  0  0  0  0  0  # atno 17320 bound_to 7965
  144.9294  139.4317  143.6503 LP  0  0  0  0  0  0  0  0  0  0  0  0  # atno 17321 bound_to 7965
  139.4824  144.4843  151.9266 LP  0  0  0  0  0  0  0  0  0  0  0  0  # atno 17342 bound_to 10162
  140.3928  144.2593  150.5898 LP  0  0  0  0  0  0  0  0  0  0  0  0  # atno 17343 bound_to 10162
  156.9689  130.9828  151.3463 LP  0  0  0  0  0  0  0  0  0  0  0  0  # atno 17370 bound_to 10713
  157.5676  130.8288  149.8349 LP  0  0  0  0  0  0  0  0  0  0  0  0  # atno 17371 bound_to 10713
  140.2911  134.3240  155.7315 LP  0  0  0  0  0  0  0  0  0  0  0  0  # atno 17394 bound_to 11000
  141.2160  133.7535  156.9504 LP  0  0  0  0  0  0  0  0  0  0  0  0  # atno 17395 bound_to 11000

$$$$
