#       Name:                AV-unprocessed.smi:1284
#       Creating user name   scv26
#       Creation time:       Fri Mar 27 04:50:31 2020


#       File generated by GOLD software.
#

@<TRIPOS>MOLECULE
AV-unprocessed.smi:1284
    44    46     1
SMALL
NO_CHARGES


@<TRIPOS>ATOM
      1 ****        -1.3307   4.5595  -0.0396 N.am           1 S1                 0.0000
      2 ****        -0.3781   3.6240  -0.0805 C.2            1 S1                 0.0000
      3 ****         0.1886   3.3138  -1.1260 O.2            1 S1                 0.0000
      4 ****        -0.0064   2.9438   1.2422 C.3            1 S1                 0.0000
      5 ****        -0.6182   1.5674   1.2742 C.2            1 S1                 0.0000
      6 ****        -1.9412   1.3915   1.3306 N.2            1 S1                 0.0000
      7 ****        -2.0711   0.0176   1.3339 C.ar           1 S1                 0.0000
      8 ****        -3.2273  -0.7945   1.3665 C.ar           1 S1                 0.0000
      9 ****        -3.1127  -2.2000   1.3596 C.ar           1 S1                 0.0000
     10 ****        -1.8432  -2.8116   1.3223 C.ar           1 S1                 0.0000
     11 ****        -0.6790  -2.0203   1.2935 C.ar           1 S1                 0.0000
     12 ****        -0.7984  -0.6170   1.2978 C.ar           1 S1                 0.0000
     13 ****         0.1229   0.4271   1.2696 N.pl3          1 S1                 0.0000
     14 ****         1.5734   0.2786   1.2391 C.3            1 S1                 0.0000
     15 ****         2.1578   0.4240  -0.1801 C.3            1 S1                 0.0000
     16 ****         3.5668   0.3930  -0.0819 O.3            1 S1                 0.0000
     17 ****         1.6213  -0.6326  -1.1365 C.ar           1 S1                 0.0000
     18 ****         0.5917  -0.3013  -2.0438 C.ar           1 S1                 0.0000
     19 ****         0.0667  -1.2790  -2.9104 C.ar           1 S1                 0.0000
     20 ****         0.5687  -2.5939  -2.8760 C.ar           1 S1                 0.0000
     21 ****         1.5959  -2.9308  -1.9738 C.ar           1 S1                 0.0000
     22 ****         2.1206  -1.9536  -1.1060 C.ar           1 S1                 0.0000
     23 ****        -1.6129   5.0243  -0.8904 H              1 S1                 0.0000
     24 ****        -1.7732   4.7921   0.8376 H              1 S1                 0.0000
     25 ****         1.0775   2.9100   1.3342 H              1 S1                 0.0000
     26 ****        -0.3795   3.5203   2.0899 H              1 S1                 0.0000
     27 ****        -4.2040  -0.3351   1.3949 H              1 S1                 0.0000
     28 ****        -4.0028  -2.8114   1.3826 H              1 S1                 0.0000
     29 ****        -1.7632  -3.8887   1.3160 H              1 S1                 0.0000
     30 ****         0.2936  -2.4881   1.2618 H              1 S1                 0.0000
     31 ****         2.0145   1.0083   1.9179 H              1 S1                 0.0000
     32 ****         1.8335  -0.6965   1.6529 H              1 S1                 0.0000
     33 ****         1.9053   1.4074  -0.5737 H              1 S1                 0.0000
     34 ****         3.9287   0.5779  -0.9352 H              1 S1                 0.0000
     35 ****         0.1924   0.7019  -2.0705 H              1 S1                 0.0000
     36 ****        -0.7241  -1.0205  -3.5991 H              1 S1                 0.0000
     37 ****         0.1646  -3.3439  -3.5398 H              1 S1                 0.0000
     38 ****         1.9791  -3.9401  -1.9443 H              1 S1                 0.0000
     39 ****         2.9007  -2.2244  -0.4098 H              1 S1                 0.0000
     40 ****        -0.0593   3.7665  -1.9825 LP             1 S1                 0.0000
     41 ****         0.8977   2.6087  -1.1202 LP             1 S1                 0.0000
     42 ****        -2.6608   2.0851   1.3626 LP             1 S1                 0.0000
     43 ****         3.8645  -0.5118   0.2226 LP             1 S1                 0.0000
     44 ****         3.8752   1.0832   0.5728 LP             1 S1                 0.0000
@<TRIPOS>BOND
    1    1    2 am    
    2    1   23 1     
    3    1   24 1     
    4    2    3 2     
    5    2    4 1     
    6    4    5 1     
    7    4   25 1     
    8    4   26 1     
    9    5   13 1     
   10    5    6 2     
   11    6    7 1     
   12    7   12 ar    
   13    7    8 ar    
   14    8    9 ar    
   15    8   27 1     
   16    9   10 ar    
   17    9   28 1     
   18   10   11 ar    
   19   10   29 1     
   20   11   12 ar    
   21   11   30 1     
   22   12   13 1     
   23   13   14 1     
   24   14   15 1     
   25   14   31 1     
   26   14   32 1     
   27   15   16 1     
   28   15   17 1     
   29   15   33 1     
   30   16   34 1     
   31   17   22 ar    
   32   17   18 ar    
   33   18   19 ar    
   34   18   35 1     
   35   19   20 ar    
   36   19   36 1     
   37   20   21 ar    
   38   20   37 1     
   39   21   22 ar    
   40   21   38 1     
   41   22   39 1     
   42    3   40 1     
   43    3   41 1     
   44    6   42 1     
   45   16   43 1     
   46   16   44 1     
@<TRIPOS>SUBSTRUCTURE
      1 S1             1
@<TRIPOS>SET
LONE_PAIRS      STATIC     ATOMS    <user>   **** ""
5 40 41 42 43 44
DONOR_HYDROGENS      STATIC     ATOMS    <user>   **** ""
3 23 24 34
ATOM$BLUE        STATIC     ATOMS    COLORGROUP SYSTEM
5 40 41 42 43 44
ATOM$RED        STATIC     ATOMS    COLORGROUP SYSTEM
3 23 24 34
