AV-unprocessed.smi:45|AV-procd|sdf|408|dock7
  -GOLD-   2262016263D 1   1.00000     0.00000
 Structure written by MMmdl.
 60 63  0  0  0  0  0  0  0  0  1 V2000
  149.0321  125.8563  153.6295 C   0  0  0  0  0  0  0  0  0  0  0  0
  148.3664  127.0051  153.1258 O   0  0  0  0  0  0  0  0  0  0  0  0
  148.8105  128.2470  153.5307 C   0  0  0  0  0  0  0  0  0  0  0  0
  149.9806  128.4529  154.3051 C   0  0  0  0  0  0  0  0  0  0  0  0
  150.3707  129.7525  154.6817 C   0  0  0  0  0  0  0  0  0  0  0  0
  149.6023  130.8673  154.2907 C   0  0  0  0  0  0  0  0  0  0  0  0
  150.0154  132.2677  154.7012 C   0  0  0  0  0  0  0  0  0  0  0  0
  149.1640  132.8452  155.7318 N   0  0  0  0  0  0  0  0  0  0  0  0
  148.2517  133.8701  155.4287 C   0  0  0  0  0  0  0  0  0  0  0  0
  147.6065  133.8056  154.2399 N   0  0  0  0  0  0  0  0  0  0  0  0
  146.7406  134.7750  153.9285 C   0  0  0  0  0  0  0  0  0  0  0  0
  146.0930  134.6932  152.6955 N   0  0  0  0  0  0  0  0  0  0  0  0
  145.2866  135.7966  152.1835 C   0  0  0  0  0  0  0  0  0  0  0  0
  145.4217  135.7475  150.6628 C   0  0  0  0  0  0  0  0  0  0  0  0
  145.6625  134.2691  150.3903 C   0  0  0  0  0  0  0  0  0  0  0  0
  146.5002  133.8167  151.5950 C   0  0  2  0  0  0  0  0  0  0  0  0
  146.3216  132.3165  151.9106 C   0  0  0  0  0  0  0  0  0  0  0  0
  146.5150  131.5490  150.7419 O   0  0  0  0  0  0  0  0  0  0  0  0
  146.4515  135.8284  154.6986 N   0  0  0  0  0  0  0  0  0  0  0  0
  147.0822  135.9180  155.8876 C   0  0  0  0  0  0  0  0  0  0  0  0
  148.0214  134.9536  156.3201 C   0  0  0  0  0  0  0  0  0  0  0  0
  148.6843  135.0785  157.6660 C   0  0  0  0  0  0  0  0  0  0  0  0
  149.2843  134.1318  158.1759 O   0  0  0  0  0  0  0  0  0  0  0  0
  148.5938  136.2909  158.2357 N   0  0  0  0  0  0  0  0  0  0  0  0
  149.1381  136.6426  159.5418 C   0  0  0  0  0  0  0  0  0  0  0  0
  148.2951  136.1084  160.6864 C   0  0  0  0  0  0  0  0  0  0  0  0
  148.0531  134.7930  160.6889 N   0  0  0  0  0  0  0  0  0  0  0  0
  147.3109  134.3110  161.7093 C   0  0  0  0  0  0  0  0  0  0  0  0
  146.8130  135.1507  162.7258 C   0  0  0  0  0  0  0  0  0  0  0  0
  147.1328  136.5191  162.6165 C   0  0  0  0  0  0  0  0  0  0  0  0
  147.8746  136.9960  161.5935 N   0  0  0  0  0  0  0  0  0  0  0  0
  148.4375  130.6700  153.5235 C   0  0  0  0  0  0  0  0  0  0  0  0
  148.0458  129.3708  153.1456 C   0  0  0  0  0  0  0  0  0  0  0  0
  146.6125  129.1654  152.2032 Cl  0  0  0  0  0  0  0  0  0  0  0  0
  147.5518  134.0223  151.3884 H   0  0  0  0  0  0  0  0  0  0  0  0
  148.5618  124.9613  153.2227 H   0  0  0  0  0  0  0  0  0  0  0  0
  148.9623  125.7994  154.7165 H   0  0  0  0  0  0  0  0  0  0  0  0
  150.0815  125.8411  153.3321 H   0  0  0  0  0  0  0  0  0  0  0  0
  150.5978  127.6277  154.6261 H   0  0  0  0  0  0  0  0  0  0  0  0
  151.2635  129.8906  155.2743 H   0  0  0  0  0  0  0  0  0  0  0  0
  151.0462  132.2521  155.0577 H   0  0  0  0  0  0  0  0  0  0  0  0
  149.9923  132.9054  153.8167 H   0  0  0  0  0  0  0  0  0  0  0  0
  149.1451  132.4154  156.6459 H   0  0  0  0  0  0  0  0  0  0  0  0
  144.2500  135.6401  152.4842 H   0  0  0  0  0  0  0  0  0  0  0  0
  145.6105  136.7632  152.5710 H   0  0  0  0  0  0  0  0  0  0  0  0
  144.5478  136.1436  150.1448 H   0  0  0  0  0  0  0  0  0  0  0  0
  146.2926  136.3252  150.3497 H   0  0  0  0  0  0  0  0  0  0  0  0
  144.7049  133.7461  150.3713 H   0  0  0  0  0  0  0  0  0  0  0  0
  146.1617  134.0888  149.4380 H   0  0  0  0  0  0  0  0  0  0  0  0
  147.0382  131.9706  152.6541 H   0  0  0  0  0  0  0  0  0  0  0  0
  145.3272  132.1185  152.3116 H   0  0  0  0  0  0  0  0  0  0  0  0
  147.4229  131.2904  150.6995 H   0  0  0  0  0  0  0  0  0  0  0  0
  146.8248  136.7706  156.4991 H   0  0  0  0  0  0  0  0  0  0  0  0
  148.0923  137.0157  157.7436 H   0  0  0  0  0  0  0  0  0  0  0  0
  150.1679  136.2906  159.6279 H   0  0  0  0  0  0  0  0  0  0  0  0
  149.1811  137.7299  159.6134 H   0  0  0  0  0  0  0  0  0  0  0  0
  147.1136  133.2493  161.7151 H   0  0  0  0  0  0  0  0  0  0  0  0
  146.2195  134.7670  163.5426 H   0  0  0  0  0  0  0  0  0  0  0  0
  146.7929  137.2329  163.3521 H   0  0  0  0  0  0  0  0  0  0  0  0
  147.8392  131.5169  153.2209 H   0  0  0  0  0  0  0  0  0  0  0  0
  1  2  1  0  0  0  0
  1 36  1  0  0  0  0
  1 37  1  0  0  0  0
  1 38  1  0  0  0  0
  2  3  1  0  0  0  0
  3 33  1  0  0  0  0
  3  4  2  0  0  0  0
  4  5  1  0  0  0  0
  4 39  1  0  0  0  0
  5  6  2  0  0  0  0
  5 40  1  0  0  0  0
  6  7  1  0  0  0  0
  6 32  1  0  0  0  0
  7  8  1  0  0  0  0
  7 41  1  0  0  0  0
  7 42  1  0  0  0  0
  8  9  1  0  0  0  0
  8 43  1  0  0  0  0
  9 21  1  0  0  0  0
  9 10  2  0  0  0  0
 10 11  1  0  0  0  0
 11 12  1  0  0  0  0
 11 19  2  0  0  0  0
 12 16  1  0  0  0  0
 12 13  1  0  0  0  0
 13 14  1  0  0  0  0
 13 44  1  0  0  0  0
 13 45  1  0  0  0  0
 14 15  1  0  0  0  0
 14 46  1  0  0  0  0
 14 47  1  0  0  0  0
 15 16  1  0  0  0  0
 15 48  1  0  0  0  0
 15 49  1  0  0  0  0
 16 35  1  0  0  0  0
 16 17  1  0  0  0  0
 17 18  1  0  0  0  0
 17 50  1  0  0  0  0
 17 51  1  0  0  0  0
 18 52  1  0  0  0  0
 19 20  1  0  0  0  0
 20 21  2  0  0  0  0
 20 53  1  0  0  0  0
 21 22  1  0  0  0  0
 22 23  2  0  0  0  0
 22 24  1  0  0  0  0
 24 25  1  0  0  0  0
 24 54  1  0  0  0  0
 25 26  1  0  0  0  0
 25 55  1  0  0  0  0
 25 56  1  0  0  0  0
 26 31  1  0  0  0  0
 26 27  2  0  0  0  0
 27 28  1  0  0  0  0
 28 29  2  0  0  0  0
 28 57  1  0  0  0  0
 29 30  1  0  0  0  0
 29 58  1  0  0  0  0
 30 31  2  0  0  0  0
 30 59  1  0  0  0  0
 32 33  2  0  0  0  0
 32 60  1  0  0  0  0
 33 34  1  0  0  0  0
M  END
> <s_m_source_file>
AV-unprocessed.smi

> <i_m_source_file_index>
45

> <i_lp_mmshare_version>
43012

> <i_f3d_flags>
0

> <s_epik_input>
W0NIM11PYzFbY0hdW2NIXWMoW2NIXWMxQ2wpW0NIMl1bTkhdYzJuYyhOM1tDSDJdW0NIMl1bQ0gyXVtDQEhdM1tDSDJdW09IXSluW2NIXWMyQyg9TylbTkhdW0NIMl1jNG5bY0hdW2NIXVtjSF1uNA==

> <s_epik_cmdline>
J2VwaWtfcHl0aG9uJywgJy1waCcsICc3LjAnLCAnLXRuJywgJzgnLCAnLW1hJywgJzIwMCcsICctbWV0YWxfYmluZGluZycsICctaW1hZScsICc8aW5maWxlLm1hZT4nLCAnLW9tYWUnLCAnPG91dGZpbGUubWFlPic=

> <r_lp_tautomer_probability>
1

> <r_epik_Ionization_Penalty>
0.0522664

> <r_epik_Ionization_Penalty_Charging>
0

> <r_epik_Ionization_Penalty_Neutral>
0.0522664

> <r_epik_State_Penalty>
0.0369431

> <r_epik_Charging_Adjusted_Penalty>
0.0369431

> <i_epik_Tot_Q>
0

> <i_epik_Tot_abs_Q>
0

> <r_epik_Metal_State_Penalty>
0.0404664

> <b_epik_Metal_Only>
0

> <s_epik_Chemistry_Notes>
This compound contains an electron-poor aromatic ring that is susceptible to covalent hydrolysis at low pH, typically resulting in measured values for nitrogen ring protonation that are around two units higher than predicted values.

> <s_lp_Force_Field>
OPLS_2005

> <r_lp_Energy>
32.9916

> <b_lp_Chiralities_Consistent>
1

> <s_lp_Variant>
AV-unprocessed.smi:45-2

> <Gold.Version>
5.8.1

> <Gold.Id.Protein>
6NUR|6NUR_protein|mol2

> <Gold.PLP.Fitness>
61.1966

> <Gold.PLP.PLP>
-51.1872

> <Gold.PLP.part.hbond>
-4.0000

> <Gold.PLP.part.metal>
0.0000

> <Gold.PLP.part.buried>
-6.3791

> <Gold.PLP.part.nonpolar>
-41.1892

> <Gold.PLP.part.repulsive>
0.2776

> <Gold.PLP.ligand.clash>
0.0000

> <Gold.PLP.ligand.torsion>
0.8970

> <Gold.PLP.Chemscore.Hbond>
3.7840

> <Gold.PLP.Chemscore.CHOScore>
0.0000

> <Gold.PLP.Chemscore.Metal>
0.0000

> <Gold.Chemscore.Hbonds>
donor molecule, donor type, donor heavy atom, donor atom, acceptor molecule, acceptor atom, score
      L1  H    18    52       P1 10747  1.00
      P1  H  6896  6907       L1    23  1.00
      P1  H  6931  6943       L1    31  1.00
      P1  H  6934  6947       L1    31  0.35

> <Gold.PLP.Chemscore.Internal.Correction>
0.4515

> <Gold.Rescore>
     Score         DG    S(hbond)    S(metal)    S(lipo)     H(rot)  DE(clash)    DE(int)     intcor
     16.47     -20.86       3.11        0.00     106.16       2.90       0.05       4.34       ----

> <Gold.Chemscore.Fitness>
16.4689

> <Gold.Chemscore.DG>
-20.8628

> <Gold.Chemscore.ZeroCoef>
-5.4800

> <Gold.Chemscore.Hbond>
3.1088

> <Gold.Chemscore.Metal>
0.0000

> <Gold.Chemscore.Lipo>
106.1577

> <Gold.Chemscore.Internal_Hbond>
0.0000

> <Gold.Chemscore.DEClash>
0.0514

> <Gold.Chemscore.DEInternal>
4.3425

> <Gold.Chemscore.Rot>
2.8988

> <Gold.Chemscore.Internal.Correction>
   9.000000E+99

> <Gold.Chemscore.Hbonds>
donor molecule, donor type, donor heavy atom, donor atom, acceptor molecule, acceptor atom, score
      L1  H    18    52       P1 10747  1.00
      P1  H  6896  6907       L1    23  1.00
      P1  H  6931  6943       L1    31  0.82
      P1  H  6934  6947       L1    31  0.29

> <Gold.Chemscore.Hbond.Weighted>
-10.3832

> <Gold.Chemscore.Metal.Weighted>
-0.0000

> <Gold.Chemscore.Lipo.Weighted>
-12.4205

> <Gold.Chemscore.Internal_Hbond.Weighted>
0.0000

> <Gold.Chemscore.DEClash.Weighted>
0.0514

> <Gold.Chemscore.DEInternal.Weighted>
4.3425

> <Gold.Chemscore.Rot.Weighted>
7.4209

> <Gold.Chemscore.Internal.Correction.Weighted>
   9.000000E+99

> <Gold.Protein.RotatedTorsions>
[ 6907 6896 6895 6894 ] final  -95.03 input  -60.11 | X-H torsion
[ 7974 7965 7964 7962 ] final -107.48 input  175.53 | X-H torsion
[ 8008 7997 7996 7995 ] final    6.66 input   59.86 | X-H torsion
[ 10167 10162 10161 10158 ] final -150.39 input  -65.29 | X-H torsion
[ 10718 10713 10712 10709 ] final  -48.53 input   66.30 | X-H torsion
[ 10763 10752 10751 10750 ] final   59.53 input  -60.55 | X-H torsion
[ 11005 11000 10999 10996 ] final -136.37 input  -57.11 | X-H torsion

> <Gold.Protein.ActiveResidues>
 VAL166  LYS551  ARG553  GLY616  TRP617  ASP618  TYR619  PRO620  LYS621  CYS622 
 ASP623  PHE694  ASN695  SER759  ASP760  ASP761  ALA762  ILE779  LEU786  VAL792 
 PHE793  MET794  SER795  GLU796  ALA797  LYS798  CYS799  TRP800  GLU811  SER814 

> <Gold.Protein.RotatedAtoms>
  150.6954  134.1721  159.4215 H   0  0  0  0  0  0  0  0  0  0  0  0  # atno 6907 bound_to 6896
  151.9698  135.0080  160.0561 H   0  0  0  0  0  0  0  0  0  0  0  0  # atno 6908 bound_to 6896
  152.1851  133.4699  159.5015 H   0  0  0  0  0  0  0  0  0  0  0  0  # atno 6909 bound_to 6896
  145.2047  140.9071  143.3349 H   0  0  0  0  0  0  0  0  0  0  0  0  # atno 7974 bound_to 7965
  154.7438  140.2754  155.6350 H   0  0  0  0  0  0  0  0  0  0  0  0  # atno 8008 bound_to 7997
  156.2880  140.2692  156.2099 H   0  0  0  0  0  0  0  0  0  0  0  0  # atno 8009 bound_to 7997
  155.0224  140.0371  157.2432 H   0  0  0  0  0  0  0  0  0  0  0  0  # atno 8010 bound_to 7997
  139.7359  143.8737  152.2548 H   0  0  0  0  0  0  0  0  0  0  0  0  # atno 10167 bound_to 10162
  156.1979  130.4155  149.9281 H   0  0  0  0  0  0  0  0  0  0  0  0  # atno 10718 bound_to 10713
  152.9897  135.5568  154.5728 H   0  0  0  0  0  0  0  0  0  0  0  0  # atno 10763 bound_to 10752
  154.5125  135.2803  155.1333 H   0  0  0  0  0  0  0  0  0  0  0  0  # atno 10764 bound_to 10752
  154.2719  135.6361  153.5366 H   0  0  0  0  0  0  0  0  0  0  0  0  # atno 10765 bound_to 10752
  140.8812  134.1930  157.4590 H   0  0  0  0  0  0  0  0  0  0  0  0  # atno 11005 bound_to 11000
  144.9913  139.3686  143.6213 LP  0  0  0  0  0  0  0  0  0  0  0  0  # atno 17320 bound_to 7965
  146.3410  139.9097  142.8782 LP  0  0  0  0  0  0  0  0  0  0  0  0  # atno 17321 bound_to 7965
  139.8673  144.7086  150.9028 LP  0  0  0  0  0  0  0  0  0  0  0  0  # atno 17342 bound_to 10162
  140.7778  143.3767  151.1550 LP  0  0  0  0  0  0  0  0  0  0  0  0  # atno 17343 bound_to 10162
  156.6999  130.8929  151.3598 LP  0  0  0  0  0  0  0  0  0  0  0  0  # atno 17370 bound_to 10713
  157.6969  130.9291  150.0669 LP  0  0  0  0  0  0  0  0  0  0  0  0  # atno 17371 bound_to 10713
  139.8720  134.9818  156.5130 LP  0  0  0  0  0  0  0  0  0  0  0  0  # atno 17394 bound_to 11000
  140.8459  133.8169  155.9121 LP  0  0  0  0  0  0  0  0  0  0  0  0  # atno 17395 bound_to 11000

$$$$
