#       Name:                AV-unprocessed.smi:2072
#       Creating user name   scv26
#       Creation time:       Fri Mar 27 11:14:21 2020


#       File generated by GOLD software.
#

@<TRIPOS>MOLECULE
AV-unprocessed.smi:2072
    43    45     1
SMALL
NO_CHARGES


@<TRIPOS>ATOM
      1 ****         1.5781   1.1480  -0.9301 O.2            1 S1                 0.0000
      2 ****         1.2869  -0.0336  -1.1114 C.2            1 S1                 0.0000
      3 ****         2.1612  -1.0438  -1.2591 N.am           1 S1                 0.0000
      4 ****         3.5824  -1.0171  -1.2103 C.ar           1 S1                 0.0000
      5 ****         4.3546   0.0683  -0.7277 C.ar           1 S1                 0.0000
      6 ****         5.7582  -0.0448  -0.7224 C.ar           1 S1                 0.0000
      7 ****         6.3397  -1.2377  -1.1930 C.ar           1 S1                 0.0000
      8 ****         5.6175  -2.2832  -1.6472 N.ar           1 S1                 0.0000
      9 ****         4.2726  -2.1673  -1.6498 C.ar           1 S1                 0.0000
     10 ****         0.0227  -0.4722  -1.1914 N.am           1 S1                 0.0000
     11 ****        -1.1598   0.3771  -1.0716 C.3            1 S1                 0.0000
     12 ****        -2.4440  -0.3038  -1.5272 C.3            1 S1                 0.0000
     13 ****        -3.5366   0.5572  -0.8847 C.3            1 S1                 0.0000
     14 ****        -2.9415   1.1731   0.3272 N.4            1 S1                 1.0000
     15 ****        -3.6982   0.9000   1.5782 C.3            1 S1                 0.0000
     16 ****        -2.8433   1.2079   2.8162 C.3            1 S1                 0.0000
     17 ****        -1.5895   0.3149   2.8713 C.3            1 S1                 0.0000
     18 ****        -1.1723  -0.2021   1.4810 C.3            1 S1                 0.0000
     19 ****        -1.4928   0.8232   0.3654 C.3            1 S1                 0.0000
     20 ****         1.7593  -1.9481  -1.4590 H              1 S1                 0.0000
     21 ****         3.9101   0.9762  -0.3526 H              1 S1                 0.0000
     22 ****         6.3754   0.7645  -0.3616 H              1 S1                 0.0000
     23 ****         7.4131  -1.3564  -1.2006 H              1 S1                 0.0000
     24 ****         3.7282  -3.0251  -2.0174 H              1 S1                 0.0000
     25 ****        -0.1326  -1.4576  -1.3475 H              1 S1                 0.0000
     26 ****        -1.0191   1.2660  -1.6905 H              1 S1                 0.0000
     27 ****        -2.5346  -0.3587  -2.6124 H              1 S1                 0.0000
     28 ****        -2.4953  -1.3200  -1.1332 H              1 S1                 0.0000
     29 ****        -3.8242   1.3623  -1.5618 H              1 S1                 0.0000
     30 ****        -4.4343  -0.0260  -0.6748 H              1 S1                 0.0000
     31 ****        -4.6085   1.5002   1.5803 H              1 S1                 0.0000
     32 ****        -4.0091  -0.1458   1.6101 H              1 S1                 0.0000
     33 ****        -2.5432   2.2565   2.7875 H              1 S1                 0.0000
     34 ****        -3.4291   1.0841   3.7275 H              1 S1                 0.0000
     35 ****        -0.7722   0.8794   3.3218 H              1 S1                 0.0000
     36 ****        -1.7656  -0.5383   3.5275 H              1 S1                 0.0000
     37 ****        -0.1101  -0.4469   1.5000 H              1 S1                 0.0000
     38 ****        -1.6945  -1.1368   1.2722 H              1 S1                 0.0000
     39 ****        -0.9336   1.7334   0.5877 H              1 S1                 0.0000
     40 ****        -2.9770   2.1721   0.1820 H              1 S1                 0.0000
     41 ****         2.5379   1.4247  -0.8818 LP             1 S1                 0.0000
     42 ****         0.8551   1.8317  -0.8310 LP             1 S1                 0.0000
     43 ****         6.0643  -3.1170  -1.9714 LP             1 S1                 0.0000
@<TRIPOS>BOND
    1    1    2 2     
    2    2    3 am    
    3    2   10 am    
    4    3    4 1     
    5    3   20 1     
    6    4    9 ar    
    7    4    5 ar    
    8    5    6 ar    
    9    5   21 1     
   10    6    7 ar    
   11    6   22 1     
   12    7    8 ar    
   13    7   23 1     
   14    8    9 ar    
   15    9   24 1     
   16   10   11 1     
   17   10   25 1     
   18   11   19 1     
   19   11   12 1     
   20   11   26 1     
   21   12   13 1     
   22   12   27 1     
   23   12   28 1     
   24   13   14 1     
   25   13   29 1     
   26   13   30 1     
   27   14   19 1     
   28   14   15 1     
   29   14   40 1     
   30   15   16 1     
   31   15   31 1     
   32   15   32 1     
   33   16   17 1     
   34   16   33 1     
   35   16   34 1     
   36   17   18 1     
   37   17   35 1     
   38   17   36 1     
   39   18   19 1     
   40   18   37 1     
   41   18   38 1     
   42   19   39 1     
   43    1   41 1     
   44    1   42 1     
   45    8   43 1     
@<TRIPOS>SUBSTRUCTURE
      1 S1             1
@<TRIPOS>SET
LONE_PAIRS      STATIC     ATOMS    <user>   **** ""
3 41 42 43
DONOR_HYDROGENS      STATIC     ATOMS    <user>   **** ""
3 20 25 40
ATOM$BLUE        STATIC     ATOMS    COLORGROUP SYSTEM
3 41 42 43
ATOM$RED        STATIC     ATOMS    COLORGROUP SYSTEM
3 20 25 40
