AV-unprocessed.smi:1381|AV-procd|sdf|5610|dock9
  -GOLD-   22720 5223D 1   1.00000     0.00000
 Structure written by MMmdl.
 41 42  0  0  0  0  0  0  0  0  2 V2000
  144.3504  143.0012  154.9873 C   0  0  0  0  0  0  0  0  0  0  0  0
  145.7475  142.4840  154.9572 C   0  0  0  0  0  0  0  0  0  0  0  0
  146.7926  142.6779  154.0992 C   0  0  0  0  0  0  0  0  0  0  0  0
  147.8302  141.8895  154.6676 C   0  0  0  0  0  0  0  0  0  0  0  0
  149.0683  141.7420  154.1715 N   0  5  0  0  0  0  0  0  0  0  0  0
  149.9397  140.8886  154.7576 C   0  0  0  0  0  0  0  0  0  0  0  0
  150.6197  140.0321  154.1873 O   0  0  0  0  0  0  0  0  0  0  0  0
  150.0232  141.0325  156.0881 N   0  0  0  0  0  0  0  0  0  0  0  0
  150.8621  140.2428  156.9825 C   0  0  0  0  0  0  0  0  0  0  0  0
  150.4602  140.4525  158.4548 C   0  0  0  0  0  0  0  0  0  0  0  0
  151.1863  141.5153  159.1482 N   0  0  0  0  0  0  0  0  0  0  0  0
  151.4332  142.6422  158.2582 C   0  0  0  0  0  0  0  0  0  0  0  0
  152.1556  143.7955  158.9768 C   0  0  2  0  0  0  0  0  0  0  0  0
  152.4858  144.9502  158.0255 C   0  0  0  0  0  0  0  0  0  0  0  0
  153.3775  143.3139  159.5332 O   0  0  0  0  0  0  0  0  0  0  0  0
  153.2481  142.1835  160.3975 C   0  0  1  0  0  0  0  0  0  0  0  0
  152.6636  142.5758  161.7651 C   0  0  0  0  0  0  0  0  0  0  0  0
  152.4604  141.0573  159.6977 C   0  0  0  0  0  0  0  0  0  0  0  0
  147.4434  141.2592  155.7642 N   0  0  0  0  0  0  0  0  0  0  0  0
  146.1104  141.6405  155.9603 O   0  0  0  0  0  0  0  0  0  0  0  0
  143.6415  142.2093  154.7462 H   0  0  0  0  0  0  0  0  0  0  0  0
  144.2181  143.8060  154.2640 H   0  0  0  0  0  0  0  0  0  0  0  0
  144.1024  143.3906  155.9748 H   0  0  0  0  0  0  0  0  0  0  0  0
  146.8141  143.2879  153.2088 H   0  0  0  0  0  0  0  0  0  0  0  0
  149.4504  141.7471  156.5128 H   0  0  0  0  0  0  0  0  0  0  0  0
  150.8055  139.1863  156.7153 H   0  0  0  0  0  0  0  0  0  0  0  0
  151.8921  140.5534  156.8128 H   0  0  0  0  0  0  0  0  0  0  0  0
  149.3866  140.6371  158.5174 H   0  0  0  0  0  0  0  0  0  0  0  0
  150.6316  139.5140  158.9836 H   0  0  0  0  0  0  0  0  0  0  0  0
  152.0267  142.3141  157.4032 H   0  0  0  0  0  0  0  0  0  0  0  0
  150.4871  143.0082  157.8573 H   0  0  0  0  0  0  0  0  0  0  0  0
  151.5207  144.1812  159.7750 H   0  0  0  0  0  0  0  0  0  0  0  0
  151.5800  145.3628  157.5809 H   0  0  0  0  0  0  0  0  0  0  0  0
  153.1370  144.6210  157.2155 H   0  0  0  0  0  0  0  0  0  0  0  0
  152.9936  145.7572  158.5541 H   0  0  0  0  0  0  0  0  0  0  0  0
  154.2600  141.8203  160.5786 H   0  0  0  0  0  0  0  0  0  0  0  0
  152.6757  141.7263  162.4483 H   0  0  0  0  0  0  0  0  0  0  0  0
  151.6311  142.9155  161.6874 H   0  0  0  0  0  0  0  0  0  0  0  0
  153.2457  143.3761  162.2222 H   0  0  0  0  0  0  0  0  0  0  0  0
  152.3019  140.2457  160.4070 H   0  0  0  0  0  0  0  0  0  0  0  0
  153.0733  140.6473  158.8934 H   0  0  0  0  0  0  0  0  0  0  0  0
  1  2  1  0  0  0  0
  1 21  1  0  0  0  0
  1 22  1  0  0  0  0
  1 23  1  0  0  0  0
  2 20  1  0  0  0  0
  2  3  2  0  0  0  0
  3  4  1  0  0  0  0
  3 24  1  0  0  0  0
  4  5  1  0  0  0  0
  4 19  2  0  0  0  0
  5  6  1  0  0  0  0
  6  7  2  0  0  0  0
  6  8  1  0  0  0  0
  8  9  1  0  0  0  0
  8 25  1  0  0  0  0
  9 10  1  0  0  0  0
  9 26  1  0  0  0  0
  9 27  1  0  0  0  0
 10 11  1  0  0  0  0
 10 28  1  0  0  0  0
 10 29  1  0  0  0  0
 11 18  1  0  0  0  0
 11 12  1  0  0  0  0
 12 13  1  0  0  0  0
 12 30  1  0  0  0  0
 12 31  1  0  0  0  0
 13 14  1  0  0  0  0
 13 15  1  0  0  0  0
 13 32  1  0  0  0  0
 14 33  1  0  0  0  0
 14 34  1  0  0  0  0
 14 35  1  0  0  0  0
 15 16  1  0  0  0  0
 16 17  1  0  0  0  0
 16 18  1  0  0  0  0
 16 36  1  0  0  0  0
 17 37  1  0  0  0  0
 17 38  1  0  0  0  0
 17 39  1  0  0  0  0
 18 40  1  0  0  0  0
 18 41  1  0  0  0  0
 19 20  1  0  0  0  0
M  CHG  1   5  -1
M  END
> <s_m_source_file>
AV-unprocessed.smi

> <i_m_source_file_index>
1381

> <i_lp_mmshare_version>
43012

> <i_f3d_flags>
0

> <s_epik_input>
W0NIM11jMVtjSF1jKG5vMSlbTkhdQyg9TylbTkhdW0NIMl1bQ0gyXU4yW0NIMl1bQ0BASF0oW0NIM10pT1tDQEBIXShbQ0gzXSlbQ0gyXTI=

> <s_epik_cmdline>
J2VwaWtfcHl0aG9uJywgJy1waCcsICc3LjAnLCAnLXRuJywgJzgnLCAnLW1hJywgJzIwMCcsICctbWV0YWxfYmluZGluZycsICctaW1hZScsICc8aW5maWxlLm1hZT4nLCAnLW9tYWUnLCAnPG91dGZpbGUubWFlPic=

> <r_epik_Ionization_Penalty>
6.88366

> <r_epik_Ionization_Penalty_Charging>
6.57198

> <r_epik_Ionization_Penalty_Neutral>
0.311678

> <r_epik_State_Penalty>
6.77619

> <r_epik_Charging_Adjusted_Penalty>
13.3482

> <i_epik_Tot_Q>
-1

> <i_epik_Tot_abs_Q>
1

> <r_epik_Metal_State_Penalty>
2.70524

> <b_epik_Metal_Only>
1

> <s_lp_Force_Field>
OPLS_2005

> <r_lp_Energy>
15.7401

> <b_lp_Chiralities_Consistent>
1

> <s_lp_Variant>
AV-unprocessed.smi:1381-9

> <Gold.Version>
5.8.1

> <Gold.Id.Protein>
6NUR|6NUR_protein|mol2

> <Gold.PLP.Fitness>
42.7502

> <Gold.PLP.PLP>
-40.4037

> <Gold.PLP.part.hbond>
-2.3743

> <Gold.PLP.part.metal>
0.0000

> <Gold.PLP.part.buried>
-4.9729

> <Gold.PLP.part.nonpolar>
-33.7096

> <Gold.PLP.part.repulsive>
0.5522

> <Gold.PLP.ligand.clash>
0.0041

> <Gold.PLP.ligand.torsion>
0.9712

> <Gold.PLP.Chemscore.Hbond>
1.4155

> <Gold.PLP.Chemscore.CHOScore>
0.0000

> <Gold.PLP.Chemscore.Metal>
0.0000

> <Gold.Chemscore.Hbonds>
donor molecule, donor type, donor heavy atom, donor atom, acceptor molecule, acceptor atom, score
      P1  H  7989  7998       L1     7  0.88
      P1  H  8011  8017       L1     5  0.45

> <Gold.PLP.Chemscore.Internal.Correction>
0.0465

> <Gold.Rescore>
     Score         DG    S(hbond)    S(metal)    S(lipo)     H(rot)  DE(clash)    DE(int)     intcor
     12.42     -15.12       0.90        0.00      90.35       1.54       0.08       2.63       ----

> <Gold.Chemscore.Fitness>
12.4189

> <Gold.Chemscore.DG>
-15.1207

> <Gold.Chemscore.ZeroCoef>
-5.4800

> <Gold.Chemscore.Hbond>
0.9024

> <Gold.Chemscore.Metal>
0.0000

> <Gold.Chemscore.Lipo>
90.3523

> <Gold.Chemscore.Internal_Hbond>
0.0000

> <Gold.Chemscore.DEClash>
0.0754

> <Gold.Chemscore.DEInternal>
2.6264

> <Gold.Chemscore.Rot>
1.5409

> <Gold.Chemscore.Internal.Correction>
   9.000000E+99

> <Gold.Chemscore.Hbonds>
donor molecule, donor type, donor heavy atom, donor atom, acceptor molecule, acceptor atom, score
      P1  H  7989  7998       L1     7  0.30
      P1  H  8011  8017       L1     5  0.34

> <Gold.Chemscore.Hbond.Weighted>
-3.0141

> <Gold.Chemscore.Metal.Weighted>
-0.0000

> <Gold.Chemscore.Lipo.Weighted>
-10.5712

> <Gold.Chemscore.Internal_Hbond.Weighted>
0.0000

> <Gold.Chemscore.DEClash.Weighted>
0.0754

> <Gold.Chemscore.DEInternal.Weighted>
2.6264

> <Gold.Chemscore.Rot.Weighted>
3.9446

> <Gold.Chemscore.Internal.Correction.Weighted>
   9.000000E+99

> <Gold.Protein.RotatedTorsions>
[ 6907 6896 6895 6894 ] final -178.72 input  -60.11 | X-H torsion
[ 7974 7965 7964 7962 ] final  167.85 input  175.53 | X-H torsion
[ 8008 7997 7996 7995 ] final  135.11 input   59.86 | X-H torsion
[ 10167 10162 10161 10158 ] final -145.91 input  -65.29 | X-H torsion
[ 10718 10713 10712 10709 ] final  -45.86 input   66.30 | X-H torsion
[ 10763 10752 10751 10750 ] final    5.88 input  -60.55 | X-H torsion
[ 11005 11000 10999 10996 ] final   92.46 input  -57.11 | X-H torsion

> <Gold.Protein.ActiveResidues>
 VAL166  LYS551  ARG553  GLY616  TRP617  ASP618  TYR619  PRO620  LYS621  CYS622 
 ASP623  PHE694  ASN695  SER759  ASP760  ASP761  ALA762  ILE779  LEU786  VAL792 
 PHE793  MET794  SER795  GLU796  ALA797  LYS798  CYS799  TRP800  GLU811  SER814 

> <Gold.Protein.RotatedAtoms>
  151.6418  133.3325  159.3131 H   0  0  0  0  0  0  0  0  0  0  0  0  # atno 6907 bound_to 6896
  150.8004  134.7097  159.6606 H   0  0  0  0  0  0  0  0  0  0  0  0  # atno 6908 bound_to 6896
  152.4095  134.6153  160.0088 H   0  0  0  0  0  0  0  0  0  0  0  0  # atno 6909 bound_to 6896
  144.7409  139.8822  143.6397 H   0  0  0  0  0  0  0  0  0  0  0  0  # atno 7974 bound_to 7965
  156.3002  140.2479  156.3527 H   0  0  0  0  0  0  0  0  0  0  0  0  # atno 8008 bound_to 7997
  154.8950  140.0408  157.1880 H   0  0  0  0  0  0  0  0  0  0  0  0  # atno 8009 bound_to 7997
  154.8558  140.2913  155.5573 H   0  0  0  0  0  0  0  0  0  0  0  0  # atno 8010 bound_to 7997
  139.7762  143.8166  152.2632 H   0  0  0  0  0  0  0  0  0  0  0  0  # atno 10167 bound_to 10162
  156.2240  130.4168  149.8956 H   0  0  0  0  0  0  0  0  0  0  0  0  # atno 10718 bound_to 10713
  153.2542  135.6916  153.7647 H   0  0  0  0  0  0  0  0  0  0  0  0  # atno 10763 bound_to 10752
  153.6730  135.3341  155.3159 H   0  0  0  0  0  0  0  0  0  0  0  0  # atno 10764 bound_to 10752
  154.8406  135.4504  154.1509 H   0  0  0  0  0  0  0  0  0  0  0  0  # atno 10765 bound_to 10752
  139.8823  134.8734  156.3576 H   0  0  0  0  0  0  0  0  0  0  0  0  # atno 11005 bound_to 11000
  146.1203  139.4220  143.0232 LP  0  0  0  0  0  0  0  0  0  0  0  0  # atno 17320 bound_to 7965
  145.7314  141.0041  143.1350 LP  0  0  0  0  0  0  0  0  0  0  0  0  # atno 17321 bound_to 7965
  139.8215  144.7293  150.9566 LP  0  0  0  0  0  0  0  0  0  0  0  0  # atno 17342 bound_to 10162
  140.7816  143.4154  151.0925 LP  0  0  0  0  0  0  0  0  0  0  0  0  # atno 17343 bound_to 10162
  156.6593  130.8775  151.3544 LP  0  0  0  0  0  0  0  0  0  0  0  0  # atno 17370 bound_to 10713
  157.7102  130.9431  150.1062 LP  0  0  0  0  0  0  0  0  0  0  0  0  # atno 17371 bound_to 10713
  140.9551  133.7425  156.0325 LP  0  0  0  0  0  0  0  0  0  0  0  0  # atno 17394 bound_to 11000
  140.8058  134.3457  157.5426 LP  0  0  0  0  0  0  0  0  0  0  0  0  # atno 17395 bound_to 11000

$$$$
