AV-unprocessed.smi:3303|AV-procd|sdf|12681|dock7
  -GOLD-   2272019 13D 1   1.00000     0.00000
 Structure written by MMmdl.
 44 45  0  0  0  0  0  0  0  0  2 V2000
  147.6140  140.8314  153.8811 C   0  0  0  0  0  0  0  0  0  0  0  0
  148.3495  139.4841  153.9956 C   0  0  2  0  0  0  0  0  0  0  0  0
  147.3309  138.3375  154.1483 C   0  0  0  0  0  0  0  0  0  0  0  0
  147.9881  137.0077  154.2373 N   0  3  2  0  0  0  0  0  0  0  0  0
  146.9827  135.9175  154.2213 C   0  0  0  0  0  0  0  0  0  0  0  0
  148.9454  136.9375  155.3809 C   0  0  1  0  0  0  0  0  0  0  0  0
  149.6511  135.5712  155.4855 C   0  0  0  0  0  0  0  0  0  0  0  0
  149.9991  138.0554  155.2559 C   0  0  0  0  0  0  0  0  0  0  0  0
  149.3572  139.4490  155.1666 C   0  0  1  0  0  0  0  0  0  0  0  0
  150.4283  140.4101  154.9372 N   0  0  0  0  0  0  0  0  0  0  0  0
  151.1862  140.6716  156.1530 C   0  0  0  0  0  0  0  0  0  0  0  0
  150.9536  142.1088  156.6494 C   0  0  0  0  0  0  0  0  0  0  0  0
  151.6072  142.3914  157.9922 C   0  0  0  0  0  0  0  0  0  0  0  0
  151.7420  143.7171  158.4569 C   0  0  0  0  0  0  0  0  0  0  0  0
  152.3729  143.9332  159.6974 C   0  0  0  0  0  0  0  0  0  0  0  0
  152.8448  142.8213  160.4211 C   0  0  0  0  0  0  0  0  0  0  0  0
  152.6624  141.5373  159.8705 C   0  0  0  0  0  0  0  0  0  0  0  0
  152.0580  141.3190  158.6828 N   0  0  0  0  0  0  0  0  0  0  0  0
  147.0849  141.0747  154.8029 H   0  0  0  0  0  0  0  0  0  0  0  0
  146.8824  140.8112  153.0729 H   0  0  0  0  0  0  0  0  0  0  0  0
  148.3037  141.6478  153.6654 H   0  0  0  0  0  0  0  0  0  0  0  0
  148.8937  139.3244  153.0629 H   0  0  0  0  0  0  0  0  0  0  0  0
  146.7160  138.4960  155.0361 H   0  0  0  0  0  0  0  0  0  0  0  0
  146.6537  138.3454  153.2929 H   0  0  0  0  0  0  0  0  0  0  0  0
  146.4175  135.8925  155.1540 H   0  0  0  0  0  0  0  0  0  0  0  0
  147.4488  134.9442  154.0709 H   0  0  0  0  0  0  0  0  0  0  0  0
  146.2764  136.0533  153.4015 H   0  0  0  0  0  0  0  0  0  0  0  0
  148.3830  137.0968  156.3028 H   0  0  0  0  0  0  0  0  0  0  0  0
  150.4115  135.5862  156.2667 H   0  0  0  0  0  0  0  0  0  0  0  0
  150.1455  135.3043  154.5510 H   0  0  0  0  0  0  0  0  0  0  0  0
  148.9587  134.7706  155.7447 H   0  0  0  0  0  0  0  0  0  0  0  0
  150.6741  138.0214  156.1123 H   0  0  0  0  0  0  0  0  0  0  0  0
  150.6145  137.8728  154.3726 H   0  0  0  0  0  0  0  0  0  0  0  0
  148.8426  139.6562  156.1067 H   0  0  0  0  0  0  0  0  0  0  0  0
  151.0544  140.0751  154.2188 H   0  0  0  0  0  0  0  0  0  0  0  0
  150.9090  139.9645  156.9355 H   0  0  0  0  0  0  0  0  0  0  0  0
  152.2455  140.5198  155.9430 H   0  0  0  0  0  0  0  0  0  0  0  0
  151.3524  142.8112  155.9164 H   0  0  0  0  0  0  0  0  0  0  0  0
  149.8846  142.3178  156.7138 H   0  0  0  0  0  0  0  0  0  0  0  0
  151.3750  144.5504  157.8760 H   0  0  0  0  0  0  0  0  0  0  0  0
  152.4946  144.9335  160.0854 H   0  0  0  0  0  0  0  0  0  0  0  0
  153.3353  142.9490  161.3748 H   0  0  0  0  0  0  0  0  0  0  0  0
  153.0138  140.6622  160.3968 H   0  0  0  0  0  0  0  0  0  0  0  0
  148.5348  136.9035  153.3943 H   0  0  0  0  0  0  0  0  0  0  0  0
  1  2  1  0  0  0  0
  1 19  1  0  0  0  0
  1 20  1  0  0  0  0
  1 21  1  0  0  0  0
  2  9  1  0  0  0  0
  2  3  1  0  0  0  0
  2 22  1  0  0  0  0
  3  4  1  0  0  0  0
  3 23  1  0  0  0  0
  3 24  1  0  0  0  0
  4  5  1  0  0  0  0
  4  6  1  0  0  0  0
  4 44  1  0  0  0  0
  5 25  1  0  0  0  0
  5 26  1  0  0  0  0
  5 27  1  0  0  0  0
  6  7  1  0  0  0  0
  6  8  1  0  0  0  0
  6 28  1  0  0  0  0
  7 29  1  0  0  0  0
  7 30  1  0  0  0  0
  7 31  1  0  0  0  0
  8  9  1  0  0  0  0
  8 32  1  0  0  0  0
  8 33  1  0  0  0  0
  9 10  1  0  0  0  0
  9 34  1  0  0  0  0
 10 11  1  0  0  0  0
 10 35  1  0  0  0  0
 11 12  1  0  0  0  0
 11 36  1  0  0  0  0
 11 37  1  0  0  0  0
 12 13  1  0  0  0  0
 12 38  1  0  0  0  0
 12 39  1  0  0  0  0
 13 18  1  0  0  0  0
 13 14  2  0  0  0  0
 14 15  1  0  0  0  0
 14 40  1  0  0  0  0
 15 16  2  0  0  0  0
 15 41  1  0  0  0  0
 16 17  1  0  0  0  0
 16 42  1  0  0  0  0
 17 18  2  0  0  0  0
 17 43  1  0  0  0  0
M  CHG  1   4   1
M  END
> <s_m_source_file>
AV-unprocessed.smi

> <i_m_source_file_index>
3303

> <i_lp_mmshare_version>
43012

> <i_f3d_flags>
0

> <s_epik_input>
W0NIM11bQ0BASF0xW0NIMl1OKFtDSDNdKVtDQEBIXShbQ0gzXSlbQ0gyXVtDQEhdMVtOSF1bQ0gyXVtDSDJdYzJbY0hdW2NIXVtjSF1bY0hdbjI=

> <s_epik_cmdline>
J2VwaWtfcHl0aG9uJywgJy1waCcsICc3LjAnLCAnLXRuJywgJzgnLCAnLW1hJywgJzIwMCcsICctbWV0YWxfYmluZGluZycsICctaW1hZScsICc8aW5maWxlLm1hZT4nLCAnLW9tYWUnLCAnPG91dGZpbGUubWFlPic=

> <r_epik_Ionization_Penalty>
2.31085

> <r_epik_Ionization_Penalty_Charging>
0.000313057

> <r_epik_Ionization_Penalty_Neutral>
2.31054

> <r_epik_State_Penalty>
2.4087

> <r_epik_Charging_Adjusted_Penalty>
2.40902

> <i_epik_Tot_Q>
1

> <i_epik_Tot_abs_Q>
1

> <r_epik_Metal_State_Penalty>
2.30979

> <b_epik_Metal_Only>
0

> <s_lp_Force_Field>
OPLS_2005

> <r_lp_Energy>
25.5146

> <b_lp_Chiralities_Consistent>
1

> <s_lp_Variant>
AV-unprocessed.smi:3303-25

> <Gold.Version>
5.8.1

> <Gold.Id.Protein>
6NUR|6NUR_protein|mol2

> <Gold.PLP.Fitness>
39.8390

> <Gold.PLP.PLP>
-35.1145

> <Gold.PLP.part.hbond>
-2.0000

> <Gold.PLP.part.metal>
0.0000

> <Gold.PLP.part.buried>
-3.2388

> <Gold.PLP.part.nonpolar>
-28.7232

> <Gold.PLP.part.repulsive>
0.0000

> <Gold.PLP.ligand.clash>
0.0000

> <Gold.PLP.ligand.torsion>
0.6406

> <Gold.PLP.Chemscore.Hbond>
2.0000

> <Gold.PLP.Chemscore.CHOScore>
0.0000

> <Gold.PLP.Chemscore.Metal>
0.0000

> <Gold.Chemscore.Hbonds>
donor molecule, donor type, donor heavy atom, donor atom, acceptor molecule, acceptor atom, score
      L1  H     4    44       P1  7948  2.00

> <Gold.PLP.Chemscore.Internal.Correction>
0.0058

> <Gold.Rescore>
     Score         DG    S(hbond)    S(metal)    S(lipo)     H(rot)  DE(clash)    DE(int)     intcor
     17.16     -17.64       0.99        0.00     104.68       1.33       0.01       0.47       ----

> <Gold.Chemscore.Fitness>
17.1620

> <Gold.Chemscore.DG>
-17.6388

> <Gold.Chemscore.ZeroCoef>
-5.4800

> <Gold.Chemscore.Hbond>
0.9907

> <Gold.Chemscore.Metal>
0.0000

> <Gold.Chemscore.Lipo>
104.6793

> <Gold.Chemscore.Internal_Hbond>
0.0000

> <Gold.Chemscore.DEClash>
0.0098

> <Gold.Chemscore.DEInternal>
0.4670

> <Gold.Chemscore.Rot>
1.3272

> <Gold.Chemscore.Internal.Correction>
   9.000000E+99

> <Gold.Chemscore.Hbonds>
donor molecule, donor type, donor heavy atom, donor atom, acceptor molecule, acceptor atom, score
      L1  H     4    44       P1  7948  0.99

> <Gold.Chemscore.Hbond.Weighted>
-3.3090

> <Gold.Chemscore.Metal.Weighted>
-0.0000

> <Gold.Chemscore.Lipo.Weighted>
-12.2475

> <Gold.Chemscore.Internal_Hbond.Weighted>
0.0000

> <Gold.Chemscore.DEClash.Weighted>
0.0098

> <Gold.Chemscore.DEInternal.Weighted>
0.4670

> <Gold.Chemscore.Rot.Weighted>
3.3976

> <Gold.Chemscore.Internal.Correction.Weighted>
   9.000000E+99

> <Gold.Protein.RotatedTorsions>
[ 6907 6896 6895 6894 ] final -126.37 input  -60.11 | X-H torsion
[ 7974 7965 7964 7962 ] final   56.94 input  175.53 | X-H torsion
[ 8008 7997 7996 7995 ] final  -77.77 input   59.86 | X-H torsion
[ 10167 10162 10161 10158 ] final  -41.28 input  -65.29 | X-H torsion
[ 10718 10713 10712 10709 ] final  -21.02 input   66.30 | X-H torsion
[ 10763 10752 10751 10750 ] final   13.08 input  -60.55 | X-H torsion
[ 11005 11000 10999 10996 ] final -131.09 input  -57.11 | X-H torsion

> <Gold.Protein.ActiveResidues>
 VAL166  LYS551  ARG553  GLY616  TRP617  ASP618  TYR619  PRO620  LYS621  CYS622 
 ASP623  PHE694  ASN695  SER759  ASP760  ASP761  ALA762  ILE779  LEU786  VAL792 
 PHE793  MET794  SER795  GLU796  ALA797  LYS798  CYS799  TRP800  GLU811  SER814 

> <Gold.Protein.RotatedAtoms>
  150.8962  133.7177  159.2890 H   0  0  0  0  0  0  0  0  0  0  0  0  # atno 6907 bound_to 6896
  151.4711  135.1044  159.9761 H   0  0  0  0  0  0  0  0  0  0  0  0  # atno 6908 bound_to 6896
  152.4850  133.8302  159.7155 H   0  0  0  0  0  0  0  0  0  0  0  0  # atno 6909 bound_to 6896
  145.9344  139.3834  143.0402 H   0  0  0  0  0  0  0  0  0  0  0  0  # atno 7974 bound_to 7965
  154.5627  140.0705  156.8843 H   0  0  0  0  0  0  0  0  0  0  0  0  # atno 8008 bound_to 7997
  155.2781  140.3370  155.4242 H   0  0  0  0  0  0  0  0  0  0  0  0  # atno 8009 bound_to 7997
  156.2055  140.1738  156.7794 H   0  0  0  0  0  0  0  0  0  0  0  0  # atno 8010 bound_to 7997
  140.7008  143.3104  151.3044 H   0  0  0  0  0  0  0  0  0  0  0  0  # atno 10167 bound_to 10162
  156.5238  130.4639  149.6583 H   0  0  0  0  0  0  0  0  0  0  0  0  # atno 10718 bound_to 10713
  153.1757  135.6819  153.8547 H   0  0  0  0  0  0  0  0  0  0  0  0  # atno 10763 bound_to 10752
  153.7896  135.3171  155.3378 H   0  0  0  0  0  0  0  0  0  0  0  0  # atno 10764 bound_to 10752
  154.8027  135.4768  154.0409 H   0  0  0  0  0  0  0  0  0  0  0  0  # atno 10765 bound_to 10752
  140.9289  134.1345  157.4251 H   0  0  0  0  0  0  0  0  0  0  0  0  # atno 11005 bound_to 11000
  145.8384  140.9594  143.0812 LP  0  0  0  0  0  0  0  0  0  0  0  0  # atno 17320 bound_to 7965
  144.6769  140.0252  143.7483 LP  0  0  0  0  0  0  0  0  0  0  0  0  # atno 17321 bound_to 7965
  139.6524  144.0337  152.2636 LP  0  0  0  0  0  0  0  0  0  0  0  0  # atno 17342 bound_to 10162
  139.9878  144.6383  150.7842 LP  0  0  0  0  0  0  0  0  0  0  0  0  # atno 17343 bound_to 10162
  156.3124  130.7236  151.2131 LP  0  0  0  0  0  0  0  0  0  0  0  0  # atno 17370 bound_to 10713
  157.7432  131.0477  150.4961 LP  0  0  0  0  0  0  0  0  0  0  0  0  # atno 17371 bound_to 10713
  139.8792  134.9998  156.5975 LP  0  0  0  0  0  0  0  0  0  0  0  0  # atno 17394 bound_to 11000
  140.7889  133.8599  155.8629 LP  0  0  0  0  0  0  0  0  0  0  0  0  # atno 17395 bound_to 11000

$$$$
