AV-unprocessed.smi:822|AV-procd|sdf|3842|dock6
  -GOLD-   22720 1283D 1   1.00000     0.00000
 Structure written by MMmdl.
 39 40  0  0  0  0  0  0  0  0  2 V2000
  151.8437  141.1940  157.0901 O   0  0  0  0  0  0  0  0  0  0  0  0
  151.1592  142.2106  156.9729 C   0  0  0  0  0  0  0  0  0  0  0  0
  151.4158  143.4232  157.8740 C   0  0  0  0  0  0  0  0  0  0  0  0
  151.7072  143.0558  159.3468 C   0  0  0  0  0  0  0  0  0  0  0  0
  151.9305  144.3293  160.1889 C   0  0  0  0  0  0  0  0  0  0  0  0
  152.2210  143.9992  161.6618 C   0  0  0  0  0  0  0  0  0  0  0  0
  153.4235  143.0531  161.7928 C   0  0  0  0  0  0  0  0  0  0  0  0
  153.2095  141.7755  160.9684 C   0  0  0  0  0  0  0  0  0  0  0  0
  152.9170  142.1033  159.4951 C   0  0  0  0  0  0  0  0  0  0  0  0
  150.1643  142.3285  156.0803 N   0  0  0  0  0  0  0  0  0  0  0  0
  149.7661  141.2942  155.1336 C   0  0  0  0  0  0  0  0  0  0  0  0
  148.2617  141.3650  154.8241 C   0  0  0  0  0  0  0  0  0  0  0  0
  147.8494  140.3108  153.8965 N   0  0  0  0  0  0  0  0  0  0  0  0
  146.6925  140.2529  153.1627 C   0  0  0  0  0  0  0  0  0  0  0  0
  146.7473  139.0893  152.4393 C   0  0  0  0  0  0  0  0  0  0  0  0
  147.9338  138.4870  152.7627 N   0  3  0  0  0  0  0  0  0  0  0  0
  148.6033  139.2322  153.6485 C   0  0  0  0  0  0  0  0  0  0  0  0
  152.2378  144.0179  157.4723 H   0  0  0  0  0  0  0  0  0  0  0  0
  150.5297  144.0569  157.8232 H   0  0  0  0  0  0  0  0  0  0  0  0
  150.8295  142.5492  159.7521 H   0  0  0  0  0  0  0  0  0  0  0  0
  152.7617  144.9027  159.7762 H   0  0  0  0  0  0  0  0  0  0  0  0
  151.0530  144.9741  160.1294 H   0  0  0  0  0  0  0  0  0  0  0  0
  152.4088  144.9178  162.2184 H   0  0  0  0  0  0  0  0  0  0  0  0
  151.3418  143.5379  162.1132 H   0  0  0  0  0  0  0  0  0  0  0  0
  154.3278  143.5601  161.4542 H   0  0  0  0  0  0  0  0  0  0  0  0
  153.5848  142.7981  162.8406 H   0  0  0  0  0  0  0  0  0  0  0  0
  154.0906  141.1371  161.0384 H   0  0  0  0  0  0  0  0  0  0  0  0
  152.3800  141.2048  161.3875 H   0  0  0  0  0  0  0  0  0  0  0  0
  152.7412  141.1727  158.9552 H   0  0  0  0  0  0  0  0  0  0  0  0
  153.7996  142.5577  159.0432 H   0  0  0  0  0  0  0  0  0  0  0  0
  149.6537  143.1995  156.0504 H   0  0  0  0  0  0  0  0  0  0  0  0
  150.3421  141.4314  154.2179 H   0  0  0  0  0  0  0  0  0  0  0  0
  150.0330  140.3100  155.5231 H   0  0  0  0  0  0  0  0  0  0  0  0
  147.6675  141.2658  155.7338 H   0  0  0  0  0  0  0  0  0  0  0  0
  148.0049  142.3259  154.3760 H   0  0  0  0  0  0  0  0  0  0  0  0
  145.9364  141.0234  153.2080 H   0  0  0  0  0  0  0  0  0  0  0  0
  146.0496  138.6560  151.7374 H   0  0  0  0  0  0  0  0  0  0  0  0
  149.5636  139.0076  154.0778 H   0  0  0  0  0  0  0  0  0  0  0  0
  148.2600  137.6052  152.3874 H   0  0  0  0  0  0  0  0  0  0  0  0
  1  2  2  0  0  0  0
  2  3  1  0  0  0  0
  2 10  1  0  0  0  0
  3  4  1  0  0  0  0
  3 18  1  0  0  0  0
  3 19  1  0  0  0  0
  4  9  1  0  0  0  0
  4  5  1  0  0  0  0
  4 20  1  0  0  0  0
  5  6  1  0  0  0  0
  5 21  1  0  0  0  0
  5 22  1  0  0  0  0
  6  7  1  0  0  0  0
  6 23  1  0  0  0  0
  6 24  1  0  0  0  0
  7  8  1  0  0  0  0
  7 25  1  0  0  0  0
  7 26  1  0  0  0  0
  8  9  1  0  0  0  0
  8 27  1  0  0  0  0
  8 28  1  0  0  0  0
  9 29  1  0  0  0  0
  9 30  1  0  0  0  0
 10 11  1  0  0  0  0
 10 31  1  0  0  0  0
 11 12  1  0  0  0  0
 11 32  1  0  0  0  0
 11 33  1  0  0  0  0
 12 13  1  0  0  0  0
 12 34  1  0  0  0  0
 12 35  1  0  0  0  0
 13 17  1  0  0  0  0
 13 14  1  0  0  0  0
 14 15  2  0  0  0  0
 14 36  1  0  0  0  0
 15 16  1  0  0  0  0
 15 37  1  0  0  0  0
 16 17  2  0  0  0  0
 16 39  1  0  0  0  0
 17 38  1  0  0  0  0
M  CHG  1  16   1
M  END
> <s_m_source_file>
AV-unprocessed.smi

> <i_m_source_file_index>
822

> <i_lp_mmshare_version>
43012

> <i_f3d_flags>
0

> <s_epik_input>
W0NIMl0xW0NIMl1bQ0gyXVtDSDJdW0NIMl1bQ0hdMVtDSDJdQyg9TylbTkhdW0NIMl1bQ0gyXW4yW2NIXVtjSF1uW2NIXTI=

> <s_epik_cmdline>
J2VwaWtfcHl0aG9uJywgJy1waCcsICc3LjAnLCAnLXRuJywgJzgnLCAnLW1hJywgJzIwMCcsICctbWV0YWxfYmluZGluZycsICctaW1hZScsICc8aW5maWxlLm1hZT4nLCAnLW9tYWUnLCAnPG91dGZpbGUubWFlPic=

> <r_lp_tautomer_probability>
1

> <r_epik_Ionization_Penalty>
0.267085

> <r_epik_Ionization_Penalty_Charging>
0

> <r_epik_Ionization_Penalty_Neutral>
0.267085

> <r_epik_State_Penalty>
0.259064

> <r_epik_Charging_Adjusted_Penalty>
0.259064

> <i_epik_Tot_Q>
1

> <i_epik_Tot_abs_Q>
1

> <r_epik_Metal_State_Penalty>
0.544959

> <b_epik_Metal_Only>
0

> <s_lp_Force_Field>
OPLS_2005

> <r_lp_Energy>
11.7187

> <b_lp_Chiralities_Consistent>
1

> <s_lp_Variant>
AV-unprocessed.smi:822-1

> <Gold.Version>
5.8.1

> <Gold.Id.Protein>
6NUR|6NUR_protein|mol2

> <Gold.PLP.Fitness>
49.9019

> <Gold.PLP.PLP>
-40.3804

> <Gold.PLP.part.hbond>
-3.0000

> <Gold.PLP.part.metal>
0.0000

> <Gold.PLP.part.buried>
-0.8629

> <Gold.PLP.part.nonpolar>
-35.9516

> <Gold.PLP.part.repulsive>
0.1711

> <Gold.PLP.ligand.clash>
0.0000

> <Gold.PLP.ligand.torsion>
0.6673

> <Gold.PLP.Chemscore.Hbond>
3.0000

> <Gold.PLP.Chemscore.CHOScore>
0.6107

> <Gold.PLP.Chemscore.Metal>
0.0000

> <Gold.Chemscore.Hbonds>
donor molecule, donor type, donor heavy atom, donor atom, acceptor molecule, acceptor atom, score
      L1  H    10    31       P1  8028  1.00
      L1  H    16    39       P1  7948  2.00
      L1  C    14    36       P1 10175  0.78

> <Gold.PLP.Chemscore.Internal.Correction>
0.0239

> <Gold.Rescore>
     Score         DG    S(hbond)    S(metal)    S(lipo)     H(rot)  DE(clash)    DE(int)     intcor
     16.79     -19.40       1.98        0.00     107.36       2.05       0.64       1.98       ----

> <Gold.Chemscore.Fitness>
16.7881

> <Gold.Chemscore.DG>
-19.3993

> <Gold.Chemscore.ZeroCoef>
-5.4800

> <Gold.Chemscore.Hbond>
1.9815

> <Gold.Chemscore.Metal>
0.0000

> <Gold.Chemscore.Lipo>
107.3572

> <Gold.Chemscore.Internal_Hbond>
0.0000

> <Gold.Chemscore.DEClash>
0.6361

> <Gold.Chemscore.DEInternal>
1.9750

> <Gold.Chemscore.Rot>
2.0546

> <Gold.Chemscore.Internal.Correction>
   9.000000E+99

> <Gold.Chemscore.Hbonds>
donor molecule, donor type, donor heavy atom, donor atom, acceptor molecule, acceptor atom, score
      L1  H    10    31       P1  8028  1.00
      L1  H    16    39       P1  7948  0.99

> <Gold.Chemscore.Hbond.Weighted>
-6.6182

> <Gold.Chemscore.Metal.Weighted>
-0.0000

> <Gold.Chemscore.Lipo.Weighted>
-12.5608

> <Gold.Chemscore.Internal_Hbond.Weighted>
0.0000

> <Gold.Chemscore.DEClash.Weighted>
0.6361

> <Gold.Chemscore.DEInternal.Weighted>
1.9750

> <Gold.Chemscore.Rot.Weighted>
5.2598

> <Gold.Chemscore.Internal.Correction.Weighted>
   9.000000E+99

> <Gold.Protein.RotatedTorsions>
[ 6907 6896 6895 6894 ] final  177.09 input  -60.11 | X-H torsion
[ 7974 7965 7964 7962 ] final   21.72 input  175.53 | X-H torsion
[ 8008 7997 7996 7995 ] final -143.67 input   59.86 | X-H torsion
[ 10167 10162 10161 10158 ] final -143.55 input  -65.29 | X-H torsion
[ 10718 10713 10712 10709 ] final  -20.70 input   66.30 | X-H torsion
[ 10763 10752 10751 10750 ] final  150.00 input  -60.55 | X-H torsion
[ 11005 11000 10999 10996 ] final   64.67 input  -57.11 | X-H torsion

> <Gold.Protein.ActiveResidues>
 VAL166  LYS551  ARG553  GLY616  TRP617  ASP618  TYR619  PRO620  LYS621  CYS622 
 ASP623  PHE694  ASN695  SER759  ASP760  ASP761  ALA762  ILE779  LEU786  VAL792 
 PHE793  MET794  SER795  GLU796  ALA797  LYS798  CYS799  TRP800  GLU811  SER814 

> <Gold.Protein.RotatedAtoms>
  151.7096  133.3312  159.3287 H   0  0  0  0  0  0  0  0  0  0  0  0  # atno 6907 bound_to 6896
  150.7699  134.6543  159.6315 H   0  0  0  0  0  0  0  0  0  0  0  0  # atno 6908 bound_to 6896
  152.3719  134.6723  160.0225 H   0  0  0  0  0  0  0  0  0  0  0  0  # atno 6909 bound_to 6896
  146.2059  139.7987  142.8726 H   0  0  0  0  0  0  0  0  0  0  0  0  # atno 7974 bound_to 7965
  155.5144  140.0586  157.2918 H   0  0  0  0  0  0  0  0  0  0  0  0  # atno 8008 bound_to 7997
  154.4540  140.1963  156.0382 H   0  0  0  0  0  0  0  0  0  0  0  0  # atno 8009 bound_to 7997
  156.0762  140.3253  155.7640 H   0  0  0  0  0  0  0  0  0  0  0  0  # atno 8010 bound_to 7997
  139.7982  143.7870  152.2656 H   0  0  0  0  0  0  0  0  0  0  0  0  # atno 10167 bound_to 10162
  156.5282  130.4649  149.6560 H   0  0  0  0  0  0  0  0  0  0  0  0  # atno 10718 bound_to 10713
  154.0804  135.2860  155.3291 H   0  0  0  0  0  0  0  0  0  0  0  0  # atno 10763 bound_to 10752
  154.6687  135.5307  153.8114 H   0  0  0  0  0  0  0  0  0  0  0  0  # atno 10764 bound_to 10752
  153.0451  135.6552  154.0979 H   0  0  0  0  0  0  0  0  0  0  0  0  # atno 10765 bound_to 10752
  139.9944  134.6541  156.0036 H   0  0  0  0  0  0  0  0  0  0  0  0  # atno 11005 bound_to 11000
  145.3319  141.0268  143.3441 LP  0  0  0  0  0  0  0  0  0  0  0  0  # atno 17320 bound_to 7965
  144.8793  139.4927  143.6731 LP  0  0  0  0  0  0  0  0  0  0  0  0  # atno 17321 bound_to 7965
  139.7982  144.7384  150.9861 LP  0  0  0  0  0  0  0  0  0  0  0  0  # atno 17342 bound_to 10162
  140.7820  143.4372  151.0605 LP  0  0  0  0  0  0  0  0  0  0  0  0  # atno 17343 bound_to 10162
  156.3084  130.7215  151.2103 LP  0  0  0  0  0  0  0  0  0  0  0  0  # atno 17370 bound_to 10713
  157.7426  131.0487  150.5012 LP  0  0  0  0  0  0  0  0  0  0  0  0  # atno 17371 bound_to 10713
  141.1592  133.6540  156.4262 LP  0  0  0  0  0  0  0  0  0  0  0  0  # atno 17394 bound_to 11000
  140.4847  134.6632  157.5186 LP  0  0  0  0  0  0  0  0  0  0  0  0  # atno 17395 bound_to 11000

$$$$
