AV-unprocessed.smi:2387|AV-procd|sdf|9470|dock10
  -GOLD-   2272013103D 1   1.00000     0.00000
 Structure written by MMmdl.
 48 50  0  0  0  0  0  0  0  0  2 V2000
  144.3185  132.0415  150.0135 C   0  0  0  0  0  0  0  0  0  0  0  0
  144.6913  133.4050  150.5562 C   0  0  0  0  0  0  0  0  0  0  0  0
  145.8774  133.6290  151.2858 C   0  0  0  0  0  0  0  0  0  0  0  0
  146.1607  134.9254  151.7636 C   0  0  0  0  0  0  0  0  0  0  0  0
  145.2444  135.9781  151.5109 C   0  0  0  0  0  0  0  0  0  0  0  0
  145.4413  137.3203  151.9356 N   0  0  0  0  0  0  0  0  0  0  0  0
  146.0718  137.7606  153.0381 C   0  0  0  0  0  0  0  0  0  0  0  0
  146.5869  137.0409  153.8932 O   0  0  0  0  0  0  0  0  0  0  0  0
  146.0606  139.1039  153.1016 N   0  0  0  0  0  0  0  0  0  0  0  0
  146.6163  139.9579  154.1675 C   0  0  0  0  0  0  0  0  0  0  0  0
  145.6582  140.1061  155.3822 C   0  0  0  0  0  0  0  0  0  0  0  0
  146.0062  139.7024  156.4925 O   0  0  0  0  0  0  0  0  0  0  0  0
  144.4531  140.6624  155.1697 N   0  0  0  0  0  0  0  0  0  0  0  0
  143.4317  140.8729  156.1866 C   0  0  0  0  0  0  0  0  0  0  0  0
  143.0862  142.3250  156.4565 C   0  0  0  0  0  0  0  0  0  0  0  0
  142.8214  143.2874  155.3230 C   0  0  0  0  0  0  0  0  0  0  0  0
  144.0810  143.4181  156.1454 C   0  0  0  0  0  0  0  0  0  0  0  0
  147.9587  139.3365  154.6484 C   0  0  0  0  0  0  0  0  0  0  0  0
  149.0784  140.3183  154.2894 C   0  0  0  0  0  0  0  0  0  0  0  0
  148.3932  141.6744  154.2071 C   0  0  0  0  0  0  0  0  0  0  0  0
  147.0304  141.3469  153.6008 C   0  0  0  0  0  0  0  0  0  0  0  0
  144.0839  135.6913  150.7603 C   0  0  0  0  0  0  0  0  0  0  0  0
  143.8497  134.4353  150.3211 N   0  3  0  0  0  0  0  0  0  0  0  0
  145.0805  131.3001  150.2561 H   0  0  0  0  0  0  0  0  0  0  0  0
  144.2138  132.0791  148.9288 H   0  0  0  0  0  0  0  0  0  0  0  0
  143.3722  131.7086  150.4406 H   0  0  0  0  0  0  0  0  0  0  0  0
  146.5676  132.8200  151.4766 H   0  0  0  0  0  0  0  0  0  0  0  0
  147.0810  135.0872  152.3034 H   0  0  0  0  0  0  0  0  0  0  0  0
  144.9950  138.0264  151.3686 H   0  0  0  0  0  0  0  0  0  0  0  0
  145.6094  139.5953  152.3441 H   0  0  0  0  0  0  0  0  0  0  0  0
  144.2314  140.9629  154.2321 H   0  0  0  0  0  0  0  0  0  0  0  0
  142.5207  140.3438  155.9029 H   0  0  0  0  0  0  0  0  0  0  0  0
  143.7768  140.4091  157.1110 H   0  0  0  0  0  0  0  0  0  0  0  0
  142.4983  142.4756  157.3599 H   0  0  0  0  0  0  0  0  0  0  0  0
  142.9215  142.9140  154.3059 H   0  0  0  0  0  0  0  0  0  0  0  0
  142.0441  144.0343  155.4707 H   0  0  0  0  0  0  0  0  0  0  0  0
  144.1437  144.2528  156.8406 H   0  0  0  0  0  0  0  0  0  0  0  0
  145.0191  143.1324  155.6740 H   0  0  0  0  0  0  0  0  0  0  0  0
  147.9664  139.1800  155.7289 H   0  0  0  0  0  0  0  0  0  0  0  0
  148.1537  138.3585  154.2055 H   0  0  0  0  0  0  0  0  0  0  0  0
  149.8958  140.3048  155.0107 H   0  0  0  0  0  0  0  0  0  0  0  0
  149.4925  140.0606  153.3138 H   0  0  0  0  0  0  0  0  0  0  0  0
  148.2676  142.0896  155.2078 H   0  0  0  0  0  0  0  0  0  0  0  0
  148.9556  142.3949  153.6128 H   0  0  0  0  0  0  0  0  0  0  0  0
  147.1441  141.3011  152.5165 H   0  0  0  0  0  0  0  0  0  0  0  0
  146.3017  142.1344  153.7996 H   0  0  0  0  0  0  0  0  0  0  0  0
  143.3323  136.4239  150.5039 H   0  0  0  0  0  0  0  0  0  0  0  0
  142.9987  134.2565  149.7872 H   0  0  0  0  0  0  0  0  0  0  0  0
  1  2  1  0  0  0  0
  1 24  1  0  0  0  0
  1 25  1  0  0  0  0
  1 26  1  0  0  0  0
  2 23  1  0  0  0  0
  2  3  2  0  0  0  0
  3  4  1  0  0  0  0
  3 27  1  0  0  0  0
  4  5  2  0  0  0  0
  4 28  1  0  0  0  0
  5  6  1  0  0  0  0
  5 22  1  0  0  0  0
  6  7  1  0  0  0  0
  6 29  1  0  0  0  0
  7  8  2  0  0  0  0
  7  9  1  0  0  0  0
  9 10  1  0  0  0  0
  9 30  1  0  0  0  0
 10 21  1  0  0  0  0
 10 11  1  0  0  0  0
 10 18  1  0  0  0  0
 11 12  2  0  0  0  0
 11 13  1  0  0  0  0
 13 14  1  0  0  0  0
 13 31  1  0  0  0  0
 14 15  1  0  0  0  0
 14 32  1  0  0  0  0
 14 33  1  0  0  0  0
 15 17  1  0  0  0  0
 15 16  1  0  0  0  0
 15 34  1  0  0  0  0
 16 17  1  0  0  0  0
 16 35  1  0  0  0  0
 16 36  1  0  0  0  0
 17 37  1  0  0  0  0
 17 38  1  0  0  0  0
 18 19  1  0  0  0  0
 18 39  1  0  0  0  0
 18 40  1  0  0  0  0
 19 20  1  0  0  0  0
 19 41  1  0  0  0  0
 19 42  1  0  0  0  0
 20 21  1  0  0  0  0
 20 43  1  0  0  0  0
 20 44  1  0  0  0  0
 21 45  1  0  0  0  0
 21 46  1  0  0  0  0
 22 23  2  0  0  0  0
 22 47  1  0  0  0  0
 23 48  1  0  0  0  0
M  CHG  1  23   1
M  END
> <s_m_source_file>
AV-unprocessed.smi

> <i_m_source_file_index>
2387

> <i_lp_mmshare_version>
43012

> <i_f3d_flags>
0

> <s_epik_input>
W0NIM11jMVtjSF1bY0hdYyhbY0hdbjEpW05IXUMoPU8pW05IXUMyKFtDSDJdW0NIMl1bQ0gyXVtDSDJdMilDKD1PKVtOSF1bQ0gyXVtDSF0zW0NIMl1bQ0gyXTM=

> <s_epik_cmdline>
J2VwaWtfcHl0aG9uJywgJy1waCcsICc3LjAnLCAnLXRuJywgJzgnLCAnLW1hJywgJzIwMCcsICctbWV0YWxfYmluZGluZycsICctaW1hZScsICc8aW5maWxlLm1hZT4nLCAnLW9tYWUnLCAnPG91dGZpbGUubWFlPic=

> <r_epik_Ionization_Penalty>
2.1018

> <r_epik_Ionization_Penalty_Charging>
2.10178

> <r_epik_Ionization_Penalty_Neutral>
2.02976e-05

> <r_epik_State_Penalty>
2.23801

> <r_epik_Charging_Adjusted_Penalty>
4.33979

> <i_epik_Tot_Q>
1

> <i_epik_Tot_abs_Q>
1

> <r_epik_Metal_State_Penalty>
2.25493

> <b_epik_Metal_Only>
0

> <s_lp_Force_Field>
OPLS_2005

> <r_lp_Energy>
37.3987

> <b_lp_Chiralities_Consistent>
1

> <s_lp_Variant>
AV-unprocessed.smi:2387-2

> <Gold.Version>
5.8.1

> <Gold.Id.Protein>
6NUR|6NUR_protein|mol2

> <Gold.PLP.Fitness>
44.2643

> <Gold.PLP.PLP>
-32.4162

> <Gold.PLP.part.hbond>
-4.0000

> <Gold.PLP.part.metal>
0.0000

> <Gold.PLP.part.buried>
-2.6281

> <Gold.PLP.part.nonpolar>
-26.4141

> <Gold.PLP.part.repulsive>
0.1704

> <Gold.PLP.ligand.clash>
0.0000

> <Gold.PLP.ligand.torsion>
1.0076

> <Gold.PLP.Chemscore.Hbond>
4.4124

> <Gold.PLP.Chemscore.CHOScore>
0.0000

> <Gold.PLP.Chemscore.Metal>
0.0000

> <Gold.Chemscore.Hbonds>
donor molecule, donor type, donor heavy atom, donor atom, acceptor molecule, acceptor atom, score
      L1  H     6    29       P1 10171  1.00
      L1  H     9    30       P1 10175  0.39
      L1  H    13    31       P1 10175  0.98
      L1  H    23    48       P1 10186  2.00

> <Gold.PLP.Chemscore.Internal.Correction>
0.6261

> <Gold.Rescore>
     Score         DG    S(hbond)    S(metal)    S(lipo)     H(rot)  DE(clash)    DE(int)     intcor
     18.54     -21.82       3.45        0.00      76.89       1.63       0.26       3.02       ----

> <Gold.Chemscore.Fitness>
18.5438

> <Gold.Chemscore.DG>
-21.8232

> <Gold.Chemscore.ZeroCoef>
-5.4800

> <Gold.Chemscore.Hbond>
3.4480

> <Gold.Chemscore.Metal>
0.0000

> <Gold.Chemscore.Lipo>
76.8908

> <Gold.Chemscore.Internal_Hbond>
0.0000

> <Gold.Chemscore.DEClash>
0.2581

> <Gold.Chemscore.DEInternal>
3.0214

> <Gold.Chemscore.Rot>
1.6286

> <Gold.Chemscore.Internal.Correction>
   9.000000E+99

> <Gold.Chemscore.Hbonds>
donor molecule, donor type, donor heavy atom, donor atom, acceptor molecule, acceptor atom, score
      L1  H     6    29       P1 10171  0.92
      L1  H     9    30       P1 10175  0.39
      L1  H    13    31       P1 10175  0.84
      L1  H    23    48       P1 10186  0.90

> <Gold.Chemscore.Hbond.Weighted>
-11.5162

> <Gold.Chemscore.Metal.Weighted>
-0.0000

> <Gold.Chemscore.Lipo.Weighted>
-8.9962

> <Gold.Chemscore.Internal_Hbond.Weighted>
0.0000

> <Gold.Chemscore.DEClash.Weighted>
0.2581

> <Gold.Chemscore.DEInternal.Weighted>
3.0214

> <Gold.Chemscore.Rot.Weighted>
4.1692

> <Gold.Chemscore.Internal.Correction.Weighted>
   9.000000E+99

> <Gold.Protein.RotatedTorsions>
[ 6907 6896 6895 6894 ] final   75.52 input  -60.11 | X-H torsion
[ 7974 7965 7964 7962 ] final   -5.87 input  175.53 | X-H torsion
[ 8008 7997 7996 7995 ] final  166.72 input   59.86 | X-H torsion
[ 10167 10162 10161 10158 ] final  -47.05 input  -65.29 | X-H torsion
[ 10718 10713 10712 10709 ] final   -6.52 input   66.30 | X-H torsion
[ 10763 10752 10751 10750 ] final -139.43 input  -60.55 | X-H torsion
[ 11005 11000 10999 10996 ] final   -1.72 input  -57.11 | X-H torsion

> <Gold.Protein.ActiveResidues>
 VAL166  LYS551  ARG553  GLY616  TRP617  ASP618  TYR619  PRO620  LYS621  CYS622 
 ASP623  PHE694  ASN695  SER759  ASP760  ASP761  ALA762  ILE779  LEU786  VAL792 
 PHE793  MET794  SER795  GLU796  ALA797  LYS798  CYS799  TRP800  GLU811  SER814 

> <Gold.Protein.RotatedAtoms>
  152.5030  134.4108  159.9447 H   0  0  0  0  0  0  0  0  0  0  0  0  # atno 6907 bound_to 6896
  151.4076  133.3731  159.2747 H   0  0  0  0  0  0  0  0  0  0  0  0  # atno 6908 bound_to 6896
  150.9315  134.8752  159.7614 H   0  0  0  0  0  0  0  0  0  0  0  0  # atno 6909 bound_to 6896
  146.2343  140.2085  142.8335 H   0  0  0  0  0  0  0  0  0  0  0  0  # atno 7974 bound_to 7965
  156.1695  140.1636  156.8473 H   0  0  0  0  0  0  0  0  0  0  0  0  # atno 8008 bound_to 7997
  154.5242  140.0771  156.8262 H   0  0  0  0  0  0  0  0  0  0  0  0  # atno 8009 bound_to 7997
  155.3542  140.3391  155.4242 H   0  0  0  0  0  0  0  0  0  0  0  0  # atno 8010 bound_to 7997
  140.6791  143.2802  151.3871 H   0  0  0  0  0  0  0  0  0  0  0  0  # atno 10167 bound_to 10162
  156.7306  130.5179  149.5846 H   0  0  0  0  0  0  0  0  0  0  0  0  # atno 10718 bound_to 10713
  154.8609  135.3583  154.5545 H   0  0  0  0  0  0  0  0  0  0  0  0  # atno 10763 bound_to 10752
  153.6162  135.7007  153.5333 H   0  0  0  0  0  0  0  0  0  0  0  0  # atno 10764 bound_to 10752
  153.3167  135.4163  155.1343 H   0  0  0  0  0  0  0  0  0  0  0  0  # atno 10765 bound_to 10752
  140.6505  133.9409  155.8377 H   0  0  0  0  0  0  0  0  0  0  0  0  # atno 11005 bound_to 11000
  144.9725  140.8382  143.5446 LP  0  0  0  0  0  0  0  0  0  0  0  0  # atno 17320 bound_to 7965
  145.2069  139.2224  143.5163 LP  0  0  0  0  0  0  0  0  0  0  0  0  # atno 17321 bound_to 7965
  139.6102  144.1113  152.2291 LP  0  0  0  0  0  0  0  0  0  0  0  0  # atno 17342 bound_to 10162
  140.0525  144.5921  150.7325 LP  0  0  0  0  0  0  0  0  0  0  0  0  # atno 17343 bound_to 10162
  156.1531  130.6323  151.0622 LP  0  0  0  0  0  0  0  0  0  0  0  0  # atno 17370 bound_to 10713
  157.6860  131.0824  150.7241 LP  0  0  0  0  0  0  0  0  0  0  0  0  # atno 17371 bound_to 10713
  141.0540  134.0443  157.3746 LP  0  0  0  0  0  0  0  0  0  0  0  0  # atno 17394 bound_to 11000
  139.9047  135.0176  156.7434 LP  0  0  0  0  0  0  0  0  0  0  0  0  # atno 17395 bound_to 11000

$$$$
