#       Name:                AV-unprocessed.smi:835
#       Creating user name   scv26
#       Creation time:       Fri Mar 27 01:34:32 2020


#       File generated by GOLD software.
#

@<TRIPOS>MOLECULE
AV-unprocessed.smi:835
    44    46     1
SMALL
NO_CHARGES


@<TRIPOS>ATOM
      1 ****        -6.7592  -0.4769  -1.4518 C.3            1 S1                 0.0000
      2 ****        -5.4719   0.2030  -1.0900 C.2            1 S1                 0.0000
      3 ****        -4.2125  -0.3988  -0.8011 C.2            1 S1                 0.0000
      4 ****        -3.4138   0.6825  -0.5469 C.2            1 S1                 0.0000
      5 ****        -2.0975   0.7120  -0.2079 N.am           1 S1                 0.0000
      6 ****        -1.2238  -0.3080  -0.1466 C.2            1 S1                 0.0000
      7 ****        -1.4790  -1.4856  -0.3987 O.2            1 S1                 0.0000
      8 ****        -0.0070   0.1167   0.2221 N.am           1 S1                 0.0000
      9 ****         1.1643  -0.7426   0.3586 C.3            1 S1                 0.0000
     10 ****         1.7961  -1.1621  -0.9704 C.3            1 S1                 0.0000
     11 ****         3.2816  -1.3776  -0.6364 C.3            1 S1                 0.0000
     12 ****         3.4998  -0.8373   0.7266 N.4            1 S1                 1.0000
     13 ****         4.7839  -0.1261   0.9001 C.3            1 S1                 0.0000
     14 ****         5.9458  -1.0414   1.2030 C.3            1 S1                 0.0000
     15 ****         5.3330  -0.2037   2.3045 C.3            1 S1                 0.0000
     16 ****         2.3148  -0.0260   1.0583 C.3            1 S1                 0.0000
     17 ****        -4.1643   1.8301  -0.6742 N.pl3          1 S1                 0.0000
     18 ****        -3.7671   3.2142  -0.5045 C.3            1 S1                 0.0000
     19 ****        -5.4362   1.5288  -1.0138 N.2            1 S1                 0.0000
     20 ****        -6.6777  -1.5585  -1.3415 H              1 S1                 0.0000
     21 ****        -7.0343  -0.2687  -2.4858 H              1 S1                 0.0000
     22 ****        -7.5765  -0.1395  -0.8139 H              1 S1                 0.0000
     23 ****        -3.9610  -1.4486  -0.7872 H              1 S1                 0.0000
     24 ****        -1.7312   1.6274   0.0080 H              1 S1                 0.0000
     25 ****         0.1182   1.1004   0.4123 H              1 S1                 0.0000
     26 ****         0.9045  -1.6336   0.9342 H              1 S1                 0.0000
     27 ****         1.3274  -2.0525  -1.3912 H              1 S1                 0.0000
     28 ****         1.7019  -0.3603  -1.7046 H              1 S1                 0.0000
     29 ****         3.5420  -2.4364  -0.6445 H              1 S1                 0.0000
     30 ****         3.9112  -0.8765  -1.3734 H              1 S1                 0.0000
     31 ****         4.9292   0.7691   0.2977 H              1 S1                 0.0000
     32 ****         5.7644  -2.1146   1.2269 H              1 S1                 0.0000
     33 ****         6.9272  -0.7440   0.8387 H              1 S1                 0.0000
     34 ****         5.9108   0.6448   2.6651 H              1 S1                 0.0000
     35 ****         4.7452  -0.7208   3.0608 H              1 S1                 0.0000
     36 ****         2.4359   0.9835   0.6601 H              1 S1                 0.0000
     37 ****         2.1696   0.0477   2.1366 H              1 S1                 0.0000
     38 ****        -3.0759   3.4952  -1.2992 H              1 S1                 0.0000
     39 ****        -3.2733   3.3393   0.4593 H              1 S1                 0.0000
     40 ****        -4.6369   3.8714  -0.5426 H              1 S1                 0.0000
     41 ****         3.4942  -1.6280   1.3553 H              1 S1                 0.0000
     42 ****        -2.4030  -1.7485  -0.6765 LP             1 S1                 0.0000
     43 ****        -0.7624  -2.1792  -0.3258 LP             1 S1                 0.0000
     44 ****        -6.1895   2.1668  -1.1737 LP             1 S1                 0.0000
@<TRIPOS>BOND
    1    1    2 1     
    2    1   20 1     
    3    1   21 1     
    4    1   22 1     
    5    2   19 2     
    6    2    3 1     
    7    3    4 2     
    8    3   23 1     
    9    4    5 1     
   10    4   17 1     
   11    5    6 am    
   12    5   24 1     
   13    6    7 2     
   14    6    8 am    
   15    8    9 1     
   16    8   25 1     
   17    9   16 1     
   18    9   10 1     
   19    9   26 1     
   20   10   11 1     
   21   10   27 1     
   22   10   28 1     
   23   11   12 1     
   24   11   29 1     
   25   11   30 1     
   26   12   13 1     
   27   12   16 1     
   28   12   41 1     
   29   13   15 1     
   30   13   14 1     
   31   13   31 1     
   32   14   15 1     
   33   14   32 1     
   34   14   33 1     
   35   15   34 1     
   36   15   35 1     
   37   16   36 1     
   38   16   37 1     
   39   17   18 1     
   40   17   19 1     
   41   18   38 1     
   42   18   39 1     
   43   18   40 1     
   44    7   42 1     
   45    7   43 1     
   46   19   44 1     
@<TRIPOS>SUBSTRUCTURE
      1 S1             1
@<TRIPOS>SET
LONE_PAIRS      STATIC     ATOMS    <user>   **** ""
3 42 43 44
DONOR_HYDROGENS      STATIC     ATOMS    <user>   **** ""
3 24 25 41
ATOM$BLUE        STATIC     ATOMS    COLORGROUP SYSTEM
3 42 43 44
ATOM$RED        STATIC     ATOMS    COLORGROUP SYSTEM
3 24 25 41
