AV-unprocessed.smi:203|AV-procd|sdf|1596|dock9
  -GOLD-   2262019503D 1   1.00000     0.00000
 Structure written by MMmdl.
 57 61  0  0  0  0  0  0  0  0  1 V2000
  147.1374  134.1822  154.3151 O   0  0  0  0  0  0  0  0  0  0  0  0
  148.1891  134.7612  154.5763 C   0  0  0  0  0  0  0  0  0  0  0  0
  148.5240  135.3121  155.9519 C   0  0  0  0  0  0  0  0  0  0  0  0
  150.0095  135.7071  155.8340 C   0  0  1  0  0  0  0  0  0  0  0  0
  150.9725  134.8100  156.6752 C   0  0  1  0  0  0  0  0  0  0  0  0
  150.9584  133.3255  156.2223 C   0  0  0  0  0  0  0  0  0  0  0  0
  151.9124  132.4647  157.0607 C   0  0  0  0  0  0  0  0  0  0  0  0
  153.3255  133.0544  157.0128 C   0  0  0  0  0  0  0  0  0  0  0  0
  153.3086  134.5171  157.4749 C   0  0  0  0  0  0  0  0  0  0  0  0
  152.3590  135.3109  156.6955 N   0  0  0  0  0  0  0  0  0  0  0  0
  152.5269  136.6270  156.9544 C   0  0  0  0  0  0  0  0  0  0  0  0
  152.5758  137.4644  155.8896 N   0  0  0  0  0  0  0  0  0  0  0  0
  152.7400  138.7769  156.0803 C   0  0  0  0  0  0  0  0  0  0  0  0
  152.8762  139.4437  157.2288 N   0  0  0  0  0  0  0  0  0  0  0  0
  152.8337  138.6010  158.3004 C   0  0  0  0  0  0  0  0  0  0  0  0
  152.6657  137.1888  158.2550 C   0  0  0  0  0  0  0  0  0  0  0  0
  152.6776  136.6677  159.5432 N   0  0  0  0  0  0  0  0  0  0  0  0
  152.8402  137.7133  160.3075 C   0  0  0  0  0  0  0  0  0  0  0  0
  152.9467  138.9141  159.6433 N   0  0  0  0  0  0  0  0  0  0  0  0
  153.1350  140.2235  160.2445 C   0  0  0  0  0  0  0  0  0  0  0  0
  152.6539  141.3694  159.3284 C   0  0  1  0  0  0  0  0  0  0  0  0
  151.2824  141.1642  159.0479 O   0  0  0  0  0  0  0  0  0  0  0  0
  152.7966  142.7632  159.9731 C   0  0  1  0  0  0  0  0  0  0  0  0
  152.0849  143.8940  159.2290 C   0  0  0  0  0  0  0  0  0  0  0  0
  151.8959  144.9500  160.3031 C   0  0  0  0  0  0  0  0  0  0  0  0
  151.9514  144.1531  161.6089 C   0  0  0  0  0  0  0  0  0  0  0  0
  152.1139  142.7952  161.2182 O   0  0  0  0  0  0  0  0  0  0  0  0
  150.3045  135.6932  154.3171 C   0  0  0  0  0  0  0  0  0  0  0  0
  149.1802  134.9991  153.7199 N   0  0  0  0  0  0  0  0  0  0  0  0
  147.9002  136.1860  156.1433 H   0  0  0  0  0  0  0  0  0  0  0  0
  148.3291  134.5829  156.7385 H   0  0  0  0  0  0  0  0  0  0  0  0
  150.0848  136.7355  156.1880 H   0  0  0  0  0  0  0  0  0  0  0  0
  150.6142  134.8282  157.7048 H   0  0  0  0  0  0  0  0  0  0  0  0
  149.9557  132.9059  156.2942 H   0  0  0  0  0  0  0  0  0  0  0  0
  151.2465  133.2464  155.1737 H   0  0  0  0  0  0  0  0  0  0  0  0
  151.5626  132.4231  158.0930 H   0  0  0  0  0  0  0  0  0  0  0  0
  151.9192  131.4394  156.6895 H   0  0  0  0  0  0  0  0  0  0  0  0
  153.9986  132.4713  157.6417 H   0  0  0  0  0  0  0  0  0  0  0  0
  153.7165  132.9944  155.9962 H   0  0  0  0  0  0  0  0  0  0  0  0
  153.0390  134.5659  158.5310 H   0  0  0  0  0  0  0  0  0  0  0  0
  154.3114  134.9377  157.3835 H   0  0  0  0  0  0  0  0  0  0  0  0
  152.7669  139.3794  155.1842 H   0  0  0  0  0  0  0  0  0  0  0  0
  152.8910  137.6374  161.3840 H   0  0  0  0  0  0  0  0  0  0  0  0
  152.6090  140.2526  161.1996 H   0  0  0  0  0  0  0  0  0  0  0  0
  154.1959  140.3320  160.4711 H   0  0  0  0  0  0  0  0  0  0  0  0
  153.2126  141.3392  158.3921 H   0  0  0  0  0  0  0  0  0  0  0  0
  151.2050  140.7960  158.1810 H   0  0  0  0  0  0  0  0  0  0  0  0
  153.8470  143.0240  160.1189 H   0  0  0  0  0  0  0  0  0  0  0  0
  152.6496  144.2619  158.3719 H   0  0  0  0  0  0  0  0  0  0  0  0
  151.1104  143.5555  158.8740 H   0  0  0  0  0  0  0  0  0  0  0  0
  152.7051  145.6808  160.2740 H   0  0  0  0  0  0  0  0  0  0  0  0
  150.9534  145.4846  160.1818 H   0  0  0  0  0  0  0  0  0  0  0  0
  152.8037  144.4641  162.2149 H   0  0  0  0  0  0  0  0  0  0  0  0
  151.0473  144.2718  162.2069 H   0  0  0  0  0  0  0  0  0  0  0  0
  150.3445  136.7087  153.9212 H   0  0  0  0  0  0  0  0  0  0  0  0
  151.2456  135.2041  154.0642 H   0  0  0  0  0  0  0  0  0  0  0  0
  149.1680  134.7192  152.7496 H   0  0  0  0  0  0  0  0  0  0  0  0
  1  2  2  0  0  0  0
  2 29  1  0  0  0  0
  2  3  1  0  0  0  0
  3  4  1  0  0  0  0
  3 30  1  0  0  0  0
  3 31  1  0  0  0  0
  4  5  1  0  0  0  0
  4 28  1  0  0  0  0
  4 32  1  0  0  0  0
  5 10  1  0  0  0  0
  5  6  1  0  0  0  0
  5 33  1  0  0  0  0
  6  7  1  0  0  0  0
  6 34  1  0  0  0  0
  6 35  1  0  0  0  0
  7  8  1  0  0  0  0
  7 36  1  0  0  0  0
  7 37  1  0  0  0  0
  8  9  1  0  0  0  0
  8 38  1  0  0  0  0
  8 39  1  0  0  0  0
  9 10  1  0  0  0  0
  9 40  1  0  0  0  0
  9 41  1  0  0  0  0
 10 11  1  0  0  0  0
 11 16  1  0  0  0  0
 11 12  2  0  0  0  0
 12 13  1  0  0  0  0
 13 14  2  0  0  0  0
 13 42  1  0  0  0  0
 14 15  1  0  0  0  0
 15 19  1  0  0  0  0
 15 16  2  0  0  0  0
 16 17  1  0  0  0  0
 17 18  2  0  0  0  0
 18 19  1  0  0  0  0
 18 43  1  0  0  0  0
 19 20  1  0  0  0  0
 20 21  1  0  0  0  0
 20 44  1  0  0  0  0
 20 45  1  0  0  0  0
 21 22  1  0  0  0  0
 21 23  1  0  0  0  0
 21 46  1  0  0  0  0
 22 47  1  0  0  0  0
 23 27  1  0  0  0  0
 23 24  1  0  0  0  0
 23 48  1  0  0  0  0
 24 25  1  0  0  0  0
 24 49  1  0  0  0  0
 24 50  1  0  0  0  0
 25 26  1  0  0  0  0
 25 51  1  0  0  0  0
 25 52  1  0  0  0  0
 26 27  1  0  0  0  0
 26 53  1  0  0  0  0
 26 54  1  0  0  0  0
 28 29  1  0  0  0  0
 28 55  1  0  0  0  0
 28 56  1  0  0  0  0
 29 57  1  0  0  0  0
M  END
> <s_m_source_file>
AV-unprocessed.smi

> <i_m_source_file_index>
203

> <i_lp_mmshare_version>
43012

> <i_f3d_flags>
0

> <s_epik_input>
Tz1DMVtDSDJdW0NASF0oW0NIMl1bTkhdMSlbQ0BASF0yW0NIMl1bQ0gyXVtDSDJdW0NIMl1OMmMobltjSF1uMyljKGMzNCluW2NIXW40W0NIMl1bQ0BIXShbT0hdKVtDQEBIXTVbQ0gyXVtDSDJdW0NIMl1PNQ==

> <s_epik_cmdline>
J2VwaWtfcHl0aG9uJywgJy1waCcsICc3LjAnLCAnLXRuJywgJzgnLCAnLW1hJywgJzIwMCcsICctbWV0YWxfYmluZGluZycsICctaW1hZScsICc8aW5maWxlLm1hZT4nLCAnLW9tYWUnLCAnPG91dGZpbGUubWFlPic=

> <r_lp_tautomer_probability>
1

> <r_epik_Ionization_Penalty>
0.00175146

> <r_epik_Ionization_Penalty_Charging>
0

> <r_epik_Ionization_Penalty_Neutral>
0.00175146

> <r_epik_State_Penalty>
0.00109045

> <r_epik_Charging_Adjusted_Penalty>
0.00109045

> <i_epik_Tot_Q>
0

> <i_epik_Tot_abs_Q>
0

> <r_epik_Metal_State_Penalty>
-0

> <b_epik_Metal_Only>
0

> <s_lp_Force_Field>
OPLS_2005

> <r_lp_Energy>
57.4119

> <b_lp_Chiralities_Consistent>
1

> <s_lp_Variant>
AV-unprocessed.smi:203-15

> <Gold.Version>
5.8.1

> <Gold.Id.Protein>
6NUR|6NUR_protein|mol2

> <Gold.PLP.Fitness>
44.6209

> <Gold.PLP.PLP>
-38.8460

> <Gold.PLP.part.hbond>
-5.0000

> <Gold.PLP.part.metal>
0.0000

> <Gold.PLP.part.buried>
-0.2508

> <Gold.PLP.part.nonpolar>
-32.8960

> <Gold.PLP.part.repulsive>
0.1124

> <Gold.PLP.ligand.clash>
0.0000

> <Gold.PLP.ligand.torsion>
0.9680

> <Gold.PLP.Chemscore.Hbond>
2.4497

> <Gold.PLP.Chemscore.CHOScore>
0.0000

> <Gold.PLP.Chemscore.Metal>
0.0000

> <Gold.Chemscore.Hbonds>
donor molecule, donor type, donor heavy atom, donor atom, acceptor molecule, acceptor atom, score
      L1  H    29    57       P1  7948  0.03
      P1  H  6896  6909       L1    17  1.00
      P1  H  7997  8010       L1    14  0.80
      P1  H 10752 10764       L1    10  0.61

> <Gold.PLP.Chemscore.Internal.Correction>
0.3617

> <Gold.Rescore>
     Score         DG    S(hbond)    S(metal)    S(lipo)     H(rot)  DE(clash)    DE(int)     intcor
     11.53     -15.39       1.53        0.00     100.50       2.72       1.74       2.12       ----

> <Gold.Chemscore.Fitness>
11.5299

> <Gold.Chemscore.DG>
-15.3948

> <Gold.Chemscore.ZeroCoef>
-5.4800

> <Gold.Chemscore.Hbond>
1.5304

> <Gold.Chemscore.Metal>
0.0000

> <Gold.Chemscore.Lipo>
100.5049

> <Gold.Chemscore.Internal_Hbond>
0.0000

> <Gold.Chemscore.DEClash>
1.7415

> <Gold.Chemscore.DEInternal>
2.1234

> <Gold.Chemscore.Rot>
2.7171

> <Gold.Chemscore.Internal.Correction>
   9.000000E+99

> <Gold.Chemscore.Hbonds>
donor molecule, donor type, donor heavy atom, donor atom, acceptor molecule, acceptor atom, score
      P1  H  6896  6909       L1    17  0.99
      P1  H  7997  8010       L1    14  0.10
      P1  H 10752 10764       L1    10  0.02

> <Gold.Chemscore.Hbond.Weighted>
-5.1114

> <Gold.Chemscore.Metal.Weighted>
-0.0000

> <Gold.Chemscore.Lipo.Weighted>
-11.7591

> <Gold.Chemscore.Internal_Hbond.Weighted>
0.0000

> <Gold.Chemscore.DEClash.Weighted>
1.7415

> <Gold.Chemscore.DEInternal.Weighted>
2.1234

> <Gold.Chemscore.Rot.Weighted>
6.9557

> <Gold.Chemscore.Internal.Correction.Weighted>
   9.000000E+99

> <Gold.Protein.RotatedTorsions>
[ 6907 6896 6895 6894 ] final  138.53 input  -60.11 | X-H torsion
[ 7974 7965 7964 7962 ] final   55.45 input  175.53 | X-H torsion
[ 8008 7997 7996 7995 ] final   40.66 input   59.86 | X-H torsion
[ 10167 10162 10161 10158 ] final -127.82 input  -65.29 | X-H torsion
[ 10718 10713 10712 10709 ] final  -49.64 input   66.30 | X-H torsion
[ 10763 10752 10751 10750 ] final  -32.94 input  -60.55 | X-H torsion
[ 11005 11000 10999 10996 ] final  138.68 input  -57.11 | X-H torsion

> <Gold.Protein.ActiveResidues>
 VAL166  LYS551  ARG553  GLY616  TRP617  ASP618  TYR619  PRO620  LYS621  CYS622 
 ASP623  PHE694  ASN695  SER759  ASP760  ASP761  ALA762  ILE779  LEU786  VAL792 
 PHE793  MET794  SER795  GLU796  ALA797  LYS798  CYS799  TRP800  GLU811  SER814 

> <Gold.Protein.RotatedAtoms>
  152.2656  133.5336  159.5407 H   0  0  0  0  0  0  0  0  0  0  0  0  # atno 6907 bound_to 6896
  150.7140  134.0770  159.3893 H   0  0  0  0  0  0  0  0  0  0  0  0  # atno 6908 bound_to 6896
  151.8686  135.0498  160.0527 H   0  0  0  0  0  0  0  0  0  0  0  0  # atno 6909 bound_to 6896
  145.9503  139.3966  143.0310 H   0  0  0  0  0  0  0  0  0  0  0  0  # atno 7974 bound_to 7965
  155.2568  140.3356  155.4277 H   0  0  0  0  0  0  0  0  0  0  0  0  # atno 8008 bound_to 7997
  156.2192  140.1802  156.7560 H   0  0  0  0  0  0  0  0  0  0  0  0  # atno 8009 bound_to 7997
  154.5799  140.0655  156.9074 H   0  0  0  0  0  0  0  0  0  0  0  0  # atno 8010 bound_to 7997
  139.9568  143.5994  152.2458 H   0  0  0  0  0  0  0  0  0  0  0  0  # atno 10167 bound_to 10162
  156.1875  130.4152  149.9419 H   0  0  0  0  0  0  0  0  0  0  0  0  # atno 10718 bound_to 10713
  153.8221  135.6873  153.4826 H   0  0  0  0  0  0  0  0  0  0  0  0  # atno 10763 bound_to 10752
  153.1563  135.4598  154.9707 H   0  0  0  0  0  0  0  0  0  0  0  0  # atno 10764 bound_to 10752
  154.7923  135.3306  154.7692 H   0  0  0  0  0  0  0  0  0  0  0  0  # atno 10765 bound_to 10752
  140.0201  134.9400  157.0456 H   0  0  0  0  0  0  0  0  0  0  0  0  # atno 11005 bound_to 11000
  145.8181  140.9693  143.0913 LP  0  0  0  0  0  0  0  0  0  0  0  0  # atno 17320 bound_to 7965
  144.6794  140.0006  143.7484 LP  0  0  0  0  0  0  0  0  0  0  0  0  # atno 17321 bound_to 7965
  139.6585  144.7662  151.2008 LP  0  0  0  0  0  0  0  0  0  0  0  0  # atno 17342 bound_to 10162
  140.7566  143.6047  150.8664 LP  0  0  0  0  0  0  0  0  0  0  0  0  # atno 17343 bound_to 10162
  156.7170  130.8992  151.3615 LP  0  0  0  0  0  0  0  0  0  0  0  0  # atno 17370 bound_to 10713
  157.6908  130.9231  150.0508 LP  0  0  0  0  0  0  0  0  0  0  0  0  # atno 17371 bound_to 10713
  140.4402  134.1689  155.7173 LP  0  0  0  0  0  0  0  0  0  0  0  0  # atno 17394 bound_to 11000
  141.1768  133.8497  157.1394 LP  0  0  0  0  0  0  0  0  0  0  0  0  # atno 17395 bound_to 11000

$$$$
