AV-unprocessed.smi:3311|AV-procd|sdf|12723|dock3
  -GOLD-   2272019 63D 1   1.00000     0.00000
 Structure written by MMmdl.
 43 44  0  0  0  0  0  0  0  0  1 V2000
  153.5754  139.6605  160.0063 C   0  0  0  0  0  0  0  0  0  0  0  0
  152.8255  140.9358  159.5840 C   0  0  2  0  0  0  0  0  0  0  0  0
  152.6493  140.8921  158.1284 N   0  0  0  0  0  0  0  0  0  0  0  0
  151.7203  139.8658  157.6486 C   0  0  0  0  0  0  0  0  0  0  0  0
  151.0500  140.2491  156.3105 C   0  0  0  0  0  0  0  0  0  0  0  0
  152.0918  140.4712  155.3770 O   0  0  0  0  0  0  0  0  0  0  0  0
  150.0945  139.1506  155.7794 C   0  0  0  0  0  0  0  0  0  0  0  0
  149.3203  139.5863  154.5226 C   0  0  0  0  0  0  0  0  0  0  0  0
  148.5602  140.8986  154.7570 C   0  0  0  0  0  0  0  0  0  0  0  0
  149.5122  142.0082  155.2243 C   0  0  0  0  0  0  0  0  0  0  0  0
  150.2888  141.5848  156.4842 C   0  0  0  0  0  0  0  0  0  0  0  0
  153.5744  142.2275  160.0258 C   0  0  2  0  0  0  0  0  0  0  0  0
  153.9758  142.2243  161.5130 C   0  0  0  0  0  0  0  0  0  0  0  0
  152.8074  143.4337  159.7360 N   0  0  0  0  0  0  0  0  0  0  0  0
  152.4881  144.4813  160.5781 C   0  0  0  0  0  0  0  0  0  0  0  0
  151.7304  145.3640  159.8633 C   0  0  0  0  0  0  0  0  0  0  0  0
  151.6331  144.7620  158.5782 C   0  0  0  0  0  0  0  0  0  0  0  0
  152.2793  143.6103  158.5043 N   0  0  0  0  0  0  0  0  0  0  0  0
  153.6181  139.5553  161.0900 H   0  0  0  0  0  0  0  0  0  0  0  0
  154.5975  139.6544  159.6263 H   0  0  0  0  0  0  0  0  0  0  0  0
  153.0752  138.7696  159.6245 H   0  0  0  0  0  0  0  0  0  0  0  0
  151.8488  140.9073  160.0700 H   0  0  0  0  0  0  0  0  0  0  0  0
  152.3239  141.7985  157.8062 H   0  0  0  0  0  0  0  0  0  0  0  0
  152.2636  138.9281  157.5266 H   0  0  0  0  0  0  0  0  0  0  0  0
  150.9456  139.6670  158.3869 H   0  0  0  0  0  0  0  0  0  0  0  0
  152.4406  139.6334  155.1143 H   0  0  0  0  0  0  0  0  0  0  0  0
  150.6451  138.2360  155.5564 H   0  0  0  0  0  0  0  0  0  0  0  0
  149.3793  138.8905  156.5609 H   0  0  0  0  0  0  0  0  0  0  0  0
  150.0112  139.7071  153.6873 H   0  0  0  0  0  0  0  0  0  0  0  0
  148.6221  138.8017  154.2298 H   0  0  0  0  0  0  0  0  0  0  0  0
  148.0533  141.2041  153.8412 H   0  0  0  0  0  0  0  0  0  0  0  0
  147.7821  140.7431  155.5054 H   0  0  0  0  0  0  0  0  0  0  0  0
  150.2097  142.2553  154.4235 H   0  0  0  0  0  0  0  0  0  0  0  0
  148.9467  142.9178  155.4281 H   0  0  0  0  0  0  0  0  0  0  0  0
  149.5813  141.4885  157.3090 H   0  0  0  0  0  0  0  0  0  0  0  0
  150.9792  142.3787  156.7730 H   0  0  0  0  0  0  0  0  0  0  0  0
  154.5014  142.2871  159.4515 H   0  0  0  0  0  0  0  0  0  0  0  0
  154.7170  141.4554  161.7288 H   0  0  0  0  0  0  0  0  0  0  0  0
  153.1152  142.0511  162.1596 H   0  0  0  0  0  0  0  0  0  0  0  0
  154.4202  143.1780  161.7992 H   0  0  0  0  0  0  0  0  0  0  0  0
  152.8176  144.5081  161.6061 H   0  0  0  0  0  0  0  0  0  0  0  0
  151.3055  146.2953  160.2072 H   0  0  0  0  0  0  0  0  0  0  0  0
  151.1149  145.1240  157.7025 H   0  0  0  0  0  0  0  0  0  0  0  0
  1  2  1  0  0  0  0
  1 19  1  0  0  0  0
  1 20  1  0  0  0  0
  1 21  1  0  0  0  0
  2  3  1  0  0  0  0
  2 12  1  0  0  0  0
  2 22  1  0  0  0  0
  3  4  1  0  0  0  0
  3 23  1  0  0  0  0
  4  5  1  0  0  0  0
  4 24  1  0  0  0  0
  4 25  1  0  0  0  0
  5 11  1  0  0  0  0
  5  6  1  0  0  0  0
  5  7  1  0  0  0  0
  6 26  1  0  0  0  0
  7  8  1  0  0  0  0
  7 27  1  0  0  0  0
  7 28  1  0  0  0  0
  8  9  1  0  0  0  0
  8 29  1  0  0  0  0
  8 30  1  0  0  0  0
  9 10  1  0  0  0  0
  9 31  1  0  0  0  0
  9 32  1  0  0  0  0
 10 11  1  0  0  0  0
 10 33  1  0  0  0  0
 10 34  1  0  0  0  0
 11 35  1  0  0  0  0
 11 36  1  0  0  0  0
 12 13  1  0  0  0  0
 12 14  1  0  0  0  0
 12 37  1  0  0  0  0
 13 38  1  0  0  0  0
 13 39  1  0  0  0  0
 13 40  1  0  0  0  0
 14 18  1  0  0  0  0
 14 15  1  0  0  0  0
 15 16  2  0  0  0  0
 15 41  1  0  0  0  0
 16 17  1  0  0  0  0
 16 42  1  0  0  0  0
 17 18  2  0  0  0  0
 17 43  1  0  0  0  0
M  END
> <s_m_source_file>
AV-unprocessed.smi

> <i_m_source_file_index>
3311

> <i_lp_mmshare_version>
43012

> <i_f3d_flags>
0

> <s_epik_input>
bjFbY0hdW2NIXVtjSF1uMVtDQEBIXShbQ0gzXSlbQ0BIXShbQ0gzXSlbTkhdW0NIMl1DMihbT0hdKVtDSDJdW0NIMl1bQ0gyXVtDSDJdW0NIMl0y

> <s_epik_cmdline>
J2VwaWtfcHl0aG9uJywgJy1waCcsICc3LjAnLCAnLXRuJywgJzgnLCAnLW1hJywgJzIwMCcsICctbWV0YWxfYmluZGluZycsICctaW1hZScsICc8aW5maWxlLm1hZT4nLCAnLW9tYWUnLCAnPG91dGZpbGUubWFlPic=

> <r_lp_tautomer_probability>
1

> <r_epik_Ionization_Penalty>
2.222

> <r_epik_Ionization_Penalty_Charging>
0

> <r_epik_Ionization_Penalty_Neutral>
2.222

> <r_epik_State_Penalty>
2.36562

> <r_epik_Charging_Adjusted_Penalty>
2.36562

> <i_epik_Tot_Q>
0

> <i_epik_Tot_abs_Q>
0

> <r_epik_Metal_State_Penalty>
2.36435

> <b_epik_Metal_Only>
0

> <s_lp_Force_Field>
OPLS_2005

> <r_lp_Energy>
30.3398

> <b_lp_Chiralities_Consistent>
1

> <s_lp_Variant>
AV-unprocessed.smi:3311-5

> <Gold.Version>
5.8.1

> <Gold.Id.Protein>
6NUR|6NUR_protein|mol2

> <Gold.PLP.Fitness>
49.5371

> <Gold.PLP.PLP>
-43.2151

> <Gold.PLP.part.hbond>
-1.9211

> <Gold.PLP.part.metal>
0.0000

> <Gold.PLP.part.buried>
-1.6763

> <Gold.PLP.part.nonpolar>
-38.7800

> <Gold.PLP.part.repulsive>
0.0385

> <Gold.PLP.ligand.clash>
0.0000

> <Gold.PLP.ligand.torsion>
0.3794

> <Gold.PLP.Chemscore.Hbond>
1.3355

> <Gold.PLP.Chemscore.CHOScore>
1.0000

> <Gold.PLP.Chemscore.Metal>
0.0000

> <Gold.Chemscore.Hbonds>
donor molecule, donor type, donor heavy atom, donor atom, acceptor molecule, acceptor atom, score
      P1  H  7989  7998       L1     6  0.31
      P1  H  7997  8010       L1     3  0.06

> <Gold.PLP.Chemscore.Internal.Correction>
0.0743

> <Gold.Rescore>
     Score         DG    S(hbond)    S(metal)    S(lipo)     H(rot)  DE(clash)    DE(int)     intcor
     15.16     -17.08       1.02        0.00     115.14       2.07       0.18       1.74       ----

> <Gold.Chemscore.Fitness>
15.1616

> <Gold.Chemscore.DG>
-17.0754

> <Gold.Chemscore.ZeroCoef>
-5.4800

> <Gold.Chemscore.Hbond>
1.0238

> <Gold.Chemscore.Metal>
0.0000

> <Gold.Chemscore.Lipo>
115.1427

> <Gold.Chemscore.Internal_Hbond>
0.0000

> <Gold.Chemscore.DEClash>
0.1770

> <Gold.Chemscore.DEInternal>
1.7368

> <Gold.Chemscore.Rot>
2.0686

> <Gold.Chemscore.Internal.Correction>
   9.000000E+99

> <Gold.Chemscore.Hbonds>
donor molecule, donor type, donor heavy atom, donor atom, acceptor molecule, acceptor atom, score
      P1  H  7989  7998       L1     6  0.01

> <Gold.Chemscore.Hbond.Weighted>
-3.4194

> <Gold.Chemscore.Metal.Weighted>
-0.0000

> <Gold.Chemscore.Lipo.Weighted>
-13.4717

> <Gold.Chemscore.Internal_Hbond.Weighted>
0.0000

> <Gold.Chemscore.DEClash.Weighted>
0.1770

> <Gold.Chemscore.DEInternal.Weighted>
1.7368

> <Gold.Chemscore.Rot.Weighted>
5.2957

> <Gold.Chemscore.Internal.Correction.Weighted>
   9.000000E+99

> <Gold.Protein.RotatedTorsions>
[ 6907 6896 6895 6894 ] final   32.74 input  -60.11 | X-H torsion
[ 7974 7965 7964 7962 ] final  157.96 input  175.53 | X-H torsion
[ 8008 7997 7996 7995 ] final   53.24 input   59.86 | X-H torsion
[ 10167 10162 10161 10158 ] final   17.74 input  -65.29 | X-H torsion
[ 10718 10713 10712 10709 ] final  -62.33 input   66.30 | X-H torsion
[ 10763 10752 10751 10750 ] final  165.57 input  -60.55 | X-H torsion
[ 11005 11000 10999 10996 ] final  -95.01 input  -57.11 | X-H torsion

> <Gold.Protein.ActiveResidues>
 VAL166  LYS551  ARG553  GLY616  TRP617  ASP618  TYR619  PRO620  LYS621  CYS622 
 ASP623  PHE694  ASN695  SER759  ASP760  ASP761  ALA762  ILE779  LEU786  VAL792 
 PHE793  MET794  SER795  GLU796  ALA797  LYS798  CYS799  TRP800  GLU811  SER814 

> <Gold.Protein.RotatedAtoms>
  152.0787  134.9485  160.0573 H   0  0  0  0  0  0  0  0  0  0  0  0  # atno 6907 bound_to 6896
  152.0782  133.4135  159.4497 H   0  0  0  0  0  0  0  0  0  0  0  0  # atno 6908 bound_to 6896
  150.6836  134.2932  159.4719 H   0  0  0  0  0  0  0  0  0  0  0  0  # atno 6909 bound_to 6896
  144.7873  139.7413  143.6236 H   0  0  0  0  0  0  0  0  0  0  0  0  # atno 7974 bound_to 7965
  155.4650  140.3463  155.4318 H   0  0  0  0  0  0  0  0  0  0  0  0  # atno 8008 bound_to 7997
  156.1136  140.1468  156.9333 H   0  0  0  0  0  0  0  0  0  0  0  0  # atno 8009 bound_to 7997
  154.4774  140.0881  156.7273 H   0  0  0  0  0  0  0  0  0  0  0  0  # atno 8010 bound_to 7997
  140.5704  143.9172  150.6708 H   0  0  0  0  0  0  0  0  0  0  0  0  # atno 10167 bound_to 10162
  156.0862  130.4208  150.1120 H   0  0  0  0  0  0  0  0  0  0  0  0  # atno 10718 bound_to 10713
  154.3259  135.2755  155.2496 H   0  0  0  0  0  0  0  0  0  0  0  0  # atno 10763 bound_to 10752
  154.4829  135.5854  153.6406 H   0  0  0  0  0  0  0  0  0  0  0  0  # atno 10764 bound_to 10752
  152.9871  135.6115  154.3448 H   0  0  0  0  0  0  0  0  0  0  0  0  # atno 10765 bound_to 10752
  141.1454  133.7996  157.0376 H   0  0  0  0  0  0  0  0  0  0  0  0  # atno 11005 bound_to 11000
  146.2110  139.5466  142.9681 LP  0  0  0  0  0  0  0  0  0  0  0  0  # atno 17320 bound_to 7965
  145.5888  141.0372  143.2081 LP  0  0  0  0  0  0  0  0  0  0  0  0  # atno 17321 bound_to 7965
  140.2646  143.3499  152.1292 LP  0  0  0  0  0  0  0  0  0  0  0  0  # atno 17342 bound_to 10162
  139.5114  144.6900  151.5784 LP  0  0  0  0  0  0  0  0  0  0  0  0  # atno 17343 bound_to 10162
  156.9140  130.9661  151.3558 LP  0  0  0  0  0  0  0  0  0  0  0  0  # atno 17370 bound_to 10713
  157.5997  130.8503  149.8783 LP  0  0  0  0  0  0  0  0  0  0  0  0  # atno 17371 bound_to 10713
  140.0713  134.9700  157.1472 LP  0  0  0  0  0  0  0  0  0  0  0  0  # atno 17394 bound_to 11000
  140.3706  134.2394  155.7178 LP  0  0  0  0  0  0  0  0  0  0  0  0  # atno 17395 bound_to 11000

$$$$
