#       Name:                AV-unprocessed.smi:336
#       Creating user name   scv26
#       Creation time:       Thu Mar 26 22:29:01 2020


#       File generated by GOLD software.
#

@<TRIPOS>MOLECULE
AV-unprocessed.smi:336
    37    39     1
SMALL
NO_CHARGES


@<TRIPOS>ATOM
      1 ****        -0.1375   1.3656  -0.0511 O.2            1 S1                 0.0000
      2 ****        -0.6391   0.2418  -0.0543 C.2            1 S1                 0.0000
      3 ****        -1.9559  -0.0185  -0.1276 N.am           1 S1                 0.0000
      4 ****        -3.0375   0.9019  -0.1848 C.ar           1 S1                 0.0000
      5 ****        -2.9709   2.2394   0.2757 C.ar           1 S1                 0.0000
      6 ****        -4.1191   3.0492   0.1800 C.ar           1 S1                 0.0000
      7 ****        -5.2922   2.4917  -0.3644 C.ar           1 S1                 0.0000
      8 ****        -5.3744   1.2147  -0.7933 N.ar           1 S1                 0.0000
      9 ****        -4.2699   0.4439  -0.6975 C.ar           1 S1                 0.0000
     10 ****         0.0749  -0.8935  -0.0042 N.am           1 S1                 0.0000
     11 ****         1.5308  -1.0088   0.0705 C.3            1 S1                 0.0000
     12 ****         2.1320  -0.4133   1.3352 C.3            1 S1                 0.0000
     13 ****         3.3879  -0.9847   1.9497 C.3            1 S1                 0.0000
     14 ****         2.0592  -1.1424   2.6548 C.3            1 S1                 0.0000
     15 ****         2.2519  -0.4933  -1.1664 C.3            1 S1                 0.0000
     16 ****         2.3468  -1.3283  -2.4206 C.3            1 S1                 0.0000
     17 ****         3.5839  -1.0653  -1.5914 C.3            1 S1                 0.0000
     18 ****        -2.2122  -0.9916  -0.2074 H              1 S1                 0.0000
     19 ****        -2.0749   2.6541   0.7105 H              1 S1                 0.0000
     20 ****        -4.1019   4.0738   0.5210 H              1 S1                 0.0000
     21 ****        -6.1899   3.0858  -0.4520 H              1 S1                 0.0000
     22 ****        -4.3737  -0.5728  -1.0478 H              1 S1                 0.0000
     23 ****        -0.4366  -1.7637  -0.0194 H              1 S1                 0.0000
     24 ****         1.7143  -2.0833   0.1144 H              1 S1                 0.0000
     25 ****         2.0439   0.6700   1.3921 H              1 S1                 0.0000
     26 ****         3.8209  -1.8744   1.4972 H              1 S1                 0.0000
     27 ****         4.1028  -0.2817   2.3721 H              1 S1                 0.0000
     28 ****         1.8888  -0.5453   3.5483 H              1 S1                 0.0000
     29 ****         1.6085  -2.1329   2.6626 H              1 S1                 0.0000
     30 ****         2.1398   0.5781  -1.3221 H              1 S1                 0.0000
     31 ****         1.9285  -2.3324  -2.3942 H              1 S1                 0.0000
     32 ****         2.2604  -0.8117  -3.3742 H              1 S1                 0.0000
     33 ****         4.3217  -0.3729  -1.9920 H              1 S1                 0.0000
     34 ****         3.9887  -1.8980  -1.0197 H              1 S1                 0.0000
     35 ****        -0.7228   2.1745  -0.1060 LP             1 S1                 0.0000
     36 ****         0.8554   1.4698   0.0064 LP             1 S1                 0.0000
     37 ****        -6.2263   0.8509  -1.1701 LP             1 S1                 0.0000
@<TRIPOS>BOND
    1    1    2 2     
    2    2    3 am    
    3    2   10 am    
    4    3    4 1     
    5    3   18 1     
    6    4    9 ar    
    7    4    5 ar    
    8    5    6 ar    
    9    5   19 1     
   10    6    7 ar    
   11    6   20 1     
   12    7    8 ar    
   13    7   21 1     
   14    8    9 ar    
   15    9   22 1     
   16   10   11 1     
   17   10   23 1     
   18   11   12 1     
   19   11   15 1     
   20   11   24 1     
   21   12   14 1     
   22   12   13 1     
   23   12   25 1     
   24   13   14 1     
   25   13   26 1     
   26   13   27 1     
   27   14   28 1     
   28   14   29 1     
   29   15   17 1     
   30   15   16 1     
   31   15   30 1     
   32   16   17 1     
   33   16   31 1     
   34   16   32 1     
   35   17   33 1     
   36   17   34 1     
   37    1   35 1     
   38    1   36 1     
   39    8   37 1     
@<TRIPOS>SUBSTRUCTURE
      1 S1             1
@<TRIPOS>SET
LONE_PAIRS      STATIC     ATOMS    <user>   **** ""
3 35 36 37
DONOR_HYDROGENS      STATIC     ATOMS    <user>   **** ""
2 18 23
ATOM$BLUE        STATIC     ATOMS    COLORGROUP SYSTEM
3 35 36 37
ATOM$RED        STATIC     ATOMS    COLORGROUP SYSTEM
2 18 23
