AV-unprocessed.smi:971|AV-procd|sdf|4295|dock1
  -GOLD-   22720 2203D 1   1.00000     0.00000
 Structure written by MMmdl.
 34 35  0  0  0  0  0  0  0  0  1 V2000
  151.8505  145.2077  160.0110 C   0  0  0  0  0  0  0  0  0  0  0  0
  152.4963  144.0473  160.7757 C   0  0  0  0  0  0  0  0  0  0  0  0
  152.4345  142.7583  160.0101 C   0  0  0  0  0  0  0  0  0  0  0  0
  151.7963  142.7306  158.7665 N   0  0  0  0  0  0  0  0  0  0  0  0
  151.8317  141.5256  158.1945 C   0  0  0  0  0  0  0  0  0  0  0  0
  151.1966  141.2191  156.8802 C   0  0  0  0  0  0  0  0  0  0  0  0
  150.8095  142.4884  156.1045 C   0  0  0  0  0  0  0  0  0  0  0  0
  149.6756  142.2526  155.2181 N   0  0  0  0  0  0  0  0  0  0  0  0
  149.4890  141.1471  154.4808 C   0  0  0  0  0  0  0  0  0  0  0  0
  150.2781  140.2010  154.4786 O   0  0  0  0  0  0  0  0  0  0  0  0
  148.2369  141.1653  153.6666 C   0  0  0  0  0  0  0  0  0  0  0  0
  146.9419  141.5009  154.3783 C   0  0  0  0  0  0  0  0  0  0  0  0
  147.2081  140.0850  153.9330 C   0  0  0  0  0  0  0  0  0  0  0  0
  152.6456  140.3180  159.1790 S   0  0  0  0  0  0  0  0  0  0  0  0
  152.9552  141.5413  160.3848 C   0  0  0  0  0  0  0  0  0  0  0  0
  153.6994  141.2099  161.6357 C   0  0  0  0  0  0  0  0  0  0  0  0
  151.9084  146.1321  160.5857 H   0  0  0  0  0  0  0  0  0  0  0  0
  150.7980  145.0085  159.8066 H   0  0  0  0  0  0  0  0  0  0  0  0
  152.3516  145.3757  159.0572 H   0  0  0  0  0  0  0  0  0  0  0  0
  153.5307  144.3023  161.0072 H   0  0  0  0  0  0  0  0  0  0  0  0
  151.9984  143.9324  161.7391 H   0  0  0  0  0  0  0  0  0  0  0  0
  151.8872  140.6102  156.2953 H   0  0  0  0  0  0  0  0  0  0  0  0
  150.3131  140.6047  157.0577 H   0  0  0  0  0  0  0  0  0  0  0  0
  150.5335  143.2792  156.8024 H   0  0  0  0  0  0  0  0  0  0  0  0
  151.6603  142.8620  155.5320 H   0  0  0  0  0  0  0  0  0  0  0  0
  148.9805  142.9830  155.1618 H   0  0  0  0  0  0  0  0  0  0  0  0
  148.3305  141.5085  152.6372 H   0  0  0  0  0  0  0  0  0  0  0  0
  146.9727  141.7031  155.4476 H   0  0  0  0  0  0  0  0  0  0  0  0
  146.2097  142.0825  153.8220 H   0  0  0  0  0  0  0  0  0  0  0  0
  146.6557  139.7070  153.0752 H   0  0  0  0  0  0  0  0  0  0  0  0
  147.4143  139.3479  154.7074 H   0  0  0  0  0  0  0  0  0  0  0  0
  154.5101  141.9194  161.8037 H   0  0  0  0  0  0  0  0  0  0  0  0
  154.1339  140.2114  161.5850 H   0  0  0  0  0  0  0  0  0  0  0  0
  153.0358  141.2445  162.4997 H   0  0  0  0  0  0  0  0  0  0  0  0
  1  2  1  0  0  0  0
  1 17  1  0  0  0  0
  1 18  1  0  0  0  0
  1 19  1  0  0  0  0
  2  3  1  0  0  0  0
  2 20  1  0  0  0  0
  2 21  1  0  0  0  0
  3 15  2  0  0  0  0
  3  4  1  0  0  0  0
  4  5  2  0  0  0  0
  5  6  1  0  0  0  0
  5 14  1  0  0  0  0
  6  7  1  0  0  0  0
  6 22  1  0  0  0  0
  6 23  1  0  0  0  0
  7  8  1  0  0  0  0
  7 24  1  0  0  0  0
  7 25  1  0  0  0  0
  8  9  1  0  0  0  0
  8 26  1  0  0  0  0
  9 10  2  0  0  0  0
  9 11  1  0  0  0  0
 11 13  1  0  0  0  0
 11 12  1  0  0  0  0
 11 27  1  0  0  0  0
 12 13  1  0  0  0  0
 12 28  1  0  0  0  0
 12 29  1  0  0  0  0
 13 30  1  0  0  0  0
 13 31  1  0  0  0  0
 14 15  1  0  0  0  0
 15 16  1  0  0  0  0
 16 32  1  0  0  0  0
 16 33  1  0  0  0  0
 16 34  1  0  0  0  0
M  END
> <s_m_source_file>
AV-unprocessed.smi

> <i_m_source_file_index>
971

> <i_lp_mmshare_version>
43012

> <i_f3d_flags>
0

> <s_epik_input>
W0NIM11bQ0gyXWMxbmMoc2MxW0NIM10pW0NIMl1bQ0gyXVtOSF1DKD1PKVtDSF0yW0NIMl1bQ0gyXTI=

> <s_epik_cmdline>
J2VwaWtfcHl0aG9uJywgJy1waCcsICc3LjAnLCAnLXRuJywgJzgnLCAnLW1hJywgJzIwMCcsICctbWV0YWxfYmluZGluZycsICctaW1hZScsICc8aW5maWxlLm1hZT4nLCAnLW9tYWUnLCAnPG91dGZpbGUubWFlPic=

> <r_epik_Ionization_Penalty>
0.00242093

> <r_epik_Ionization_Penalty_Charging>
0

> <r_epik_Ionization_Penalty_Neutral>
0.00242093

> <r_epik_State_Penalty>
0.00167523

> <r_epik_Charging_Adjusted_Penalty>
0.00167523

> <i_epik_Tot_Q>
0

> <i_epik_Tot_abs_Q>
0

> <r_epik_Metal_State_Penalty>
-0

> <b_epik_Metal_Only>
0

> <s_lp_Force_Field>
OPLS_2005

> <r_lp_Energy>
-4.35298

> <b_lp_Chiralities_Consistent>
1

> <s_lp_Variant>
AV-unprocessed.smi:971-1

> <Gold.Version>
5.8.1

> <Gold.Id.Protein>
6NUR|6NUR_protein|mol2

> <Gold.PLP.Fitness>
41.9566

> <Gold.PLP.PLP>
-37.9398

> <Gold.PLP.part.hbond>
-1.9703

> <Gold.PLP.part.metal>
0.0000

> <Gold.PLP.part.buried>
-3.6177

> <Gold.PLP.part.nonpolar>
-32.3038

> <Gold.PLP.part.repulsive>
0.3101

> <Gold.PLP.ligand.clash>
0.0000

> <Gold.PLP.ligand.torsion>
0.5320

> <Gold.PLP.Chemscore.Hbond>
1.6560

> <Gold.PLP.Chemscore.CHOScore>
0.0000

> <Gold.PLP.Chemscore.Metal>
0.0000

> <Gold.Chemscore.Hbonds>
donor molecule, donor type, donor heavy atom, donor atom, acceptor molecule, acceptor atom, score
      L1  H     8    26       P1  8028  0.74
      P1  H  7989  7998       L1    10  1.00

> <Gold.PLP.Chemscore.Internal.Correction>
0.1127

> <Gold.Rescore>
     Score         DG    S(hbond)    S(metal)    S(lipo)     H(rot)  DE(clash)    DE(int)     intcor
     15.02     -18.49       1.36        0.00     106.21       1.54       1.68       1.80       ----

> <Gold.Chemscore.Fitness>
15.0168

> <Gold.Chemscore.DG>
-18.4900

> <Gold.Chemscore.ZeroCoef>
-5.4800

> <Gold.Chemscore.Hbond>
1.3580

> <Gold.Chemscore.Metal>
0.0000

> <Gold.Chemscore.Lipo>
106.2142

> <Gold.Chemscore.Internal_Hbond>
0.0000

> <Gold.Chemscore.DEClash>
1.6757

> <Gold.Chemscore.DEInternal>
1.7975

> <Gold.Chemscore.Rot>
1.5441

> <Gold.Chemscore.Internal.Correction>
   9.000000E+99

> <Gold.Chemscore.Hbonds>
donor molecule, donor type, donor heavy atom, donor atom, acceptor molecule, acceptor atom, score
      L1  H     8    26       P1  8028  0.74
      P1  H  7989  7998       L1    10  0.29

> <Gold.Chemscore.Hbond.Weighted>
-4.5359

> <Gold.Chemscore.Metal.Weighted>
-0.0000

> <Gold.Chemscore.Lipo.Weighted>
-12.4271

> <Gold.Chemscore.Internal_Hbond.Weighted>
0.0000

> <Gold.Chemscore.DEClash.Weighted>
1.6757

> <Gold.Chemscore.DEInternal.Weighted>
1.7975

> <Gold.Chemscore.Rot.Weighted>
3.9529

> <Gold.Chemscore.Internal.Correction.Weighted>
   9.000000E+99

> <Gold.Protein.RotatedTorsions>
[ 6907 6896 6895 6894 ] final  -99.02 input  -60.11 | X-H torsion
[ 7974 7965 7964 7962 ] final   92.24 input  175.53 | X-H torsion
[ 8008 7997 7996 7995 ] final   47.83 input   59.86 | X-H torsion
[ 10167 10162 10161 10158 ] final -156.24 input  -65.29 | X-H torsion
[ 10718 10713 10712 10709 ] final  154.12 input   66.30 | X-H torsion
[ 10763 10752 10751 10750 ] final  155.23 input  -60.55 | X-H torsion
[ 11005 11000 10999 10996 ] final  158.09 input  -57.11 | X-H torsion

> <Gold.Protein.ActiveResidues>
 VAL166  LYS551  ARG553  GLY616  TRP617  ASP618  TYR619  PRO620  LYS621  CYS622 
 ASP623  PHE694  ASN695  SER759  ASP760  ASP761  ALA762  ILE779  LEU786  VAL792 
 PHE793  MET794  SER795  GLU796  ALA797  LYS798  CYS799  TRP800  GLU811  SER814 

> <Gold.Protein.RotatedAtoms>
  150.7066  134.1104  159.3997 H   0  0  0  0  0  0  0  0  0  0  0  0  # atno 6907 bound_to 6896
  151.9091  135.0344  160.0522 H   0  0  0  0  0  0  0  0  0  0  0  0  # atno 6908 bound_to 6896
  152.2351  133.5054  159.5274 H   0  0  0  0  0  0  0  0  0  0  0  0  # atno 6909 bound_to 6896
  145.4950  139.2276  143.2809 H   0  0  0  0  0  0  0  0  0  0  0  0  # atno 7974 bound_to 7965
  155.3756  140.3426  155.4245 H   0  0  0  0  0  0  0  0  0  0  0  0  # atno 8008 bound_to 7997
  156.1639  140.1609  156.8599 H   0  0  0  0  0  0  0  0  0  0  0  0  # atno 8009 bound_to 7997
  154.5166  140.0777  156.8074 H   0  0  0  0  0  0  0  0  0  0  0  0  # atno 8010 bound_to 7997
  139.6866  143.9490  152.2364 H   0  0  0  0  0  0  0  0  0  0  0  0  # atno 10167 bound_to 10162
  157.2357  131.0748  151.1824 H   0  0  0  0  0  0  0  0  0  0  0  0  # atno 10718 bound_to 10713
  154.1650  135.2807  155.3097 H   0  0  0  0  0  0  0  0  0  0  0  0  # atno 10763 bound_to 10752
  154.6118  135.5496  153.7484 H   0  0  0  0  0  0  0  0  0  0  0  0  # atno 10764 bound_to 10752
  153.0181  135.6417  154.1791 H   0  0  0  0  0  0  0  0  0  0  0  0  # atno 10765 bound_to 10752
  140.1832  134.8461  157.2827 H   0  0  0  0  0  0  0  0  0  0  0  0  # atno 11005 bound_to 11000
  146.2261  140.5746  142.8996 LP  0  0  0  0  0  0  0  0  0  0  0  0  # atno 17320 bound_to 7965
  144.7812  140.5844  143.6604 LP  0  0  0  0  0  0  0  0  0  0  0  0  # atno 17321 bound_to 7965
  139.9295  144.6750  150.8378 LP  0  0  0  0  0  0  0  0  0  0  0  0  # atno 17342 bound_to 10162
  140.7670  143.3318  151.2393 LP  0  0  0  0  0  0  0  0  0  0  0  0  # atno 17343 bound_to 10162
  157.3431  130.7043  149.6394 LP  0  0  0  0  0  0  0  0  0  0  0  0  # atno 17370 bound_to 10713
  155.9673  130.4274  150.4742 LP  0  0  0  0  0  0  0  0  0  0  0  0  # atno 17371 bound_to 10713
  140.2244  134.3985  155.7551 LP  0  0  0  0  0  0  0  0  0  0  0  0  # atno 17394 bound_to 11000
  141.2224  133.7182  156.8541 LP  0  0  0  0  0  0  0  0  0  0  0  0  # atno 17395 bound_to 11000

$$$$
