AV-unprocessed.smi:3220|AV-procd|sdf|12300|dock3
  -GOLD-   2272018143D 1   1.00000     0.00000
 Structure written by MMmdl.
 33 34  0  0  0  0  0  0  0  0  1 V2000
  149.6220  141.5316  156.2655 C   0  0  0  0  0  0  0  0  0  0  0  0
  150.7362  140.9500  157.1480 C   0  0  1  0  0  0  0  0  0  0  0  0
  151.9186  140.4368  156.3037 C   0  0  0  0  0  0  0  0  0  0  0  0
  151.5362  139.3470  155.4233 N   0  0  0  0  0  0  0  0  0  0  0  0
  151.9100  138.0211  155.4868 C   0  0  0  0  0  0  0  0  0  0  0  0
  151.2949  137.3756  154.4527 C   0  0  0  0  0  0  0  0  0  0  0  0
  150.5559  138.4044  153.8043 C   0  0  0  0  0  0  0  0  0  0  0  0
  150.7023  139.5833  154.3876 N   0  0  0  0  0  0  0  0  0  0  0  0
  151.1998  141.9685  158.0882 N   0  0  0  0  0  0  0  0  0  0  0  0
  151.9942  141.7538  159.1477 C   0  0  0  0  0  0  0  0  0  0  0  0
  152.4188  140.6419  159.4633 O   0  0  0  0  0  0  0  0  0  0  0  0
  152.3767  142.9937  159.9638 C   0  0  1  0  0  0  0  0  0  0  0  0
  153.0785  144.0958  159.1479 C   0  0  0  0  0  0  0  0  0  0  0  0
  152.0419  145.1993  159.0711 C   0  0  0  0  0  0  0  0  0  0  0  0
  151.2737  144.9937  160.3685 C   0  0  0  0  0  0  0  0  0  0  0  0
  151.1767  143.5812  160.4635 O   0  0  0  0  0  0  0  0  0  0  0  0
  149.2468  140.7846  155.5654 H   0  0  0  0  0  0  0  0  0  0  0  0
  149.9786  142.3827  155.6844 H   0  0  0  0  0  0  0  0  0  0  0  0
  148.7779  141.8689  156.8680 H   0  0  0  0  0  0  0  0  0  0  0  0
  150.3212  140.1020  157.6963 H   0  0  0  0  0  0  0  0  0  0  0  0
  152.3217  141.2441  155.6902 H   0  0  0  0  0  0  0  0  0  0  0  0
  152.7329  140.0985  156.9461 H   0  0  0  0  0  0  0  0  0  0  0  0
  152.5718  137.6512  156.2560 H   0  0  0  0  0  0  0  0  0  0  0  0
  151.3614  136.3282  154.1989 H   0  0  0  0  0  0  0  0  0  0  0  0
  149.9220  138.3300  152.9332 H   0  0  0  0  0  0  0  0  0  0  0  0
  150.9063  142.9176  157.9085 H   0  0  0  0  0  0  0  0  0  0  0  0
  153.0087  142.7062  160.8059 H   0  0  0  0  0  0  0  0  0  0  0  0
  153.9569  144.4481  159.6900 H   0  0  0  0  0  0  0  0  0  0  0  0
  153.4142  143.7787  158.1596 H   0  0  0  0  0  0  0  0  0  0  0  0
  152.4794  146.1941  158.9849 H   0  0  0  0  0  0  0  0  0  0  0  0
  151.3829  145.0370  158.2171 H   0  0  0  0  0  0  0  0  0  0  0  0
  151.8355  145.3799  161.2203 H   0  0  0  0  0  0  0  0  0  0  0  0
  150.2908  145.4650  160.3583 H   0  0  0  0  0  0  0  0  0  0  0  0
  1  2  1  0  0  0  0
  1 17  1  0  0  0  0
  1 18  1  0  0  0  0
  1 19  1  0  0  0  0
  2  3  1  0  0  0  0
  2  9  1  0  0  0  0
  2 20  1  0  0  0  0
  3  4  1  0  0  0  0
  3 21  1  0  0  0  0
  3 22  1  0  0  0  0
  4  8  1  0  0  0  0
  4  5  1  0  0  0  0
  5  6  2  0  0  0  0
  5 23  1  0  0  0  0
  6  7  1  0  0  0  0
  6 24  1  0  0  0  0
  7  8  2  0  0  0  0
  7 25  1  0  0  0  0
  9 10  1  0  0  0  0
  9 26  1  0  0  0  0
 10 11  2  0  0  0  0
 10 12  1  0  0  0  0
 12 16  1  0  0  0  0
 12 13  1  0  0  0  0
 12 27  1  0  0  0  0
 13 14  1  0  0  0  0
 13 28  1  0  0  0  0
 13 29  1  0  0  0  0
 14 15  1  0  0  0  0
 14 30  1  0  0  0  0
 14 31  1  0  0  0  0
 15 16  1  0  0  0  0
 15 32  1  0  0  0  0
 15 33  1  0  0  0  0
M  END
> <s_m_source_file>
AV-unprocessed.smi

> <i_m_source_file_index>
3220

> <i_lp_mmshare_version>
43012

> <i_f3d_flags>
0

> <s_epik_input>
bjFbY0hdW2NIXVtjSF1uMVtDSDJdW0NAQEhdKFtDSDNdKVtOSF1DKD1PKVtDQEBIXTJbQ0gyXVtDSDJdW0NIMl1PMg==

> <s_epik_cmdline>
J2VwaWtfcHl0aG9uJywgJy1waCcsICc3LjAnLCAnLXRuJywgJzgnLCAnLW1hJywgJzIwMCcsICctbWV0YWxfYmluZGluZycsICctaW1hZScsICc8aW5maWxlLm1hZT4nLCAnLW9tYWUnLCAnPG91dGZpbGUubWFlPic=

> <r_lp_tautomer_probability>
1

> <r_epik_Ionization_Penalty>
0.00033363

> <r_epik_Ionization_Penalty_Charging>
0

> <r_epik_Ionization_Penalty_Neutral>
0.00033363

> <r_epik_State_Penalty>
-0

> <r_epik_Charging_Adjusted_Penalty>
0

> <i_epik_Tot_Q>
0

> <i_epik_Tot_abs_Q>
0

> <r_epik_Metal_State_Penalty>
-0

> <b_epik_Metal_Only>
0

> <s_lp_Force_Field>
OPLS_2005

> <r_lp_Energy>
17.8243

> <b_lp_Chiralities_Consistent>
1

> <s_lp_Variant>
AV-unprocessed.smi:3220-4

> <Gold.Version>
5.8.1

> <Gold.Id.Protein>
6NUR|6NUR_protein|mol2

> <Gold.PLP.Fitness>
43.6573

> <Gold.PLP.PLP>
-35.2715

> <Gold.PLP.part.hbond>
-1.7525

> <Gold.PLP.part.metal>
0.0000

> <Gold.PLP.part.buried>
-5.0557

> <Gold.PLP.part.nonpolar>
-28.5880

> <Gold.PLP.part.repulsive>
0.2848

> <Gold.PLP.ligand.clash>
0.0000

> <Gold.PLP.ligand.torsion>
0.1796

> <Gold.PLP.Chemscore.Hbond>
1.0000

> <Gold.PLP.Chemscore.CHOScore>
1.9064

> <Gold.PLP.Chemscore.Metal>
0.0000

> <Gold.Chemscore.Hbonds>
donor molecule, donor type, donor heavy atom, donor atom, acceptor molecule, acceptor atom, score
      P1  H  7989  7998       L1     8  1.00
      L1  C     7    25       P1  7948  0.97
      L1  C     7    25       P1  7957  0.95

> <Gold.PLP.Chemscore.Internal.Correction>
0.0256

> <Gold.Rescore>
     Score         DG    S(hbond)    S(metal)    S(lipo)     H(rot)  DE(clash)    DE(int)     intcor
     14.53     -15.01       0.99        0.00      88.66       1.62       0.10       0.38       ----

> <Gold.Chemscore.Fitness>
14.5340

> <Gold.Chemscore.DG>
-15.0146

> <Gold.Chemscore.ZeroCoef>
-5.4800

> <Gold.Chemscore.Hbond>
0.9919

> <Gold.Chemscore.Metal>
0.0000

> <Gold.Chemscore.Lipo>
88.6636

> <Gold.Chemscore.Internal_Hbond>
0.0000

> <Gold.Chemscore.DEClash>
0.0998

> <Gold.Chemscore.DEInternal>
0.3807

> <Gold.Chemscore.Rot>
1.6219

> <Gold.Chemscore.Internal.Correction>
   9.000000E+99

> <Gold.Chemscore.Hbonds>
donor molecule, donor type, donor heavy atom, donor atom, acceptor molecule, acceptor atom, score
      P1  H  7989  7998       L1     8  0.28

> <Gold.Chemscore.Hbond.Weighted>
-3.3129

> <Gold.Chemscore.Metal.Weighted>
-0.0000

> <Gold.Chemscore.Lipo.Weighted>
-10.3736

> <Gold.Chemscore.Internal_Hbond.Weighted>
0.0000

> <Gold.Chemscore.DEClash.Weighted>
0.0998

> <Gold.Chemscore.DEInternal.Weighted>
0.3807

> <Gold.Chemscore.Rot.Weighted>
4.1520

> <Gold.Chemscore.Internal.Correction.Weighted>
   9.000000E+99

> <Gold.Protein.RotatedTorsions>
[ 6907 6896 6895 6894 ] final   77.63 input  -60.11 | X-H torsion
[ 7974 7965 7964 7962 ] final  -12.15 input  175.53 | X-H torsion
[ 8008 7997 7996 7995 ] final -145.38 input   59.86 | X-H torsion
[ 10167 10162 10161 10158 ] final -179.52 input  -65.29 | X-H torsion
[ 10718 10713 10712 10709 ] final -134.92 input   66.30 | X-H torsion
[ 10763 10752 10751 10750 ] final   38.41 input  -60.55 | X-H torsion
[ 11005 11000 10999 10996 ] final   -3.60 input  -57.11 | X-H torsion

> <Gold.Protein.ActiveResidues>
 VAL166  LYS551  ARG553  GLY616  TRP617  ASP618  TYR619  PRO620  LYS621  CYS622 
 ASP623  PHE694  ASN695  SER759  ASP760  ASP761  ALA762  ILE779  LEU786  VAL792 
 PHE793  MET794  SER795  GLU796  ALA797  LYS798  CYS799  TRP800  GLU811  SER814 

> <Gold.Protein.RotatedAtoms>
  152.5126  134.3787  159.9343 H   0  0  0  0  0  0  0  0  0  0  0  0  # atno 6907 bound_to 6896
  151.3743  133.3837  159.2711 H   0  0  0  0  0  0  0  0  0  0  0  0  # atno 6908 bound_to 6896
  150.9553  134.8968  159.7756 H   0  0  0  0  0  0  0  0  0  0  0  0  # atno 6909 bound_to 6896
  146.2162  140.3015  142.8375 H   0  0  0  0  0  0  0  0  0  0  0  0  # atno 7974 bound_to 7965
  155.5422  140.0609  157.2867 H   0  0  0  0  0  0  0  0  0  0  0  0  # atno 8008 bound_to 7997
  154.4448  140.1917  156.0646 H   0  0  0  0  0  0  0  0  0  0  0  0  # atno 8009 bound_to 7997
  156.0576  140.3276  155.7428 H   0  0  0  0  0  0  0  0  0  0  0  0  # atno 8010 bound_to 7997
  139.5382  144.2436  152.0841 H   0  0  0  0  0  0  0  0  0  0  0  0  # atno 10167 bound_to 10162
  156.2606  130.7207  151.1140 H   0  0  0  0  0  0  0  0  0  0  0  0  # atno 10718 bound_to 10713
  153.0002  135.6250  154.2301 H   0  0  0  0  0  0  0  0  0  0  0  0  # atno 10763 bound_to 10752
  154.2043  135.2803  155.2982 H   0  0  0  0  0  0  0  0  0  0  0  0  # atno 10764 bound_to 10752
  154.5658  135.5691  153.7108 H   0  0  0  0  0  0  0  0  0  0  0  0  # atno 10765 bound_to 10752
  140.6712  133.9235  155.8495 H   0  0  0  0  0  0  0  0  0  0  0  0  # atno 11005 bound_to 11000
  144.9054  140.7693  143.5841 LP  0  0  0  0  0  0  0  0  0  0  0  0  # atno 17320 bound_to 7965
  145.2943  139.1872  143.4723 LP  0  0  0  0  0  0  0  0  0  0  0  0  # atno 17321 bound_to 7965
  140.1910  144.4752  150.6479 LP  0  0  0  0  0  0  0  0  0  0  0  0  # atno 17342 bound_to 10162
  140.6600  143.2249  151.5878 LP  0  0  0  0  0  0  0  0  0  0  0  0  # atno 17343 bound_to 10162
  157.7249  131.0657  150.5976 LP  0  0  0  0  0  0  0  0  0  0  0  0  # atno 17370 bound_to 10713
  156.6063  130.4368  149.5877 LP  0  0  0  0  0  0  0  0  0  0  0  0  # atno 17371 bound_to 10713
  141.0391  134.0647  157.3924 LP  0  0  0  0  0  0  0  0  0  0  0  0  # atno 17394 bound_to 11000
  139.8981  135.0153  156.7133 LP  0  0  0  0  0  0  0  0  0  0  0  0  # atno 17395 bound_to 11000

$$$$
