AV-unprocessed.smi:2321|AV-procd|sdf|9281|dock5
  -GOLD-   2272012503D 1   1.00000     0.00000
 Structure written by MMmdl.
 36 37  0  0  0  0  0  0  0  0  1 V2000
  146.4309  139.2636  153.7534 O   0  0  0  0  0  0  0  0  0  0  0  0
  147.2364  138.4782  153.2586 C   0  0  0  0  0  0  0  0  0  0  0  0
  148.5571  138.4610  153.5249 N   0  0  0  0  0  0  0  0  0  0  0  0
  149.3037  139.2876  154.4069 C   0  0  0  0  0  0  0  0  0  0  0  0
  148.8559  140.5388  154.8952 C   0  0  0  0  0  0  0  0  0  0  0  0
  149.7033  141.2702  155.7516 C   0  0  0  0  0  0  0  0  0  0  0  0
  150.9276  140.8446  156.1289 N   0  0  0  0  0  0  0  0  0  0  0  0
  151.3560  139.6573  155.6504 C   0  0  0  0  0  0  0  0  0  0  0  0
  150.5894  138.8488  154.7879 C   0  0  0  0  0  0  0  0  0  0  0  0
  151.0817  137.6686  154.3394 F   0  0  0  0  0  0  0  0  0  0  0  0
  146.8352  137.5236  152.3989 N   0  0  0  0  0  0  0  0  0  0  0  0
  145.4841  137.2548  151.8940 C   0  0  2  0  0  0  0  0  0  0  0  0
  144.4927  137.1396  153.0677 C   0  0  0  0  0  0  0  0  0  0  0  0
  144.6995  135.8498  153.8796 C   0  0  0  0  0  0  0  0  0  0  0  0
  144.6383  134.6061  152.9797 C   0  0  0  0  0  0  0  0  0  0  0  0
  145.6606  134.6867  151.8266 C   0  0  1  0  0  0  0  0  0  0  0  0
  145.6202  133.4328  150.9288 C   0  0  0  0  0  0  0  0  0  0  0  0
  144.4455  133.3323  150.3061 F   0  0  0  0  0  0  0  0  0  0  0  0
  146.5885  133.4959  150.0148 F   0  0  0  0  0  0  0  0  0  0  0  0
  145.8134  132.3379  151.6640 F   0  0  0  0  0  0  0  0  0  0  0  0
  145.4431  135.9839  151.0150 C   0  0  0  0  0  0  0  0  0  0  0  0
  149.0795  137.7092  153.0993 H   0  0  0  0  0  0  0  0  0  0  0  0
  147.8975  140.9540  154.6248 H   0  0  0  0  0  0  0  0  0  0  0  0
  149.3902  142.2279  156.1400 H   0  0  0  0  0  0  0  0  0  0  0  0
  152.3408  139.3428  155.9628 H   0  0  0  0  0  0  0  0  0  0  0  0
  147.5535  136.8958  152.0674 H   0  0  0  0  0  0  0  0  0  0  0  0
  145.1677  138.1077  151.2910 H   0  0  0  0  0  0  0  0  0  0  0  0
  144.5740  138.0100  153.7201 H   0  0  0  0  0  0  0  0  0  0  0  0
  143.4747  137.1504  152.6758 H   0  0  0  0  0  0  0  0  0  0  0  0
  145.6619  135.8839  154.3915 H   0  0  0  0  0  0  0  0  0  0  0  0
  143.9406  135.7794  154.6592 H   0  0  0  0  0  0  0  0  0  0  0  0
  144.8219  133.7164  153.5826 H   0  0  0  0  0  0  0  0  0  0  0  0
  143.6310  134.5003  152.5750 H   0  0  0  0  0  0  0  0  0  0  0  0
  146.6564  134.7319  152.2704 H   0  0  0  0  0  0  0  0  0  0  0  0
  144.4739  135.9349  150.5174 H   0  0  0  0  0  0  0  0  0  0  0  0
  146.1813  136.0535  150.2158 H   0  0  0  0  0  0  0  0  0  0  0  0
  1  2  2  0  0  0  0
  2  3  1  0  0  0  0
  2 11  1  0  0  0  0
  3  4  1  0  0  0  0
  3 22  1  0  0  0  0
  4  9  1  0  0  0  0
  4  5  2  0  0  0  0
  5  6  1  0  0  0  0
  5 23  1  0  0  0  0
  6  7  2  0  0  0  0
  6 24  1  0  0  0  0
  7  8  1  0  0  0  0
  8  9  2  0  0  0  0
  8 25  1  0  0  0  0
  9 10  1  0  0  0  0
 11 12  1  0  0  0  0
 11 26  1  0  0  0  0
 12 21  1  0  0  0  0
 12 13  1  0  0  0  0
 12 27  1  0  0  0  0
 13 14  1  0  0  0  0
 13 28  1  0  0  0  0
 13 29  1  0  0  0  0
 14 15  1  0  0  0  0
 14 30  1  0  0  0  0
 14 31  1  0  0  0  0
 15 16  1  0  0  0  0
 15 32  1  0  0  0  0
 15 33  1  0  0  0  0
 16 17  1  0  0  0  0
 16 21  1  0  0  0  0
 16 34  1  0  0  0  0
 17 18  1  0  0  0  0
 17 19  1  0  0  0  0
 17 20  1  0  0  0  0
 21 35  1  0  0  0  0
 21 36  1  0  0  0  0
M  END
> <s_m_source_file>
AV-unprocessed.smi

> <i_m_source_file_index>
2321

> <i_lp_mmshare_version>
43012

> <i_f3d_flags>
0

> <s_epik_input>
RkMoRikoRilbQ0BASF0oW0NIMl0xKVtDSDJdW0NIMl1bQ0gyXVtDQEhdMVtOSF1DKD1PKVtOSF1jMltjSF1bY0hdbltjSF1jMkY=

> <s_epik_cmdline>
J2VwaWtfcHl0aG9uJywgJy1waCcsICc3LjAnLCAnLXRuJywgJzgnLCAnLW1hJywgJzIwMCcsICctbWV0YWxfYmluZGluZycsICctaW1hZScsICc8aW5maWxlLm1hZT4nLCAnLW9tYWUnLCAnPG91dGZpbGUubWFlPic=

> <r_epik_Ionization_Penalty>
0.00319438

> <r_epik_Ionization_Penalty_Charging>
0

> <r_epik_Ionization_Penalty_Neutral>
0.00319438

> <r_epik_State_Penalty>
0.00222511

> <r_epik_Charging_Adjusted_Penalty>
0.00222511

> <i_epik_Tot_Q>
0

> <i_epik_Tot_abs_Q>
0

> <r_epik_Metal_State_Penalty>
-0

> <b_epik_Metal_Only>
0

> <s_lp_Force_Field>
OPLS_2005

> <r_lp_Energy>
25.9848

> <b_lp_Chiralities_Consistent>
1

> <s_lp_Variant>
AV-unprocessed.smi:2321-1

> <Gold.Version>
5.8.1

> <Gold.Id.Protein>
6NUR|6NUR_protein|mol2

> <Gold.PLP.Fitness>
46.5790

> <Gold.PLP.PLP>
-38.3095

> <Gold.PLP.part.hbond>
-3.6001

> <Gold.PLP.part.metal>
0.0000

> <Gold.PLP.part.buried>
-1.2076

> <Gold.PLP.part.nonpolar>
-34.5162

> <Gold.PLP.part.repulsive>
0.3651

> <Gold.PLP.ligand.clash>
0.0000

> <Gold.PLP.ligand.torsion>
0.1351

> <Gold.PLP.Chemscore.Hbond>
1.8393

> <Gold.PLP.Chemscore.CHOScore>
1.0000

> <Gold.PLP.Chemscore.Metal>
0.0000

> <Gold.Chemscore.Hbonds>
donor molecule, donor type, donor heavy atom, donor atom, acceptor molecule, acceptor atom, score
      L1  H     3    22       P1  7948  0.90
      L1  H    11    26       P1  7948  1.00
      L1  C     6    24       P1  8028  0.86

> <Gold.PLP.Chemscore.Internal.Correction>
0.0219

> <Gold.Rescore>
     Score         DG    S(hbond)    S(metal)    S(lipo)     H(rot)  DE(clash)    DE(int)     intcor
     13.51     -16.77       1.82        0.00      66.36       1.00       0.65       2.61       ----

> <Gold.Chemscore.Fitness>
13.5132

> <Gold.Chemscore.DG>
-16.7748

> <Gold.Chemscore.ZeroCoef>
-5.4800

> <Gold.Chemscore.Hbond>
1.8237

> <Gold.Chemscore.Metal>
0.0000

> <Gold.Chemscore.Lipo>
66.3574

> <Gold.Chemscore.Internal_Hbond>
0.0000

> <Gold.Chemscore.DEClash>
0.6503

> <Gold.Chemscore.DEInternal>
2.6113

> <Gold.Chemscore.Rot>
1.0000

> <Gold.Chemscore.Internal.Correction>
   9.000000E+99

> <Gold.Chemscore.Hbonds>
donor molecule, donor type, donor heavy atom, donor atom, acceptor molecule, acceptor atom, score
      L1  H     3    22       P1  7948  0.88
      L1  H    11    26       P1  7948  0.94

> <Gold.Chemscore.Hbond.Weighted>
-6.0910

> <Gold.Chemscore.Metal.Weighted>
-0.0000

> <Gold.Chemscore.Lipo.Weighted>
-7.7638

> <Gold.Chemscore.Internal_Hbond.Weighted>
0.0000

> <Gold.Chemscore.DEClash.Weighted>
0.6503

> <Gold.Chemscore.DEInternal.Weighted>
2.6113

> <Gold.Chemscore.Rot.Weighted>
2.5600

> <Gold.Chemscore.Internal.Correction.Weighted>
   9.000000E+99

> <Gold.Protein.RotatedTorsions>
[ 6907 6896 6895 6894 ] final  125.17 input  -60.11 | X-H torsion
[ 7974 7965 7964 7962 ] final  -29.38 input  175.53 | X-H torsion
[ 8008 7997 7996 7995 ] final   41.18 input   59.86 | X-H torsion
[ 10167 10162 10161 10158 ] final   75.64 input  -65.29 | X-H torsion
[ 10718 10713 10712 10709 ] final    7.12 input   66.30 | X-H torsion
[ 10763 10752 10751 10750 ] final  111.96 input  -60.55 | X-H torsion
[ 11005 11000 10999 10996 ] final  176.88 input  -57.11 | X-H torsion

> <Gold.Protein.ActiveResidues>
 VAL166  LYS551  ARG553  GLY616  TRP617  ASP618  TYR619  PRO620  LYS621  CYS622 
 ASP623  PHE694  ASN695  SER759  ASP760  ASP761  ALA762  ILE779  LEU786  VAL792 
 PHE793  MET794  SER795  GLU796  ALA797  LYS798  CYS799  TRP800  GLU811  SER814 

> <Gold.Protein.RotatedAtoms>
  152.4015  133.6825  159.6320 H   0  0  0  0  0  0  0  0  0  0  0  0  # atno 6907 bound_to 6896
  150.7906  133.8783  159.3287 H   0  0  0  0  0  0  0  0  0  0  0  0  # atno 6908 bound_to 6896
  151.6547  135.0998  160.0219 H   0  0  0  0  0  0  0  0  0  0  0  0  # atno 6909 bound_to 6896
  146.1220  140.5405  142.8731 H   0  0  0  0  0  0  0  0  0  0  0  0  # atno 7974 bound_to 7965
  155.2653  140.3362  155.4269 H   0  0  0  0  0  0  0  0  0  0  0  0  # atno 8008 bound_to 7997
  156.2157  140.1788  156.7637 H   0  0  0  0  0  0  0  0  0  0  0  0  # atno 8009 bound_to 7997
  154.5749  140.0663  156.9004 H   0  0  0  0  0  0  0  0  0  0  0  0  # atno 8010 bound_to 7997
  140.0007  144.5688  150.7739 H   0  0  0  0  0  0  0  0  0  0  0  0  # atno 10167 bound_to 10162
  156.9323  130.5830  149.5650 H   0  0  0  0  0  0  0  0  0  0  0  0  # atno 10718 bound_to 10713
  153.4709  135.3701  155.2390 H   0  0  0  0  0  0  0  0  0  0  0  0  # atno 10763 bound_to 10752
  154.8757  135.3931  154.3813 H   0  0  0  0  0  0  0  0  0  0  0  0  # atno 10764 bound_to 10752
  153.4401  135.7084  153.6239 H   0  0  0  0  0  0  0  0  0  0  0  0  # atno 10765 bound_to 10752
  140.3779  134.6972  157.4433 H   0  0  0  0  0  0  0  0  0  0  0  0  # atno 11005 bound_to 11000
  144.7606  140.5413  143.6738 LP  0  0  0  0  0  0  0  0  0  0  0  0  # atno 17320 bound_to 7965
  145.5445  139.1475  143.3428 LP  0  0  0  0  0  0  0  0  0  0  0  0  # atno 17321 bound_to 7965
  140.7420  143.2825  151.3557 LP  0  0  0  0  0  0  0  0  0  0  0  0  # atno 17342 bound_to 10162
  139.6273  144.0788  152.2446 LP  0  0  0  0  0  0  0  0  0  0  0  0  # atno 17343 bound_to 10162
  156.0442  130.5520  150.8841 LP  0  0  0  0  0  0  0  0  0  0  0  0  # atno 17370 bound_to 10713
  157.5839  131.0946  150.9228 LP  0  0  0  0  0  0  0  0  0  0  0  0  # atno 17371 bound_to 10713
  140.0501  134.6143  155.8873 LP  0  0  0  0  0  0  0  0  0  0  0  0  # atno 17394 bound_to 11000
  141.1933  133.6578  156.5542 LP  0  0  0  0  0  0  0  0  0  0  0  0  # atno 17395 bound_to 11000

$$$$
