AV-unprocessed.smi:1134|AV-procd|sdf|4857|dock2
  -GOLD-   22720 3423D 1   1.00000     0.00000
 Structure written by MMmdl.
 35 36  0  0  0  0  0  0  0  0  3 V2000
  150.3528  140.8194  154.7878 O   0  0  0  0  0  0  0  0  0  0  0  0
  149.5097  141.4237  155.4493 C   0  0  0  0  0  0  0  0  0  0  0  0
  148.0864  141.5723  154.8835 C   0  0  0  0  0  0  0  0  0  0  0  0
  147.3140  140.3193  154.7992 N   0  0  0  0  0  0  0  0  0  0  0  0
  147.1577  139.7537  153.5184 C   0  0  0  0  0  0  0  0  0  0  0  0
  146.4755  138.6090  153.3194 C   0  0  0  0  0  0  0  0  0  0  0  0
  146.3322  138.0391  151.9979 N   0  3  0  0  0  0  0  0  0  0  0  0
  146.7855  138.6557  151.0392 O   0  0  0  0  0  0  0  0  0  0  0  0
  145.7626  136.9589  151.8740 O   0  5  0  0  0  0  0  0  0  0  0  0
  145.8922  137.9618  154.4786 C   0  0  0  0  0  0  0  0  0  0  0  0
  146.0416  138.4954  155.7070 C   0  0  0  0  0  0  0  0  0  0  0  0
  146.7904  139.7379  155.9219 C   0  0  0  0  0  0  0  0  0  0  0  0
  146.9433  140.2224  157.0429 O   0  0  0  0  0  0  0  0  0  0  0  0
  149.7784  141.9564  156.6537 N   0  0  0  0  0  0  0  0  0  0  0  0
  151.0660  141.8939  157.3319 C   0  0  0  0  0  0  0  0  0  0  0  0
  151.5710  143.2993  157.7054 C   0  0  0  0  0  0  0  0  0  0  0  0
  151.9678  143.3649  159.1172 N   0  0  0  0  0  0  0  0  0  0  0  0
  151.6884  144.4263  159.9081 C   0  0  0  0  0  0  0  0  0  0  0  0
  151.0795  145.4324  159.5447 O   0  0  0  0  0  0  0  0  0  0  0  0
  152.2058  144.2992  161.3461 C   0  0  0  0  0  0  0  0  0  0  0  0
  153.0402  142.7109  161.3976 S   0  0  0  0  0  0  0  0  0  0  0  0
  152.6688  142.3927  159.7247 C   0  0  0  0  0  0  0  0  0  0  0  0
  153.0415  141.3537  159.1803 O   0  0  0  0  0  0  0  0  0  0  0  0
  147.5530  142.3101  155.4855 H   0  0  0  0  0  0  0  0  0  0  0  0
  148.1643  142.0265  153.8945 H   0  0  0  0  0  0  0  0  0  0  0  0
  147.6345  140.3091  152.7234 H   0  0  0  0  0  0  0  0  0  0  0  0
  145.3324  137.0444  154.3706 H   0  0  0  0  0  0  0  0  0  0  0  0
  145.5991  137.9962  156.5566 H   0  0  0  0  0  0  0  0  0  0  0  0
  149.0340  142.4387  157.1361 H   0  0  0  0  0  0  0  0  0  0  0  0
  150.9956  141.2597  158.2173 H   0  0  0  0  0  0  0  0  0  0  0  0
  151.7734  141.4089  156.6586 H   0  0  0  0  0  0  0  0  0  0  0  0
  152.4123  143.5730  157.0659 H   0  0  0  0  0  0  0  0  0  0  0  0
  150.8001  144.0432  157.4965 H   0  0  0  0  0  0  0  0  0  0  0  0
  152.9010  145.1057  161.5798 H   0  0  0  0  0  0  0  0  0  0  0  0
  151.3798  144.3220  162.0572 H   0  0  0  0  0  0  0  0  0  0  0  0
  1  2  2  0  0  0  0
  2  3  1  0  0  0  0
  2 14  1  0  0  0  0
  3  4  1  0  0  0  0
  3 24  1  0  0  0  0
  3 25  1  0  0  0  0
  4 12  1  0  0  0  0
  4  5  1  0  0  0  0
  5  6  2  0  0  0  0
  5 26  1  0  0  0  0
  6  7  1  0  0  0  0
  6 10  1  0  0  0  0
  7  8  2  0  0  0  0
  7  9  1  0  0  0  0
 10 11  2  0  0  0  0
 10 27  1  0  0  0  0
 11 12  1  0  0  0  0
 11 28  1  0  0  0  0
 12 13  2  0  0  0  0
 14 15  1  0  0  0  0
 14 29  1  0  0  0  0
 15 16  1  0  0  0  0
 15 30  1  0  0  0  0
 15 31  1  0  0  0  0
 16 17  1  0  0  0  0
 16 32  1  0  0  0  0
 16 33  1  0  0  0  0
 17 22  1  0  0  0  0
 17 18  1  0  0  0  0
 18 19  2  0  0  0  0
 18 20  1  0  0  0  0
 20 21  1  0  0  0  0
 20 34  1  0  0  0  0
 20 35  1  0  0  0  0
 21 22  1  0  0  0  0
 22 23  2  0  0  0  0
M  CHG  1   7   1
M  CHG  1   9  -1
M  END
> <s_m_source_file>
AV-unprocessed.smi

> <i_m_source_file_index>
1134

> <i_lp_mmshare_version>
43012

> <i_f3d_flags>
0

> <s_epik_input>
Tz1jMVtjSF1bY0hdYyhbTitdKD1PKVtPLV0pW2NIXW4xW0NIMl1DKD1PKVtOSF1bQ0gyXVtDSDJdTjJDKD1PKVtDSDJdU0MyPU8=

> <s_epik_cmdline>
J2VwaWtfcHl0aG9uJywgJy1waCcsICc3LjAnLCAnLXRuJywgJzgnLCAnLW1hJywgJzIwMCcsICctbWV0YWxfYmluZGluZycsICctaW1hZScsICc8aW5maWxlLm1hZT4nLCAnLW9tYWUnLCAnPG91dGZpbGUubWFlPic=

> <r_lp_tautomer_probability>
1

> <r_epik_Ionization_Penalty>
5.49556e-08

> <r_epik_Ionization_Penalty_Charging>
6.94392e-11

> <r_epik_Ionization_Penalty_Neutral>
5.48861e-08

> <r_epik_State_Penalty>
-0

> <r_epik_Charging_Adjusted_Penalty>
6.94392e-11

> <i_epik_Tot_Q>
0

> <i_epik_Tot_abs_Q>
2

> <r_epik_Metal_State_Penalty>
-0

> <b_epik_Metal_Only>
0

> <s_lp_Force_Field>
OPLS_2005

> <r_lp_Energy>
19.8089

> <b_lp_Chiralities_Consistent>
1

> <s_lp_Variant>
AV-unprocessed.smi:1134-1

> <Gold.Version>
5.8.1

> <Gold.Id.Protein>
6NUR|6NUR_protein|mol2

> <Gold.PLP.Fitness>
47.1875

> <Gold.PLP.PLP>
-40.5919

> <Gold.PLP.part.hbond>
-2.9382

> <Gold.PLP.part.metal>
0.0000

> <Gold.PLP.part.buried>
-7.2373

> <Gold.PLP.part.nonpolar>
-33.1188

> <Gold.PLP.part.repulsive>
1.3345

> <Gold.PLP.ligand.clash>
0.0000

> <Gold.PLP.ligand.torsion>
0.8760

> <Gold.PLP.Chemscore.Hbond>
1.7600

> <Gold.PLP.Chemscore.CHOScore>
1.0000

> <Gold.PLP.Chemscore.Metal>
0.0000

> <Gold.Chemscore.Hbonds>
donor molecule, donor type, donor heavy atom, donor atom, acceptor molecule, acceptor atom, score
      P1  H  7954  7966       L1     8  0.98
      P1  H  7989  7998       L1     1  0.80
      L1  C     5    26       P1  7957  1.00

> <Gold.PLP.Chemscore.Internal.Correction>
0.0675

> <Gold.Rescore>
     Score         DG    S(hbond)    S(metal)    S(lipo)     H(rot)  DE(clash)    DE(int)     intcor
      9.40     -11.65       1.85        0.00      59.73       2.74       0.34       1.91       ----

> <Gold.Chemscore.Fitness>
9.4042

> <Gold.Chemscore.DG>
-11.6514

> <Gold.Chemscore.ZeroCoef>
-5.4800

> <Gold.Chemscore.Hbond>
1.8538

> <Gold.Chemscore.Metal>
0.0000

> <Gold.Chemscore.Lipo>
59.7283

> <Gold.Chemscore.Internal_Hbond>
0.0000

> <Gold.Chemscore.DEClash>
0.3416

> <Gold.Chemscore.DEInternal>
1.9056

> <Gold.Chemscore.Rot>
2.7377

> <Gold.Chemscore.Internal.Correction>
   9.000000E+99

> <Gold.Chemscore.Hbonds>
donor molecule, donor type, donor heavy atom, donor atom, acceptor molecule, acceptor atom, score
      P1  H  7954  7966       L1     8  0.91
      P1  H  7989  7998       L1     1  0.80

> <Gold.Chemscore.Hbond.Weighted>
-6.1917

> <Gold.Chemscore.Metal.Weighted>
-0.0000

> <Gold.Chemscore.Lipo.Weighted>
-6.9882

> <Gold.Chemscore.Internal_Hbond.Weighted>
0.0000

> <Gold.Chemscore.DEClash.Weighted>
0.3416

> <Gold.Chemscore.DEInternal.Weighted>
1.9056

> <Gold.Chemscore.Rot.Weighted>
7.0085

> <Gold.Chemscore.Internal.Correction.Weighted>
   9.000000E+99

> <Gold.Protein.RotatedTorsions>
[ 6907 6896 6895 6894 ] final   52.75 input  -60.11 | X-H torsion
[ 7974 7965 7964 7962 ] final   74.99 input  175.53 | X-H torsion
[ 8008 7997 7996 7995 ] final  -41.08 input   59.86 | X-H torsion
[ 10167 10162 10161 10158 ] final  137.36 input  -65.29 | X-H torsion
[ 10718 10713 10712 10709 ] final -119.35 input   66.30 | X-H torsion
[ 10763 10752 10751 10750 ] final  -55.76 input  -60.55 | X-H torsion
[ 11005 11000 10999 10996 ] final -133.62 input  -57.11 | X-H torsion

> <Gold.Protein.ActiveResidues>
 VAL166  LYS551  ARG553  GLY616  TRP617  ASP618  TYR619  PRO620  LYS621  CYS622 
 ASP623  PHE694  ASN695  SER759  ASP760  ASP761  ALA762  ILE779  LEU786  VAL792 
 PHE793  MET794  SER795  GLU796  ALA797  LYS798  CYS799  TRP800  GLU811  SER814 

> <Gold.Protein.RotatedAtoms>
  152.3265  134.7313  160.0300 H   0  0  0  0  0  0  0  0  0  0  0  0  # atno 6907 bound_to 6896
  151.7744  133.3338  159.3462 H   0  0  0  0  0  0  0  0  0  0  0  0  # atno 6908 bound_to 6896
  150.7399  134.5920  159.6037 H   0  0  0  0  0  0  0  0  0  0  0  0  # atno 6909 bound_to 6896
  145.7213  139.2649  143.1594 H   0  0  0  0  0  0  0  0  0  0  0  0  # atno 7974 bound_to 7965
  154.4007  140.1508  156.3132 H   0  0  0  0  0  0  0  0  0  0  0  0  # atno 8008 bound_to 7997
  155.8596  140.3454  155.5726 H   0  0  0  0  0  0  0  0  0  0  0  0  # atno 8009 bound_to 7997
  155.7894  140.0854  157.2007 H   0  0  0  0  0  0  0  0  0  0  0  0  # atno 8010 bound_to 7997
  139.5147  144.6414  151.5558 H   0  0  0  0  0  0  0  0  0  0  0  0  # atno 10167 bound_to 10162
  156.1174  130.6297  150.9405 H   0  0  0  0  0  0  0  0  0  0  0  0  # atno 10718 bound_to 10713
  154.1959  135.6419  153.5073 H   0  0  0  0  0  0  0  0  0  0  0  0  # atno 10763 bound_to 10752
  153.0023  135.5440  154.6366 H   0  0  0  0  0  0  0  0  0  0  0  0  # atno 10764 bound_to 10752
  154.5767  135.2921  155.0747 H   0  0  0  0  0  0  0  0  0  0  0  0  # atno 10765 bound_to 10752
  140.9064  134.1625  157.4422 H   0  0  0  0  0  0  0  0  0  0  0  0  # atno 11005 bound_to 11000
  146.0623  140.7957  142.9728 LP  0  0  0  0  0  0  0  0  0  0  0  0  # atno 17320 bound_to 7965
  144.6916  140.3216  143.7231 LP  0  0  0  0  0  0  0  0  0  0  0  0  # atno 17321 bound_to 7965
  140.6182  143.9308  150.6505 LP  0  0  0  0  0  0  0  0  0  0  0  0  # atno 17342 bound_to 10162
  140.2573  143.3549  152.1354 LP  0  0  0  0  0  0  0  0  0  0  0  0  # atno 17343 bound_to 10162
  157.6358  131.0916  150.8352 LP  0  0  0  0  0  0  0  0  0  0  0  0  # atno 17370 bound_to 10713
  156.8453  130.5062  149.5317 LP  0  0  0  0  0  0  0  0  0  0  0  0  # atno 17371 bound_to 10713
  139.8750  134.9918  156.5568 LP  0  0  0  0  0  0  0  0  0  0  0  0  # atno 17394 bound_to 11000
  140.8166  133.8387  155.8857 LP  0  0  0  0  0  0  0  0  0  0  0  0  # atno 17395 bound_to 11000

$$$$
