AV-unprocessed.smi:668|AV-procd|sdf|3259|dock6
  -GOLD-   22720 0213D 1   1.00000     0.00000
 Structure written by MMmdl.
 38 39  0  0  0  0  0  0  0  0  1 V2000
  150.9998  142.0396  157.8028 C   0  0  0  0  0  0  0  0  0  0  0  0
  151.2420  141.7037  156.4410 O   0  0  0  0  0  0  0  0  0  0  0  0
  150.8569  140.4559  155.9955 C   0  0  0  0  0  0  0  0  0  0  0  0
  150.5745  139.4574  156.9487 C   0  0  0  0  0  0  0  0  0  0  0  0
  150.1724  138.1839  156.5031 C   0  0  0  0  0  0  0  0  0  0  0  0
  150.0591  137.9510  155.1120 C   0  0  0  0  0  0  0  0  0  0  0  0
  149.6757  136.7079  154.5416 N   0  0  0  0  0  0  0  0  0  0  0  0
  149.4207  135.5491  155.1724 C   0  0  0  0  0  0  0  0  0  0  0  0
  149.4875  135.3714  156.3886 O   0  0  0  0  0  0  0  0  0  0  0  0
  149.0567  134.5948  154.3048 N   0  0  0  0  0  0  0  0  0  0  0  0
  148.6761  133.2323  154.6698 C   0  0  2  0  0  0  0  0  0  0  0  0
  149.6627  132.5975  155.6623 C   0  0  0  0  0  0  0  0  0  0  0  0
  149.6568  131.1117  155.3178 C   0  0  0  0  0  0  0  0  0  0  0  0
  149.5263  131.0862  153.7965 C   0  0  0  0  0  0  0  0  0  0  0  0
  148.6575  132.3055  153.4257 C   0  0  1  0  0  0  0  0  0  0  0  0
  147.2286  131.9060  153.0226 C   0  0  0  0  0  0  0  0  0  0  0  0
  147.0954  131.1128  151.9565 N   0  0  0  0  0  0  0  0  0  0  0  0
  146.2589  132.3030  153.6660 O   0  0  0  0  0  0  0  0  0  0  0  0
  150.3846  139.0103  154.2401 C   0  0  0  0  0  0  0  0  0  0  0  0
  150.7673  140.2342  154.6607 N   0  0  0  0  0  0  0  0  0  0  0  0
  151.3643  143.0485  157.9955 H   0  0  0  0  0  0  0  0  0  0  0  0
  151.5261  141.3638  158.4784 H   0  0  0  0  0  0  0  0  0  0  0  0
  149.9343  142.0226  158.0370 H   0  0  0  0  0  0  0  0  0  0  0  0
  150.6663  139.6642  158.0049 H   0  0  0  0  0  0  0  0  0  0  0  0
  149.9722  137.4135  157.2314 H   0  0  0  0  0  0  0  0  0  0  0  0
  149.4981  136.7228  153.5480 H   0  0  0  0  0  0  0  0  0  0  0  0
  149.0279  134.8282  153.3233 H   0  0  0  0  0  0  0  0  0  0  0  0
  147.6891  133.2555  155.1379 H   0  0  0  0  0  0  0  0  0  0  0  0
  150.6670  132.9954  155.5074 H   0  0  0  0  0  0  0  0  0  0  0  0
  149.3896  132.7872  156.7009 H   0  0  0  0  0  0  0  0  0  0  0  0
  150.5480  130.5934  155.6729 H   0  0  0  0  0  0  0  0  0  0  0  0
  148.7880  130.6325  155.7710 H   0  0  0  0  0  0  0  0  0  0  0  0
  150.5136  131.1965  153.3457 H   0  0  0  0  0  0  0  0  0  0  0  0
  149.1217  130.1363  153.4430 H   0  0  0  0  0  0  0  0  0  0  0  0
  149.1277  132.8013  152.5738 H   0  0  0  0  0  0  0  0  0  0  0  0
  146.1771  130.8244  151.6520 H   0  0  0  0  0  0  0  0  0  0  0  0
  147.9175  130.8052  151.4572 H   0  0  0  0  0  0  0  0  0  0  0  0
  150.3280  138.8761  153.1696 H   0  0  0  0  0  0  0  0  0  0  0  0
  1  2  1  0  0  0  0
  1 21  1  0  0  0  0
  1 22  1  0  0  0  0
  1 23  1  0  0  0  0
  2  3  1  0  0  0  0
  3 20  1  0  0  0  0
  3  4  2  0  0  0  0
  4  5  1  0  0  0  0
  4 24  1  0  0  0  0
  5  6  2  0  0  0  0
  5 25  1  0  0  0  0
  6  7  1  0  0  0  0
  6 19  1  0  0  0  0
  7  8  1  0  0  0  0
  7 26  1  0  0  0  0
  8  9  2  0  0  0  0
  8 10  1  0  0  0  0
 10 11  1  0  0  0  0
 10 27  1  0  0  0  0
 11 15  1  0  0  0  0
 11 12  1  0  0  0  0
 11 28  1  0  0  0  0
 12 13  1  0  0  0  0
 12 29  1  0  0  0  0
 12 30  1  0  0  0  0
 13 14  1  0  0  0  0
 13 31  1  0  0  0  0
 13 32  1  0  0  0  0
 14 15  1  0  0  0  0
 14 33  1  0  0  0  0
 14 34  1  0  0  0  0
 15 16  1  0  0  0  0
 15 35  1  0  0  0  0
 16 17  1  0  0  0  0
 16 18  2  0  0  0  0
 17 36  1  0  0  0  0
 17 37  1  0  0  0  0
 19 20  2  0  0  0  0
 19 38  1  0  0  0  0
M  END
> <s_m_source_file>
AV-unprocessed.smi

> <i_m_source_file_index>
668

> <i_lp_mmshare_version>
43012

> <i_f3d_flags>
0

> <s_epik_input>
W0NIM11PYzFbY0hdW2NIXWMoW2NIXW4xKVtOSF1DKD1PKVtOSF1bQ0BASF0yW0NIMl1bQ0gyXVtDSDJdW0NASF0yQyg9TylbTkgyXQ==

> <s_epik_cmdline>
J2VwaWtfcHl0aG9uJywgJy1waCcsICc3LjAnLCAnLXRuJywgJzgnLCAnLW1hJywgJzIwMCcsICctbWV0YWxfYmluZGluZycsICctaW1hZScsICc8aW5maWxlLm1hZT4nLCAnLW9tYWUnLCAnPG91dGZpbGUubWFlPic=

> <r_lp_tautomer_probability>
1

> <r_epik_Ionization_Penalty>
9.0916e-05

> <r_epik_Ionization_Penalty_Charging>
0

> <r_epik_Ionization_Penalty_Neutral>
9.0916e-05

> <r_epik_State_Penalty>
-0

> <r_epik_Charging_Adjusted_Penalty>
0

> <i_epik_Tot_Q>
0

> <i_epik_Tot_abs_Q>
0

> <r_epik_Metal_State_Penalty>
-0

> <b_epik_Metal_Only>
0

> <s_lp_Force_Field>
OPLS_2005

> <r_lp_Energy>
16.4016

> <b_lp_Chiralities_Consistent>
1

> <s_lp_Variant>
AV-unprocessed.smi:668-1

> <Gold.Version>
5.8.1

> <Gold.Id.Protein>
6NUR|6NUR_protein|mol2

> <Gold.PLP.Fitness>
41.2548

> <Gold.PLP.PLP>
-27.3027

> <Gold.PLP.part.hbond>
-4.0000

> <Gold.PLP.part.metal>
0.0000

> <Gold.PLP.part.buried>
-4.3173

> <Gold.PLP.part.nonpolar>
-19.6878

> <Gold.PLP.part.repulsive>
0.3277

> <Gold.PLP.ligand.clash>
0.0000

> <Gold.PLP.ligand.torsion>
0.3760

> <Gold.PLP.Chemscore.Hbond>
3.9000

> <Gold.PLP.Chemscore.CHOScore>
1.0000

> <Gold.PLP.Chemscore.Metal>
0.0000

> <Gold.Chemscore.Hbonds>
donor molecule, donor type, donor heavy atom, donor atom, acceptor molecule, acceptor atom, score
      L1  H     7    26       P1  7948  1.00
      L1  H    10    27       P1  7948  0.85
      L1  H    17    37       P1 10747  1.00
      P1  H  7989  7998       L1    20  1.00
      L1  C    19    38       P1  7957  1.00

> <Gold.PLP.Chemscore.Internal.Correction>
0.0042

> <Gold.Rescore>
     Score         DG    S(hbond)    S(metal)    S(lipo)     H(rot)  DE(clash)    DE(int)     intcor
     14.02     -16.87       3.07        0.00      50.43       1.86       0.15       2.71       ----

> <Gold.Chemscore.Fitness>
14.0161

> <Gold.Chemscore.DG>
-16.8687

> <Gold.Chemscore.ZeroCoef>
-5.4800

> <Gold.Chemscore.Hbond>
3.0726

> <Gold.Chemscore.Metal>
0.0000

> <Gold.Chemscore.Lipo>
50.4295

> <Gold.Chemscore.Internal_Hbond>
0.0000

> <Gold.Chemscore.DEClash>
0.1461

> <Gold.Chemscore.DEInternal>
2.7065

> <Gold.Chemscore.Rot>
1.8648

> <Gold.Chemscore.Internal.Correction>
   9.000000E+99

> <Gold.Chemscore.Hbonds>
donor molecule, donor type, donor heavy atom, donor atom, acceptor molecule, acceptor atom, score
      L1  H     7    26       P1  7948  0.82
      L1  H    10    27       P1  7948  0.14
      L1  H    17    37       P1 10747  0.96
      P1  H  7989  7998       L1    20  0.59

> <Gold.Chemscore.Hbond.Weighted>
-10.2624

> <Gold.Chemscore.Metal.Weighted>
-0.0000

> <Gold.Chemscore.Lipo.Weighted>
-5.9003

> <Gold.Chemscore.Internal_Hbond.Weighted>
0.0000

> <Gold.Chemscore.DEClash.Weighted>
0.1461

> <Gold.Chemscore.DEInternal.Weighted>
2.7065

> <Gold.Chemscore.Rot.Weighted>
4.7739

> <Gold.Chemscore.Internal.Correction.Weighted>
   9.000000E+99

> <Gold.Protein.RotatedTorsions>
[ 6907 6896 6895 6894 ] final  164.06 input  -60.11 | X-H torsion
[ 7974 7965 7964 7962 ] final   39.56 input  175.53 | X-H torsion
[ 8008 7997 7996 7995 ] final -173.45 input   59.86 | X-H torsion
[ 10167 10162 10161 10158 ] final  144.32 input  -65.29 | X-H torsion
[ 10718 10713 10712 10709 ] final   69.84 input   66.30 | X-H torsion
[ 10763 10752 10751 10750 ] final   38.31 input  -60.55 | X-H torsion
[ 11005 11000 10999 10996 ] final -109.15 input  -57.11 | X-H torsion

> <Gold.Protein.ActiveResidues>
 VAL166  LYS551  ARG553  GLY616  TRP617  ASP618  TYR619  PRO620  LYS621  CYS622 
 ASP623  PHE694  ASN695  SER759  ASP760  ASP761  ALA762  ILE779  LEU786  VAL792 
 PHE793  MET794  SER795  GLU796  ALA797  LYS798  CYS799  TRP800  GLU811  SER814 

> <Gold.Protein.RotatedAtoms>
  151.9157  133.3572  159.3878 H   0  0  0  0  0  0  0  0  0  0  0  0  # atno 6907 bound_to 6896
  150.7048  134.4687  159.5424 H   0  0  0  0  0  0  0  0  0  0  0  0  # atno 6908 bound_to 6896
  152.2301  134.8330  160.0525 H   0  0  0  0  0  0  0  0  0  0  0  0  # atno 6909 bound_to 6896
  146.0975  139.5637  142.9436 H   0  0  0  0  0  0  0  0  0  0  0  0  # atno 7974 bound_to 7965
  155.9575  140.1138  157.0924 H   0  0  0  0  0  0  0  0  0  0  0  0  # atno 8008 bound_to 7997
  154.4124  140.1188  156.5202 H   0  0  0  0  0  0  0  0  0  0  0  0  # atno 8009 bound_to 7997
  155.6763  140.3473  155.4840 H   0  0  0  0  0  0  0  0  0  0  0  0  # atno 8010 bound_to 7997
  139.4949  144.5980  151.6542 H   0  0  0  0  0  0  0  0  0  0  0  0  # atno 10167 bound_to 10162
  157.6368  130.9446  150.0569 H   0  0  0  0  0  0  0  0  0  0  0  0  # atno 10718 bound_to 10713
  153.0005  135.6253  154.2285 H   0  0  0  0  0  0  0  0  0  0  0  0  # atno 10763 bound_to 10752
  154.2027  135.2803  155.2987 H   0  0  0  0  0  0  0  0  0  0  0  0  # atno 10764 bound_to 10752
  154.5670  135.5688  153.7119 H   0  0  0  0  0  0  0  0  0  0  0  0  # atno 10765 bound_to 10752
  141.0863  133.9132  157.2177 H   0  0  0  0  0  0  0  0  0  0  0  0  # atno 11005 bound_to 11000
  145.5920  141.0368  143.2065 LP  0  0  0  0  0  0  0  0  0  0  0  0  # atno 17320 bound_to 7965
  144.7406  139.7459  143.7312 LP  0  0  0  0  0  0  0  0  0  0  0  0  # atno 17321 bound_to 7965
  140.5622  144.0249  150.6175 LP  0  0  0  0  0  0  0  0  0  0  0  0  # atno 17342 bound_to 10162
  140.3339  143.3061  152.0659 LP  0  0  0  0  0  0  0  0  0  0  0  0  # atno 17343 bound_to 10162
  156.1613  130.3644  149.9295 LP  0  0  0  0  0  0  0  0  0  0  0  0  # atno 17370 bound_to 10713
  156.7292  130.9037  151.3624 LP  0  0  0  0  0  0  0  0  0  0  0  0  # atno 17371 bound_to 10713
  139.9682  135.0136  156.9443 LP  0  0  0  0  0  0  0  0  0  0  0  0  # atno 17394 bound_to 11000
  140.5354  134.0772  155.7327 LP  0  0  0  0  0  0  0  0  0  0  0  0  # atno 17395 bound_to 11000

$$$$
