AV-unprocessed.smi:1207|AV-procd|sdf|5060|dock2
  -GOLD-   22720 4 93D 1   1.00000     0.00000
 Structure written by MMmdl.
 53 55  0  0  0  0  0  0  0  0  3 V2000
  152.1234  143.7563  160.0496 C   0  0  0  0  0  0  0  0  0  0  0  0
  151.8618  142.7722  158.9222 C   0  0  0  0  0  0  0  0  0  0  0  0
  150.9465  143.1353  157.9088 C   0  0  0  0  0  0  0  0  0  0  0  0
  150.7280  142.2143  156.8914 C   0  0  0  0  0  0  0  0  0  0  0  0
  149.8999  142.2734  155.7687 N   0  3  0  0  0  0  0  0  0  0  0  0
  150.0200  141.1212  155.0533 C   0  0  0  0  0  0  0  0  0  0  0  0
  150.9093  140.3236  155.7052 N   0  0  0  0  0  0  0  0  0  0  0  0
  151.3932  138.9805  155.3543 C   0  0  0  0  0  0  0  0  0  0  0  0
  150.2823  138.0511  154.8219 C   0  0  1  0  0  0  0  0  0  0  0  0
  149.9544  138.5017  153.5227 O   0  0  0  0  0  0  0  0  0  0  0  0
  150.6980  136.5631  154.7616 C   0  0  0  0  0  0  0  0  0  0  0  0
  149.5537  135.6184  154.6241 N   0  3  2  0  0  0  0  0  0  0  0  0
  148.5024  135.8227  155.6495 C   0  0  0  0  0  0  0  0  0  0  0  0
  149.9739  134.1936  154.5647 C   0  0  0  0  0  0  0  0  0  0  0  0
  148.8044  133.2475  154.6665 C   0  0  0  0  0  0  0  0  0  0  0  0
  148.3843  132.4953  155.8012 C   0  0  0  0  0  0  0  0  0  0  0  0
  148.9903  132.4624  157.1751 C   0  0  0  0  0  0  0  0  0  0  0  0
  147.3251  131.7509  155.5352 N   0  0  0  0  0  0  0  0  0  0  0  0
  147.0037  132.0054  154.1983 O   0  0  0  0  0  0  0  0  0  0  0  0
  147.8958  132.9005  153.7043 C   0  0  0  0  0  0  0  0  0  0  0  0
  147.7192  133.2974  152.2777 C   0  0  0  0  0  0  0  0  0  0  0  0
  151.3830  140.9676  156.8562 C   0  0  0  0  0  0  0  0  0  0  0  0
  152.2887  140.5952  157.8479 C   0  0  0  0  0  0  0  0  0  0  0  0
  152.5236  141.5176  158.8923 C   0  0  0  0  0  0  0  0  0  0  0  0
  153.5047  141.1360  159.9879 C   0  0  0  0  0  0  0  0  0  0  0  0
  151.5837  144.6914  159.8961 H   0  0  0  0  0  0  0  0  0  0  0  0
  153.1856  143.9931  160.1148 H   0  0  0  0  0  0  0  0  0  0  0  0
  151.8020  143.3380  161.0037 H   0  0  0  0  0  0  0  0  0  0  0  0
  150.4389  144.0889  157.9253 H   0  0  0  0  0  0  0  0  0  0  0  0
  149.5030  140.8838  154.1344 H   0  0  0  0  0  0  0  0  0  0  0  0
  152.1673  139.1061  154.5958 H   0  0  0  0  0  0  0  0  0  0  0  0
  151.8907  138.5424  156.2196 H   0  0  0  0  0  0  0  0  0  0  0  0
  149.4081  138.1753  155.4603 H   0  0  0  0  0  0  0  0  0  0  0  0
  149.7601  137.7557  152.9768 H   0  0  0  0  0  0  0  0  0  0  0  0
  151.3774  136.4510  153.9177 H   0  0  0  0  0  0  0  0  0  0  0  0
  151.2668  136.2870  155.6502 H   0  0  0  0  0  0  0  0  0  0  0  0
  148.9054  135.6886  156.6543 H   0  0  0  0  0  0  0  0  0  0  0  0
  147.6865  135.1119  155.5147 H   0  0  0  0  0  0  0  0  0  0  0  0
  148.0634  136.8171  155.5844 H   0  0  0  0  0  0  0  0  0  0  0  0
  150.5376  134.0298  153.6453 H   0  0  0  0  0  0  0  0  0  0  0  0
  150.6725  133.9956  155.3786 H   0  0  0  0  0  0  0  0  0  0  0  0
  150.0384  132.1675  157.1330 H   0  0  0  0  0  0  0  0  0  0  0  0
  148.4735  131.7593  157.8290 H   0  0  0  0  0  0  0  0  0  0  0  0
  148.9418  133.4447  157.6444 H   0  0  0  0  0  0  0  0  0  0  0  0
  148.4498  134.0518  151.9860 H   0  0  0  0  0  0  0  0  0  0  0  0
  146.7241  133.7108  152.1121 H   0  0  0  0  0  0  0  0  0  0  0  0
  147.8417  132.4368  151.6203 H   0  0  0  0  0  0  0  0  0  0  0  0
  152.7955  139.6417  157.8318 H   0  0  0  0  0  0  0  0  0  0  0  0
  153.8687  140.1159  159.8607 H   0  0  0  0  0  0  0  0  0  0  0  0
  153.0308  141.1983  160.9676 H   0  0  0  0  0  0  0  0  0  0  0  0
  154.3671  141.8029  159.9775 H   0  0  0  0  0  0  0  0  0  0  0  0
  149.1258  135.8162  153.7309 H   0  0  0  0  0  0  0  0  0  0  0  0
  149.2995  143.0447  155.5054 H   0  0  0  0  0  0  0  0  0  0  0  0
  1  2  1  0  0  0  0
  1 26  1  0  0  0  0
  1 27  1  0  0  0  0
  1 28  1  0  0  0  0
  2 24  1  0  0  0  0
  2  3  2  0  0  0  0
  3  4  1  0  0  0  0
  3 29  1  0  0  0  0
  4 22  2  0  0  0  0
  4  5  1  0  0  0  0
  5  6  2  0  0  0  0
  5 53  1  0  0  0  0
  6  7  1  0  0  0  0
  6 30  1  0  0  0  0
  7  8  1  0  0  0  0
  7 22  1  0  0  0  0
  8  9  1  0  0  0  0
  8 31  1  0  0  0  0
  8 32  1  0  0  0  0
  9 10  1  0  0  0  0
  9 11  1  0  0  0  0
  9 33  1  0  0  0  0
 10 34  1  0  0  0  0
 11 12  1  0  0  0  0
 11 35  1  0  0  0  0
 11 36  1  0  0  0  0
 12 13  1  0  0  0  0
 12 14  1  0  0  0  0
 12 52  1  0  0  0  0
 13 37  1  0  0  0  0
 13 38  1  0  0  0  0
 13 39  1  0  0  0  0
 14 15  1  0  0  0  0
 14 40  1  0  0  0  0
 14 41  1  0  0  0  0
 15 20  2  0  0  0  0
 15 16  1  0  0  0  0
 16 17  1  0  0  0  0
 16 18  2  0  0  0  0
 17 42  1  0  0  0  0
 17 43  1  0  0  0  0
 17 44  1  0  0  0  0
 18 19  1  0  0  0  0
 19 20  1  0  0  0  0
 20 21  1  0  0  0  0
 21 45  1  0  0  0  0
 21 46  1  0  0  0  0
 21 47  1  0  0  0  0
 22 23  1  0  0  0  0
 23 24  2  0  0  0  0
 23 48  1  0  0  0  0
 24 25  1  0  0  0  0
 25 49  1  0  0  0  0
 25 50  1  0  0  0  0
 25 51  1  0  0  0  0
M  CHG  1   5   1
M  CHG  1  12   1
M  END
> <s_m_source_file>
AV-unprocessed.smi

> <i_m_source_file_index>
1207

> <i_lp_mmshare_version>
43012

> <i_f3d_flags>
0

> <s_epik_input>
W0NIM11jKFtjSF0xKWMoW0NIM10pW2NIXWMoYzEyKW4oW2NIXW4yKVtDSDJdW0NASF0oW09IXSlbQ0gyXU4oW0NIM10pW0NIMl1jM2MoW0NIM10pbm9jM1tDSDNd

> <s_epik_cmdline>
J2VwaWtfcHl0aG9uJywgJy1waCcsICc3LjAnLCAnLXRuJywgJzgnLCAnLW1hJywgJzIwMCcsICctbWV0YWxfYmluZGluZycsICctaW1hZScsICc8aW5maWxlLm1hZT4nLCAnLW9tYWUnLCAnPG91dGZpbGUubWFlPic=

> <r_epik_Ionization_Penalty>
1.77463

> <r_epik_Ionization_Penalty_Charging>
1.77463

> <r_epik_Ionization_Penalty_Neutral>
3.70885e-06

> <r_epik_State_Penalty>
1.85225

> <r_epik_Charging_Adjusted_Penalty>
3.62688

> <i_epik_Tot_Q>
2

> <i_epik_Tot_abs_Q>
2

> <r_epik_Metal_State_Penalty>
1.92674

> <b_epik_Metal_Only>
0

> <s_lp_Force_Field>
OPLS_2005

> <r_lp_Energy>
19.6609

> <b_lp_Chiralities_Consistent>
1

> <s_lp_Variant>
AV-unprocessed.smi:1207-12

> <Gold.Version>
5.8.1

> <Gold.Id.Protein>
6NUR|6NUR_protein|mol2

> <Gold.PLP.Fitness>
58.8982

> <Gold.PLP.PLP>
-45.1665

> <Gold.PLP.part.hbond>
-4.0000

> <Gold.PLP.part.metal>
0.0000

> <Gold.PLP.part.buried>
-4.0571

> <Gold.PLP.part.nonpolar>
-37.7063

> <Gold.PLP.part.repulsive>
0.2720

> <Gold.PLP.ligand.clash>
0.0000

> <Gold.PLP.ligand.torsion>
0.8447

> <Gold.PLP.Chemscore.Hbond>
5.0000

> <Gold.PLP.Chemscore.CHOScore>
0.0000

> <Gold.PLP.Chemscore.Metal>
0.0000

> <Gold.Chemscore.Hbonds>
donor molecule, donor type, donor heavy atom, donor atom, acceptor molecule, acceptor atom, score
      L1  H     5    53       P1  8028  1.98
      L1  H    10    34       P1  7948  1.00
      L1  H    12    52       P1  7948  2.00

> <Gold.PLP.Chemscore.Internal.Correction>
0.4211

> <Gold.Rescore>
     Score         DG    S(hbond)    S(metal)    S(lipo)     H(rot)  DE(clash)    DE(int)     intcor
     19.98     -21.95       2.58        0.00     122.52       2.54       0.06       1.91       ----

> <Gold.Chemscore.Fitness>
19.9786

> <Gold.Chemscore.DG>
-21.9479

> <Gold.Chemscore.ZeroCoef>
-5.4800

> <Gold.Chemscore.Hbond>
2.5818

> <Gold.Chemscore.Metal>
0.0000

> <Gold.Chemscore.Lipo>
122.5195

> <Gold.Chemscore.Internal_Hbond>
0.0000

> <Gold.Chemscore.DEClash>
0.0636

> <Gold.Chemscore.DEInternal>
1.9057

> <Gold.Chemscore.Rot>
2.5351

> <Gold.Chemscore.Internal.Correction>
   9.000000E+99

> <Gold.Chemscore.Hbonds>
donor molecule, donor type, donor heavy atom, donor atom, acceptor molecule, acceptor atom, score
      L1  H     5    53       P1  8028  0.93
      L1  H    10    34       P1  7948  0.53
      L1  H    12    52       P1  7948  0.81

> <Gold.Chemscore.Hbond.Weighted>
-8.6230

> <Gold.Chemscore.Metal.Weighted>
-0.0000

> <Gold.Chemscore.Lipo.Weighted>
-14.3348

> <Gold.Chemscore.Internal_Hbond.Weighted>
0.0000

> <Gold.Chemscore.DEClash.Weighted>
0.0636

> <Gold.Chemscore.DEInternal.Weighted>
1.9057

> <Gold.Chemscore.Rot.Weighted>
6.4900

> <Gold.Chemscore.Internal.Correction.Weighted>
   9.000000E+99

> <Gold.Protein.RotatedTorsions>
[ 6907 6896 6895 6894 ] final  -77.24 input  -60.11 | X-H torsion
[ 7974 7965 7964 7962 ] final  118.24 input  175.53 | X-H torsion
[ 8008 7997 7996 7995 ] final  144.81 input   59.86 | X-H torsion
[ 10167 10162 10161 10158 ] final  -42.16 input  -65.29 | X-H torsion
[ 10718 10713 10712 10709 ] final  -11.94 input   66.30 | X-H torsion
[ 10763 10752 10751 10750 ] final -136.34 input  -60.55 | X-H torsion
[ 11005 11000 10999 10996 ] final  -54.12 input  -57.11 | X-H torsion

> <Gold.Protein.ActiveResidues>
 VAL166  LYS551  ARG553  GLY616  TRP617  ASP618  TYR619  PRO620  LYS621  CYS622 
 ASP623  PHE694  ASN695  SER759  ASP760  ASP761  ALA762  ILE779  LEU786  VAL792 
 PHE793  MET794  SER795  GLU796  ALA797  LYS798  CYS799  TRP800  GLU811  SER814 

> <Gold.Protein.RotatedAtoms>
  150.7004  134.4452  159.5310 H   0  0  0  0  0  0  0  0  0  0  0  0  # atno 6907 bound_to 6896
  152.2155  134.8459  160.0501 H   0  0  0  0  0  0  0  0  0  0  0  0  # atno 6908 bound_to 6896
  151.9329  133.3581  159.3974 H   0  0  0  0  0  0  0  0  0  0  0  0  # atno 6909 bound_to 6896
  145.1576  139.3173  143.4534 H   0  0  0  0  0  0  0  0  0  0  0  0  # atno 7974 bound_to 7965
  156.2899  140.2226  156.5114 H   0  0  0  0  0  0  0  0  0  0  0  0  # atno 8008 bound_to 7997
  154.7606  140.0473  157.0992 H   0  0  0  0  0  0  0  0  0  0  0  0  # atno 8009 bound_to 7997
  154.9996  140.3100  155.4876 H   0  0  0  0  0  0  0  0  0  0  0  0  # atno 8010 bound_to 7997
  140.6979  143.3053  151.3169 H   0  0  0  0  0  0  0  0  0  0  0  0  # atno 10167 bound_to 10162
  156.6518  130.4957  149.6059 H   0  0  0  0  0  0  0  0  0  0  0  0  # atno 10718 bound_to 10713
  154.8686  135.3675  154.5045 H   0  0  0  0  0  0  0  0  0  0  0  0  # atno 10763 bound_to 10752
  153.5683  135.7021  153.5521 H   0  0  0  0  0  0  0  0  0  0  0  0  # atno 10764 bound_to 10752
  153.3565  135.4058  155.1649 H   0  0  0  0  0  0  0  0  0  0  0  0  # atno 10765 bound_to 10752
  141.1010  133.6618  156.4273 H   0  0  0  0  0  0  0  0  0  0  0  0  # atno 11005 bound_to 11000
  146.3486  140.1674  142.8590 LP  0  0  0  0  0  0  0  0  0  0  0  0  # atno 17320 bound_to 7965
  145.0364  140.8911  143.5078 LP  0  0  0  0  0  0  0  0  0  0  0  0  # atno 17321 bound_to 7965
  139.6457  144.0456  152.2589 LP  0  0  0  0  0  0  0  0  0  0  0  0  # atno 17342 bound_to 10162
  139.9976  144.6317  150.7759 LP  0  0  0  0  0  0  0  0  0  0  0  0  # atno 17343 bound_to 10162
  156.2079  130.6660  151.1237 LP  0  0  0  0  0  0  0  0  0  0  0  0  # atno 17370 bound_to 10713
  157.7138  131.0720  150.6402 LP  0  0  0  0  0  0  0  0  0  0  0  0  # atno 17371 bound_to 10713
  140.5022  134.6474  157.5253 LP  0  0  0  0  0  0  0  0  0  0  0  0  # atno 17394 bound_to 11000
  139.9861  134.7059  155.9771 LP  0  0  0  0  0  0  0  0  0  0  0  0  # atno 17395 bound_to 11000

$$$$
