AV-unprocessed.smi:2229|AV-procd|sdf|9033|dock7
  -GOLD-   2272012243D 1   1.00000     0.00000
 Structure written by MMmdl.
 43 44  0  0  0  0  0  0  0  0  2 V2000
  152.4514  141.3824  159.6144 C   0  0  0  0  0  0  0  0  0  0  0  0
  152.3454  142.6886  158.8092 C   0  0  0  0  0  0  0  0  0  0  0  0
  152.3324  143.8993  159.7552 C   0  0  0  0  0  0  0  0  0  0  0  0
  151.1160  142.7120  157.8775 C   0  0  0  0  0  0  0  0  0  0  0  0
  151.0648  141.5439  156.8761 C   0  0  0  0  0  0  0  0  0  0  0  0
  149.9547  141.6981  155.8137 C   0  0  2  0  0  0  0  0  0  0  0  0
  148.5303  141.5549  156.3566 C   0  0  0  0  0  0  0  0  0  0  0  0
  147.6758  141.3613  155.1062 C   0  0  0  0  0  0  0  0  0  0  0  0
  148.5530  140.5640  154.1339 C   0  0  0  0  0  0  0  0  0  0  0  0
  150.0091  140.7102  154.6265 C   0  0  2  0  0  0  0  0  0  0  0  0
  150.5585  139.4124  155.0171 N   0  0  0  0  0  0  0  0  0  0  0  0
  151.8626  139.1210  155.1282 C   0  0  0  0  0  0  0  0  0  0  0  0
  152.7574  139.9419  154.9227 O   0  0  0  0  0  0  0  0  0  0  0  0
  152.1910  137.6872  155.5639 C   0  0  0  0  0  0  0  0  0  0  0  0
  152.1416  137.4963  157.0154 N   0  0  0  0  0  0  0  0  0  0  0  0
  151.5254  138.3798  157.8655 C   0  0  0  0  0  0  0  0  0  0  0  0
  151.6066  137.9737  159.0816 N   0  0  0  0  0  0  0  0  0  0  0  0
  152.3239  136.7352  159.0480 N   0  5  0  0  0  0  0  0  0  0  0  0
  152.6249  136.4950  157.7525 C   0  0  0  0  0  0  0  0  0  0  0  0
  153.2306  135.5369  157.2733 O   0  0  0  0  0  0  0  0  0  0  0  0
  151.5653  141.2238  160.2299 H   0  0  0  0  0  0  0  0  0  0  0  0
  153.3160  141.4019  160.2784 H   0  0  0  0  0  0  0  0  0  0  0  0
  152.5681  140.5152  158.9651 H   0  0  0  0  0  0  0  0  0  0  0  0
  153.2398  142.7732  158.1905 H   0  0  0  0  0  0  0  0  0  0  0  0
  151.4612  143.8807  160.4110 H   0  0  0  0  0  0  0  0  0  0  0  0
  152.3090  144.8359  159.1977 H   0  0  0  0  0  0  0  0  0  0  0  0
  153.2221  143.9166  160.3854 H   0  0  0  0  0  0  0  0  0  0  0  0
  150.2049  142.7275  158.4769 H   0  0  0  0  0  0  0  0  0  0  0  0
  151.1219  143.6458  157.3140 H   0  0  0  0  0  0  0  0  0  0  0  0
  152.0278  141.4730  156.3689 H   0  0  0  0  0  0  0  0  0  0  0  0
  150.9291  140.6059  157.4142 H   0  0  0  0  0  0  0  0  0  0  0  0
  150.0371  142.6999  155.3884 H   0  0  0  0  0  0  0  0  0  0  0  0
  148.4577  140.6723  156.9936 H   0  0  0  0  0  0  0  0  0  0  0  0
  148.2128  142.4180  156.9421 H   0  0  0  0  0  0  0  0  0  0  0  0
  146.7308  140.8617  155.3214 H   0  0  0  0  0  0  0  0  0  0  0  0
  147.4421  142.3343  154.6720 H   0  0  0  0  0  0  0  0  0  0  0  0
  148.2405  139.5184  154.1213 H   0  0  0  0  0  0  0  0  0  0  0  0
  148.4400  140.9384  153.1160 H   0  0  0  0  0  0  0  0  0  0  0  0
  150.6357  141.1366  153.8408 H   0  0  0  0  0  0  0  0  0  0  0  0
  149.8936  138.6773  155.2085 H   0  0  0  0  0  0  0  0  0  0  0  0
  151.5013  137.0066  155.0624 H   0  0  0  0  0  0  0  0  0  0  0  0
  153.1900  137.4214  155.2139 H   0  0  0  0  0  0  0  0  0  0  0  0
  151.0537  139.2827  157.4740 H   0  0  0  0  0  0  0  0  0  0  0  0
  1  2  1  0  0  0  0
  1 21  1  0  0  0  0
  1 22  1  0  0  0  0
  1 23  1  0  0  0  0
  2  3  1  0  0  0  0
  2  4  1  0  0  0  0
  2 24  1  0  0  0  0
  3 25  1  0  0  0  0
  3 26  1  0  0  0  0
  3 27  1  0  0  0  0
  4  5  1  0  0  0  0
  4 28  1  0  0  0  0
  4 29  1  0  0  0  0
  5  6  1  0  0  0  0
  5 30  1  0  0  0  0
  5 31  1  0  0  0  0
  6 10  1  0  0  0  0
  6  7  1  0  0  0  0
  6 32  1  0  0  0  0
  7  8  1  0  0  0  0
  7 33  1  0  0  0  0
  7 34  1  0  0  0  0
  8  9  1  0  0  0  0
  8 35  1  0  0  0  0
  8 36  1  0  0  0  0
  9 10  1  0  0  0  0
  9 37  1  0  0  0  0
  9 38  1  0  0  0  0
 10 11  1  0  0  0  0
 10 39  1  0  0  0  0
 11 12  1  0  0  0  0
 11 40  1  0  0  0  0
 12 13  2  0  0  0  0
 12 14  1  0  0  0  0
 14 15  1  0  0  0  0
 14 41  1  0  0  0  0
 14 42  1  0  0  0  0
 15 19  1  0  0  0  0
 15 16  1  0  0  0  0
 16 17  2  0  0  0  0
 16 43  1  0  0  0  0
 17 18  1  0  0  0  0
 18 19  1  0  0  0  0
 19 20  2  0  0  0  0
M  CHG  1  18  -1
M  END
> <s_m_source_file>
AV-unprocessed.smi

> <i_m_source_file_index>
2229

> <i_lp_mmshare_version>
43012

> <i_f3d_flags>
0

> <s_epik_input>
W0NIM11bQ0hdKFtDSDNdKVtDSDJdW0NIMl1bQ0BASF0xW0NIMl1bQ0gyXVtDSDJdW0NASF0xW05IXUMoPU8pW0NIMl1uMltjSF1uW25IXWMyPU8=

> <s_epik_cmdline>
J2VwaWtfcHl0aG9uJywgJy1waCcsICc3LjAnLCAnLXRuJywgJzgnLCAnLW1hJywgJzIwMCcsICctbWV0YWxfYmluZGluZycsICctaW1hZScsICc8aW5maWxlLm1hZT4nLCAnLW9tYWUnLCAnPG91dGZpbGUubWFlPic=

> <r_lp_tautomer_probability>
1

> <r_epik_Ionization_Penalty>
13.6733

> <r_epik_Ionization_Penalty_Charging>
13.6725

> <r_epik_Ionization_Penalty_Neutral>
0.000837689

> <r_epik_State_Penalty>
5.67062

> <r_epik_Charging_Adjusted_Penalty>
19.3431

> <i_epik_Tot_Q>
-1

> <i_epik_Tot_abs_Q>
1

> <r_epik_Metal_State_Penalty>
1.61781

> <b_epik_Metal_Only>
1

> <s_lp_Force_Field>
OPLS_2005

> <r_lp_Energy>
26.4382

> <b_lp_Chiralities_Consistent>
1

> <s_lp_Variant>
AV-unprocessed.smi:2229-7

> <Gold.Version>
5.8.1

> <Gold.Id.Protein>
6NUR|6NUR_protein|mol2

> <Gold.PLP.Fitness>
44.6076

> <Gold.PLP.PLP>
-33.8363

> <Gold.PLP.part.hbond>
-3.9121

> <Gold.PLP.part.metal>
0.0000

> <Gold.PLP.part.buried>
-0.3110

> <Gold.PLP.part.nonpolar>
-29.5716

> <Gold.PLP.part.repulsive>
0.1192

> <Gold.PLP.ligand.clash>
0.0000

> <Gold.PLP.ligand.torsion>
0.9136

> <Gold.PLP.Chemscore.Hbond>
4.1825

> <Gold.PLP.Chemscore.CHOScore>
0.0000

> <Gold.PLP.Chemscore.Metal>
0.0000

> <Gold.Chemscore.Hbonds>
donor molecule, donor type, donor heavy atom, donor atom, acceptor molecule, acceptor atom, score
      P1  H  6896  6909       L1    18  1.79
      P1  H  7989  7998       L1    13  0.29
      P1  H  7997  8008       L1    13  1.00
      P1  H 10752 10764       L1    20  1.00

> <Gold.PLP.Chemscore.Internal.Correction>
0.0511

> <Gold.Rescore>
     Score         DG    S(hbond)    S(metal)    S(lipo)     H(rot)  DE(clash)    DE(int)     intcor
     16.30     -18.31       2.77        0.00      87.22       2.59       1.16       0.86       ----

> <Gold.Chemscore.Fitness>
16.2976

> <Gold.Chemscore.DG>
-18.3090

> <Gold.Chemscore.ZeroCoef>
-5.4800

> <Gold.Chemscore.Hbond>
2.7740

> <Gold.Chemscore.Metal>
0.0000

> <Gold.Chemscore.Lipo>
87.2153

> <Gold.Chemscore.Internal_Hbond>
0.0000

> <Gold.Chemscore.DEClash>
1.1555

> <Gold.Chemscore.DEInternal>
0.8558

> <Gold.Chemscore.Rot>
2.5939

> <Gold.Chemscore.Internal.Correction>
   9.000000E+99

> <Gold.Chemscore.Hbonds>
donor molecule, donor type, donor heavy atom, donor atom, acceptor molecule, acceptor atom, score
      P1  H  6896  6909       L1    18  0.74
      P1  H  7989  7998       L1    13  0.02
      P1  H  7997  8008       L1    13  0.98
      P1  H 10752 10764       L1    20  0.98

> <Gold.Chemscore.Hbond.Weighted>
-9.2652

> <Gold.Chemscore.Metal.Weighted>
-0.0000

> <Gold.Chemscore.Lipo.Weighted>
-10.2042

> <Gold.Chemscore.Internal_Hbond.Weighted>
0.0000

> <Gold.Chemscore.DEClash.Weighted>
1.1555

> <Gold.Chemscore.DEInternal.Weighted>
0.8558

> <Gold.Chemscore.Rot.Weighted>
6.6405

> <Gold.Chemscore.Internal.Correction.Weighted>
   9.000000E+99

> <Gold.Protein.RotatedTorsions>
[ 6907 6896 6895 6894 ] final  126.06 input  -60.11 | X-H torsion
[ 7974 7965 7964 7962 ] final  124.93 input  175.53 | X-H torsion
[ 8008 7997 7996 7995 ] final  -15.29 input   59.86 | X-H torsion
[ 10167 10162 10161 10158 ] final -122.80 input  -65.29 | X-H torsion
[ 10718 10713 10712 10709 ] final  170.06 input   66.30 | X-H torsion
[ 10763 10752 10751 10750 ] final    0.67 input  -60.55 | X-H torsion
[ 11005 11000 10999 10996 ] final -146.00 input  -57.11 | X-H torsion

> <Gold.Protein.ActiveResidues>
 VAL166  LYS551  ARG553  GLY616  TRP617  ASP618  TYR619  PRO620  LYS621  CYS622 
 ASP623  PHE694  ASN695  SER759  ASP760  ASP761  ALA762  ILE779  LEU786  VAL792 
 PHE793  MET794  SER795  GLU796  ALA797  LYS798  CYS799  TRP800  GLU811  SER814 

> <Gold.Protein.RotatedAtoms>
  152.3937  133.6715  159.6258 H   0  0  0  0  0  0  0  0  0  0  0  0  # atno 6907 bound_to 6896
  150.7840  133.8911  159.3322 H   0  0  0  0  0  0  0  0  0  0  0  0  # atno 6908 bound_to 6896
  151.6692  135.0980  160.0246 H   0  0  0  0  0  0  0  0  0  0  0  0  # atno 6909 bound_to 6896
  145.0787  139.3673  143.4920 H   0  0  0  0  0  0  0  0  0  0  0  0  # atno 7974 bound_to 7965
  154.5142  140.2200  155.9097 H   0  0  0  0  0  0  0  0  0  0  0  0  # atno 8008 bound_to 7997
  156.1588  140.3146  155.8738 H   0  0  0  0  0  0  0  0  0  0  0  0  # atno 8009 bound_to 7997
  155.3792  140.0471  157.3034 H   0  0  0  0  0  0  0  0  0  0  0  0  # atno 8010 bound_to 7997
  140.0104  143.5448  152.2265 H   0  0  0  0  0  0  0  0  0  0  0  0  # atno 10167 bound_to 10162
  157.0136  131.0211  151.2796 H   0  0  0  0  0  0  0  0  0  0  0  0  # atno 10718 bound_to 10713
  153.3177  135.6967  153.7058 H   0  0  0  0  0  0  0  0  0  0  0  0  # atno 10763 bound_to 10752
  153.5910  135.3480  155.2911 H   0  0  0  0  0  0  0  0  0  0  0  0  # atno 10764 bound_to 10752
  154.8590  135.4318  154.2333 H   0  0  0  0  0  0  0  0  0  0  0  0  # atno 10765 bound_to 10752
  140.7865  134.3018  157.5028 H   0  0  0  0  0  0  0  0  0  0  0  0  # atno 11005 bound_to 11000
  146.3530  140.0567  142.8632 LP  0  0  0  0  0  0  0  0  0  0  0  0  # atno 17320 bound_to 7965
  145.1204  140.9459  143.4604 LP  0  0  0  0  0  0  0  0  0  0  0  0  # atno 17321 bound_to 7965
  139.6209  144.7629  151.2742 LP  0  0  0  0  0  0  0  0  0  0  0  0  # atno 17342 bound_to 10162
  140.7384  143.6650  150.8131 LP  0  0  0  0  0  0  0  0  0  0  0  0  # atno 17343 bound_to 10162
  157.5302  130.8053  149.7908 LP  0  0  0  0  0  0  0  0  0  0  0  0  # atno 17370 bound_to 10713
  156.0127  130.3826  150.2211 LP  0  0  0  0  0  0  0  0  0  0  0  0  # atno 17371 bound_to 10713
  139.8736  134.9349  156.3620 LP  0  0  0  0  0  0  0  0  0  0  0  0  # atno 17394 bound_to 11000
  140.9431  133.7501  156.0173 LP  0  0  0  0  0  0  0  0  0  0  0  0  # atno 17395 bound_to 11000

$$$$
