AV-unprocessed.smi:354|AV-procd|sdf|2403|dock10
  -GOLD-   2262022333D 1   1.00000     0.00000
 Structure written by MMmdl.
 36 38  0  0  0  0  0  0  0  0  1 V2000
  153.2506  138.8250  154.8229 O   0  0  0  0  0  0  0  0  0  0  0  0
  151.9478  139.0878  155.2968 C   0  0  0  0  0  0  0  0  0  0  0  0
  151.9202  140.0789  156.4213 C   0  0  0  0  0  0  0  0  0  0  0  0
  152.6930  139.9339  157.4987 N   0  0  0  0  0  0  0  0  0  0  0  0
  152.3824  141.0501  158.2499 C   0  0  0  0  0  0  0  0  0  0  0  0
  152.8734  141.4787  159.5040 C   0  0  0  0  0  0  0  0  0  0  0  0
  152.4076  142.6784  160.0809 C   0  0  0  0  0  0  0  0  0  0  0  0
  151.4477  143.4659  159.4128 C   0  0  0  0  0  0  0  0  0  0  0  0
  150.9447  143.0563  158.1632 C   0  0  0  0  0  0  0  0  0  0  0  0
  151.4102  141.8557  157.5930 C   0  0  0  0  0  0  0  0  0  0  0  0
  151.1252  141.1805  156.4099 N   0  0  0  0  0  0  0  0  0  0  0  0
  150.1776  141.6139  155.3901 C   0  0  0  0  0  0  0  0  0  0  0  0
  149.0095  140.6248  155.1974 C   0  0  2  0  0  0  0  0  0  0  0  0
  149.2700  139.7738  154.0978 O   0  0  0  0  0  0  0  0  0  0  0  0
  147.6845  141.3623  155.0620 C   0  0  0  0  0  0  0  0  0  0  0  0
  147.4103  142.1334  153.9099 C   0  0  0  0  0  0  0  0  0  0  0  0
  146.1897  142.8253  153.7897 C   0  0  0  0  0  0  0  0  0  0  0  0
  145.2353  142.7541  154.8220 C   0  0  0  0  0  0  0  0  0  0  0  0
  145.5040  141.9931  155.9755 C   0  0  0  0  0  0  0  0  0  0  0  0
  146.7249  141.3009  156.0983 C   0  0  0  0  0  0  0  0  0  0  0  0
  146.9703  140.5809  157.2194 F   0  0  0  0  0  0  0  0  0  0  0  0
  153.3491  137.8912  154.7184 H   0  0  0  0  0  0  0  0  0  0  0  0
  151.3518  139.4692  154.4669 H   0  0  0  0  0  0  0  0  0  0  0  0
  151.4758  138.1577  155.6131 H   0  0  0  0  0  0  0  0  0  0  0  0
  153.6115  140.8845  160.0221 H   0  0  0  0  0  0  0  0  0  0  0  0
  152.7900  142.9970  161.0394 H   0  0  0  0  0  0  0  0  0  0  0  0
  151.0978  144.3846  159.8600 H   0  0  0  0  0  0  0  0  0  0  0  0
  150.2100  143.6583  157.6495 H   0  0  0  0  0  0  0  0  0  0  0  0
  149.7905  142.5879  155.6917 H   0  0  0  0  0  0  0  0  0  0  0  0
  150.6940  141.7742  154.4446 H   0  0  0  0  0  0  0  0  0  0  0  0
  148.9492  139.9719  156.0680 H   0  0  0  0  0  0  0  0  0  0  0  0
  149.2136  140.2835  153.3042 H   0  0  0  0  0  0  0  0  0  0  0  0
  148.1377  142.1997  153.1139 H   0  0  0  0  0  0  0  0  0  0  0  0
  145.9865  143.4123  152.9061 H   0  0  0  0  0  0  0  0  0  0  0  0
  144.2992  143.2853  154.7306 H   0  0  0  0  0  0  0  0  0  0  0  0
  144.7732  141.9422  156.7692 H   0  0  0  0  0  0  0  0  0  0  0  0
  1  2  1  0  0  0  0
  1 22  1  0  0  0  0
  2  3  1  0  0  0  0
  2 23  1  0  0  0  0
  2 24  1  0  0  0  0
  3 11  1  0  0  0  0
  3  4  2  0  0  0  0
  4  5  1  0  0  0  0
  5 10  2  0  0  0  0
  5  6  1  0  0  0  0
  6  7  2  0  0  0  0
  6 25  1  0  0  0  0
  7  8  1  0  0  0  0
  7 26  1  0  0  0  0
  8  9  2  0  0  0  0
  8 27  1  0  0  0  0
  9 10  1  0  0  0  0
  9 28  1  0  0  0  0
 10 11  1  0  0  0  0
 11 12  1  0  0  0  0
 12 13  1  0  0  0  0
 12 29  1  0  0  0  0
 12 30  1  0  0  0  0
 13 14  1  0  0  0  0
 13 15  1  0  0  0  0
 13 31  1  0  0  0  0
 14 32  1  0  0  0  0
 15 20  1  0  0  0  0
 15 16  2  0  0  0  0
 16 17  1  0  0  0  0
 16 33  1  0  0  0  0
 17 18  2  0  0  0  0
 17 34  1  0  0  0  0
 18 19  1  0  0  0  0
 18 35  1  0  0  0  0
 19 20  2  0  0  0  0
 19 36  1  0  0  0  0
 20 21  1  0  0  0  0
M  END
> <s_m_source_file>
AV-unprocessed.smi

> <i_m_source_file_index>
354

> <i_lp_mmshare_version>
43012

> <i_f3d_flags>
0

> <s_epik_input>
W2NIXTFbY0hdW2NIXVtjSF1jKGMxMiluKGMobjIpW0NIMl1bT0hdKVtDSDJdW0NASF0oW09IXSljM1tjSF1bY0hdW2NIXVtjSF1jM0Y=

> <s_epik_cmdline>
J2VwaWtfcHl0aG9uJywgJy1waCcsICc3LjAnLCAnLXRuJywgJzgnLCAnLW1hJywgJzIwMCcsICctbWV0YWxfYmluZGluZycsICctaW1hZScsICc8aW5maWxlLm1hZT4nLCAnLW9tYWUnLCAnPG91dGZpbGUubWFlPic=

> <r_epik_Ionization_Penalty>
0.0634722

> <r_epik_Ionization_Penalty_Charging>
0

> <r_epik_Ionization_Penalty_Neutral>
0.0634722

> <r_epik_State_Penalty>
0.0551572

> <r_epik_Charging_Adjusted_Penalty>
0.0551572

> <i_epik_Tot_Q>
0

> <i_epik_Tot_abs_Q>
0

> <r_epik_Metal_State_Penalty>
5.78034e-05

> <b_epik_Metal_Only>
0

> <s_lp_Force_Field>
OPLS_2005

> <r_lp_Energy>
13.1732

> <b_lp_Chiralities_Consistent>
1

> <s_lp_Variant>
AV-unprocessed.smi:354-1

> <Gold.Version>
5.8.1

> <Gold.Id.Protein>
6NUR|6NUR_protein|mol2

> <Gold.PLP.Fitness>
46.6100

> <Gold.PLP.PLP>
-43.7351

> <Gold.PLP.part.hbond>
-2.8028

> <Gold.PLP.part.metal>
0.0000

> <Gold.PLP.part.buried>
-6.2896

> <Gold.PLP.part.nonpolar>
-34.1749

> <Gold.PLP.part.repulsive>
0.0000

> <Gold.PLP.ligand.clash>
0.0000

> <Gold.PLP.ligand.torsion>
0.7667

> <Gold.PLP.Chemscore.Hbond>
1.4586

> <Gold.PLP.Chemscore.CHOScore>
0.0000

> <Gold.PLP.Chemscore.Metal>
0.0000

> <Gold.Chemscore.Hbonds>
donor molecule, donor type, donor heavy atom, donor atom, acceptor molecule, acceptor atom, score
      L1  H    14    32       P1  7957  0.46
      P1  H  7997  8010       L1     4  0.85

> <Gold.PLP.Chemscore.Internal.Correction>
0.0324

> <Gold.Rescore>
     Score         DG    S(hbond)    S(metal)    S(lipo)     H(rot)  DE(clash)    DE(int)     intcor
     11.92     -12.93       0.67        0.00     104.59       2.75       0.18       0.82       ----

> <Gold.Chemscore.Fitness>
11.9230

> <Gold.Chemscore.DG>
-12.9290

> <Gold.Chemscore.ZeroCoef>
-5.4800

> <Gold.Chemscore.Hbond>
0.6741

> <Gold.Chemscore.Metal>
0.0000

> <Gold.Chemscore.Lipo>
104.5948

> <Gold.Chemscore.Internal_Hbond>
0.0000

> <Gold.Chemscore.DEClash>
0.1834

> <Gold.Chemscore.DEInternal>
0.8226

> <Gold.Chemscore.Rot>
2.7500

> <Gold.Chemscore.Internal.Correction>
   9.000000E+99

> <Gold.Chemscore.Hbonds>
donor molecule, donor type, donor heavy atom, donor atom, acceptor molecule, acceptor atom, score
      L1  H    14    32       P1  7957  0.45
      P1  H  7997  8010       L1     4  0.12

> <Gold.Chemscore.Hbond.Weighted>
-2.2514

> <Gold.Chemscore.Metal.Weighted>
-0.0000

> <Gold.Chemscore.Lipo.Weighted>
-12.2376

> <Gold.Chemscore.Internal_Hbond.Weighted>
0.0000

> <Gold.Chemscore.DEClash.Weighted>
0.1834

> <Gold.Chemscore.DEInternal.Weighted>
0.8226

> <Gold.Chemscore.Rot.Weighted>
7.0399

> <Gold.Chemscore.Internal.Correction.Weighted>
   9.000000E+99

> <Gold.Protein.RotatedTorsions>
[ 6907 6896 6895 6894 ] final  132.45 input  -60.11 | X-H torsion
[ 7974 7965 7964 7962 ] final -164.73 input  175.53 | X-H torsion
[ 8008 7997 7996 7995 ] final   62.55 input   59.86 | X-H torsion
[ 10167 10162 10161 10158 ] final  157.60 input  -65.29 | X-H torsion
[ 10718 10713 10712 10709 ] final  152.93 input   66.30 | X-H torsion
[ 10763 10752 10751 10750 ] final   50.51 input  -60.55 | X-H torsion
[ 11005 11000 10999 10996 ] final  -65.15 input  -57.11 | X-H torsion

> <Gold.Protein.ActiveResidues>
 VAL166  LYS551  ARG553  GLY616  TRP617  ASP618  TYR619  PRO620  LYS621  CYS622 
 ASP623  PHE694  ASN695  SER759  ASP760  ASP761  ALA762  ILE779  LEU786  VAL792 
 PHE793  MET794  SER795  GLU796  ALA797  LYS798  CYS799  TRP800  GLU811  SER814 

> <Gold.Protein.RotatedAtoms>
  152.3323  133.5972  159.5817 H   0  0  0  0  0  0  0  0  0  0  0  0  # atno 6907 bound_to 6896
  150.7430  133.9850  159.3597 H   0  0  0  0  0  0  0  0  0  0  0  0  # atno 6908 bound_to 6896
  151.7723  135.0784  160.0413 H   0  0  0  0  0  0  0  0  0  0  0  0  # atno 6909 bound_to 6896
  144.7289  140.2918  143.6219 H   0  0  0  0  0  0  0  0  0  0  0  0  # atno 7974 bound_to 7965
  155.6162  140.3495  155.4637 H   0  0  0  0  0  0  0  0  0  0  0  0  # atno 8008 bound_to 7997
  156.0115  140.1234  157.0473 H   0  0  0  0  0  0  0  0  0  0  0  0  # atno 8009 bound_to 7997
  154.4282  140.1080  156.5823 H   0  0  0  0  0  0  0  0  0  0  0  0  # atno 8010 bound_to 7997
  139.4823  144.4903  151.8318 H   0  0  0  0  0  0  0  0  0  0  0  0  # atno 10167 bound_to 10162
  157.2513  131.0779  151.1728 H   0  0  0  0  0  0  0  0  0  0  0  0  # atno 10718 bound_to 10713
  152.9784  135.5876  154.4263 H   0  0  0  0  0  0  0  0  0  0  0  0  # atno 10763 bound_to 10752
  154.3882  135.2767  155.2173 H   0  0  0  0  0  0  0  0  0  0  0  0  # atno 10764 bound_to 10752
  154.4057  135.6093  153.5977 H   0  0  0  0  0  0  0  0  0  0  0  0  # atno 10765 bound_to 10752
  141.1446  133.6677  156.5941 H   0  0  0  0  0  0  0  0  0  0  0  0  # atno 11005 bound_to 11000
  145.7847  139.1904  143.2137 LP  0  0  0  0  0  0  0  0  0  0  0  0  # atno 17320 bound_to 7965
  146.0805  140.7769  142.9644 LP  0  0  0  0  0  0  0  0  0  0  0  0  # atno 17321 bound_to 7965
  140.4386  144.2017  150.5890 LP  0  0  0  0  0  0  0  0  0  0  0  0  # atno 17342 bound_to 10162
  140.4706  143.2414  151.9094 LP  0  0  0  0  0  0  0  0  0  0  0  0  # atno 17343 bound_to 10162
  157.3274  130.6968  149.6304 LP  0  0  0  0  0  0  0  0  0  0  0  0  # atno 17370 bound_to 10713
  155.9666  130.4317  150.4933 LP  0  0  0  0  0  0  0  0  0  0  0  0  # atno 17371 bound_to 10713
  140.3740  134.7581  157.4617 LP  0  0  0  0  0  0  0  0  0  0  0  0  # atno 17394 bound_to 11000
  140.0689  134.5890  155.8664 LP  0  0  0  0  0  0  0  0  0  0  0  0  # atno 17395 bound_to 11000

$$$$
