AV-unprocessed.smi:551|AV-procd|sdf|2899|dock3
  -GOLD-   2262023393D 1   1.00000     0.00000
 Structure written by MMmdl.
 39 40  0  0  0  0  0  0  0  0  2 V2000
  151.3801  138.4115  154.8716 C   0  0  0  0  0  0  0  0  0  0  0  0
  150.5327  139.6906  154.8454 C   0  0  1  0  0  0  0  0  0  0  0  0
  149.0758  139.4058  155.2715 C   0  0  0  0  0  0  0  0  0  0  0  0
  148.1011  140.2758  154.6045 N   0  0  0  0  0  0  0  0  0  0  0  0
  148.0552  141.6464  154.6279 C   0  0  0  0  0  0  0  0  0  0  0  0
  146.9867  142.0146  153.8517 C   0  0  0  0  0  0  0  0  0  0  0  0
  146.4224  140.8544  153.3932 N   0  3  0  0  0  0  0  0  0  0  0  0
  147.0984  139.7979  153.8562 C   0  0  0  0  0  0  0  0  0  0  0  0
  151.1500  140.6851  155.7218 N   0  0  0  0  0  0  0  0  0  0  0  0
  151.0766  140.7039  157.0624 C   0  0  0  0  0  0  0  0  0  0  0  0
  150.4552  139.8660  157.7173 O   0  0  0  0  0  0  0  0  0  0  0  0
  151.8398  141.8294  157.7717 C   0  0  0  0  0  0  0  0  0  0  0  0
  151.7611  141.6636  159.3044 C   0  0  0  0  0  0  0  0  0  0  0  0
  152.5183  142.7900  160.0266 C   0  0  0  0  0  0  0  0  0  0  0  0
  151.9993  144.1727  159.6004 C   0  0  0  0  0  0  0  0  0  0  0  0
  152.0603  144.3447  158.0743 C   0  0  0  0  0  0  0  0  0  0  0  0
  151.3037  143.2156  157.3552 C   0  0  0  0  0  0  0  0  0  0  0  0
  150.9686  137.6547  154.2031 H   0  0  0  0  0  0  0  0  0  0  0  0
  151.4226  137.9823  155.8731 H   0  0  0  0  0  0  0  0  0  0  0  0
  152.4032  138.6107  154.5503 H   0  0  0  0  0  0  0  0  0  0  0  0
  150.5358  140.0553  153.8166 H   0  0  0  0  0  0  0  0  0  0  0  0
  148.8050  138.3754  155.0369 H   0  0  0  0  0  0  0  0  0  0  0  0
  148.9563  139.5258  156.3493 H   0  0  0  0  0  0  0  0  0  0  0  0
  148.7723  142.2424  155.1737 H   0  0  0  0  0  0  0  0  0  0  0  0
  146.5966  142.9893  153.5973 H   0  0  0  0  0  0  0  0  0  0  0  0
  146.8840  138.7635  153.6549 H   0  0  0  0  0  0  0  0  0  0  0  0
  151.6802  141.4176  155.2718 H   0  0  0  0  0  0  0  0  0  0  0  0
  152.8895  141.7702  157.4775 H   0  0  0  0  0  0  0  0  0  0  0  0
  150.7197  141.6652  159.6309 H   0  0  0  0  0  0  0  0  0  0  0  0
  152.1750  140.6986  159.6003 H   0  0  0  0  0  0  0  0  0  0  0  0
  152.4188  142.6728  161.1061 H   0  0  0  0  0  0  0  0  0  0  0  0
  153.5835  142.7149  159.8044 H   0  0  0  0  0  0  0  0  0  0  0  0
  150.9705  144.2973  159.9407 H   0  0  0  0  0  0  0  0  0  0  0  0
  152.5829  144.9552  160.0862 H   0  0  0  0  0  0  0  0  0  0  0  0
  151.6409  145.3111  157.7927 H   0  0  0  0  0  0  0  0  0  0  0  0
  153.1012  144.3526  157.7484 H   0  0  0  0  0  0  0  0  0  0  0  0
  151.3954  143.3458  156.2760 H   0  0  0  0  0  0  0  0  0  0  0  0
  150.2399  143.2943  157.5861 H   0  0  0  0  0  0  0  0  0  0  0  0
  145.6125  140.8008  152.7880 H   0  0  0  0  0  0  0  0  0  0  0  0
  1  2  1  0  0  0  0
  1 18  1  0  0  0  0
  1 19  1  0  0  0  0
  1 20  1  0  0  0  0
  2  3  1  0  0  0  0
  2  9  1  0  0  0  0
  2 21  1  0  0  0  0
  3  4  1  0  0  0  0
  3 22  1  0  0  0  0
  3 23  1  0  0  0  0
  4  8  1  0  0  0  0
  4  5  1  0  0  0  0
  5  6  2  0  0  0  0
  5 24  1  0  0  0  0
  6  7  1  0  0  0  0
  6 25  1  0  0  0  0
  7  8  2  0  0  0  0
  7 39  1  0  0  0  0
  8 26  1  0  0  0  0
  9 10  1  0  0  0  0
  9 27  1  0  0  0  0
 10 11  2  0  0  0  0
 10 12  1  0  0  0  0
 12 17  1  0  0  0  0
 12 13  1  0  0  0  0
 12 28  1  0  0  0  0
 13 14  1  0  0  0  0
 13 29  1  0  0  0  0
 13 30  1  0  0  0  0
 14 15  1  0  0  0  0
 14 31  1  0  0  0  0
 14 32  1  0  0  0  0
 15 16  1  0  0  0  0
 15 33  1  0  0  0  0
 15 34  1  0  0  0  0
 16 17  1  0  0  0  0
 16 35  1  0  0  0  0
 16 36  1  0  0  0  0
 17 37  1  0  0  0  0
 17 38  1  0  0  0  0
M  CHG  1   7   1
M  END
> <s_m_source_file>
AV-unprocessed.smi

> <i_m_source_file_index>
551

> <i_lp_mmshare_version>
43012

> <i_f3d_flags>
0

> <s_epik_input>
W2NIXTFuW2NIXVtjSF1uMVtDSDJdW0NAQEhdKFtDSDNdKVtOSF1DKD1PKVtDSF0yW0NIMl1bQ0gyXVtDSDJdW0NIMl1bQ0gyXTI=

> <s_epik_cmdline>
J2VwaWtfcHl0aG9uJywgJy1waCcsICc3LjAnLCAnLXRuJywgJzgnLCAnLW1hJywgJzIwMCcsICctbWV0YWxfYmluZGluZycsICctaW1hZScsICc8aW5maWxlLm1hZT4nLCAnLW9tYWUnLCAnPG91dGZpbGUubWFlPic=

> <r_lp_tautomer_probability>
1

> <r_epik_Ionization_Penalty>
0.244425

> <r_epik_Ionization_Penalty_Charging>
0

> <r_epik_Ionization_Penalty_Neutral>
0.244425

> <r_epik_State_Penalty>
0.23553

> <r_epik_Charging_Adjusted_Penalty>
0.23553

> <i_epik_Tot_Q>
1

> <i_epik_Tot_abs_Q>
1

> <r_epik_Metal_State_Penalty>
0.528799

> <b_epik_Metal_Only>
0

> <s_lp_Force_Field>
OPLS_2005

> <r_lp_Energy>
13.1921

> <b_lp_Chiralities_Consistent>
1

> <s_lp_Variant>
AV-unprocessed.smi:551-2

> <Gold.Version>
5.8.1

> <Gold.Id.Protein>
6NUR|6NUR_protein|mol2

> <Gold.PLP.Fitness>
45.6201

> <Gold.PLP.PLP>
-37.9064

> <Gold.PLP.part.hbond>
-1.0000

> <Gold.PLP.part.metal>
0.0000

> <Gold.PLP.part.buried>
-4.1960

> <Gold.PLP.part.nonpolar>
-32.9524

> <Gold.PLP.part.repulsive>
0.9104

> <Gold.PLP.ligand.clash>
0.0000

> <Gold.PLP.ligand.torsion>
0.6319

> <Gold.PLP.Chemscore.Hbond>
1.9840

> <Gold.PLP.Chemscore.CHOScore>
1.0000

> <Gold.PLP.Chemscore.Metal>
0.0000

> <Gold.Chemscore.Hbonds>
donor molecule, donor type, donor heavy atom, donor atom, acceptor molecule, acceptor atom, score
      L1  H     7    39       P1 10175  2.00
      L1  C     5    24       P1  8028  1.00

> <Gold.PLP.Chemscore.Internal.Correction>
0.0255

> <Gold.Rescore>
     Score         DG    S(hbond)    S(metal)    S(lipo)     H(rot)  DE(clash)    DE(int)     intcor
     13.45     -15.61       0.98        0.00      97.90       1.80       0.11       2.05       ----

> <Gold.Chemscore.Fitness>
13.4518

> <Gold.Chemscore.DG>
-15.6124

> <Gold.Chemscore.ZeroCoef>
-5.4800

> <Gold.Chemscore.Hbond>
0.9833

> <Gold.Chemscore.Metal>
0.0000

> <Gold.Chemscore.Lipo>
97.8969

> <Gold.Chemscore.Internal_Hbond>
0.0000

> <Gold.Chemscore.DEClash>
0.1059

> <Gold.Chemscore.DEInternal>
2.0547

> <Gold.Chemscore.Rot>
1.7991

> <Gold.Chemscore.Internal.Correction>
   9.000000E+99

> <Gold.Chemscore.Hbonds>
donor molecule, donor type, donor heavy atom, donor atom, acceptor molecule, acceptor atom, score
      L1  H     7    39       P1 10175  0.38

> <Gold.Chemscore.Hbond.Weighted>
-3.2843

> <Gold.Chemscore.Metal.Weighted>
-0.0000

> <Gold.Chemscore.Lipo.Weighted>
-11.4539

> <Gold.Chemscore.Internal_Hbond.Weighted>
0.0000

> <Gold.Chemscore.DEClash.Weighted>
0.1059

> <Gold.Chemscore.DEInternal.Weighted>
2.0547

> <Gold.Chemscore.Rot.Weighted>
4.6058

> <Gold.Chemscore.Internal.Correction.Weighted>
   9.000000E+99

> <Gold.Protein.RotatedTorsions>
[ 6907 6896 6895 6894 ] final   83.33 input  -60.11 | X-H torsion
[ 7974 7965 7964 7962 ] final  167.28 input  175.53 | X-H torsion
[ 8008 7997 7996 7995 ] final   51.74 input   59.86 | X-H torsion
[ 10167 10162 10161 10158 ] final    8.97 input  -65.29 | X-H torsion
[ 10718 10713 10712 10709 ] final  133.90 input   66.30 | X-H torsion
[ 10763 10752 10751 10750 ] final  -47.61 input  -60.55 | X-H torsion
[ 11005 11000 10999 10996 ] final  104.82 input  -57.11 | X-H torsion

> <Gold.Protein.ActiveResidues>
 VAL166  LYS551  ARG553  GLY616  TRP617  ASP618  TYR619  PRO620  LYS621  CYS622 
 ASP623  PHE694  ASN695  SER759  ASP760  ASP761  ALA762  ILE779  LEU786  VAL792 
 PHE793  MET794  SER795  GLU796  ALA797  LYS798  CYS799  TRP800  GLU811  SER814 

> <Gold.Protein.RotatedAtoms>
  152.5324  134.2912  159.9043 H   0  0  0  0  0  0  0  0  0  0  0  0  # atno 6907 bound_to 6896
  151.2864  133.4179  159.2638 H   0  0  0  0  0  0  0  0  0  0  0  0  # atno 6908 bound_to 6896
  151.0239  134.9505  159.8131 H   0  0  0  0  0  0  0  0  0  0  0  0  # atno 6909 bound_to 6896
  144.7430  139.8738  143.6391 H   0  0  0  0  0  0  0  0  0  0  0  0  # atno 7974 bound_to 7965
  155.4403  140.3454  155.4289 H   0  0  0  0  0  0  0  0  0  0  0  0  # atno 8008 bound_to 7997
  156.1283  140.1506  156.9134 H   0  0  0  0  0  0  0  0  0  0  0  0  # atno 8009 bound_to 7997
  154.4875  140.0851  156.7499 H   0  0  0  0  0  0  0  0  0  0  0  0  # atno 8010 bound_to 7997
  140.6283  143.8052  150.7261 H   0  0  0  0  0  0  0  0  0  0  0  0  # atno 10167 bound_to 10162
  157.4727  131.1081  150.9783 H   0  0  0  0  0  0  0  0  0  0  0  0  # atno 10718 bound_to 10713
  154.0642  135.6614  153.4816 H   0  0  0  0  0  0  0  0  0  0  0  0  # atno 10763 bound_to 10752
  153.0415  135.5142  154.7629 H   0  0  0  0  0  0  0  0  0  0  0  0  # atno 10764 bound_to 10752
  154.6675  135.3024  154.9753 H   0  0  0  0  0  0  0  0  0  0  0  0  # atno 10765 bound_to 10752
  139.8795  134.9314  156.5419 H   0  0  0  0  0  0  0  0  0  0  0  0  # atno 11005 bound_to 11000
  146.1261  139.4287  143.0198 LP  0  0  0  0  0  0  0  0  0  0  0  0  # atno 17320 bound_to 7965
  145.7233  141.0067  143.1391 LP  0  0  0  0  0  0  0  0  0  0  0  0  # atno 17321 bound_to 7965
  140.1657  143.4237  152.2036 LP  0  0  0  0  0  0  0  0  0  0  0  0  # atno 17342 bound_to 10162
  139.5500  144.7330  151.4464 LP  0  0  0  0  0  0  0  0  0  0  0  0  # atno 17343 bound_to 10162
  157.0542  130.5799  149.5375 LP  0  0  0  0  0  0  0  0  0  0  0  0  # atno 17370 bound_to 10713
  156.0081  130.5170  150.7898 LP  0  0  0  0  0  0  0  0  0  0  0  0  # atno 17371 bound_to 10713
  140.8304  133.8283  155.8978 LP  0  0  0  0  0  0  0  0  0  0  0  0  # atno 17394 bound_to 11000
  140.9334  134.1993  157.4848 LP  0  0  0  0  0  0  0  0  0  0  0  0  # atno 17395 bound_to 11000

$$$$
