AV-unprocessed.smi:35|AV-procd|sdf|250|dock10
  -GOLD-   2262016 13D 1   1.00000     0.00000
 Structure written by MMmdl.
 29 30  0  0  0  0  0  0  0  0  1 V2000
  154.5032  141.4930  160.9704 O   0  0  0  0  0  0  0  0  0  0  0  0
  153.6173  141.1337  160.1980 C   0  0  0  0  0  0  0  0  0  0  0  0
  153.4982  139.7882  159.8375 N   0  0  0  0  0  0  0  0  0  0  0  0
  152.5345  139.2628  158.9744 C   0  0  0  0  0  0  0  0  0  0  0  0
  152.5308  138.0606  158.7127 O   0  0  0  0  0  0  0  0  0  0  0  0
  151.5961  140.1651  158.4262 N   0  0  0  0  0  0  0  0  0  0  0  0
  150.5379  139.6248  157.4837 C   0  0  1  0  0  0  0  0  0  0  0  0
  149.6879  140.6667  157.0934 O   0  0  0  0  0  0  0  0  0  0  0  0
  149.8332  140.9082  155.6986 C   0  0  2  0  0  0  0  0  0  0  0  0
  148.5804  141.5985  155.1307 C   0  0  0  0  0  0  0  0  0  0  0  0
  148.8701  142.3594  153.9763 O   0  0  0  0  0  0  0  0  0  0  0  0
  150.1995  139.5389  155.1249 C   0  0  1  0  0  0  0  0  0  0  0  0
  150.7881  139.6086  153.8392 O   0  0  0  0  0  0  0  0  0  0  0  0
  151.1344  138.9938  156.1999 C   0  0  1  0  0  0  0  0  0  0  0  0
  152.4879  139.3585  155.9695 O   0  0  0  0  0  0  0  0  0  0  0  0
  151.6828  141.5147  158.7461 C   0  0  0  0  0  0  0  0  0  0  0  0
  152.6260  142.0088  159.5821 C   0  0  0  0  0  0  0  0  0  0  0  0
  152.5835  143.9623  159.9079 Br  0  0  0  0  0  0  0  0  0  0  0  0
  154.1672  139.1432  160.2319 H   0  0  0  0  0  0  0  0  0  0  0  0
  149.9362  138.9261  158.0682 H   0  0  0  0  0  0  0  0  0  0  0  0
  150.6825  141.5833  155.5791 H   0  0  0  0  0  0  0  0  0  0  0  0
  147.8090  140.8630  154.9013 H   0  0  0  0  0  0  0  0  0  0  0  0
  148.1642  142.2744  155.8778 H   0  0  0  0  0  0  0  0  0  0  0  0
  148.8504  143.2758  154.2071 H   0  0  0  0  0  0  0  0  0  0  0  0
  149.3187  138.8982  155.0747 H   0  0  0  0  0  0  0  0  0  0  0  0
  150.1015  139.7278  153.2011 H   0  0  0  0  0  0  0  0  0  0  0  0
  151.0797  137.9067  156.2668 H   0  0  0  0  0  0  0  0  0  0  0  0
  152.6742  139.2447  155.0502 H   0  0  0  0  0  0  0  0  0  0  0  0
  150.9825  142.2147  158.3175 H   0  0  0  0  0  0  0  0  0  0  0  0
  1  2  2  0  0  0  0
  2 17  1  0  0  0  0
  2  3  1  0  0  0  0
  3 19  1  0  0  0  0
  3  4  1  0  0  0  0
  4  5  2  0  0  0  0
  4  6  1  0  0  0  0
  6  7  1  0  0  0  0
  6 16  1  0  0  0  0
  7 14  1  0  0  0  0
  7  8  1  0  0  0  0
  7 20  1  0  0  0  0
  8  9  1  0  0  0  0
  9 10  1  0  0  0  0
  9 12  1  0  0  0  0
  9 21  1  0  0  0  0
 10 11  1  0  0  0  0
 10 22  1  0  0  0  0
 10 23  1  0  0  0  0
 11 24  1  0  0  0  0
 12 13  1  0  0  0  0
 12 14  1  0  0  0  0
 12 25  1  0  0  0  0
 13 26  1  0  0  0  0
 14 15  1  0  0  0  0
 14 27  1  0  0  0  0
 15 28  1  0  0  0  0
 16 17  2  0  0  0  0
 16 29  1  0  0  0  0
 17 18  1  0  0  0  0
M  END
> <s_m_source_file>
AV-unprocessed.smi

> <i_m_source_file_index>
35

> <i_lp_mmshare_version>
43012

> <i_f3d_flags>
0

> <s_epik_input>
Tz1jMVtuSF1jKD1PKW4oW2NIXWMxQnIpW0NAQEhdMk9bQ0BASF0oW0NIMl1bT0hdKVtDQEBIXShbT0hdKVtDQEhdMltPSF0=

> <s_epik_cmdline>
J2VwaWtfcHl0aG9uJywgJy1waCcsICc3LjAnLCAnLXRuJywgJzgnLCAnLW1hJywgJzIwMCcsICctbWV0YWxfYmluZGluZycsICctaW1hZScsICc8aW5maWxlLm1hZT4nLCAnLW9tYWUnLCAnPG91dGZpbGUubWFlPic=

> <r_lp_tautomer_probability>
0.999537

> <r_epik_Ionization_Penalty>
0.10812

> <r_epik_Ionization_Penalty_Charging>
0.108119

> <r_epik_Ionization_Penalty_Neutral>
4.93006e-07

> <r_epik_State_Penalty>
0.0979238

> <r_epik_Charging_Adjusted_Penalty>
0.206043

> <i_epik_Tot_Q>
0

> <i_epik_Tot_abs_Q>
0

> <r_epik_Metal_State_Penalty>
3.07911

> <b_epik_Metal_Only>
0

> <s_epik_Chemistry_Notes>
This compound contains an acetal/aminal-like group ( X-CH(R)-Y where X, Y are N, S, or O) that may be acid/base labile, releasing an aldehyde.

> <s_lp_Force_Field>
OPLS_2005

> <r_lp_Energy>
39.8494

> <b_lp_Chiralities_Consistent>
1

> <s_lp_Variant>
AV-unprocessed.smi:35-4

> <Gold.Version>
5.8.1

> <Gold.Id.Protein>
6NUR|6NUR_protein|mol2

> <Gold.PLP.Fitness>
40.0877

> <Gold.PLP.PLP>
-29.0512

> <Gold.PLP.part.hbond>
-5.7940

> <Gold.PLP.part.metal>
0.0000

> <Gold.PLP.part.buried>
-1.3568

> <Gold.PLP.part.nonpolar>
-21.4910

> <Gold.PLP.part.repulsive>
0.1034

> <Gold.PLP.ligand.clash>
0.0000

> <Gold.PLP.ligand.torsion>
0.3165

> <Gold.PLP.Chemscore.Hbond>
3.8788

> <Gold.PLP.Chemscore.CHOScore>
0.0000

> <Gold.PLP.Chemscore.Metal>
0.0000

> <Gold.Chemscore.Hbonds>
donor molecule, donor type, donor heavy atom, donor atom, acceptor molecule, acceptor atom, score
      L1  H    11    24       P1  8028  1.00
      L1  H    13    26       P1  7957  0.71
      P1  H  7989  7998       L1    13  0.85
      P1  H  7997  8008       L1    15  0.72
      P1  H  8011  8017       L1    11  0.22

> <Gold.PLP.Chemscore.Internal.Correction>
0.0331

> <Gold.Rescore>
     Score         DG    S(hbond)    S(metal)    S(lipo)     H(rot)  DE(clash)    DE(int)     intcor
      9.96     -10.92       2.54        0.00      54.21       3.67       0.61       0.36       ----

> <Gold.Chemscore.Fitness>
9.9561

> <Gold.Chemscore.DG>
-10.9190

> <Gold.Chemscore.ZeroCoef>
-5.4800

> <Gold.Chemscore.Hbond>
2.5426

> <Gold.Chemscore.Metal>
0.0000

> <Gold.Chemscore.Lipo>
54.2077

> <Gold.Chemscore.Internal_Hbond>
0.0000

> <Gold.Chemscore.DEClash>
0.6071

> <Gold.Chemscore.DEInternal>
0.3558

> <Gold.Chemscore.Rot>
3.6701

> <Gold.Chemscore.Internal.Correction>
   9.000000E+99

> <Gold.Chemscore.Hbonds>
donor molecule, donor type, donor heavy atom, donor atom, acceptor molecule, acceptor atom, score
      L1  H    11    24       P1  8028  0.91
      L1  H    13    26       P1  7957  0.70
      P1  H  7989  7998       L1    13  0.13
      P1  H  7997  8008       L1    15  0.08
      P1  H  8011  8017       L1    11  0.06

> <Gold.Chemscore.Hbond.Weighted>
-8.4922

> <Gold.Chemscore.Metal.Weighted>
-0.0000

> <Gold.Chemscore.Lipo.Weighted>
-6.3423

> <Gold.Chemscore.Internal_Hbond.Weighted>
0.0000

> <Gold.Chemscore.DEClash.Weighted>
0.6071

> <Gold.Chemscore.DEInternal.Weighted>
0.3558

> <Gold.Chemscore.Rot.Weighted>
9.3955

> <Gold.Chemscore.Internal.Correction.Weighted>
   9.000000E+99

> <Gold.Protein.RotatedTorsions>
[ 6907 6896 6895 6894 ] final  -92.12 input  -60.11 | X-H torsion
[ 7974 7965 7964 7962 ] final  152.37 input  175.53 | X-H torsion
[ 8008 7997 7996 7995 ] final  -48.95 input   59.86 | X-H torsion
[ 10167 10162 10161 10158 ] final  -21.07 input  -65.29 | X-H torsion
[ 10718 10713 10712 10709 ] final -147.22 input   66.30 | X-H torsion
[ 10763 10752 10751 10750 ] final -157.59 input  -60.55 | X-H torsion
[ 11005 11000 10999 10996 ] final   -5.75 input  -57.11 | X-H torsion

> <Gold.Protein.ActiveResidues>
 VAL166  LYS551  ARG553  GLY616  TRP617  ASP618  TYR619  PRO620  LYS621  CYS622 
 ASP623  PHE694  ASN695  SER759  ASP760  ASP761  ALA762  ILE779  LEU786  VAL792 
 PHE793  MET794  SER795  GLU796  ALA797  LYS798  CYS799  TRP800  GLU811  SER814 

> <Gold.Protein.RotatedAtoms>
  150.6901  134.2171  159.4381 H   0  0  0  0  0  0  0  0  0  0  0  0  # atno 6907 bound_to 6896
  152.0130  134.9863  160.0578 H   0  0  0  0  0  0  0  0  0  0  0  0  # atno 6908 bound_to 6896
  152.1470  133.4464  159.4832 H   0  0  0  0  0  0  0  0  0  0  0  0  # atno 6909 bound_to 6896
  144.8227  139.6660  143.6093 H   0  0  0  0  0  0  0  0  0  0  0  0  # atno 7974 bound_to 7965
  154.4036  140.1309  156.4422 H   0  0  0  0  0  0  0  0  0  0  0  0  # atno 8008 bound_to 7997
  155.7447  140.3489  155.5101 H   0  0  0  0  0  0  0  0  0  0  0  0  # atno 8009 bound_to 7997
  155.9006  140.1018  157.1343 H   0  0  0  0  0  0  0  0  0  0  0  0  # atno 8010 bound_to 7997
  140.7280  143.4663  151.0309 H   0  0  0  0  0  0  0  0  0  0  0  0  # atno 10167 bound_to 10162
  156.4048  130.7952  151.2165 H   0  0  0  0  0  0  0  0  0  0  0  0  # atno 10718 bound_to 10713
  154.7623  135.3121  154.8353 H   0  0  0  0  0  0  0  0  0  0  0  0  # atno 10763 bound_to 10752
  153.9111  135.6805  153.4755 H   0  0  0  0  0  0  0  0  0  0  0  0  # atno 10764 bound_to 10752
  153.1225  135.4816  154.9151 H   0  0  0  0  0  0  0  0  0  0  0  0  # atno 10765 bound_to 10752
  140.6945  133.9042  155.8641 H   0  0  0  0  0  0  0  0  0  0  0  0  # atno 11005 bound_to 11000
  146.2532  139.6246  142.9412 LP  0  0  0  0  0  0  0  0  0  0  0  0  # atno 17320 bound_to 7965
  145.5069  141.0436  143.2509 LP  0  0  0  0  0  0  0  0  0  0  0  0  # atno 17321 bound_to 7965
  139.8351  143.7638  152.3180 LP  0  0  0  0  0  0  0  0  0  0  0  0  # atno 17342 bound_to 10162
  139.7768  144.7458  151.0146 LP  0  0  0  0  0  0  0  0  0  0  0  0  # atno 17343 bound_to 10162
  157.7505  131.0275  150.4011 LP  0  0  0  0  0  0  0  0  0  0  0  0  # atno 17370 bound_to 10713
  156.4297  130.3969  149.6768 LP  0  0  0  0  0  0  0  0  0  0  0  0  # atno 17371 bound_to 10713
  141.0214  134.0883  157.4116 LP  0  0  0  0  0  0  0  0  0  0  0  0  # atno 17394 bound_to 11000
  139.8914  135.0118  156.6789 LP  0  0  0  0  0  0  0  0  0  0  0  0  # atno 17395 bound_to 11000

$$$$
