AV-unprocessed.smi:769|AV-procd|sdf|3678|dock1
  -GOLD-   22720 1 93D 1   1.00000     0.00000
 Structure written by MMmdl.
 50 52  0  0  0  0  0  0  0  0  4 V2000
  147.1490  132.4714  153.9015 O   0  0  0  0  0  0  0  0  0  0  0  0
  147.8506  133.4190  153.5290 C   0  0  0  0  0  0  0  0  0  0  0  0
  149.1071  133.7326  153.9461 N   0  5  0  0  0  0  0  0  0  0  0  0
  149.8988  132.9414  154.8869 C   0  0  0  0  0  0  0  0  0  0  0  0
  150.4582  133.8416  156.0059 C   0  0  0  0  0  0  0  0  0  0  0  0
  149.4132  134.7521  156.5424 N   0  3  0  0  0  0  0  0  0  0  0  0
  148.3901  134.0488  157.3617 C   0  0  0  0  0  0  0  0  0  0  0  0
  147.2956  135.0195  157.8429 C   0  0  0  0  0  0  0  0  0  0  0  0
  147.9226  136.1295  158.5683 N   0  0  0  0  0  0  0  0  0  0  0  0
  147.7247  136.3465  159.8919 C   0  0  0  0  0  0  0  0  0  0  0  0
  148.3196  137.2356  160.5023 O   0  0  0  0  0  0  0  0  0  0  0  0
  146.6942  135.4791  160.6473 C   0  0  0  0  0  0  0  0  0  0  0  0
  146.3415  135.9223  162.0819 C   0  0  0  0  0  0  0  0  0  0  0  0
  147.2802  134.8417  162.6271 C   0  0  0  0  0  0  0  0  0  0  0  0
  147.2803  134.1867  161.2420 C   0  0  0  0  0  0  0  0  0  0  0  0
  148.8301  136.8876  157.7000 C   0  0  0  0  0  0  0  0  0  0  0  0
  149.9615  135.9595  157.2236 C   0  0  0  0  0  0  0  0  0  0  0  0
  147.3993  134.2763  152.5957 N   0  0  0  0  0  0  0  0  0  0  0  0
  146.1624  134.2720  151.8962 C   0  0  0  0  0  0  0  0  0  0  0  0
  145.4714  133.0441  151.7971 C   0  0  0  0  0  0  0  0  0  0  0  0
  144.2494  132.9888  151.0968 C   0  0  0  0  0  0  0  0  0  0  0  0
  143.7555  134.1039  150.5169 N   0  3  0  0  0  0  0  0  0  0  0  0
  144.3892  135.2955  150.5687 C   0  0  0  0  0  0  0  0  0  0  0  0
  145.6151  135.4120  151.2547 C   0  0  0  0  0  0  0  0  0  0  0  0
  149.3222  132.1298  155.3330 H   0  0  0  0  0  0  0  0  0  0  0  0
  150.7338  132.4557  154.3813 H   0  0  0  0  0  0  0  0  0  0  0  0
  150.8367  133.2005  156.8041 H   0  0  0  0  0  0  0  0  0  0  0  0
  151.3150  134.4189  155.6539 H   0  0  0  0  0  0  0  0  0  0  0  0
  147.9350  133.2515  156.7727 H   0  0  0  0  0  0  0  0  0  0  0  0
  148.8740  133.5777  158.2189 H   0  0  0  0  0  0  0  0  0  0  0  0
  146.7449  135.4167  156.9888 H   0  0  0  0  0  0  0  0  0  0  0  0
  146.5631  134.4763  158.4410 H   0  0  0  0  0  0  0  0  0  0  0  0
  145.7900  135.3164  160.0598 H   0  0  0  0  0  0  0  0  0  0  0  0
  146.6230  136.9372  162.3645 H   0  0  0  0  0  0  0  0  0  0  0  0
  145.2961  135.7300  162.3274 H   0  0  0  0  0  0  0  0  0  0  0  0
  148.2587  135.2366  162.9047 H   0  0  0  0  0  0  0  0  0  0  0  0
  146.8524  134.2274  163.4198 H   0  0  0  0  0  0  0  0  0  0  0  0
  146.5910  133.3442  161.1690 H   0  0  0  0  0  0  0  0  0  0  0  0
  148.2749  133.9157  160.8846 H   0  0  0  0  0  0  0  0  0  0  0  0
  148.2687  137.2563  156.8402 H   0  0  0  0  0  0  0  0  0  0  0  0
  149.2507  137.7759  158.1678 H   0  0  0  0  0  0  0  0  0  0  0  0
  150.5698  135.6517  158.0760 H   0  0  0  0  0  0  0  0  0  0  0  0
  150.6197  136.5042  156.5459 H   0  0  0  0  0  0  0  0  0  0  0  0
  148.0706  134.9644  152.2875 H   0  0  0  0  0  0  0  0  0  0  0  0
  145.8695  132.1529  152.2603 H   0  0  0  0  0  0  0  0  0  0  0  0
  143.6579  132.0922  150.9827 H   0  0  0  0  0  0  0  0  0  0  0  0
  143.9034  136.1139  150.0579 H   0  0  0  0  0  0  0  0  0  0  0  0
  146.1188  136.3667  151.2676 H   0  0  0  0  0  0  0  0  0  0  0  0
  148.9147  135.0898  155.7310 H   0  0  0  0  0  0  0  0  0  0  0  0
  142.8698  134.0425  150.0140 H   0  0  0  0  0  0  0  0  0  0  0  0
  1  2  2  0  0  0  0
  2  3  1  0  0  0  0
  2 18  1  0  0  0  0
  3  4  1  0  0  0  0
  4  5  1  0  0  0  0
  4 25  1  0  0  0  0
  4 26  1  0  0  0  0
  5  6  1  0  0  0  0
  5 27  1  0  0  0  0
  5 28  1  0  0  0  0
  6 17  1  0  0  0  0
  6  7  1  0  0  0  0
  6 49  1  0  0  0  0
  7  8  1  0  0  0  0
  7 29  1  0  0  0  0
  7 30  1  0  0  0  0
  8  9  1  0  0  0  0
  8 31  1  0  0  0  0
  8 32  1  0  0  0  0
  9 10  1  0  0  0  0
  9 16  1  0  0  0  0
 10 11  2  0  0  0  0
 10 12  1  0  0  0  0
 12 15  1  0  0  0  0
 12 13  1  0  0  0  0
 12 33  1  0  0  0  0
 13 14  1  0  0  0  0
 13 34  1  0  0  0  0
 13 35  1  0  0  0  0
 14 15  1  0  0  0  0
 14 36  1  0  0  0  0
 14 37  1  0  0  0  0
 15 38  1  0  0  0  0
 15 39  1  0  0  0  0
 16 17  1  0  0  0  0
 16 40  1  0  0  0  0
 16 41  1  0  0  0  0
 17 42  1  0  0  0  0
 17 43  1  0  0  0  0
 18 19  1  0  0  0  0
 18 44  1  0  0  0  0
 19 24  1  0  0  0  0
 19 20  2  0  0  0  0
 20 21  1  0  0  0  0
 20 45  1  0  0  0  0
 21 22  2  0  0  0  0
 21 46  1  0  0  0  0
 22 23  1  0  0  0  0
 22 50  1  0  0  0  0
 23 24  2  0  0  0  0
 23 47  1  0  0  0  0
 24 48  1  0  0  0  0
M  CHG  1   3  -1
M  CHG  1   6   1
M  CHG  1  22   1
M  END
> <s_m_source_file>
AV-unprocessed.smi

> <i_m_source_file_index>
769

> <i_lp_mmshare_version>
43012

> <i_f3d_flags>
0

> <s_epik_input>
W2NIXTFbY0hdbltjSF1bY0hdYzFbTkhdQyg9TylbTkhdW0NIMl1bQ0gyXU4yW0NIMl1bQ0gyXU4oW0NIMl1bQ0gyXTIpQyg9TylbQ0hdM1tDSDJdW0NIMl1bQ0gyXTM=

> <s_epik_cmdline>
J2VwaWtfcHl0aG9uJywgJy1waCcsICc3LjAnLCAnLXRuJywgJzgnLCAnLW1hJywgJzIwMCcsICctbWV0YWxfYmluZGluZycsICctaW1hZScsICc8aW5maWxlLm1hZT4nLCAnLW9tYWUnLCAnPG91dGZpbGUubWFlPic=

> <r_epik_Ionization_Penalty>
8.38098

> <r_epik_Ionization_Penalty_Charging>
8.38098

> <r_epik_Ionization_Penalty_Neutral>
3.42309e-06

> <r_epik_State_Penalty>
8.4985

> <r_epik_Charging_Adjusted_Penalty>
16.8795

> <i_epik_Tot_Q>
1

> <i_epik_Tot_abs_Q>
3

> <r_epik_Metal_State_Penalty>
4.51015

> <b_epik_Metal_Only>
1

> <s_lp_Force_Field>
OPLS_2005

> <r_lp_Energy>
56.008

> <b_lp_Chiralities_Consistent>
1

> <s_lp_Variant>
AV-unprocessed.smi:769-5

> <Gold.Version>
5.8.1

> <Gold.Id.Protein>
6NUR|6NUR_protein|mol2

> <Gold.PLP.Fitness>
48.7732

> <Gold.PLP.PLP>
-37.3975

> <Gold.PLP.part.hbond>
-4.0000

> <Gold.PLP.part.metal>
0.0000

> <Gold.PLP.part.buried>
-6.4715

> <Gold.PLP.part.nonpolar>
-26.7999

> <Gold.PLP.part.repulsive>
0.3107

> <Gold.PLP.ligand.clash>
0.0000

> <Gold.PLP.ligand.torsion>
0.8000

> <Gold.PLP.Chemscore.Hbond>
4.1315

> <Gold.PLP.Chemscore.CHOScore>
0.0000

> <Gold.PLP.Chemscore.Metal>
0.0000

> <Gold.Chemscore.Hbonds>
donor molecule, donor type, donor heavy atom, donor atom, acceptor molecule, acceptor atom, score
      L1  H    18    44       P1  7948  1.00
      L1  H    22    50       P1 10186  2.00
      P1  H  6931  6943       L1    11  0.74
      P1  H  6934  6947       L1    11  0.42

> <Gold.PLP.Chemscore.Internal.Correction>
0.5814

> <Gold.Rescore>
     Score         DG    S(hbond)    S(metal)    S(lipo)     H(rot)  DE(clash)    DE(int)     intcor
     19.40     -21.66       3.61        0.00      72.76       1.72       0.00       2.26       ----

> <Gold.Chemscore.Fitness>
19.4045

> <Gold.Chemscore.DG>
-21.6639

> <Gold.Chemscore.ZeroCoef>
-5.4800

> <Gold.Chemscore.Hbond>
3.6146

> <Gold.Chemscore.Metal>
0.0000

> <Gold.Chemscore.Lipo>
72.7626

> <Gold.Chemscore.Internal_Hbond>
0.0000

> <Gold.Chemscore.DEClash>
0.0029

> <Gold.Chemscore.DEInternal>
2.2565

> <Gold.Chemscore.Rot>
1.7195

> <Gold.Chemscore.Internal.Correction>
   9.000000E+99

> <Gold.Chemscore.Hbonds>
donor molecule, donor type, donor heavy atom, donor atom, acceptor molecule, acceptor atom, score
      L1  H    18    44       P1  7948  0.63
      L1  H    22    50       P1 10186  0.97
      P1  H  6931  6943       L1    11  0.72
      P1  H  6934  6947       L1    11  0.40

> <Gold.Chemscore.Hbond.Weighted>
-12.0726

> <Gold.Chemscore.Metal.Weighted>
-0.0000

> <Gold.Chemscore.Lipo.Weighted>
-8.5132

> <Gold.Chemscore.Internal_Hbond.Weighted>
0.0000

> <Gold.Chemscore.DEClash.Weighted>
0.0029

> <Gold.Chemscore.DEInternal.Weighted>
2.2565

> <Gold.Chemscore.Rot.Weighted>
4.4020

> <Gold.Chemscore.Internal.Correction.Weighted>
   9.000000E+99

> <Gold.Protein.RotatedTorsions>
[ 6907 6896 6895 6894 ] final  171.70 input  -60.11 | X-H torsion
[ 7974 7965 7964 7962 ] final  -82.44 input  175.53 | X-H torsion
[ 8008 7997 7996 7995 ] final  169.64 input   59.86 | X-H torsion
[ 10167 10162 10161 10158 ] final   -5.82 input  -65.29 | X-H torsion
[ 10718 10713 10712 10709 ] final   99.03 input   66.30 | X-H torsion
[ 10763 10752 10751 10750 ] final    4.68 input  -60.55 | X-H torsion
[ 11005 11000 10999 10996 ] final -146.02 input  -57.11 | X-H torsion

> <Gold.Protein.ActiveResidues>
 VAL166  LYS551  ARG553  GLY616  TRP617  ASP618  TYR619  PRO620  LYS621  CYS622 
 ASP623  PHE694  ASN695  SER759  ASP760  ASP761  ALA762  ILE779  LEU786  VAL792 
 PHE793  MET794  SER795  GLU796  ALA797  LYS798  CYS799  TRP800  GLU811  SER814 

> <Gold.Protein.RotatedAtoms>
  151.7960  133.3364  159.3512 H   0  0  0  0  0  0  0  0  0  0  0  0  # atno 6907 bound_to 6896
  150.7375  134.5798  159.5942 H   0  0  0  0  0  0  0  0  0  0  0  0  # atno 6908 bound_to 6896
  152.3176  134.7421  160.0373 H   0  0  0  0  0  0  0  0  0  0  0  0  # atno 6909 bound_to 6896
  145.5333  140.9518  143.1591 H   0  0  0  0  0  0  0  0  0  0  0  0  # atno 7974 bound_to 7965
  156.1439  140.1559  156.8878 H   0  0  0  0  0  0  0  0  0  0  0  0  # atno 8008 bound_to 7997
  154.5011  140.0825  156.7837 H   0  0  0  0  0  0  0  0  0  0  0  0  # atno 8009 bound_to 7997
  155.4027  140.3415  155.4260 H   0  0  0  0  0  0  0  0  0  0  0  0  # atno 8010 bound_to 7997
  140.6976  143.6264  150.8563 H   0  0  0  0  0  0  0  0  0  0  0  0  # atno 10167 bound_to 10162
  157.6884  131.0658  150.4887 H   0  0  0  0  0  0  0  0  0  0  0  0  # atno 10718 bound_to 10713
  153.2684  135.6930  153.7506 H   0  0  0  0  0  0  0  0  0  0  0  0  # atno 10763 bound_to 10752
  153.6538  135.3372  155.3108 H   0  0  0  0  0  0  0  0  0  0  0  0  # atno 10764 bound_to 10752
  154.8455  135.4461  154.1698 H   0  0  0  0  0  0  0  0  0  0  0  0  # atno 10765 bound_to 10752
  140.7862  134.3021  157.5029 H   0  0  0  0  0  0  0  0  0  0  0  0  # atno 11005 bound_to 11000
  144.7614  139.6947  143.7232 LP  0  0  0  0  0  0  0  0  0  0  0  0  # atno 17320 bound_to 7965
  146.2030  139.5336  142.9731 LP  0  0  0  0  0  0  0  0  0  0  0  0  # atno 17321 bound_to 7965
  139.9984  143.5771  152.2885 LP  0  0  0  0  0  0  0  0  0  0  0  0  # atno 17342 bound_to 10162
  139.6451  144.7657  151.2259 LP  0  0  0  0  0  0  0  0  0  0  0  0  # atno 17343 bound_to 10162
  156.5214  130.4163  149.6248 LP  0  0  0  0  0  0  0  0  0  0  0  0  # atno 17370 bound_to 10713
  156.3151  130.7250  151.2150 LP  0  0  0  0  0  0  0  0  0  0  0  0  # atno 17371 bound_to 10713
  139.8736  134.9348  156.3616 LP  0  0  0  0  0  0  0  0  0  0  0  0  # atno 17394 bound_to 11000
  140.9434  133.7499  156.0176 LP  0  0  0  0  0  0  0  0  0  0  0  0  # atno 17395 bound_to 11000

$$$$
