AV-unprocessed.smi:1929|AV-procd|sdf|7802|dock6
  -GOLD-   22720 9543D 1   1.00000     0.00000
 Structure written by MMmdl.
 43 44  0  0  0  0  0  0  0  0  2 V2000
  154.6894  132.6401  162.4975 C   0  0  0  0  0  0  0  0  0  0  0  0
  155.5114  133.7428  162.0239 N   0  0  0  0  0  0  0  0  0  0  0  0
  155.2283  134.4848  160.9438 C   0  0  0  0  0  0  0  0  0  0  0  0
  154.2348  134.3031  160.2400 O   0  0  0  0  0  0  0  0  0  0  0  0
  156.2118  135.6121  160.6067 C   0  0  0  0  0  0  0  0  0  0  0  0
  155.6244  136.9711  160.6414 N   0  0  0  0  0  0  0  0  0  0  0  0
  156.6711  137.9549  160.3455 C   0  0  0  0  0  0  0  0  0  0  0  0
  156.0738  139.3687  160.2427 C   0  0  0  0  0  0  0  0  0  0  0  0
  155.3577  139.7613  161.5421 C   0  0  0  0  0  0  0  0  0  0  0  0
  154.7096  141.0595  161.3799 N   0  0  0  0  0  0  0  0  0  0  0  0
  153.7182  141.3255  160.5174 C   0  0  0  0  0  0  0  0  0  0  0  0
  153.2482  140.4900  159.7457 O   0  0  0  0  0  0  0  0  0  0  0  0
  153.3330  142.6111  160.6007 N   0  0  0  0  0  0  0  0  0  0  0  0
  152.3109  143.2829  159.8756 C   0  0  0  0  0  0  0  0  0  0  0  0
  152.2377  144.6879  160.0039 C   0  0  0  0  0  0  0  0  0  0  0  0
  151.2327  145.3989  159.3170 C   0  0  0  0  0  0  0  0  0  0  0  0
  150.3430  144.7334  158.5500 N   0  3  0  0  0  0  0  0  0  0  0  0
  150.3637  143.3910  158.4069 C   0  0  0  0  0  0  0  0  0  0  0  0
  151.3455  142.6264  159.0698 C   0  0  0  0  0  0  0  0  0  0  0  0
  154.3313  138.6716  161.8923 C   0  0  0  0  0  0  0  0  0  0  0  0
  154.9857  137.2789  161.9298 C   0  0  0  0  0  0  0  0  0  0  0  0
  155.1225  132.2162  163.4034 H   0  0  0  0  0  0  0  0  0  0  0  0
  154.6281  131.8513  161.7467 H   0  0  0  0  0  0  0  0  0  0  0  0
  153.6796  132.9805  162.7293 H   0  0  0  0  0  0  0  0  0  0  0  0
  156.3451  133.9589  162.5509 H   0  0  0  0  0  0  0  0  0  0  0  0
  157.0708  135.5660  161.2794 H   0  0  0  0  0  0  0  0  0  0  0  0
  156.5944  135.4094  159.6052 H   0  0  0  0  0  0  0  0  0  0  0  0
  157.4473  137.9271  161.1126 H   0  0  0  0  0  0  0  0  0  0  0  0
  157.1528  137.7085  159.3983 H   0  0  0  0  0  0  0  0  0  0  0  0
  156.8643  140.0864  160.0198 H   0  0  0  0  0  0  0  0  0  0  0  0
  155.3762  139.4062  159.4041 H   0  0  0  0  0  0  0  0  0  0  0  0
  156.1009  139.8242  162.3394 H   0  0  0  0  0  0  0  0  0  0  0  0
  155.0427  141.8075  161.9708 H   0  0  0  0  0  0  0  0  0  0  0  0
  153.8706  143.1916  161.2278 H   0  0  0  0  0  0  0  0  0  0  0  0
  152.9480  145.2209  160.6196 H   0  0  0  0  0  0  0  0  0  0  0  0
  151.1141  146.4720  159.3592 H   0  0  0  0  0  0  0  0  0  0  0  0
  149.5959  142.9696  157.7746 H   0  0  0  0  0  0  0  0  0  0  0  0
  151.3289  141.5538  158.9546 H   0  0  0  0  0  0  0  0  0  0  0  0
  153.8713  138.8844  162.8580 H   0  0  0  0  0  0  0  0  0  0  0  0
  153.5229  138.6712  161.1592 H   0  0  0  0  0  0  0  0  0  0  0  0
  154.2100  136.5502  162.1648 H   0  0  0  0  0  0  0  0  0  0  0  0
  155.7205  137.2280  162.7354 H   0  0  0  0  0  0  0  0  0  0  0  0
  149.6226  145.2663  158.0618 H   0  0  0  0  0  0  0  0  0  0  0  0
  1  2  1  0  0  0  0
  1 22  1  0  0  0  0
  1 23  1  0  0  0  0
  1 24  1  0  0  0  0
  2  3  1  0  0  0  0
  2 25  1  0  0  0  0
  3  4  2  0  0  0  0
  3  5  1  0  0  0  0
  5  6  1  0  0  0  0
  5 26  1  0  0  0  0
  5 27  1  0  0  0  0
  6 21  1  0  0  0  0
  6  7  1  0  0  0  0
  7  8  1  0  0  0  0
  7 28  1  0  0  0  0
  7 29  1  0  0  0  0
  8  9  1  0  0  0  0
  8 30  1  0  0  0  0
  8 31  1  0  0  0  0
  9 10  1  0  0  0  0
  9 20  1  0  0  0  0
  9 32  1  0  0  0  0
 10 11  1  0  0  0  0
 10 33  1  0  0  0  0
 11 12  2  0  0  0  0
 11 13  1  0  0  0  0
 13 14  1  0  0  0  0
 13 34  1  0  0  0  0
 14 19  1  0  0  0  0
 14 15  2  0  0  0  0
 15 16  1  0  0  0  0
 15 35  1  0  0  0  0
 16 17  2  0  0  0  0
 16 36  1  0  0  0  0
 17 18  1  0  0  0  0
 17 43  1  0  0  0  0
 18 19  2  0  0  0  0
 18 37  1  0  0  0  0
 19 38  1  0  0  0  0
 20 21  1  0  0  0  0
 20 39  1  0  0  0  0
 20 40  1  0  0  0  0
 21 41  1  0  0  0  0
 21 42  1  0  0  0  0
M  CHG  1  17   1
M  END
> <s_m_source_file>
AV-unprocessed.smi

> <i_m_source_file_index>
1929

> <i_lp_mmshare_version>
43012

> <i_f3d_flags>
0

> <s_epik_input>
W0NIM11bTkhdQyg9TylbQ0gyXU4xW0NIMl1bQ0gyXVtDSF0oW0NIMl1bQ0gyXTEpW05IXUMoPU8pW05IXWMyW2NIXVtjSF1uW2NIXVtjSF0y

> <s_epik_cmdline>
J2VwaWtfcHl0aG9uJywgJy1waCcsICc3LjAnLCAnLXRuJywgJzgnLCAnLW1hJywgJzIwMCcsICctbWV0YWxfYmluZGluZycsICctaW1hZScsICc8aW5maWxlLm1hZT4nLCAnLW9tYWUnLCAnPG91dGZpbGUubWFlPic=

> <r_epik_Ionization_Penalty>
1.15133

> <r_epik_Ionization_Penalty_Charging>
0.995513

> <r_epik_Ionization_Penalty_Neutral>
0.155816

> <r_epik_State_Penalty>
1.22166

> <r_epik_Charging_Adjusted_Penalty>
2.21717

> <i_epik_Tot_Q>
1

> <i_epik_Tot_abs_Q>
1

> <r_epik_Metal_State_Penalty>
1.32497

> <b_epik_Metal_Only>
0

> <s_lp_Force_Field>
OPLS_2005

> <r_lp_Energy>
25.1405

> <b_lp_Chiralities_Consistent>
1

> <s_lp_Variant>
AV-unprocessed.smi:1929-4

> <Gold.Version>
5.8.1

> <Gold.Id.Protein>
6NUR|6NUR_protein|mol2

> <Gold.PLP.Fitness>
40.6265

> <Gold.PLP.PLP>
-31.7030

> <Gold.PLP.part.hbond>
-3.4887

> <Gold.PLP.part.metal>
0.0000

> <Gold.PLP.part.buried>
-5.6893

> <Gold.PLP.part.nonpolar>
-23.4300

> <Gold.PLP.part.repulsive>
0.2131

> <Gold.PLP.ligand.clash>
0.0000

> <Gold.PLP.ligand.torsion>
0.0413

> <Gold.PLP.Chemscore.Hbond>
3.0000

> <Gold.PLP.Chemscore.CHOScore>
0.0000

> <Gold.PLP.Chemscore.Metal>
0.0000

> <Gold.Chemscore.Hbonds>
donor molecule, donor type, donor heavy atom, donor atom, acceptor molecule, acceptor atom, score
      L1  H    17    43       P1  8029  2.00
      P1  H  6896  6907       L1     4  1.00

> <Gold.PLP.Chemscore.Internal.Correction>
0.0060

> <Gold.Rescore>
     Score         DG    S(hbond)    S(metal)    S(lipo)     H(rot)  DE(clash)    DE(int)     intcor
     14.24     -16.68       1.94        0.00      77.41       1.69       0.06       2.39       ----

> <Gold.Chemscore.Fitness>
14.2380

> <Gold.Chemscore.DG>
-16.6837

> <Gold.Chemscore.ZeroCoef>
-5.4800

> <Gold.Chemscore.Hbond>
1.9366

> <Gold.Chemscore.Metal>
0.0000

> <Gold.Chemscore.Lipo>
77.4141

> <Gold.Chemscore.Internal_Hbond>
0.0000

> <Gold.Chemscore.DEClash>
0.0580

> <Gold.Chemscore.DEInternal>
2.3878

> <Gold.Chemscore.Rot>
1.6883

> <Gold.Chemscore.Internal.Correction>
   9.000000E+99

> <Gold.Chemscore.Hbonds>
donor molecule, donor type, donor heavy atom, donor atom, acceptor molecule, acceptor atom, score
      L1  H    17    43       P1  8029  0.25
      P1  H  6896  6907       L1     4  0.96

> <Gold.Chemscore.Hbond.Weighted>
-6.4684

> <Gold.Chemscore.Metal.Weighted>
-0.0000

> <Gold.Chemscore.Lipo.Weighted>
-9.0574

> <Gold.Chemscore.Internal_Hbond.Weighted>
0.0000

> <Gold.Chemscore.DEClash.Weighted>
0.0580

> <Gold.Chemscore.DEInternal.Weighted>
2.3878

> <Gold.Chemscore.Rot.Weighted>
4.3221

> <Gold.Chemscore.Internal.Correction.Weighted>
   9.000000E+99

> <Gold.Protein.RotatedTorsions>
[ 6907 6896 6895 6894 ] final   71.92 input  -60.11 | X-H torsion
[ 7974 7965 7964 7962 ] final -179.41 input  175.53 | X-H torsion
[ 8008 7997 7996 7995 ] final  -14.53 input   59.86 | X-H torsion
[ 10167 10162 10161 10158 ] final   44.60 input  -65.29 | X-H torsion
[ 10718 10713 10712 10709 ] final  176.33 input   66.30 | X-H torsion
[ 10763 10752 10751 10750 ] final -104.74 input  -60.55 | X-H torsion
[ 11005 11000 10999 10996 ] final -105.42 input  -57.11 | X-H torsion

> <Gold.Protein.ActiveResidues>
 VAL166  LYS551  ARG553  GLY616  TRP617  ASP618  TYR619  PRO620  LYS621  CYS622 
 ASP623  PHE694  ASN695  SER759  ASP760  ASP761  ALA762  ILE779  LEU786  VAL792 
 PHE793  MET794  SER795  GLU796  ALA797  LYS798  CYS799  TRP800  GLU811  SER814 

> <Gold.Protein.RotatedAtoms>
  152.4838  134.4648  159.9616 H   0  0  0  0  0  0  0  0  0  0  0  0  # atno 6907 bound_to 6896
  151.4648  133.3577  159.2822 H   0  0  0  0  0  0  0  0  0  0  0  0  # atno 6908 bound_to 6896
  150.8932  134.8363  159.7369 H   0  0  0  0  0  0  0  0  0  0  0  0  # atno 6909 bound_to 6896
  144.7136  140.0721  143.6429 H   0  0  0  0  0  0  0  0  0  0  0  0  # atno 7974 bound_to 7965
  154.5202  140.2220  155.8989 H   0  0  0  0  0  0  0  0  0  0  0  0  # atno 8008 bound_to 7997
  156.1654  140.3133  155.8844 H   0  0  0  0  0  0  0  0  0  0  0  0  # atno 8009 bound_to 7997
  155.3668  140.0464  157.3036 H   0  0  0  0  0  0  0  0  0  0  0  0  # atno 8010 bound_to 7997
  140.3327  144.2569  150.6166 H   0  0  0  0  0  0  0  0  0  0  0  0  # atno 10167 bound_to 10162
  156.9217  130.9942  151.3003 H   0  0  0  0  0  0  0  0  0  0  0  0  # atno 10718 bound_to 10713
  154.7899  135.4775  154.0028 H   0  0  0  0  0  0  0  0  0  0  0  0  # atno 10763 bound_to 10752
  153.1615  135.6809  153.8743 H   0  0  0  0  0  0  0  0  0  0  0  0  # atno 10764 bound_to 10752
  153.8355  135.3186  155.3400 H   0  0  0  0  0  0  0  0  0  0  0  0  # atno 10765 bound_to 10752
  141.1054  133.8806  157.1732 H   0  0  0  0  0  0  0  0  0  0  0  0  # atno 11005 bound_to 11000
  145.9774  139.2915  143.1062 LP  0  0  0  0  0  0  0  0  0  0  0  0  # atno 17320 bound_to 7965
  145.9049  140.9218  143.0484 LP  0  0  0  0  0  0  0  0  0  0  0  0  # atno 17321 bound_to 7965
  140.5382  143.2229  151.8127 LP  0  0  0  0  0  0  0  0  0  0  0  0  # atno 17342 bound_to 10162
  139.4854  144.4634  151.9514 LP  0  0  0  0  0  0  0  0  0  0  0  0  # atno 17343 bound_to 10162
  157.5903  130.8439  149.8650 LP  0  0  0  0  0  0  0  0  0  0  0  0  # atno 17370 bound_to 10713
  156.0488  130.3722  150.1252 LP  0  0  0  0  0  0  0  0  0  0  0  0  # atno 17371 bound_to 10713
  139.9922  135.0060  157.0001 LP  0  0  0  0  0  0  0  0  0  0  0  0  # atno 17394 bound_to 11000
  140.4915  134.1188  155.7233 LP  0  0  0  0  0  0  0  0  0  0  0  0  # atno 17395 bound_to 11000

$$$$
