AV-unprocessed.smi:177|AV-procd|sdf|1444|dock1
  -GOLD-   2262019233D 1   1.00000     0.00000
 Structure written by MMmdl.
 61 65  0  0  0  0  0  0  0  0  1 V2000
  150.1156  143.7974  158.9868 C   0  0  0  0  0  0  0  0  0  0  0  0
  151.2821  143.8620  158.1800 O   0  0  0  0  0  0  0  0  0  0  0  0
  152.3245  142.9784  158.5746 C   0  0  1  0  0  0  0  0  0  0  0  0
  152.6215  143.2555  160.0587 C   0  0  0  0  0  0  0  0  0  0  0  0
  153.6812  142.2902  160.6110 C   0  0  0  0  0  0  0  0  0  0  0  0
  153.2484  140.8312  160.4051 C   0  0  2  0  0  0  0  0  0  0  0  0
  154.2674  139.9678  160.8992 O   0  0  0  0  0  0  0  0  0  0  0  0
  153.8911  138.5979  160.8088 C   0  0  0  0  0  0  0  0  0  0  0  0
  153.6541  138.2327  159.3356 C   0  0  0  0  0  0  0  0  0  0  0  0
  152.6524  139.1182  158.7478 N   0  0  0  0  0  0  0  0  0  0  0  0
  152.3055  138.7619  157.4898 C   0  0  0  0  0  0  0  0  0  0  0  0
  152.5148  139.6171  156.4543 N   0  0  0  0  0  0  0  0  0  0  0  0
  152.1277  139.2772  155.2211 C   0  0  0  0  0  0  0  0  0  0  0  0
  151.5170  138.1616  154.8147 N   0  0  0  0  0  0  0  0  0  0  0  0
  151.3022  137.3062  155.8557 C   0  0  0  0  0  0  0  0  0  0  0  0
  151.6707  137.5233  157.2119 C   0  0  0  0  0  0  0  0  0  0  0  0
  151.2987  136.4352  157.9896 N   0  0  0  0  0  0  0  0  0  0  0  0
  150.7384  135.6187  157.1392 C   0  0  0  0  0  0  0  0  0  0  0  0
  150.6749  136.0721  155.8398 N   0  0  0  0  0  0  0  0  0  0  0  0
  150.0972  135.3769  154.6981 C   0  0  0  0  0  0  0  0  0  0  0  0
  149.5348  133.9504  154.9902 C   0  0  0  0  0  0  0  0  0  0  0  0
  148.9705  133.3862  153.6549 C   0  0  0  0  0  0  0  0  0  0  0  0
  147.8811  134.1433  153.1661 O   0  0  0  0  0  0  0  0  0  0  0  0
  150.6283  133.0195  155.5778 C   0  0  0  0  0  0  0  0  0  0  0  0
  150.0642  131.6697  156.0567 C   0  0  0  0  0  0  0  0  0  0  0  0
  149.0467  131.8880  157.0264 O   0  0  0  0  0  0  0  0  0  0  0  0
  147.9391  132.6204  156.5167 C   0  0  0  0  0  0  0  0  0  0  0  0
  148.3994  134.0132  156.0456 C   0  0  0  0  0  0  0  0  0  0  0  0
  152.9958  140.5350  158.9080 C   0  0  1  0  0  0  0  0  0  0  0  0
  151.9181  141.5044  158.3628 C   0  0  0  0  0  0  0  0  0  0  0  0
  149.3518  144.4528  158.5688 H   0  0  0  0  0  0  0  0  0  0  0  0
  150.3059  144.1265  160.0081 H   0  0  0  0  0  0  0  0  0  0  0  0
  149.7072  142.7865  159.0137 H   0  0  0  0  0  0  0  0  0  0  0  0
  153.2268  143.1953  157.9996 H   0  0  0  0  0  0  0  0  0  0  0  0
  152.9578  144.2851  160.1844 H   0  0  0  0  0  0  0  0  0  0  0  0
  151.7042  143.1571  160.6407 H   0  0  0  0  0  0  0  0  0  0  0  0
  154.6359  142.4675  160.1139 H   0  0  0  0  0  0  0  0  0  0  0  0
  153.8420  142.4848  161.6717 H   0  0  0  0  0  0  0  0  0  0  0  0
  152.3334  140.6572  160.9753 H   0  0  0  0  0  0  0  0  0  0  0  0
  154.6883  137.9821  161.2252 H   0  0  0  0  0  0  0  0  0  0  0  0
  152.9975  138.4106  161.4067 H   0  0  0  0  0  0  0  0  0  0  0  0
  154.5931  138.3166  158.7866 H   0  0  0  0  0  0  0  0  0  0  0  0
  153.3251  137.1956  159.2569 H   0  0  0  0  0  0  0  0  0  0  0  0
  152.3284  140.0071  154.4510 H   0  0  0  0  0  0  0  0  0  0  0  0
  150.3403  134.6607  157.4411 H   0  0  0  0  0  0  0  0  0  0  0  0
  149.3065  136.0087  154.2911 H   0  0  0  0  0  0  0  0  0  0  0  0
  150.8657  135.3299  153.9256 H   0  0  0  0  0  0  0  0  0  0  0  0
  149.7225  133.3565  152.8690 H   0  0  0  0  0  0  0  0  0  0  0  0
  148.6356  132.3572  153.7910 H   0  0  0  0  0  0  0  0  0  0  0  0
  148.1852  135.0169  152.9720 H   0  0  0  0  0  0  0  0  0  0  0  0
  151.4285  132.8555  154.8556 H   0  0  0  0  0  0  0  0  0  0  0  0
  151.0964  133.4910  156.4405 H   0  0  0  0  0  0  0  0  0  0  0  0
  149.6791  131.0753  155.2280 H   0  0  0  0  0  0  0  0  0  0  0  0
  150.8584  131.0815  156.5168 H   0  0  0  0  0  0  0  0  0  0  0  0
  147.4500  132.0612  155.7191 H   0  0  0  0  0  0  0  0  0  0  0  0
  147.2021  132.7272  157.3127 H   0  0  0  0  0  0  0  0  0  0  0  0
  148.7382  134.5472  156.9327 H   0  0  0  0  0  0  0  0  0  0  0  0
  147.5499  134.5771  155.6585 H   0  0  0  0  0  0  0  0  0  0  0  0
  153.9231  140.7140  158.3605 H   0  0  0  0  0  0  0  0  0  0  0  0
  150.9638  141.3107  158.8549 H   0  0  0  0  0  0  0  0  0  0  0  0
  151.7614  141.3265  157.2996 H   0  0  0  0  0  0  0  0  0  0  0  0
  1  2  1  0  0  0  0
  1 31  1  0  0  0  0
  1 32  1  0  0  0  0
  1 33  1  0  0  0  0
  2  3  1  0  0  0  0
  3 30  1  0  0  0  0
  3  4  1  0  0  0  0
  3 34  1  0  0  0  0
  4  5  1  0  0  0  0
  4 35  1  0  0  0  0
  4 36  1  0  0  0  0
  5  6  1  0  0  0  0
  5 37  1  0  0  0  0
  5 38  1  0  0  0  0
  6 29  1  0  0  0  0
  6  7  1  0  0  0  0
  6 39  1  0  0  0  0
  7  8  1  0  0  0  0
  8  9  1  0  0  0  0
  8 40  1  0  0  0  0
  8 41  1  0  0  0  0
  9 10  1  0  0  0  0
  9 42  1  0  0  0  0
  9 43  1  0  0  0  0
 10 11  1  0  0  0  0
 10 29  1  0  0  0  0
 11 16  1  0  0  0  0
 11 12  2  0  0  0  0
 12 13  1  0  0  0  0
 13 14  2  0  0  0  0
 13 44  1  0  0  0  0
 14 15  1  0  0  0  0
 15 19  1  0  0  0  0
 15 16  2  0  0  0  0
 16 17  1  0  0  0  0
 17 18  2  0  0  0  0
 18 19  1  0  0  0  0
 18 45  1  0  0  0  0
 19 20  1  0  0  0  0
 20 21  1  0  0  0  0
 20 46  1  0  0  0  0
 20 47  1  0  0  0  0
 21 28  1  0  0  0  0
 21 22  1  0  0  0  0
 21 24  1  0  0  0  0
 22 23  1  0  0  0  0
 22 48  1  0  0  0  0
 22 49  1  0  0  0  0
 23 50  1  0  0  0  0
 24 25  1  0  0  0  0
 24 51  1  0  0  0  0
 24 52  1  0  0  0  0
 25 26  1  0  0  0  0
 25 53  1  0  0  0  0
 25 54  1  0  0  0  0
 26 27  1  0  0  0  0
 27 28  1  0  0  0  0
 27 55  1  0  0  0  0
 27 56  1  0  0  0  0
 28 57  1  0  0  0  0
 28 58  1  0  0  0  0
 29 30  1  0  0  0  0
 29 59  1  0  0  0  0
 30 60  1  0  0  0  0
 30 61  1  0  0  0  0
M  END
> <s_m_source_file>
AV-unprocessed.smi

> <i_m_source_file_index>
177

> <i_lp_mmshare_version>
43012

> <i_f3d_flags>
0

> <s_epik_input>
W0NIM11PW0NASF0oW0NIMl1bQ0gyXTEpW0NIMl1bQ0BIXShbQ0BASF0xMilOKFtDSDJdW0NIMl1PMiljKG5bY0hdbjMpYyhjMzQpbltjSF1uNFtDSDJdQzUoW0NIMl1bT0hdKVtDSDJdW0NIMl1PW0NIMl1bQ0gyXTU=

> <s_epik_cmdline>
J2VwaWtfcHl0aG9uJywgJy1waCcsICc3LjAnLCAnLXRuJywgJzgnLCAnLW1hJywgJzIwMCcsICctbWV0YWxfYmluZGluZycsICctaW1hZScsICc8aW5maWxlLm1hZT4nLCAnLW9tYWUnLCAnPG91dGZpbGUubWFlPic=

> <r_lp_tautomer_probability>
1

> <r_epik_Ionization_Penalty>
0.0065899

> <r_epik_Ionization_Penalty_Charging>
0

> <r_epik_Ionization_Penalty_Neutral>
0.0065899

> <r_epik_State_Penalty>
0.00470042

> <r_epik_Charging_Adjusted_Penalty>
0.00470042

> <i_epik_Tot_Q>
0

> <i_epik_Tot_abs_Q>
0

> <r_epik_Metal_State_Penalty>
-0

> <b_epik_Metal_Only>
0

> <s_lp_Force_Field>
OPLS_2005

> <r_lp_Energy>
44.4032

> <b_lp_Chiralities_Consistent>
1

> <s_lp_Variant>
AV-unprocessed.smi:177-8

> <Gold.Version>
5.8.1

> <Gold.Id.Protein>
6NUR|6NUR_protein|mol2

> <Gold.PLP.Fitness>
50.3274

> <Gold.PLP.PLP>
-44.0202

> <Gold.PLP.part.hbond>
-3.0000

> <Gold.PLP.part.metal>
0.0000

> <Gold.PLP.part.buried>
-6.0797

> <Gold.PLP.part.nonpolar>
-35.1314

> <Gold.PLP.part.repulsive>
0.2332

> <Gold.PLP.ligand.clash>
0.0160

> <Gold.PLP.ligand.torsion>
0.1982

> <Gold.PLP.Chemscore.Hbond>
2.1931

> <Gold.PLP.Chemscore.CHOScore>
0.0000

> <Gold.PLP.Chemscore.Metal>
0.0000

> <Gold.Chemscore.Hbonds>
donor molecule, donor type, donor heavy atom, donor atom, acceptor molecule, acceptor atom, score
      L1  H    23    50       P1  7948  0.99
      P1  H  6896  6907       L1    17  0.18
      P1  H  7997  8008       L1    12  1.00

> <Gold.PLP.Chemscore.Internal.Correction>
0.1404

> <Gold.Rescore>
     Score         DG    S(hbond)    S(metal)    S(lipo)     H(rot)  DE(clash)    DE(int)     intcor
     14.30     -17.21       1.87        0.00     103.36       2.58       0.09       2.82       ----

> <Gold.Chemscore.Fitness>
14.3016

> <Gold.Chemscore.DG>
-17.2095

> <Gold.Chemscore.ZeroCoef>
-5.4800

> <Gold.Chemscore.Hbond>
1.8690

> <Gold.Chemscore.Metal>
0.0000

> <Gold.Chemscore.Lipo>
103.3598

> <Gold.Chemscore.Internal_Hbond>
0.0000

> <Gold.Chemscore.DEClash>
0.0876

> <Gold.Chemscore.DEInternal>
2.8203

> <Gold.Chemscore.Rot>
2.5806

> <Gold.Chemscore.Internal.Correction>
   9.000000E+99

> <Gold.Chemscore.Hbonds>
donor molecule, donor type, donor heavy atom, donor atom, acceptor molecule, acceptor atom, score
      L1  H    23    50       P1  7948  0.86
      P1  H  6896  6907       L1    17  0.04
      P1  H  7997  8008       L1    12  0.45

> <Gold.Chemscore.Hbond.Weighted>
-6.2426

> <Gold.Chemscore.Metal.Weighted>
-0.0000

> <Gold.Chemscore.Lipo.Weighted>
-12.0931

> <Gold.Chemscore.Internal_Hbond.Weighted>
0.0000

> <Gold.Chemscore.DEClash.Weighted>
0.0876

> <Gold.Chemscore.DEInternal.Weighted>
2.8203

> <Gold.Chemscore.Rot.Weighted>
6.6062

> <Gold.Chemscore.Internal.Correction.Weighted>
   9.000000E+99

> <Gold.Protein.RotatedTorsions>
[ 6907 6896 6895 6894 ] final  -22.82 input  -60.11 | X-H torsion
[ 7974 7965 7964 7962 ] final  110.18 input  175.53 | X-H torsion
[ 8008 7997 7996 7995 ] final  -40.99 input   59.86 | X-H torsion
[ 10167 10162 10161 10158 ] final   16.94 input  -65.29 | X-H torsion
[ 10718 10713 10712 10709 ] final   38.95 input   66.30 | X-H torsion
[ 10763 10752 10751 10750 ] final   40.64 input  -60.55 | X-H torsion
[ 11005 11000 10999 10996 ] final   83.43 input  -57.11 | X-H torsion

> <Gold.Protein.ActiveResidues>
 VAL166  LYS551  ARG553  GLY616  TRP617  ASP618  TYR619  PRO620  LYS621  CYS622 
 ASP623  PHE694  ASN695  SER759  ASP760  ASP761  ALA762  ILE779  LEU786  VAL792 
 PHE793  MET794  SER795  GLU796  ALA797  LYS798  CYS799  TRP800  GLU811  SER814 

> <Gold.Protein.RotatedAtoms>
  151.2130  135.0488  159.8918 H   0  0  0  0  0  0  0  0  0  0  0  0  # atno 6907 bound_to 6896
  152.5423  134.0724  159.8210 H   0  0  0  0  0  0  0  0  0  0  0  0  # atno 6908 bound_to 6896
  151.0880  133.5290  159.2648 H   0  0  0  0  0  0  0  0  0  0  0  0  # atno 6909 bound_to 6896
  145.2582  139.2712  143.4031 H   0  0  0  0  0  0  0  0  0  0  0  0  # atno 7974 bound_to 7965
  154.4007  140.1511  156.3118 H   0  0  0  0  0  0  0  0  0  0  0  0  # atno 8008 bound_to 7997
  155.8608  140.3453  155.5734 H   0  0  0  0  0  0  0  0  0  0  0  0  # atno 8009 bound_to 7997
  155.7882  140.0853  157.2014 H   0  0  0  0  0  0  0  0  0  0  0  0  # atno 8010 bound_to 7997
  140.5762  143.9068  150.6752 H   0  0  0  0  0  0  0  0  0  0  0  0  # atno 10167 bound_to 10162
  157.3649  130.7669  149.7075 H   0  0  0  0  0  0  0  0  0  0  0  0  # atno 10718 bound_to 10713
  152.9930  135.6185  154.2658 H   0  0  0  0  0  0  0  0  0  0  0  0  # atno 10763 bound_to 10752
  154.2393  135.2789  155.2862 H   0  0  0  0  0  0  0  0  0  0  0  0  # atno 10764 bound_to 10752
  154.5383  135.5768  153.6875 H   0  0  0  0  0  0  0  0  0  0  0  0  # atno 10765 bound_to 10752
  139.9031  134.8144  156.2308 H   0  0  0  0  0  0  0  0  0  0  0  0  # atno 11005 bound_to 11000
  146.3283  140.2992  142.8619 LP  0  0  0  0  0  0  0  0  0  0  0  0  # atno 17320 bound_to 7965
  144.9442  140.8110  143.5612 LP  0  0  0  0  0  0  0  0  0  0  0  0  # atno 17321 bound_to 7965
  140.2556  143.3561  152.1367 LP  0  0  0  0  0  0  0  0  0  0  0  0  # atno 17342 bound_to 10162
  139.5144  144.6947  151.5663 LP  0  0  0  0  0  0  0  0  0  0  0  0  # atno 17343 bound_to 10162
  155.9744  130.4103  150.3925 LP  0  0  0  0  0  0  0  0  0  0  0  0  # atno 17370 bound_to 10713
  157.2008  131.0437  151.2651 LP  0  0  0  0  0  0  0  0  0  0  0  0  # atno 17371 bound_to 10713
  141.0346  133.6970  156.1491 LP  0  0  0  0  0  0  0  0  0  0  0  0  # atno 17394 bound_to 11000
  140.7045  134.4528  157.5585 LP  0  0  0  0  0  0  0  0  0  0  0  0  # atno 17395 bound_to 11000

$$$$
