#       Name:                AV-unprocessed.smi:697
#       Creating user name   scv26
#       Creation time:       Fri Mar 27 00:37:16 2020


#       File generated by GOLD software.
#

@<TRIPOS>MOLECULE
AV-unprocessed.smi:697
    50    51     1
SMALL
NO_CHARGES


@<TRIPOS>ATOM
      1 ****        -5.0432  -0.8311  -2.1095 C.3            1 S1                 0.0000
      2 ****        -4.1070  -0.6964  -1.0473 O.3            1 S1                 0.0000
      3 ****        -2.9982  -1.6060  -1.0280 C.3            1 S1                 0.0000
      4 ****        -3.4926  -3.0582  -1.0155 C.3            1 S1                 0.0000
      5 ****        -1.9406  -1.1762  -2.0628 C.3            1 S1                 0.0000
      6 ****        -1.4160  -0.2000  -1.0117 C.3            1 S1                 0.0000
      7 ****         0.0389  -0.0907  -1.0225 N.am           1 S1                 0.0000
      8 ****         0.7420   0.7368  -0.2380 C.2            1 S1                 0.0000
      9 ****         0.2187   1.5086   0.5651 O.2            1 S1                 0.0000
     10 ****         2.0623   0.6016  -0.4612 N.am           1 S1                 0.0000
     11 ****         3.1461   1.2400   0.1657 C.2            1 S1                 0.0000
     12 ****         3.0692   1.9605   1.3155 C.2            1 S1                 0.0000
     13 ****         4.2368   2.5859   1.9139 C.2            1 S1                 0.0000
     14 ****         4.1233   3.4590   3.1539 C.3            1 S1                 0.0000
     15 ****         5.0711   4.3968   3.1750 F              1 S1                 0.0000
     16 ****         2.9358   4.0630   3.2059 F              1 S1                 0.0000
     17 ****         4.2554   2.7105   4.2480 F              1 S1                 0.0000
     18 ****         5.4046   2.4214   1.2658 C.2            1 S1                 0.0000
     19 ****         5.4966   1.6633   0.0967 N.am           1 S1                 0.0000
     20 ****         4.4463   1.0573  -0.5009 C.2            1 S1                 0.0000
     21 ****         4.6106   0.4053  -1.5316 O.2            1 S1                 0.0000
     22 ****        -1.9954  -1.1394   0.0778 C.3            1 S1                 0.0000
     23 ****        -2.6010  -0.4497   1.3053 C.3            1 S1                 0.0000
     24 ****        -1.0510  -2.2234   0.6320 C.3            1 S1                 0.0000
     25 ****         6.4119   1.5713  -0.3201 H              1 S1                 0.0000
     26 ****        -5.7286   0.0158  -2.0881 H              1 S1                 0.0000
     27 ****        -5.6446  -1.7335  -2.0019 H              1 S1                 0.0000
     28 ****        -4.5641  -0.8440  -3.0878 H              1 S1                 0.0000
     29 ****        -2.6720  -3.7651  -0.8985 H              1 S1                 0.0000
     30 ****        -3.9918  -3.3280  -1.9459 H              1 S1                 0.0000
     31 ****        -4.1915  -3.2306  -0.1969 H              1 S1                 0.0000
     32 ****        -1.2378  -1.9748  -2.3070 H              1 S1                 0.0000
     33 ****        -2.3179  -0.6993  -2.9668 H              1 S1                 0.0000
     34 ****        -1.9318   0.7619  -1.0631 H              1 S1                 0.0000
     35 ****         0.5402  -0.6897  -1.6619 H              1 S1                 0.0000
     36 ****         2.3255  -0.0354  -1.1991 H              1 S1                 0.0000
     37 ****         2.1350   2.0790   1.8388 H              1 S1                 0.0000
     38 ****         6.3423   2.8544   1.5817 H              1 S1                 0.0000
     39 ****        -1.8290  -0.0961   1.9894 H              1 S1                 0.0000
     40 ****        -3.2510  -1.1256   1.8616 H              1 S1                 0.0000
     41 ****        -3.1963   0.4217   1.0321 H              1 S1                 0.0000
     42 ****        -0.2717  -1.7951   1.2634 H              1 S1                 0.0000
     43 ****        -0.5484  -2.7770  -0.1610 H              1 S1                 0.0000
     44 ****        -1.5911  -2.9508   1.2389 H              1 S1                 0.0000
     45 ****        -4.6071  -0.8142  -0.1894 LP             1 S1                 0.0000
     46 ****        -3.7343   0.2306  -1.0912 LP             1 S1                 0.0000
     47 ****        -0.7769   1.5378   0.6546 LP             1 S1                 0.0000
     48 ****         0.7890   2.1066   1.1283 LP             1 S1                 0.0000
     49 ****         3.8310  -0.0420  -1.9699 LP             1 S1                 0.0000
     50 ****         5.5237   0.3228  -1.9308 LP             1 S1                 0.0000
@<TRIPOS>BOND
    1    1    2 1     
    2    1   26 1     
    3    1   27 1     
    4    1   28 1     
    5    2    3 1     
    6    3   22 1     
    7    3    4 1     
    8    3    5 1     
    9    4   29 1     
   10    4   30 1     
   11    4   31 1     
   12    5    6 1     
   13    5   32 1     
   14    5   33 1     
   15    6    7 1     
   16    6   22 1     
   17    6   34 1     
   18    7    8 am    
   19    7   35 1     
   20    8    9 2     
   21    8   10 am    
   22   10   11 1     
   23   10   36 1     
   24   11   20 1     
   25   11   12 2     
   26   12   13 1     
   27   12   37 1     
   28   13   14 1     
   29   13   18 2     
   30   14   15 1     
   31   14   16 1     
   32   14   17 1     
   33   18   19 1     
   34   18   38 1     
   35   19   25 1     
   36   19   20 am    
   37   20   21 2     
   38   22   23 1     
   39   22   24 1     
   40   23   39 1     
   41   23   40 1     
   42   23   41 1     
   43   24   42 1     
   44   24   43 1     
   45   24   44 1     
   46    2   45 1     
   47    2   46 1     
   48    9   47 1     
   49    9   48 1     
   50   21   49 1     
   51   21   50 1     
@<TRIPOS>SUBSTRUCTURE
      1 S1             1
@<TRIPOS>SET
LONE_PAIRS      STATIC     ATOMS    <user>   **** ""
6 45 46 47 48 49 50
DONOR_HYDROGENS      STATIC     ATOMS    <user>   **** ""
3 35 36 25
ATOM$BLUE        STATIC     ATOMS    COLORGROUP SYSTEM
6 45 46 47 48 49 50
ATOM$RED        STATIC     ATOMS    COLORGROUP SYSTEM
3 35 36 25
