AV-unprocessed.smi:496|AV-procd|sdf|2717|dock2
  -GOLD-   2262023163D 1   1.00000     0.00000
 Structure written by MMmdl.
 42 44  0  0  0  0  0  0  0  0  1 V2000
  148.0994  141.3587  154.0795 C   0  0  0  0  0  0  0  0  0  0  0  0
  149.5039  141.3588  154.2672 O   0  0  0  0  0  0  0  0  0  0  0  0
  149.8700  141.5700  155.6197 C   0  0  0  0  0  0  0  0  0  0  0  0
  151.1338  140.7558  155.9232 C   0  0  0  0  0  0  0  0  0  0  0  0
  151.5260  140.8661  157.3208 N   0  0  0  0  0  0  0  0  0  0  0  0
  151.8050  139.8738  158.2076 C   0  0  0  0  0  0  0  0  0  0  0  0
  151.7541  138.4121  157.8443 C   0  0  1  0  0  0  0  0  0  0  0  0
  153.1197  137.7254  157.9930 C   0  0  0  0  0  0  0  0  0  0  0  0
  150.7641  137.7802  158.7128 N   0  0  0  0  0  0  0  0  0  0  0  0
  149.6897  137.0855  158.3076 C   0  0  0  0  0  0  0  0  0  0  0  0
  149.4194  136.8758  157.1251 O   0  0  0  0  0  0  0  0  0  0  0  0
  148.8179  136.5740  159.3818 C   0  0  0  0  0  0  0  0  0  0  0  0
  147.8736  135.5807  159.3870 C   0  0  0  0  0  0  0  0  0  0  0  0
  147.3460  135.5270  160.7068 C   0  0  0  0  0  0  0  0  0  0  0  0
  148.0035  136.4926  161.4134 C   0  0  0  0  0  0  0  0  0  0  0  0
  148.9013  137.1394  160.6213 O   0  0  0  0  0  0  0  0  0  0  0  0
  152.1272  140.2795  159.4391 N   0  0  0  0  0  0  0  0  0  0  0  0
  152.0659  141.6544  159.3383 C   0  0  0  0  0  0  0  0  0  0  0  0
  152.3086  142.6569  160.3044 C   0  0  0  0  0  0  0  0  0  0  0  0
  152.1854  144.0200  159.9646 C   0  0  0  0  0  0  0  0  0  0  0  0
  151.8187  144.3989  158.6572 C   0  0  0  0  0  0  0  0  0  0  0  0
  151.5717  143.4154  157.6801 C   0  0  0  0  0  0  0  0  0  0  0  0
  151.6950  142.0554  158.0243 C   0  0  0  0  0  0  0  0  0  0  0  0
  147.8706  141.2007  153.0256 H   0  0  0  0  0  0  0  0  0  0  0  0
  147.6608  142.3111  154.3804 H   0  0  0  0  0  0  0  0  0  0  0  0
  147.6256  140.5586  154.6499 H   0  0  0  0  0  0  0  0  0  0  0  0
  150.0485  142.6319  155.7940 H   0  0  0  0  0  0  0  0  0  0  0  0
  149.0581  141.2590  156.2793 H   0  0  0  0  0  0  0  0  0  0  0  0
  150.9576  139.7052  155.6911 H   0  0  0  0  0  0  0  0  0  0  0  0
  151.9637  141.0626  155.2870 H   0  0  0  0  0  0  0  0  0  0  0  0
  151.4469  138.3027  156.8060 H   0  0  0  0  0  0  0  0  0  0  0  0
  153.8658  138.1965  157.3530 H   0  0  0  0  0  0  0  0  0  0  0  0
  153.0613  136.6733  157.7125 H   0  0  0  0  0  0  0  0  0  0  0  0
  153.4835  137.7757  159.0198 H   0  0  0  0  0  0  0  0  0  0  0  0
  150.8983  137.9019  159.7061 H   0  0  0  0  0  0  0  0  0  0  0  0
  147.5951  134.9646  158.5445 H   0  0  0  0  0  0  0  0  0  0  0  0
  146.5825  134.8663  161.0903 H   0  0  0  0  0  0  0  0  0  0  0  0
  147.9594  136.8357  162.4365 H   0  0  0  0  0  0  0  0  0  0  0  0
  152.5916  142.3767  161.3083 H   0  0  0  0  0  0  0  0  0  0  0  0
  152.3739  144.7784  160.7103 H   0  0  0  0  0  0  0  0  0  0  0  0
  151.7272  145.4453  158.4046 H   0  0  0  0  0  0  0  0  0  0  0  0
  151.2922  143.7052  156.6781 H   0  0  0  0  0  0  0  0  0  0  0  0
  1  2  1  0  0  0  0
  1 24  1  0  0  0  0
  1 25  1  0  0  0  0
  1 26  1  0  0  0  0
  2  3  1  0  0  0  0
  3  4  1  0  0  0  0
  3 27  1  0  0  0  0
  3 28  1  0  0  0  0
  4  5  1  0  0  0  0
  4 29  1  0  0  0  0
  4 30  1  0  0  0  0
  5 23  1  0  0  0  0
  5  6  1  0  0  0  0
  6  7  1  0  0  0  0
  6 17  2  0  0  0  0
  7  8  1  0  0  0  0
  7  9  1  0  0  0  0
  7 31  1  0  0  0  0
  8 32  1  0  0  0  0
  8 33  1  0  0  0  0
  8 34  1  0  0  0  0
  9 10  1  0  0  0  0
  9 35  1  0  0  0  0
 10 11  2  0  0  0  0
 10 12  1  0  0  0  0
 12 16  1  0  0  0  0
 12 13  2  0  0  0  0
 13 14  1  0  0  0  0
 13 36  1  0  0  0  0
 14 15  2  0  0  0  0
 14 37  1  0  0  0  0
 15 16  1  0  0  0  0
 15 38  1  0  0  0  0
 17 18  1  0  0  0  0
 18 23  2  0  0  0  0
 18 19  1  0  0  0  0
 19 20  2  0  0  0  0
 19 39  1  0  0  0  0
 20 21  1  0  0  0  0
 20 40  1  0  0  0  0
 21 22  2  0  0  0  0
 21 41  1  0  0  0  0
 22 23  1  0  0  0  0
 22 42  1  0  0  0  0
M  END
> <s_m_source_file>
AV-unprocessed.smi

> <i_m_source_file_index>
496

> <i_lp_mmshare_version>
43012

> <i_f3d_flags>
0

> <s_epik_input>
W2NIXTFbY0hdW2NIXVtjSF1jKGMxMiluKFtDSDJdW0NIMl1PW0NIM10pYyhuMilbQ0BIXShbQ0gzXSlbTkhdQyg9TyljM1tjSF1bY0hdW2NIXW8z

> <s_epik_cmdline>
J2VwaWtfcHl0aG9uJywgJy1waCcsICc3LjAnLCAnLXRuJywgJzgnLCAnLW1hJywgJzIwMCcsICctbWV0YWxfYmluZGluZycsICctaW1hZScsICc8aW5maWxlLm1hZT4nLCAnLW9tYWUnLCAnPG91dGZpbGUubWFlPic=

> <r_epik_Ionization_Penalty>
0.116528

> <r_epik_Ionization_Penalty_Charging>
0

> <r_epik_Ionization_Penalty_Neutral>
0.116528

> <r_epik_State_Penalty>
0.106132

> <r_epik_Charging_Adjusted_Penalty>
0.106132

> <i_epik_Tot_Q>
0

> <i_epik_Tot_abs_Q>
0

> <r_epik_Metal_State_Penalty>
0.0963468

> <b_epik_Metal_Only>
0

> <s_lp_Force_Field>
OPLS_2005

> <r_lp_Energy>
8.49443

> <b_lp_Chiralities_Consistent>
1

> <s_lp_Variant>
AV-unprocessed.smi:496-2

> <Gold.Version>
5.8.1

> <Gold.Id.Protein>
6NUR|6NUR_protein|mol2

> <Gold.PLP.Fitness>
45.7000

> <Gold.PLP.PLP>
-44.8236

> <Gold.PLP.part.hbond>
-3.4884

> <Gold.PLP.part.metal>
0.0000

> <Gold.PLP.part.buried>
-4.2128

> <Gold.PLP.part.nonpolar>
-37.2964

> <Gold.PLP.part.repulsive>
0.3200

> <Gold.PLP.ligand.clash>
0.0000

> <Gold.PLP.ligand.torsion>
0.4999

> <Gold.PLP.Chemscore.Hbond>
0.5969

> <Gold.PLP.Chemscore.CHOScore>
0.0000

> <Gold.PLP.Chemscore.Metal>
0.0000

> <Gold.Chemscore.Hbonds>
donor molecule, donor type, donor heavy atom, donor atom, acceptor molecule, acceptor atom, score
      P1  H  6931  6943       L1    16  0.25
      P1  H  7989  7998       L1     2  0.11
      P1  H  8011  8017       L1     2  0.19

> <Gold.PLP.Chemscore.Internal.Correction>
0.0853

> <Gold.Rescore>
     Score         DG    S(hbond)    S(metal)    S(lipo)     H(rot)  DE(clash)    DE(int)     intcor
     14.61     -15.32       0.28        0.00     116.55       1.85       0.12       0.59       ----

> <Gold.Chemscore.Fitness>
14.6141

> <Gold.Chemscore.DG>
-15.3212

> <Gold.Chemscore.ZeroCoef>
-5.4800

> <Gold.Chemscore.Hbond>
0.2803

> <Gold.Chemscore.Metal>
0.0000

> <Gold.Chemscore.Lipo>
116.5454

> <Gold.Chemscore.Internal_Hbond>
0.0000

> <Gold.Chemscore.DEClash>
0.1193

> <Gold.Chemscore.DEInternal>
0.5879

> <Gold.Chemscore.Rot>
1.8480

> <Gold.Chemscore.Internal.Correction>
   9.000000E+99

> <Gold.Chemscore.Hbonds>
donor molecule, donor type, donor heavy atom, donor atom, acceptor molecule, acceptor atom, score
      P1  H  6931  6943       L1    16  0.01
      P1  H  7989  7998       L1     2  0.02
      P1  H  8011  8017       L1     2  0.01

> <Gold.Chemscore.Hbond.Weighted>
-0.9362

> <Gold.Chemscore.Metal.Weighted>
-0.0000

> <Gold.Chemscore.Lipo.Weighted>
-13.6358

> <Gold.Chemscore.Internal_Hbond.Weighted>
0.0000

> <Gold.Chemscore.DEClash.Weighted>
0.1193

> <Gold.Chemscore.DEInternal.Weighted>
0.5879

> <Gold.Chemscore.Rot.Weighted>
4.7308

> <Gold.Chemscore.Internal.Correction.Weighted>
   9.000000E+99

> <Gold.Protein.RotatedTorsions>
[ 6907 6896 6895 6894 ] final  -57.51 input  -60.11 | X-H torsion
[ 7974 7965 7964 7962 ] final  -71.46 input  175.53 | X-H torsion
[ 8008 7997 7996 7995 ] final   83.43 input   59.86 | X-H torsion
[ 10167 10162 10161 10158 ] final    3.38 input  -65.29 | X-H torsion
[ 10718 10713 10712 10709 ] final -131.50 input   66.30 | X-H torsion
[ 10763 10752 10751 10750 ] final   67.19 input  -60.55 | X-H torsion
[ 11005 11000 10999 10996 ] final   38.96 input  -57.11 | X-H torsion

> <Gold.Protein.ActiveResidues>
 VAL166  LYS551  ARG553  GLY616  TRP617  ASP618  TYR619  PRO620  LYS621  CYS622 
 ASP623  PHE694  ASN695  SER759  ASP760  ASP761  ALA762  ILE779  LEU786  VAL792 
 PHE793  MET794  SER795  GLU796  ALA797  LYS798  CYS799  TRP800  GLU811  SER814 

> <Gold.Protein.RotatedAtoms>
  150.8080  134.7218  159.6661 H   0  0  0  0  0  0  0  0  0  0  0  0  # atno 6907 bound_to 6896
  152.4200  134.5969  159.9999 H   0  0  0  0  0  0  0  0  0  0  0  0  # atno 6908 bound_to 6896
  151.6187  133.3304  159.3119 H   0  0  0  0  0  0  0  0  0  0  0  0  # atno 6909 bound_to 6896
  145.6778  140.9198  143.0848 H   0  0  0  0  0  0  0  0  0  0  0  0  # atno 7974 bound_to 7965
  155.9238  140.3419  155.6194 H   0  0  0  0  0  0  0  0  0  0  0  0  # atno 8008 bound_to 7997
  155.7241  140.0787  157.2336 H   0  0  0  0  0  0  0  0  0  0  0  0  # atno 8009 bound_to 7997
  154.4074  140.1600  156.2423 H   0  0  0  0  0  0  0  0  0  0  0  0  # atno 8010 bound_to 7997
  140.6588  143.7357  150.7702 H   0  0  0  0  0  0  0  0  0  0  0  0  # atno 10167 bound_to 10162
  156.2251  130.7003  151.0798 H   0  0  0  0  0  0  0  0  0  0  0  0  # atno 10718 bound_to 10713
  153.0174  135.5293  154.6940 H   0  0  0  0  0  0  0  0  0  0  0  0  # atno 10763 bound_to 10752
  154.6067  135.2874  155.0479 H   0  0  0  0  0  0  0  0  0  0  0  0  # atno 10764 bound_to 10752
  154.1516  135.6562  153.5017 H   0  0  0  0  0  0  0  0  0  0  0  0  # atno 10765 bound_to 10752
  140.2074  134.3796  155.8065 H   0  0  0  0  0  0  0  0  0  0  0  0  # atno 11005 bound_to 11000
  144.7036  139.8657  143.7437 LP  0  0  0  0  0  0  0  0  0  0  0  0  # atno 17320 bound_to 7965
  146.0990  139.3984  143.0359 LP  0  0  0  0  0  0  0  0  0  0  0  0  # atno 17321 bound_to 7965
  140.1022  143.4777  152.2419 LP  0  0  0  0  0  0  0  0  0  0  0  0  # atno 17342 bound_to 10162
  139.5817  144.7513  151.3623 LP  0  0  0  0  0  0  0  0  0  0  0  0  # atno 17343 bound_to 10162
  157.7106  131.0736  150.6513 LP  0  0  0  0  0  0  0  0  0  0  0  0  # atno 17370 bound_to 10713
  156.6577  130.4503  149.5698 LP  0  0  0  0  0  0  0  0  0  0  0  0  # atno 17371 bound_to 10713
  141.2227  133.7125  156.8361 LP  0  0  0  0  0  0  0  0  0  0  0  0  # atno 17394 bound_to 11000
  140.1987  134.8912  157.3144 LP  0  0  0  0  0  0  0  0  0  0  0  0  # atno 17395 bound_to 11000

$$$$
