AV-unprocessed.smi:3352|AV-procd|sdf|12952|dock9
  -GOLD-   2272019393D 1   1.00000     0.00000
 Structure written by MMmdl.
 38 39  0  0  0  0  0  0  0  0  1 V2000
  153.9011  141.2629  160.7474 C   0  0  0  0  0  0  0  0  0  0  0  0
  153.4527  142.7314  160.7704 C   0  0  0  0  0  0  0  0  0  0  0  0
  152.9911  143.1819  162.1636 C   0  0  0  0  0  0  0  0  0  0  0  0
  152.4204  143.0175  159.7245 C   0  0  0  0  0  0  0  0  0  0  0  0
  151.8278  142.0649  158.9988 N   0  0  0  0  0  0  0  0  0  0  0  0
  150.9015  142.5769  158.0837 C   0  0  0  0  0  0  0  0  0  0  0  0
  150.1375  141.6459  157.1882 C   0  0  0  0  0  0  0  0  0  0  0  0
  148.6864  141.5352  157.6576 C   0  0  0  0  0  0  0  0  0  0  0  0
  148.2711  140.4753  158.1262 O   0  0  0  0  0  0  0  0  0  0  0  0
  147.9297  142.6361  157.5273 N   0  0  0  0  0  0  0  0  0  0  0  0
  146.5289  142.7465  157.9171 C   0  0  0  0  0  0  0  0  0  0  0  0
  146.3534  143.6516  159.1477 C   0  0  1  0  0  0  0  0  0  0  0  0
  144.9112  144.1036  159.3723 C   0  0  0  0  0  0  0  0  0  0  0  0
  144.9076  144.3914  160.8560 C   0  0  0  0  0  0  0  0  0  0  0  0
  145.7890  143.2668  161.3897 C   0  0  0  0  0  0  0  0  0  0  0  0
  146.7125  142.9667  160.3466 O   0  0  0  0  0  0  0  0  0  0  0  0
  150.8074  143.9462  158.1195 C   0  0  0  0  0  0  0  0  0  0  0  0
  151.8742  144.6405  159.3082 S   0  0  0  0  0  0  0  0  0  0  0  0
  154.2867  140.9862  159.7655 H   0  0  0  0  0  0  0  0  0  0  0  0
  153.0765  140.5897  160.9840 H   0  0  0  0  0  0  0  0  0  0  0  0
  154.6931  141.0836  161.4750 H   0  0  0  0  0  0  0  0  0  0  0  0
  154.3307  143.3300  160.5224 H   0  0  0  0  0  0  0  0  0  0  0  0
  152.7476  144.2449  162.1704 H   0  0  0  0  0  0  0  0  0  0  0  0
  153.7711  143.0177  162.9073 H   0  0  0  0  0  0  0  0  0  0  0  0
  152.1048  142.6345  162.4859 H   0  0  0  0  0  0  0  0  0  0  0  0
  150.1544  142.0053  156.1584 H   0  0  0  0  0  0  0  0  0  0  0  0
  150.5932  140.6545  157.1737 H   0  0  0  0  0  0  0  0  0  0  0  0
  148.3581  143.4591  157.1285 H   0  0  0  0  0  0  0  0  0  0  0  0
  145.9877  143.1729  157.0722 H   0  0  0  0  0  0  0  0  0  0  0  0
  146.0946  141.7614  158.0956 H   0  0  0  0  0  0  0  0  0  0  0  0
  146.9908  144.5334  159.0623 H   0  0  0  0  0  0  0  0  0  0  0  0
  144.6370  144.9683  158.7673 H   0  0  0  0  0  0  0  0  0  0  0  0
  144.2136  143.2947  159.1494 H   0  0  0  0  0  0  0  0  0  0  0  0
  145.3714  145.3594  161.0510 H   0  0  0  0  0  0  0  0  0  0  0  0
  143.9084  144.3946  161.2923 H   0  0  0  0  0  0  0  0  0  0  0  0
  146.3029  143.5423  162.3107 H   0  0  0  0  0  0  0  0  0  0  0  0
  145.1918  142.3760  161.5880 H   0  0  0  0  0  0  0  0  0  0  0  0
  150.1748  144.5855  157.5215 H   0  0  0  0  0  0  0  0  0  0  0  0
  1  2  1  0  0  0  0
  1 19  1  0  0  0  0
  1 20  1  0  0  0  0
  1 21  1  0  0  0  0
  2  3  1  0  0  0  0
  2  4  1  0  0  0  0
  2 22  1  0  0  0  0
  3 23  1  0  0  0  0
  3 24  1  0  0  0  0
  3 25  1  0  0  0  0
  4 18  1  0  0  0  0
  4  5  2  0  0  0  0
  5  6  1  0  0  0  0
  6  7  1  0  0  0  0
  6 17  2  0  0  0  0
  7  8  1  0  0  0  0
  7 26  1  0  0  0  0
  7 27  1  0  0  0  0
  8  9  2  0  0  0  0
  8 10  1  0  0  0  0
 10 11  1  0  0  0  0
 10 28  1  0  0  0  0
 11 12  1  0  0  0  0
 11 29  1  0  0  0  0
 11 30  1  0  0  0  0
 12 16  1  0  0  0  0
 12 13  1  0  0  0  0
 12 31  1  0  0  0  0
 13 14  1  0  0  0  0
 13 32  1  0  0  0  0
 13 33  1  0  0  0  0
 14 15  1  0  0  0  0
 14 34  1  0  0  0  0
 14 35  1  0  0  0  0
 15 16  1  0  0  0  0
 15 36  1  0  0  0  0
 15 37  1  0  0  0  0
 17 18  1  0  0  0  0
 17 38  1  0  0  0  0
M  END
> <s_m_source_file>
AV-unprocessed.smi

> <i_m_source_file_index>
3352

> <i_lp_mmshare_version>
43012

> <i_f3d_flags>
0

> <s_epik_input>
W0NIM11bQ0hdKFtDSDNdKWMxbmMoW2NIXXMxKVtDSDJdQyg9TylbTkhdW0NIMl1bQ0BASF0yW0NIMl1bQ0gyXVtDSDJdTzI=

> <s_epik_cmdline>
J2VwaWtfcHl0aG9uJywgJy1waCcsICc3LjAnLCAnLXRuJywgJzgnLCAnLW1hJywgJzIwMCcsICctbWV0YWxfYmluZGluZycsICctaW1hZScsICc8aW5maWxlLm1hZT4nLCAnLW9tYWUnLCAnPG91dGZpbGUubWFlPic=

> <r_lp_tautomer_probability>
1

> <r_epik_Ionization_Penalty>
4.66014e-05

> <r_epik_Ionization_Penalty_Charging>
0

> <r_epik_Ionization_Penalty_Neutral>
4.66014e-05

> <r_epik_State_Penalty>
-0

> <r_epik_Charging_Adjusted_Penalty>
0

> <i_epik_Tot_Q>
0

> <i_epik_Tot_abs_Q>
0

> <r_epik_Metal_State_Penalty>
-0

> <b_epik_Metal_Only>
0

> <s_lp_Force_Field>
OPLS_2005

> <r_lp_Energy>
9.02769

> <b_lp_Chiralities_Consistent>
1

> <s_lp_Variant>
AV-unprocessed.smi:3352-2

> <Gold.Version>
5.8.1

> <Gold.Id.Protein>
6NUR|6NUR_protein|mol2

> <Gold.PLP.Fitness>
49.2994

> <Gold.PLP.PLP>
-39.9771

> <Gold.PLP.part.hbond>
-4.2593

> <Gold.PLP.part.metal>
0.0000

> <Gold.PLP.part.buried>
-5.8545

> <Gold.PLP.part.nonpolar>
-30.7606

> <Gold.PLP.part.repulsive>
0.0871

> <Gold.PLP.ligand.clash>
0.0000

> <Gold.PLP.ligand.torsion>
0.4984

> <Gold.PLP.Chemscore.Hbond>
2.3423

> <Gold.PLP.Chemscore.CHOScore>
1.0747

> <Gold.PLP.Chemscore.Metal>
0.0000

> <Gold.Chemscore.Hbonds>
donor molecule, donor type, donor heavy atom, donor atom, acceptor molecule, acceptor atom, score
      L1  H    10    28       P1  8028  0.70
      P1  H  6933  6944       L1    16  0.60
      P1  H  6934  6946       L1    16  0.64
      L1  C    17    38       P1  8028  1.00
      L1  C    17    38       P1  8029  0.04

> <Gold.PLP.Chemscore.Internal.Correction>
0.0680

> <Gold.Rescore>
     Score         DG    S(hbond)    S(metal)    S(lipo)     H(rot)  DE(clash)    DE(int)     intcor
     17.56     -18.14       1.43        0.00     101.23       1.55       0.14       0.44       ----

> <Gold.Chemscore.Fitness>
17.5569

> <Gold.Chemscore.DG>
-18.1408

> <Gold.Chemscore.ZeroCoef>
-5.4800

> <Gold.Chemscore.Hbond>
1.4339

> <Gold.Chemscore.Metal>
0.0000

> <Gold.Chemscore.Lipo>
101.2340

> <Gold.Chemscore.Internal_Hbond>
0.0000

> <Gold.Chemscore.DEClash>
0.1438

> <Gold.Chemscore.DEInternal>
0.4401

> <Gold.Chemscore.Rot>
1.5518

> <Gold.Chemscore.Internal.Correction>
   9.000000E+99

> <Gold.Chemscore.Hbonds>
donor molecule, donor type, donor heavy atom, donor atom, acceptor molecule, acceptor atom, score
      L1  H    10    28       P1  8028  0.07
      P1  H  6933  6944       L1    16  0.23
      P1  H  6934  6946       L1    16  0.12

> <Gold.Chemscore.Hbond.Weighted>
-4.7891

> <Gold.Chemscore.Metal.Weighted>
-0.0000

> <Gold.Chemscore.Lipo.Weighted>
-11.8444

> <Gold.Chemscore.Internal_Hbond.Weighted>
0.0000

> <Gold.Chemscore.DEClash.Weighted>
0.1438

> <Gold.Chemscore.DEInternal.Weighted>
0.4401

> <Gold.Chemscore.Rot.Weighted>
3.9727

> <Gold.Chemscore.Internal.Correction.Weighted>
   9.000000E+99

> <Gold.Protein.RotatedTorsions>
[ 6907 6896 6895 6894 ] final  -95.76 input  -60.11 | X-H torsion
[ 7974 7965 7964 7962 ] final  -66.05 input  175.53 | X-H torsion
[ 8008 7997 7996 7995 ] final   76.08 input   59.86 | X-H torsion
[ 10167 10162 10161 10158 ] final -150.00 input  -65.29 | X-H torsion
[ 10718 10713 10712 10709 ] final   -8.85 input   66.30 | X-H torsion
[ 10763 10752 10751 10750 ] final   42.06 input  -60.55 | X-H torsion
[ 11005 11000 10999 10996 ] final    8.21 input  -57.11 | X-H torsion

> <Gold.Protein.ActiveResidues>
 VAL166  LYS551  ARG553  GLY616  TRP617  ASP618  TYR619  PRO620  LYS621  CYS622 
 ASP623  PHE694  ASN695  SER759  ASP760  ASP761  ALA762  ILE779  LEU786  VAL792 
 PHE793  MET794  SER795  GLU796  ALA797  LYS798  CYS799  TRP800  GLU811  SER814 

> <Gold.Protein.RotatedAtoms>
  150.6972  134.1607  159.4174 H   0  0  0  0  0  0  0  0  0  0  0  0  # atno 6907 bound_to 6896
  151.9588  135.0131  160.0555 H   0  0  0  0  0  0  0  0  0  0  0  0  # atno 6908 bound_to 6896
  152.1945  133.4762  159.5062 H   0  0  0  0  0  0  0  0  0  0  0  0  # atno 6909 bound_to 6896
  145.7467  140.8928  143.0501 H   0  0  0  0  0  0  0  0  0  0  0  0  # atno 7974 bound_to 7965
  155.8222  140.3469  155.5521 H   0  0  0  0  0  0  0  0  0  0  0  0  # atno 8008 bound_to 7997
  155.8330  140.0930  157.1801 H   0  0  0  0  0  0  0  0  0  0  0  0  # atno 8009 bound_to 7997
  154.4004  140.1408  156.3625 H   0  0  0  0  0  0  0  0  0  0  0  0  # atno 8010 bound_to 7997
  139.7392  143.8687  152.2557 H   0  0  0  0  0  0  0  0  0  0  0  0  # atno 10167 bound_to 10162
  156.6966  130.5081  149.5928 H   0  0  0  0  0  0  0  0  0  0  0  0  # atno 10718 bound_to 10713
  152.9892  135.6143  154.2889 H   0  0  0  0  0  0  0  0  0  0  0  0  # atno 10763 bound_to 10752
  154.2615  135.2782  155.2778 H   0  0  0  0  0  0  0  0  0  0  0  0  # atno 10764 bound_to 10752
  154.5201  135.5817  153.6731 H   0  0  0  0  0  0  0  0  0  0  0  0  # atno 10765 bound_to 10752
  140.5396  134.0387  155.7899 H   0  0  0  0  0  0  0  0  0  0  0  0  # atno 11005 bound_to 11000
  144.6858  139.9534  143.7478 LP  0  0  0  0  0  0  0  0  0  0  0  0  # atno 17320 bound_to 7965
  146.0396  139.3409  143.0705 LP  0  0  0  0  0  0  0  0  0  0  0  0  # atno 17321 bound_to 7965
  139.8633  144.7106  150.9073 LP  0  0  0  0  0  0  0  0  0  0  0  0  # atno 17342 bound_to 10162
  140.7783  143.3799  151.1496 LP  0  0  0  0  0  0  0  0  0  0  0  0  # atno 17343 bound_to 10162
  156.1759  130.6467  151.0893 LP  0  0  0  0  0  0  0  0  0  0  0  0  # atno 17370 bound_to 10713
  157.6989  131.0783  150.6883 LP  0  0  0  0  0  0  0  0  0  0  0  0  # atno 17371 bound_to 10713
  141.1235  133.9422  157.2683 LP  0  0  0  0  0  0  0  0  0  0  0  0  # atno 17394 bound_to 11000
  139.9511  135.0175  156.8996 LP  0  0  0  0  0  0  0  0  0  0  0  0  # atno 17395 bound_to 11000

$$$$
