#       Name:                AV-unprocessed.smi:1843
#       Creating user name   scv26
#       Creation time:       Fri Mar 27 09:20:39 2020


#       File generated by GOLD software.
#

@<TRIPOS>MOLECULE
AV-unprocessed.smi:1843
    43    45     1
SMALL
NO_CHARGES


@<TRIPOS>ATOM
      1 ****         0.3382   1.4929  -0.4795 O.2            1 S1                 0.0000
      2 ****         0.0189   0.3854  -0.0466 C.2            1 S1                 0.0000
      3 ****         0.8705  -0.6179   0.2290 N.am           1 S1                 0.0000
      4 ****         2.2841  -0.6340   0.0945 C.2            1 S1                 0.0000
      5 ****         3.0007   0.4019  -0.3628 N.2            1 S1                 0.0000
      6 ****         4.3592   0.1193  -0.3916 N.2            1 S1                 0.0000
      7 ****         4.6307  -1.1166   0.0441 C.2            1 S1                 0.0000
      8 ****         6.0230  -1.6500   0.1092 C.3            1 S1                 0.0000
      9 ****         6.4627  -2.5851   1.2148 C.3            1 S1                 0.0000
     10 ****         6.9849  -1.1718   1.1725 C.3            1 S1                 0.0000
     11 ****         3.2207  -2.0534   0.5286 S.3            1 S1                 0.0000
     12 ****        -1.2484   0.0302   0.2101 N.am           1 S1                 0.0000
     13 ****        -2.4184   0.8877   0.0295 C.3            1 S1                 0.0000
     14 ****        -3.5760   0.4163   0.9306 C.3            1 S1                 0.0000
     15 ****        -4.8091   1.3192   0.7660 C.3            1 S1                 0.0000
     16 ****        -5.2549   1.3955  -0.7029 C.3            1 S1                 0.0000
     17 ****        -4.1042   1.8503  -1.6196 C.3            1 S1                 0.0000
     18 ****        -2.8466   0.9743  -1.4563 C.3            1 S1                 0.0000
     19 ****        -3.1098  -0.3140  -1.9817 O.3            1 S1                 0.0000
     20 ****         0.4602  -1.4702   0.5809 H              1 S1                 0.0000
     21 ****         6.4142  -1.8262  -0.8909 H              1 S1                 0.0000
     22 ****         5.7496  -2.8273   2.0003 H              1 S1                 0.0000
     23 ****         7.1528  -3.3836   0.9503 H              1 S1                 0.0000
     24 ****         8.0232  -1.0266   0.8812 H              1 S1                 0.0000
     25 ****         6.6082  -0.4754   1.9191 H              1 S1                 0.0000
     26 ****        -1.4206  -0.9001   0.5621 H              1 S1                 0.0000
     27 ****        -2.1477   1.8931   0.3590 H              1 S1                 0.0000
     28 ****        -3.8433  -0.6139   0.6914 H              1 S1                 0.0000
     29 ****        -3.2606   0.4179   1.9746 H              1 S1                 0.0000
     30 ****        -5.6270   0.9467   1.3834 H              1 S1                 0.0000
     31 ****        -4.5785   2.3213   1.1301 H              1 S1                 0.0000
     32 ****        -5.6176   0.4186  -1.0246 H              1 S1                 0.0000
     33 ****        -6.0970   2.0812  -0.7993 H              1 S1                 0.0000
     34 ****        -4.4322   1.8514  -2.6598 H              1 S1                 0.0000
     35 ****        -3.8500   2.8841  -1.3817 H              1 S1                 0.0000
     36 ****        -2.0384   1.4063  -2.0478 H              1 S1                 0.0000
     37 ****        -2.3201  -0.8288  -1.9157 H              1 S1                 0.0000
     38 ****         1.3001   1.7033  -0.6538 LP             1 S1                 0.0000
     39 ****        -0.3645   2.1821  -0.6568 LP             1 S1                 0.0000
     40 ****         2.6041   1.2742  -0.6491 LP             1 S1                 0.0000
     41 ****         5.0559   0.7657  -0.7026 LP             1 S1                 0.0000
     42 ****        -3.3850  -0.2384  -2.9401 LP             1 S1                 0.0000
     43 ****        -3.8420  -0.7495  -1.4581 LP             1 S1                 0.0000
@<TRIPOS>BOND
    1    1    2 2     
    2    2    3 am    
    3    2   12 am    
    4    3    4 1     
    5    3   20 1     
    6    4   11 1     
    7    4    5 2     
    8    5    6 1     
    9    6    7 2     
   10    7    8 1     
   11    7   11 1     
   12    8   10 1     
   13    8    9 1     
   14    8   21 1     
   15    9   10 1     
   16    9   22 1     
   17    9   23 1     
   18   10   24 1     
   19   10   25 1     
   20   12   13 1     
   21   12   26 1     
   22   13   18 1     
   23   13   14 1     
   24   13   27 1     
   25   14   15 1     
   26   14   28 1     
   27   14   29 1     
   28   15   16 1     
   29   15   30 1     
   30   15   31 1     
   31   16   17 1     
   32   16   32 1     
   33   16   33 1     
   34   17   18 1     
   35   17   34 1     
   36   17   35 1     
   37   18   19 1     
   38   18   36 1     
   39   19   37 1     
   40    1   38 1     
   41    1   39 1     
   42    5   40 1     
   43    6   41 1     
   44   19   42 1     
   45   19   43 1     
@<TRIPOS>SUBSTRUCTURE
      1 S1             1
@<TRIPOS>SET
LONE_PAIRS      STATIC     ATOMS    <user>   **** ""
6 38 39 40 41 42 43
DONOR_HYDROGENS      STATIC     ATOMS    <user>   **** ""
3 20 26 37
ATOM$BLUE        STATIC     ATOMS    COLORGROUP SYSTEM
6 38 39 40 41 42 43
ATOM$RED        STATIC     ATOMS    COLORGROUP SYSTEM
3 20 26 37
