AV-unprocessed.smi:496|AV-procd|sdf|2721|dock4
  -GOLD-   2262023163D 1   1.00000     0.00000
 Structure written by MMmdl.
 41 43  0  0  0  0  0  0  0  0  2 V2000
  147.5958  141.8291  154.1894 C   0  0  0  0  0  0  0  0  0  0  0  0
  147.1697  141.2956  155.4335 O   0  0  0  0  0  0  0  0  0  0  0  0
  148.1465  141.3859  156.4608 C   0  0  0  0  0  0  0  0  0  0  0  0
  149.3160  140.4151  156.2195 C   0  0  0  0  0  0  0  0  0  0  0  0
  150.2268  140.3691  157.3646 N   0  0  0  0  0  0  0  0  0  0  0  0
  150.5858  139.3228  158.1720 C   0  0  0  0  0  0  0  0  0  0  0  0
  150.0578  137.9046  158.0295 C   0  0  1  0  0  0  0  0  0  0  0  0
  151.1887  136.9012  157.7588 C   0  0  0  0  0  0  0  0  0  0  0  0
  149.2999  137.4771  159.2071 N   0  5  0  0  0  0  0  0  0  0  0  0
  148.8952  136.1941  159.4295 C   0  0  0  0  0  0  0  0  0  0  0  0
  149.0383  135.1891  158.7242 O   0  0  0  0  0  0  0  0  0  0  0  0
  148.1837  136.0431  160.7206 C   0  0  0  0  0  0  0  0  0  0  0  0
  147.7724  134.9098  161.3710 C   0  0  0  0  0  0  0  0  0  0  0  0
  147.1347  135.3313  162.5704 C   0  0  0  0  0  0  0  0  0  0  0  0
  147.1999  136.6947  162.5707 C   0  0  0  0  0  0  0  0  0  0  0  0
  147.8351  137.1445  161.4552 O   0  0  0  0  0  0  0  0  0  0  0  0
  151.4382  139.6349  159.1542 N   0  0  0  0  0  0  0  0  0  0  0  0
  151.6669  140.9809  158.9626 C   0  0  0  0  0  0  0  0  0  0  0  0
  152.4872  141.8822  159.6780 C   0  0  0  0  0  0  0  0  0  0  0  0
  152.5674  143.2357  159.2909 C   0  0  0  0  0  0  0  0  0  0  0  0
  151.8301  143.7050  158.1851 C   0  0  0  0  0  0  0  0  0  0  0  0
  151.0067  142.8223  157.4597 C   0  0  0  0  0  0  0  0  0  0  0  0
  150.9286  141.4712  157.8507 C   0  0  0  0  0  0  0  0  0  0  0  0
  146.7839  141.7549  153.4660 H   0  0  0  0  0  0  0  0  0  0  0  0
  148.4501  141.2878  153.7836 H   0  0  0  0  0  0  0  0  0  0  0  0
  147.8630  142.8824  154.2835 H   0  0  0  0  0  0  0  0  0  0  0  0
  148.4943  142.4140  156.5725 H   0  0  0  0  0  0  0  0  0  0  0  0
  147.6580  141.1243  157.3998 H   0  0  0  0  0  0  0  0  0  0  0  0
  148.9259  139.4124  156.0444 H   0  0  0  0  0  0  0  0  0  0  0  0
  149.8757  140.6651  155.3193 H   0  0  0  0  0  0  0  0  0  0  0  0
  149.4235  137.8730  157.1435 H   0  0  0  0  0  0  0  0  0  0  0  0
  151.7439  137.1751  156.8614 H   0  0  0  0  0  0  0  0  0  0  0  0
  150.7956  135.8954  157.6079 H   0  0  0  0  0  0  0  0  0  0  0  0
  151.8965  136.8600  158.5875 H   0  0  0  0  0  0  0  0  0  0  0  0
  147.9140  133.8973  161.0227 H   0  0  0  0  0  0  0  0  0  0  0  0
  146.6846  134.7156  163.3346 H   0  0  0  0  0  0  0  0  0  0  0  0
  146.8632  137.4634  163.2503 H   0  0  0  0  0  0  0  0  0  0  0  0
  153.0553  141.5294  160.5260 H   0  0  0  0  0  0  0  0  0  0  0  0
  153.1976  143.9160  159.8446 H   0  0  0  0  0  0  0  0  0  0  0  0
  151.8962  144.7429  157.8940 H   0  0  0  0  0  0  0  0  0  0  0  0
  150.4420  143.1815  156.6126 H   0  0  0  0  0  0  0  0  0  0  0  0
  1  2  1  0  0  0  0
  1 24  1  0  0  0  0
  1 25  1  0  0  0  0
  1 26  1  0  0  0  0
  2  3  1  0  0  0  0
  3  4  1  0  0  0  0
  3 27  1  0  0  0  0
  3 28  1  0  0  0  0
  4  5  1  0  0  0  0
  4 29  1  0  0  0  0
  4 30  1  0  0  0  0
  5 23  1  0  0  0  0
  5  6  1  0  0  0  0
  6  7  1  0  0  0  0
  6 17  2  0  0  0  0
  7  8  1  0  0  0  0
  7  9  1  0  0  0  0
  7 31  1  0  0  0  0
  8 32  1  0  0  0  0
  8 33  1  0  0  0  0
  8 34  1  0  0  0  0
  9 10  1  0  0  0  0
 10 11  2  0  0  0  0
 10 12  1  0  0  0  0
 12 16  1  0  0  0  0
 12 13  2  0  0  0  0
 13 14  1  0  0  0  0
 13 35  1  0  0  0  0
 14 15  2  0  0  0  0
 14 36  1  0  0  0  0
 15 16  1  0  0  0  0
 15 37  1  0  0  0  0
 17 18  1  0  0  0  0
 18 23  2  0  0  0  0
 18 19  1  0  0  0  0
 19 20  2  0  0  0  0
 19 38  1  0  0  0  0
 20 21  1  0  0  0  0
 20 39  1  0  0  0  0
 21 22  2  0  0  0  0
 21 40  1  0  0  0  0
 22 23  1  0  0  0  0
 22 41  1  0  0  0  0
M  CHG  1   9  -1
M  END
> <s_m_source_file>
AV-unprocessed.smi

> <i_m_source_file_index>
496

> <i_lp_mmshare_version>
43012

> <i_f3d_flags>
0

> <s_epik_input>
W2NIXTFbY0hdW2NIXVtjSF1jKGMxMiluKFtDSDJdW0NIMl1PW0NIM10pYyhuMilbQ0BIXShbQ0gzXSlbTkhdQyg9TyljM1tjSF1bY0hdW2NIXW8z

> <s_epik_cmdline>
J2VwaWtfcHl0aG9uJywgJy1waCcsICc3LjAnLCAnLXRuJywgJzgnLCAnLW1hJywgJzIwMCcsICctbWV0YWxfYmluZGluZycsICctaW1hZScsICc8aW5maWxlLm1hZT4nLCAnLW9tYWUnLCAnPG91dGZpbGUubWFlPic=

> <r_epik_Ionization_Penalty>
7.3423

> <r_epik_Ionization_Penalty_Charging>
6.43826

> <r_epik_Ionization_Penalty_Neutral>
0.90404

> <r_epik_State_Penalty>
6.54438

> <r_epik_Charging_Adjusted_Penalty>
12.9826

> <i_epik_Tot_Q>
-1

> <i_epik_Tot_abs_Q>
1

> <r_epik_Metal_State_Penalty>
2.56942

> <b_epik_Metal_Only>
1

> <s_lp_Force_Field>
OPLS_2005

> <r_lp_Energy>
16.0483

> <b_lp_Chiralities_Consistent>
1

> <s_lp_Variant>
AV-unprocessed.smi:496-6

> <Gold.Version>
5.8.1

> <Gold.Id.Protein>
6NUR|6NUR_protein|mol2

> <Gold.PLP.Fitness>
53.3611

> <Gold.PLP.PLP>
-45.5295

> <Gold.PLP.part.hbond>
-3.5227

> <Gold.PLP.part.metal>
0.0000

> <Gold.PLP.part.buried>
-5.7367

> <Gold.PLP.part.nonpolar>
-36.8886

> <Gold.PLP.part.repulsive>
0.0811

> <Gold.PLP.ligand.clash>
0.0000

> <Gold.PLP.ligand.torsion>
0.2332

> <Gold.PLP.Chemscore.Hbond>
2.7120

> <Gold.PLP.Chemscore.CHOScore>
0.0000

> <Gold.PLP.Chemscore.Metal>
0.0000

> <Gold.Chemscore.Hbonds>
donor molecule, donor type, donor heavy atom, donor atom, acceptor molecule, acceptor atom, score
      P1  H  6896  6908       L1    11  1.00
      P1  H  6931  6943       L1    16  1.00
      P1  H  6934  6947       L1    16  0.71

> <Gold.PLP.Chemscore.Internal.Correction>
0.1620

> <Gold.Rescore>
     Score         DG    S(hbond)    S(metal)    S(lipo)     H(rot)  DE(clash)    DE(int)     intcor
     19.91     -21.65       2.19        0.00     114.54       1.78       0.09       1.65       ----

> <Gold.Chemscore.Fitness>
19.9073

> <Gold.Chemscore.DG>
-21.6483

> <Gold.Chemscore.ZeroCoef>
-5.4800

> <Gold.Chemscore.Hbond>
2.1943

> <Gold.Chemscore.Metal>
0.0000

> <Gold.Chemscore.Lipo>
114.5367

> <Gold.Chemscore.Internal_Hbond>
0.0000

> <Gold.Chemscore.DEClash>
0.0875

> <Gold.Chemscore.DEInternal>
1.6535

> <Gold.Chemscore.Rot>
1.7819

> <Gold.Chemscore.Internal.Correction>
   9.000000E+99

> <Gold.Chemscore.Hbonds>
donor molecule, donor type, donor heavy atom, donor atom, acceptor molecule, acceptor atom, score
      P1  H  6896  6908       L1    11  0.34
      P1  H  6931  6943       L1    16  0.67
      P1  H  6934  6947       L1    16  0.52

> <Gold.Chemscore.Hbond.Weighted>
-7.3291

> <Gold.Chemscore.Metal.Weighted>
-0.0000

> <Gold.Chemscore.Lipo.Weighted>
-13.4008

> <Gold.Chemscore.Internal_Hbond.Weighted>
0.0000

> <Gold.Chemscore.DEClash.Weighted>
0.0875

> <Gold.Chemscore.DEInternal.Weighted>
1.6535

> <Gold.Chemscore.Rot.Weighted>
4.5617

> <Gold.Chemscore.Internal.Correction.Weighted>
   9.000000E+99

> <Gold.Protein.RotatedTorsions>
[ 6907 6896 6895 6894 ] final  156.57 input  -60.11 | X-H torsion
[ 7974 7965 7964 7962 ] final  125.05 input  175.53 | X-H torsion
[ 8008 7997 7996 7995 ] final  -27.10 input   59.86 | X-H torsion
[ 10167 10162 10161 10158 ] final   56.27 input  -65.29 | X-H torsion
[ 10718 10713 10712 10709 ] final  117.67 input   66.30 | X-H torsion
[ 10763 10752 10751 10750 ] final -172.92 input  -60.55 | X-H torsion
[ 11005 11000 10999 10996 ] final -108.49 input  -57.11 | X-H torsion

> <Gold.Protein.ActiveResidues>
 VAL166  LYS551  ARG553  GLY616  TRP617  ASP618  TYR619  PRO620  LYS621  CYS622 
 ASP623  PHE694  ASN695  SER759  ASP760  ASP761  ALA762  ILE779  LEU786  VAL792 
 PHE793  MET794  SER795  GLU796  ALA797  LYS798  CYS799  TRP800  GLU811  SER814 

> <Gold.Protein.RotatedAtoms>
  152.0278  133.3925  159.4284 H   0  0  0  0  0  0  0  0  0  0  0  0  # atno 6907 bound_to 6896
  150.6884  134.3554  159.4936 H   0  0  0  0  0  0  0  0  0  0  0  0  # atno 6908 bound_to 6896
  152.1337  134.9115  160.0608 H   0  0  0  0  0  0  0  0  0  0  0  0  # atno 6909 bound_to 6896
  145.0774  139.3683  143.4927 H   0  0  0  0  0  0  0  0  0  0  0  0  # atno 7974 bound_to 7965
  154.4393  140.1881  156.0879 H   0  0  0  0  0  0  0  0  0  0  0  0  # atno 8008 bound_to 7997
  156.0388  140.3322  155.7195 H   0  0  0  0  0  0  0  0  0  0  0  0  # atno 8009 bound_to 7997
  155.5730  140.0614  157.2793 H   0  0  0  0  0  0  0  0  0  0  0  0  # atno 8010 bound_to 7997
  140.2105  144.3894  150.6491 H   0  0  0  0  0  0  0  0  0  0  0  0  # atno 10167 bound_to 10162
  157.6081  131.1040  150.7647 H   0  0  0  0  0  0  0  0  0  0  0  0  # atno 10718 bound_to 10713
  154.6137  135.2867  155.0403 H   0  0  0  0  0  0  0  0  0  0  0  0  # atno 10763 bound_to 10752
  154.1623  135.6486  153.4993 H   0  0  0  0  0  0  0  0  0  0  0  0  # atno 10764 bound_to 10752
  153.0206  135.5381  154.6901 H   0  0  0  0  0  0  0  0  0  0  0  0  # atno 10765 bound_to 10752
  141.0899  133.9074  157.2100 H   0  0  0  0  0  0  0  0  0  0  0  0  # atno 11005 bound_to 11000
  146.3530  140.0547  142.8633 LP  0  0  0  0  0  0  0  0  0  0  0  0  # atno 17320 bound_to 7965
  145.1220  140.9468  143.4595 LP  0  0  0  0  0  0  0  0  0  0  0  0  # atno 17321 bound_to 7965
  140.6327  143.2190  151.6462 LP  0  0  0  0  0  0  0  0  0  0  0  0  # atno 17342 bound_to 10162
  139.5182  144.3293  152.0841 LP  0  0  0  0  0  0  0  0  0  0  0  0  # atno 17343 bound_to 10162
  156.8031  130.4927  149.5367 LP  0  0  0  0  0  0  0  0  0  0  0  0  # atno 17370 bound_to 10713
  156.1174  130.6085  151.0142 LP  0  0  0  0  0  0  0  0  0  0  0  0  # atno 17371 bound_to 10713
  139.9723  135.0124  156.9542 LP  0  0  0  0  0  0  0  0  0  0  0  0  # atno 17394 bound_to 11000
  140.5277  134.0844  155.7308 LP  0  0  0  0  0  0  0  0  0  0  0  0  # atno 17395 bound_to 11000

$$$$
