AV-unprocessed.smi:2124|AV-procd|sdf|8666|dock1
  -GOLD-   2272011413D 1   1.00000     0.00000
 Structure written by MMmdl.
 46 48  0  0  0  0  0  0  0  0  2 V2000
  153.8327  138.4577  153.9182 C   0  0  0  0  0  0  0  0  0  0  0  0
  152.7044  138.4119  154.9263 C   0  0  0  0  0  0  0  0  0  0  0  0
  151.7842  137.5342  154.7949 N   0  0  0  0  0  0  0  0  0  0  0  0
  150.7393  137.4820  155.7330 C   0  0  0  0  0  0  0  0  0  0  0  0
  149.6978  136.4014  155.5015 C   0  0  0  0  0  0  0  0  0  0  0  0
  150.6862  138.3540  156.7807 C   0  0  0  0  0  0  0  0  0  0  0  0
  149.5776  138.3324  157.8323 C   0  0  0  0  0  0  0  0  0  0  0  0
  149.4807  137.0481  158.6579 C   0  0  0  0  0  0  0  0  0  0  0  0
  150.4207  136.7018  159.3729 O   0  0  0  0  0  0  0  0  0  0  0  0
  148.3384  136.3515  158.5491 N   0  0  0  0  0  0  0  0  0  0  0  0
  148.0297  135.1057  159.2475 C   0  0  2  0  0  0  0  0  0  0  0  0
  147.8192  133.9781  158.2221 C   0  0  0  0  0  0  0  0  0  0  0  0
  146.7913  135.3207  160.1487 C   0  0  2  0  0  0  0  0  0  0  0  0
  146.9909  136.3410  161.2935 C   0  0  0  0  0  0  0  0  0  0  0  0
  146.4557  135.5889  162.5261 C   0  0  2  0  0  0  0  0  0  0  0  0
  147.4765  134.5124  162.9371 C   0  0  0  0  0  0  0  0  0  0  0  0
  147.3169  133.4561  161.8286 C   0  0  0  0  0  0  0  0  0  0  0  0
  146.2495  134.0835  160.9075 C   0  0  1  0  0  0  0  0  0  0  0  0
  145.3330  134.7475  161.9303 C   0  0  0  0  0  0  0  0  0  0  0  0
  151.7629  139.3551  156.8916 C   0  0  0  0  0  0  0  0  0  0  0  0
  151.7593  140.1731  157.8108 O   0  0  0  0  0  0  0  0  0  0  0  0
  152.7446  139.3366  155.9452 N   0  5  0  0  0  0  0  0  0  0  0  0
  153.6429  137.7803  153.0844 H   0  0  0  0  0  0  0  0  0  0  0  0
  154.7706  138.1651  154.3906 H   0  0  0  0  0  0  0  0  0  0  0  0
  153.9454  139.4662  153.5189 H   0  0  0  0  0  0  0  0  0  0  0  0
  149.6614  135.7147  156.3473 H   0  0  0  0  0  0  0  0  0  0  0  0
  149.9257  135.8189  154.6082 H   0  0  0  0  0  0  0  0  0  0  0  0
  148.7113  136.8434  155.3678 H   0  0  0  0  0  0  0  0  0  0  0  0
  149.7209  139.1807  158.5024 H   0  0  0  0  0  0  0  0  0  0  0  0
  148.6057  138.5145  157.3726 H   0  0  0  0  0  0  0  0  0  0  0  0
  147.6223  136.7182  157.9392 H   0  0  0  0  0  0  0  0  0  0  0  0
  148.8830  134.8490  159.8763 H   0  0  0  0  0  0  0  0  0  0  0  0
  147.6371  133.0229  158.7141 H   0  0  0  0  0  0  0  0  0  0  0  0
  148.6979  133.8511  157.5892 H   0  0  0  0  0  0  0  0  0  0  0  0
  146.9685  134.1860  157.5723 H   0  0  0  0  0  0  0  0  0  0  0  0
  145.9832  135.6869  159.5124 H   0  0  0  0  0  0  0  0  0  0  0  0
  148.0329  136.6350  161.4262 H   0  0  0  0  0  0  0  0  0  0  0  0
  146.4144  137.2471  161.1028 H   0  0  0  0  0  0  0  0  0  0  0  0
  146.1590  136.2449  163.3450 H   0  0  0  0  0  0  0  0  0  0  0  0
  148.4922  134.9051  162.9947 H   0  0  0  0  0  0  0  0  0  0  0  0
  147.2266  134.0877  163.9102 H   0  0  0  0  0  0  0  0  0  0  0  0
  148.2533  133.2302  161.3202 H   0  0  0  0  0  0  0  0  0  0  0  0
  146.9481  132.5210  162.2523 H   0  0  0  0  0  0  0  0  0  0  0  0
  145.7506  133.3596  160.2628 H   0  0  0  0  0  0  0  0  0  0  0  0
  144.8941  134.0448  162.6408 H   0  0  0  0  0  0  0  0  0  0  0  0
  144.5374  135.3440  161.4802 H   0  0  0  0  0  0  0  0  0  0  0  0
  1  2  1  0  0  0  0
  1 23  1  0  0  0  0
  1 24  1  0  0  0  0
  1 25  1  0  0  0  0
  2 22  1  0  0  0  0
  2  3  2  0  0  0  0
  3  4  1  0  0  0  0
  4  5  1  0  0  0  0
  4  6  2  0  0  0  0
  5 26  1  0  0  0  0
  5 27  1  0  0  0  0
  5 28  1  0  0  0  0
  6  7  1  0  0  0  0
  6 20  1  0  0  0  0
  7  8  1  0  0  0  0
  7 29  1  0  0  0  0
  7 30  1  0  0  0  0
  8  9  2  0  0  0  0
  8 10  1  0  0  0  0
 10 11  1  0  0  0  0
 10 31  1  0  0  0  0
 11 12  1  0  0  0  0
 11 13  1  0  0  0  0
 11 32  1  0  0  0  0
 12 33  1  0  0  0  0
 12 34  1  0  0  0  0
 12 35  1  0  0  0  0
 13 18  1  0  0  0  0
 13 14  1  0  0  0  0
 13 36  1  0  0  0  0
 14 15  1  0  0  0  0
 14 37  1  0  0  0  0
 14 38  1  0  0  0  0
 15 19  1  0  0  0  0
 15 16  1  0  0  0  0
 15 39  1  0  0  0  0
 16 17  1  0  0  0  0
 16 40  1  0  0  0  0
 16 41  1  0  0  0  0
 17 18  1  0  0  0  0
 17 42  1  0  0  0  0
 17 43  1  0  0  0  0
 18 19  1  0  0  0  0
 18 44  1  0  0  0  0
 19 45  1  0  0  0  0
 19 46  1  0  0  0  0
 20 21  2  0  0  0  0
 20 22  1  0  0  0  0
M  CHG  1  22  -1
M  END
> <s_m_source_file>
AV-unprocessed.smi

> <i_m_source_file_index>
2124

> <i_lp_mmshare_version>
43012

> <i_f3d_flags>
0

> <s_epik_input>
W0NIM11jMW5jKFtDSDNdKWMoYyg9TylbbkhdMSlbQ0gyXUMoPU8pW05IXVtDQEhdKFtDSDNdKVtDQEhdKFtDSDJdW0NASF0yMylbQ0BIXShbQ0gyXTMpW0NIMl1bQ0gyXTI=

> <s_epik_cmdline>
J2VwaWtfcHl0aG9uJywgJy1waCcsICc3LjAnLCAnLXRuJywgJzgnLCAnLW1hJywgJzIwMCcsICctbWV0YWxfYmluZGluZycsICctaW1hZScsICc8aW5maWxlLm1hZT4nLCAnLW9tYWUnLCAnPG91dGZpbGUubWFlPic=

> <r_lp_tautomer_probability>
0.839158

> <r_epik_Ionization_Penalty>
6.63797

> <r_epik_Ionization_Penalty_Charging>
7.48558e-08

> <r_epik_Ionization_Penalty_Neutral>
6.63797

> <r_epik_State_Penalty>
4.49496

> <r_epik_Charging_Adjusted_Penalty>
4.49496

> <i_epik_Tot_Q>
-1

> <i_epik_Tot_abs_Q>
1

> <r_epik_Metal_State_Penalty>
0.841241

> <b_epik_Metal_Only>
1

> <s_lp_Force_Field>
OPLS_2005

> <r_lp_Energy>
56.0848

> <b_lp_Chiralities_Consistent>
1

> <s_lp_Variant>
AV-unprocessed.smi:2124-17

> <Gold.Version>
5.8.1

> <Gold.Id.Protein>
6NUR|6NUR_protein|mol2

> <Gold.PLP.Fitness>
42.5664

> <Gold.PLP.PLP>
-31.2046

> <Gold.PLP.part.hbond>
-3.0000

> <Gold.PLP.part.metal>
0.0000

> <Gold.PLP.part.buried>
-4.7177

> <Gold.PLP.part.nonpolar>
-25.2534

> <Gold.PLP.part.repulsive>
0.1670

> <Gold.PLP.ligand.clash>
0.0000

> <Gold.PLP.ligand.torsion>
0.0389

> <Gold.PLP.Chemscore.Hbond>
3.8000

> <Gold.PLP.Chemscore.CHOScore>
0.0000

> <Gold.PLP.Chemscore.Metal>
0.0000

> <Gold.Chemscore.Hbonds>
donor molecule, donor type, donor heavy atom, donor atom, acceptor molecule, acceptor atom, score
      P1  H  6896  6908       L1     9  1.00
      P1  H  7997  8008       L1    22  2.00
      P1  H 10752 10765       L1     3  0.44

> <Gold.PLP.Chemscore.Internal.Correction>
0.0396

> <Gold.Rescore>
     Score         DG    S(hbond)    S(metal)    S(lipo)     H(rot)  DE(clash)    DE(int)     intcor
     18.52     -19.29       2.54        0.00      80.61       1.61       0.70       0.07       ----

> <Gold.Chemscore.Fitness>
18.5232

> <Gold.Chemscore.DG>
-19.2935

> <Gold.Chemscore.ZeroCoef>
-5.4800

> <Gold.Chemscore.Hbond>
2.5422

> <Gold.Chemscore.Metal>
0.0000

> <Gold.Chemscore.Lipo>
80.6113

> <Gold.Chemscore.Internal_Hbond>
0.0000

> <Gold.Chemscore.DEClash>
0.7047

> <Gold.Chemscore.DEInternal>
0.0656

> <Gold.Chemscore.Rot>
1.6051

> <Gold.Chemscore.Internal.Correction>
   9.000000E+99

> <Gold.Chemscore.Hbonds>
donor molecule, donor type, donor heavy atom, donor atom, acceptor molecule, acceptor atom, score
      P1  H  6896  6908       L1     9  0.99
      P1  H  7997  8008       L1    22  0.92
      P1  H 10752 10765       L1     3  0.15

> <Gold.Chemscore.Hbond.Weighted>
-8.4909

> <Gold.Chemscore.Metal.Weighted>
-0.0000

> <Gold.Chemscore.Lipo.Weighted>
-9.4315

> <Gold.Chemscore.Internal_Hbond.Weighted>
0.0000

> <Gold.Chemscore.DEClash.Weighted>
0.7047

> <Gold.Chemscore.DEInternal.Weighted>
0.0656

> <Gold.Chemscore.Rot.Weighted>
4.1090

> <Gold.Chemscore.Internal.Correction.Weighted>
   9.000000E+99

> <Gold.Protein.RotatedTorsions>
[ 6907 6896 6895 6894 ] final -163.54 input  -60.11 | X-H torsion
[ 7974 7965 7964 7962 ] final  166.77 input  175.53 | X-H torsion
[ 8008 7997 7996 7995 ] final  -35.97 input   59.86 | X-H torsion
[ 10167 10162 10161 10158 ] final   54.21 input  -65.29 | X-H torsion
[ 10718 10713 10712 10709 ] final -161.73 input   66.30 | X-H torsion
[ 10763 10752 10751 10750 ] final  176.33 input  -60.55 | X-H torsion
[ 11005 11000 10999 10996 ] final  -38.92 input  -57.11 | X-H torsion

> <Gold.Protein.ActiveResidues>
 VAL166  LYS551  ARG553  GLY616  TRP617  ASP618  TYR619  PRO620  LYS621  CYS622 
 ASP623  PHE694  ASN695  SER759  ASP760  ASP761  ALA762  ILE779  LEU786  VAL792 
 PHE793  MET794  SER795  GLU796  ALA797  LYS798  CYS799  TRP800  GLU811  SER814 

> <Gold.Protein.RotatedAtoms>
  151.3977  133.3768  159.2728 H   0  0  0  0  0  0  0  0  0  0  0  0  # atno 6907 bound_to 6896
  150.9457  134.8863  159.7651 H   0  0  0  0  0  0  0  0  0  0  0  0  # atno 6908 bound_to 6896
  152.5090  134.3930  159.9442 H   0  0  0  0  0  0  0  0  0  0  0  0  # atno 6909 bound_to 6896
  144.7449  139.8664  143.6385 H   0  0  0  0  0  0  0  0  0  0  0  0  # atno 7974 bound_to 7965
  154.4083  140.1643  156.2299 H   0  0  0  0  0  0  0  0  0  0  0  0  # atno 8008 bound_to 7997
  155.9292  140.3416  155.6212 H   0  0  0  0  0  0  0  0  0  0  0  0  # atno 8009 bound_to 7997
  155.7127  140.0758  157.2355 H   0  0  0  0  0  0  0  0  0  0  0  0  # atno 8010 bound_to 7997
  140.2325  144.3671  150.6409 H   0  0  0  0  0  0  0  0  0  0  0  0  # atno 10167 bound_to 10162
  156.6004  130.8808  151.2912 H   0  0  0  0  0  0  0  0  0  0  0  0  # atno 10718 bound_to 10713
  154.4797  135.2774  155.1580 H   0  0  0  0  0  0  0  0  0  0  0  0  # atno 10763 bound_to 10752
  154.3295  135.6193  153.5548 H   0  0  0  0  0  0  0  0  0  0  0  0  # atno 10764 bound_to 10752
  152.9874  135.5762  154.5195 H   0  0  0  0  0  0  0  0  0  0  0  0  # atno 10765 bound_to 10752
  141.0064  133.6930  156.2118 H   0  0  0  0  0  0  0  0  0  0  0  0  # atno 11005 bound_to 11000
  146.1311  139.4347  143.0168 LP  0  0  0  0  0  0  0  0  0  0  0  0  # atno 17320 bound_to 7965
  145.7161  141.0090  143.1427 LP  0  0  0  0  0  0  0  0  0  0  0  0  # atno 17321 bound_to 7965
  140.6174  143.2173  151.6764 LP  0  0  0  0  0  0  0  0  0  0  0  0  # atno 17342 bound_to 10162
  139.5105  144.3541  152.0624 LP  0  0  0  0  0  0  0  0  0  0  0  0  # atno 17343 bound_to 10162
  157.7281  130.9652  150.1728 LP  0  0  0  0  0  0  0  0  0  0  0  0  # atno 17370 bound_to 10713
  156.2474  130.3697  149.8269 LP  0  0  0  0  0  0  0  0  0  0  0  0  # atno 17371 bound_to 10713
  140.6806  134.4771  157.5589 LP  0  0  0  0  0  0  0  0  0  0  0  0  # atno 17394 bound_to 11000
  139.9065  134.8437  156.1685 LP  0  0  0  0  0  0  0  0  0  0  0  0  # atno 17395 bound_to 11000

$$$$
