AV-unprocessed.smi:1100|AV-procd|sdf|4764|dock5
  -GOLD-   22720 3303D 1   1.00000     0.00000
 Structure written by MMmdl.
 43 44  0  0  0  0  0  0  0  0  3 V2000
  147.8409  141.0564  153.8542 C   0  0  0  0  0  0  0  0  0  0  0  0
  148.6478  139.7977  153.4458 C   0  0  1  0  0  0  0  0  0  0  0  0
  149.7296  139.3716  154.4735 C   0  0  0  0  0  0  0  0  0  0  0  0
  150.6421  140.4810  154.7490 N   0  5  0  0  0  0  0  0  0  0  0  0
  151.3727  140.6165  155.8889 C   0  0  0  0  0  0  0  0  0  0  0  0
  152.4101  140.0143  156.1881 O   0  0  0  0  0  0  0  0  0  0  0  0
  150.8213  141.5116  156.7324 N   0  0  0  0  0  0  0  0  0  0  0  0
  151.2803  141.9909  157.9697 C   0  0  0  0  0  0  0  0  0  0  0  0
  150.7713  143.2668  158.4260 C   0  0  0  0  0  0  0  0  0  0  0  0
  151.1872  143.8110  159.5860 C   0  0  0  0  0  0  0  0  0  0  0  0
  152.1714  143.1390  160.4376 C   0  0  0  0  0  0  0  0  0  0  0  0
  152.5639  143.6262  161.4986 O   0  0  0  0  0  0  0  0  0  0  0  0
  152.6265  141.9380  159.9770 N   0  0  0  0  0  0  0  0  0  0  0  0
  153.6191  141.1897  160.7529 C   0  0  0  0  0  0  0  0  0  0  0  0
  152.1939  141.3819  158.7576 C   0  0  0  0  0  0  0  0  0  0  0  0
  147.7732  138.6356  153.0936 N   0  3  0  0  0  0  0  0  0  0  0  0
  147.0200  138.0025  154.2123 C   0  0  0  0  0  0  0  0  0  0  0  0
  146.3093  136.7334  153.7163 C   0  0  0  0  0  0  0  0  0  0  0  0
  145.4363  137.0687  152.6445 O   0  0  0  0  0  0  0  0  0  0  0  0
  146.1399  137.6109  151.5334 C   0  0  0  0  0  0  0  0  0  0  0  0
  146.8637  138.9022  151.9514 C   0  0  0  0  0  0  0  0  0  0  0  0
  148.4812  141.9347  153.9530 H   0  0  0  0  0  0  0  0  0  0  0  0
  147.3155  140.9318  154.8026 H   0  0  0  0  0  0  0  0  0  0  0  0
  147.0960  141.3024  153.0974 H   0  0  0  0  0  0  0  0  0  0  0  0
  149.1944  140.0588  152.5378 H   0  0  0  0  0  0  0  0  0  0  0  0
  149.2418  139.0118  155.3800 H   0  0  0  0  0  0  0  0  0  0  0  0
  150.2664  138.5121  154.0684 H   0  0  0  0  0  0  0  0  0  0  0  0
  149.9382  141.8979  156.4333 H   0  0  0  0  0  0  0  0  0  0  0  0
  150.0432  143.7957  157.8284 H   0  0  0  0  0  0  0  0  0  0  0  0
  150.7868  144.7646  159.8966 H   0  0  0  0  0  0  0  0  0  0  0  0
  153.8052  140.1937  160.3499 H   0  0  0  0  0  0  0  0  0  0  0  0
  153.2889  141.0595  161.7846 H   0  0  0  0  0  0  0  0  0  0  0  0
  154.5704  141.7231  160.7646 H   0  0  0  0  0  0  0  0  0  0  0  0
  152.6758  140.4482  158.5154 H   0  0  0  0  0  0  0  0  0  0  0  0
  147.6905  137.7457  155.0329 H   0  0  0  0  0  0  0  0  0  0  0  0
  146.2772  138.6960  154.6086 H   0  0  0  0  0  0  0  0  0  0  0  0
  147.0314  135.9806  153.3958 H   0  0  0  0  0  0  0  0  0  0  0  0
  145.7240  136.2912  154.5226 H   0  0  0  0  0  0  0  0  0  0  0  0
  146.8480  136.8770  151.1451 H   0  0  0  0  0  0  0  0  0  0  0  0
  145.4293  137.8209  150.7337 H   0  0  0  0  0  0  0  0  0  0  0  0
  146.1384  139.6682  152.2289 H   0  0  0  0  0  0  0  0  0  0  0  0
  147.4291  139.2865  151.1016 H   0  0  0  0  0  0  0  0  0  0  0  0
  148.4162  137.9321  152.7584 H   0  0  0  0  0  0  0  0  0  0  0  0
  1  2  1  0  0  0  0
  1 22  1  0  0  0  0
  1 23  1  0  0  0  0
  1 24  1  0  0  0  0
  2  3  1  0  0  0  0
  2 16  1  0  0  0  0
  2 25  1  0  0  0  0
  3  4  1  0  0  0  0
  3 26  1  0  0  0  0
  3 27  1  0  0  0  0
  4  5  1  0  0  0  0
  5  6  2  0  0  0  0
  5  7  1  0  0  0  0
  7  8  1  0  0  0  0
  7 28  1  0  0  0  0
  8 15  2  0  0  0  0
  8  9  1  0  0  0  0
  9 10  2  0  0  0  0
  9 29  1  0  0  0  0
 10 11  1  0  0  0  0
 10 30  1  0  0  0  0
 11 12  2  0  0  0  0
 11 13  1  0  0  0  0
 13 14  1  0  0  0  0
 13 15  1  0  0  0  0
 14 31  1  0  0  0  0
 14 32  1  0  0  0  0
 14 33  1  0  0  0  0
 15 34  1  0  0  0  0
 16 21  1  0  0  0  0
 16 17  1  0  0  0  0
 16 43  1  0  0  0  0
 17 18  1  0  0  0  0
 17 35  1  0  0  0  0
 17 36  1  0  0  0  0
 18 19  1  0  0  0  0
 18 37  1  0  0  0  0
 18 38  1  0  0  0  0
 19 20  1  0  0  0  0
 20 21  1  0  0  0  0
 20 39  1  0  0  0  0
 20 40  1  0  0  0  0
 21 41  1  0  0  0  0
 21 42  1  0  0  0  0
M  CHG  1   4  -1
M  CHG  1  16   1
M  END
> <s_m_source_file>
AV-unprocessed.smi

> <i_m_source_file_index>
1100

> <i_lp_mmshare_version>
43012

> <i_f3d_flags>
0

> <s_epik_input>
W0NIMl0xW0NIMl1PW0NIMl1bQ0gyXU4xW0NASF0oW0NIM10pW0NIMl1bTkhdQyg9TylbTkhdYzJbY0hdW2NIXWMoPU8pbihbQ0gzXSlbY0hdMg==

> <s_epik_cmdline>
J2VwaWtfcHl0aG9uJywgJy1waCcsICc3LjAnLCAnLXRuJywgJzgnLCAnLW1hJywgJzIwMCcsICctbWV0YWxfYmluZGluZycsICctaW1hZScsICc8aW5maWxlLm1hZT4nLCAnLW9tYWUnLCAnPG91dGZpbGUubWFlPic=

> <r_lp_tautomer_probability>
1

> <r_epik_Ionization_Penalty>
6.79272

> <r_epik_Ionization_Penalty_Charging>
6.79272

> <r_epik_Ionization_Penalty_Neutral>
3.37009e-06

> <r_epik_State_Penalty>
7.34577

> <r_epik_Charging_Adjusted_Penalty>
14.1385

> <i_epik_Tot_Q>
0

> <i_epik_Tot_abs_Q>
2

> <r_epik_Metal_State_Penalty>
3.26257

> <b_epik_Metal_Only>
1

> <s_lp_Force_Field>
OPLS_2005

> <r_lp_Energy>
32.2868

> <b_lp_Chiralities_Consistent>
1

> <s_lp_Variant>
AV-unprocessed.smi:1100-6

> <Gold.Version>
5.8.1

> <Gold.Id.Protein>
6NUR|6NUR_protein|mol2

> <Gold.PLP.Fitness>
48.8177

> <Gold.PLP.PLP>
-38.7085

> <Gold.PLP.part.hbond>
-4.0000

> <Gold.PLP.part.metal>
0.0000

> <Gold.PLP.part.buried>
4.5051

> <Gold.PLP.part.nonpolar>
-39.0231

> <Gold.PLP.part.repulsive>
0.5233

> <Gold.PLP.ligand.clash>
0.0000

> <Gold.PLP.ligand.torsion>
1.0393

> <Gold.PLP.Chemscore.Hbond>
4.0000

> <Gold.PLP.Chemscore.CHOScore>
0.0000

> <Gold.PLP.Chemscore.Metal>
0.0000

> <Gold.Chemscore.Hbonds>
donor molecule, donor type, donor heavy atom, donor atom, acceptor molecule, acceptor atom, score
      L1  H    16    43       P1  7948  2.00
      P1  H  7989  7998       L1     4  1.00
      P1  H  7997  8010       L1     6  1.00

> <Gold.PLP.Chemscore.Internal.Correction>
0.1879

> <Gold.Rescore>
     Score         DG    S(hbond)    S(metal)    S(lipo)     H(rot)  DE(clash)    DE(int)     intcor
     16.49     -20.37       2.51        0.00      88.83       1.51       1.60       2.29       ----

> <Gold.Chemscore.Fitness>
16.4881

> <Gold.Chemscore.DG>
-20.3716

> <Gold.Chemscore.ZeroCoef>
-5.4800

> <Gold.Chemscore.Hbond>
2.5061

> <Gold.Chemscore.Metal>
0.0000

> <Gold.Chemscore.Lipo>
88.8349

> <Gold.Chemscore.Internal_Hbond>
0.0000

> <Gold.Chemscore.DEClash>
1.5970

> <Gold.Chemscore.DEInternal>
2.2864

> <Gold.Chemscore.Rot>
1.5128

> <Gold.Chemscore.Internal.Correction>
   9.000000E+99

> <Gold.Chemscore.Hbonds>
donor molecule, donor type, donor heavy atom, donor atom, acceptor molecule, acceptor atom, score
      L1  H    16    43       P1  7948  0.97
      P1  H  7989  7998       L1     4  0.53
      P1  H  7997  8010       L1     6  0.99

> <Gold.Chemscore.Hbond.Weighted>
-8.3705

> <Gold.Chemscore.Metal.Weighted>
-0.0000

> <Gold.Chemscore.Lipo.Weighted>
-10.3937

> <Gold.Chemscore.Internal_Hbond.Weighted>
0.0000

> <Gold.Chemscore.DEClash.Weighted>
1.5970

> <Gold.Chemscore.DEInternal.Weighted>
2.2864

> <Gold.Chemscore.Rot.Weighted>
3.8726

> <Gold.Chemscore.Internal.Correction.Weighted>
   9.000000E+99

> <Gold.Protein.RotatedTorsions>
[ 6907 6896 6895 6894 ] final  152.13 input  -60.11 | X-H torsion
[ 7974 7965 7964 7962 ] final -126.18 input  175.53 | X-H torsion
[ 8008 7997 7996 7995 ] final   80.48 input   59.86 | X-H torsion
[ 10167 10162 10161 10158 ] final -100.20 input  -65.29 | X-H torsion
[ 10718 10713 10712 10709 ] final   89.00 input   66.30 | X-H torsion
[ 10763 10752 10751 10750 ] final  -86.79 input  -60.55 | X-H torsion
[ 11005 11000 10999 10996 ] final -127.17 input  -57.11 | X-H torsion

> <Gold.Protein.ActiveResidues>
 VAL166  LYS551  ARG553  GLY616  TRP617  ASP618  TYR619  PRO620  LYS621  CYS622 
 ASP623  PHE694  ASN695  SER759  ASP760  ASP761  ALA762  ILE779  LEU786  VAL792 
 PHE793  MET794  SER795  GLU796  ALA797  LYS798  CYS799  TRP800  GLU811  SER814 

> <Gold.Protein.RotatedAtoms>
  152.0910  133.4200  159.4543 H   0  0  0  0  0  0  0  0  0  0  0  0  # atno 6907 bound_to 6896
  150.6862  134.2872  159.4660 H   0  0  0  0  0  0  0  0  0  0  0  0  # atno 6908 bound_to 6896
  152.0723  134.9525  160.0625 H   0  0  0  0  0  0  0  0  0  0  0  0  # atno 6909 bound_to 6896
  144.9899  140.7722  143.4560 H   0  0  0  0  0  0  0  0  0  0  0  0  # atno 7974 bound_to 7965
  155.8841  140.3442  155.5908 H   0  0  0  0  0  0  0  0  0  0  0  0  # atno 8008 bound_to 7997
  155.7687  140.0842  157.2138 H   0  0  0  0  0  0  0  0  0  0  0  0  # atno 8009 bound_to 7997
  154.4027  140.1522  156.2903 H   0  0  0  0  0  0  0  0  0  0  0  0  # atno 8010 bound_to 7997
  140.2544  143.3450  152.0685 H   0  0  0  0  0  0  0  0  0  0  0  0  # atno 10167 bound_to 10162
  157.6953  131.0316  150.3359 H   0  0  0  0  0  0  0  0  0  0  0  0  # atno 10718 bound_to 10713
  154.6264  135.5436  153.7631 H   0  0  0  0  0  0  0  0  0  0  0  0  # atno 10763 bound_to 10752
  153.0263  135.6425  154.1366 H   0  0  0  0  0  0  0  0  0  0  0  0  # atno 10764 bound_to 10752
  154.1298  135.2915  155.3168 H   0  0  0  0  0  0  0  0  0  0  0  0  # atno 10765 bound_to 10752
  140.9621  134.0922  157.3957 H   0  0  0  0  0  0  0  0  0  0  0  0  # atno 11005 bound_to 11000
  145.2301  139.2119  143.5047 LP  0  0  0  0  0  0  0  0  0  0  0  0  # atno 17320 bound_to 7965
  146.3429  140.2176  142.8591 LP  0  0  0  0  0  0  0  0  0  0  0  0  # atno 17321 bound_to 7965
  139.5036  144.6759  151.6130 LP  0  0  0  0  0  0  0  0  0  0  0  0  # atno 17342 bound_to 10162
  140.6015  143.9601  150.6389 LP  0  0  0  0  0  0  0  0  0  0  0  0  # atno 17343 bound_to 10162
  156.3826  130.3883  149.7090 LP  0  0  0  0  0  0  0  0  0  0  0  0  # atno 17370 bound_to 10713
  156.4467  130.7887  151.2908 LP  0  0  0  0  0  0  0  0  0  0  0  0  # atno 17371 bound_to 10713
  139.8882  135.0095  156.6604 LP  0  0  0  0  0  0  0  0  0  0  0  0  # atno 17394 bound_to 11000
  140.7452  133.8944  155.8307 LP  0  0  0  0  0  0  0  0  0  0  0  0  # atno 17395 bound_to 11000

$$$$
