AV-unprocessed.smi:3154|AV-procd|sdf|12021|dock7
  -GOLD-   2272017433D 1   1.00000     0.00000
 Structure written by MMmdl.
 35 36  0  0  0  0  0  0  0  0  2 V2000
  144.1670  136.0371  152.4357 C   0  0  0  0  0  0  0  0  0  0  0  0
  145.5304  135.8521  151.7485 C   0  0  2  0  0  0  0  0  0  0  0  0
  146.0637  134.4059  151.8769 C   0  0  0  0  0  0  0  0  0  0  0  0
  145.2084  133.4257  151.2324 N   0  0  0  0  0  0  0  0  0  0  0  0
  144.5717  133.5096  150.0119 C   0  0  0  0  0  0  0  0  0  0  0  0
  143.8689  132.3515  149.8408 C   0  0  0  0  0  0  0  0  0  0  0  0
  144.1363  131.6145  151.0282 C   0  0  0  0  0  0  0  0  0  0  0  0
  144.9350  132.2623  151.8611 N   0  0  0  0  0  0  0  0  0  0  0  0
  146.4958  136.8256  152.3047 N   0  3  0  0  0  0  0  0  0  0  0  0
  146.1629  138.2491  152.0766 C   0  0  0  0  0  0  0  0  0  0  0  0
  147.0071  139.1874  152.9408 C   0  0  0  0  0  0  0  0  0  0  0  0
  148.0629  138.7993  153.4427 O   0  0  0  0  0  0  0  0  0  0  0  0
  146.5266  140.4296  153.0965 N   0  0  0  0  0  0  0  0  0  0  0  0
  147.1505  141.4725  153.8452 C   0  0  0  0  0  0  0  0  0  0  0  0
  146.5134  141.8763  155.1572 C   0  0  0  0  0  0  0  0  0  0  0  0
  146.4105  142.7875  153.9655 C   0  0  0  0  0  0  0  0  0  0  0  0
  143.4024  135.4010  151.9889 H   0  0  0  0  0  0  0  0  0  0  0  0
  143.8196  137.0668  152.3461 H   0  0  0  0  0  0  0  0  0  0  0  0
  144.2218  135.7956  153.4977 H   0  0  0  0  0  0  0  0  0  0  0  0
  145.3939  136.0880  150.6919 H   0  0  0  0  0  0  0  0  0  0  0  0
  147.0570  134.3132  151.4376 H   0  0  0  0  0  0  0  0  0  0  0  0
  146.1632  134.1353  152.9290 H   0  0  0  0  0  0  0  0  0  0  0  0
  144.6704  134.3748  149.3729 H   0  0  0  0  0  0  0  0  0  0  0  0
  143.2547  132.0733  148.9973 H   0  0  0  0  0  0  0  0  0  0  0  0
  143.7747  130.6360  151.3081 H   0  0  0  0  0  0  0  0  0  0  0  0
  146.5322  136.6877  153.3046 H   0  0  0  0  0  0  0  0  0  0  0  0
  146.3234  138.5112  151.0311 H   0  0  0  0  0  0  0  0  0  0  0  0
  145.1075  138.4138  152.2975 H   0  0  0  0  0  0  0  0  0  0  0  0
  145.6528  140.6590  152.6452 H   0  0  0  0  0  0  0  0  0  0  0  0
  148.2366  141.5410  153.7998 H   0  0  0  0  0  0  0  0  0  0  0  0
  145.6110  141.3536  155.4686 H   0  0  0  0  0  0  0  0  0  0  0  0
  147.1773  142.1789  155.9647 H   0  0  0  0  0  0  0  0  0  0  0  0
  147.0046  143.6991  153.9781 H   0  0  0  0  0  0  0  0  0  0  0  0
  145.4390  142.8725  153.4824 H   0  0  0  0  0  0  0  0  0  0  0  0
  147.4129  136.6355  151.9268 H   0  0  0  0  0  0  0  0  0  0  0  0
  1  2  1  0  0  0  0
  1 17  1  0  0  0  0
  1 18  1  0  0  0  0
  1 19  1  0  0  0  0
  2  3  1  0  0  0  0
  2  9  1  0  0  0  0
  2 20  1  0  0  0  0
  3  4  1  0  0  0  0
  3 21  1  0  0  0  0
  3 22  1  0  0  0  0
  4  8  1  0  0  0  0
  4  5  1  0  0  0  0
  5  6  2  0  0  0  0
  5 23  1  0  0  0  0
  6  7  1  0  0  0  0
  6 24  1  0  0  0  0
  7  8  2  0  0  0  0
  7 25  1  0  0  0  0
  9 10  1  0  0  0  0
  9 26  1  0  0  0  0
  9 35  1  0  0  0  0
 10 11  1  0  0  0  0
 10 27  1  0  0  0  0
 10 28  1  0  0  0  0
 11 12  2  0  0  0  0
 11 13  1  0  0  0  0
 13 14  1  0  0  0  0
 13 29  1  0  0  0  0
 14 16  1  0  0  0  0
 14 15  1  0  0  0  0
 14 30  1  0  0  0  0
 15 16  1  0  0  0  0
 15 31  1  0  0  0  0
 15 32  1  0  0  0  0
 16 33  1  0  0  0  0
 16 34  1  0  0  0  0
M  CHG  1   9   1
M  END
> <s_m_source_file>
AV-unprocessed.smi

> <i_m_source_file_index>
3154

> <i_lp_mmshare_version>
43012

> <i_f3d_flags>
0

> <s_epik_input>
bjFbY0hdW2NIXVtjSF1uMVtDSDJdW0NAQEhdKFtDSDNdKVtOSF1bQ0gyXUMoPU8pW05IXVtDSF0yW0NIMl1bQ0gyXTI=

> <s_epik_cmdline>
J2VwaWtfcHl0aG9uJywgJy1waCcsICc3LjAnLCAnLXRuJywgJzgnLCAnLW1hJywgJzIwMCcsICctbWV0YWxfYmluZGluZycsICctaW1hZScsICc8aW5maWxlLm1hZT4nLCAnLW9tYWUnLCAnPG91dGZpbGUubWFlPic=

> <r_lp_tautomer_probability>
1

> <r_epik_Ionization_Penalty>
0.12065

> <r_epik_Ionization_Penalty_Charging>
0.120646

> <r_epik_Ionization_Penalty_Neutral>
4.1343e-06

> <r_epik_State_Penalty>
0.110186

> <r_epik_Charging_Adjusted_Penalty>
0.230832

> <i_epik_Tot_Q>
1

> <i_epik_Tot_abs_Q>
1

> <r_epik_Metal_State_Penalty>
0.110197

> <b_epik_Metal_Only>
0

> <s_lp_Force_Field>
OPLS_2005

> <r_lp_Energy>
15.3848

> <b_lp_Chiralities_Consistent>
1

> <s_lp_Variant>
AV-unprocessed.smi:3154-1

> <Gold.Version>
5.8.1

> <Gold.Id.Protein>
6NUR|6NUR_protein|mol2

> <Gold.PLP.Fitness>
44.7710

> <Gold.PLP.PLP>
-34.1454

> <Gold.PLP.part.hbond>
-2.0000

> <Gold.PLP.part.metal>
0.0000

> <Gold.PLP.part.buried>
-4.1314

> <Gold.PLP.part.nonpolar>
-29.3308

> <Gold.PLP.part.repulsive>
0.9681

> <Gold.PLP.ligand.clash>
0.0000

> <Gold.PLP.ligand.torsion>
0.6274

> <Gold.PLP.Chemscore.Hbond>
2.9440

> <Gold.PLP.Chemscore.CHOScore>
1.0000

> <Gold.PLP.Chemscore.Metal>
0.0000

> <Gold.Chemscore.Hbonds>
donor molecule, donor type, donor heavy atom, donor atom, acceptor molecule, acceptor atom, score
      L1  H     9    35       P1  7948  2.00
      L1  H    13    29       P1 10175  1.00
      L1  C     5    23       P1  7921  1.00

> <Gold.PLP.Chemscore.Internal.Correction>
0.0484

> <Gold.Rescore>
     Score         DG    S(hbond)    S(metal)    S(lipo)     H(rot)  DE(clash)    DE(int)     intcor
     13.15     -13.87       1.93        0.00      64.98       2.20       0.03       0.70       ----

> <Gold.Chemscore.Fitness>
13.1486

> <Gold.Chemscore.DG>
-13.8724

> <Gold.Chemscore.ZeroCoef>
-5.4800

> <Gold.Chemscore.Hbond>
1.9260

> <Gold.Chemscore.Metal>
0.0000

> <Gold.Chemscore.Lipo>
64.9763

> <Gold.Chemscore.Internal_Hbond>
0.0000

> <Gold.Chemscore.DEClash>
0.0260

> <Gold.Chemscore.DEInternal>
0.6978

> <Gold.Chemscore.Rot>
2.2042

> <Gold.Chemscore.Internal.Correction>
   9.000000E+99

> <Gold.Chemscore.Hbonds>
donor molecule, donor type, donor heavy atom, donor atom, acceptor molecule, acceptor atom, score
      L1  H     9    35       P1  7948  0.97
      L1  H    13    29       P1 10175  0.42

> <Gold.Chemscore.Hbond.Weighted>
-6.4328

> <Gold.Chemscore.Metal.Weighted>
-0.0000

> <Gold.Chemscore.Lipo.Weighted>
-7.6022

> <Gold.Chemscore.Internal_Hbond.Weighted>
0.0000

> <Gold.Chemscore.DEClash.Weighted>
0.0260

> <Gold.Chemscore.DEInternal.Weighted>
0.6978

> <Gold.Chemscore.Rot.Weighted>
5.6427

> <Gold.Chemscore.Internal.Correction.Weighted>
   9.000000E+99

> <Gold.Protein.RotatedTorsions>
[ 6907 6896 6895 6894 ] final   70.60 input  -60.11 | X-H torsion
[ 7974 7965 7964 7962 ] final   83.03 input  175.53 | X-H torsion
[ 8008 7997 7996 7995 ] final   70.67 input   59.86 | X-H torsion
[ 10167 10162 10161 10158 ] final  144.96 input  -65.29 | X-H torsion
[ 10718 10713 10712 10709 ] final   78.76 input   66.30 | X-H torsion
[ 10763 10752 10751 10750 ] final  -40.76 input  -60.55 | X-H torsion
[ 11005 11000 10999 10996 ] final  -68.15 input  -57.11 | X-H torsion

> <Gold.Protein.ActiveResidues>
 VAL166  LYS551  ARG553  GLY616  TRP617  ASP618  TYR619  PRO620  LYS621  CYS622 
 ASP623  PHE694  ASN695  SER759  ASP760  ASP761  ALA762  ILE779  LEU786  VAL792 
 PHE793  MET794  SER795  GLU796  ALA797  LYS798  CYS799  TRP800  GLU811  SER814 

> <Gold.Protein.RotatedAtoms>
  152.4759  134.4844  159.9675 H   0  0  0  0  0  0  0  0  0  0  0  0  # atno 6907 bound_to 6896
  151.4860  133.3529  159.2853 H   0  0  0  0  0  0  0  0  0  0  0  0  # atno 6908 bound_to 6896
  150.8798  134.8214  159.7278 H   0  0  0  0  0  0  0  0  0  0  0  0  # atno 6909 bound_to 6896
  145.6172  139.2379  143.2159 H   0  0  0  0  0  0  0  0  0  0  0  0  # atno 7974 bound_to 7965
  155.7423  140.3490  155.5110 H   0  0  0  0  0  0  0  0  0  0  0  0  # atno 8008 bound_to 7997
  155.9082  140.1046  157.1320 H   0  0  0  0  0  0  0  0  0  0  0  0  # atno 8009 bound_to 7997
  154.4052  140.1273  156.4510 H   0  0  0  0  0  0  0  0  0  0  0  0  # atno 8010 bound_to 7997
  139.4936  144.5935  151.6631 H   0  0  0  0  0  0  0  0  0  0  0  0  # atno 10167 bound_to 10162
  157.6755  130.9883  150.1833 H   0  0  0  0  0  0  0  0  0  0  0  0  # atno 10718 bound_to 10713
  153.9513  135.6750  153.4744 H   0  0  0  0  0  0  0  0  0  0  0  0  # atno 10763 bound_to 10752
  153.0883  135.4887  154.8637 H   0  0  0  0  0  0  0  0  0  0  0  0  # atno 10764 bound_to 10752
  154.7324  135.3141  154.8828 H   0  0  0  0  0  0  0  0  0  0  0  0  # atno 10765 bound_to 10752
  141.1525  133.6734  156.6401 H   0  0  0  0  0  0  0  0  0  0  0  0  # atno 11005 bound_to 11000
  146.1459  140.6993  142.9345 LP  0  0  0  0  0  0  0  0  0  0  0  0  # atno 17320 bound_to 7965
  144.7245  140.4482  143.6983 LP  0  0  0  0  0  0  0  0  0  0  0  0  # atno 17321 bound_to 7965
  140.5568  144.0335  150.6151 LP  0  0  0  0  0  0  0  0  0  0  0  0  # atno 17342 bound_to 10162
  140.3407  143.3021  152.0591 LP  0  0  0  0  0  0  0  0  0  0  0  0  # atno 17343 bound_to 10162
  156.2560  130.3705  149.8181 LP  0  0  0  0  0  0  0  0  0  0  0  0  # atno 17370 bound_to 10713
  156.5939  130.8518  151.3415 LP  0  0  0  0  0  0  0  0  0  0  0  0  # atno 17371 bound_to 10713
  140.3400  134.7857  157.4390 LP  0  0  0  0  0  0  0  0  0  0  0  0  # atno 17394 bound_to 11000
  140.0946  134.5555  155.8411 LP  0  0  0  0  0  0  0  0  0  0  0  0  # atno 17395 bound_to 11000

$$$$
