AV-unprocessed.smi:486|AV-procd|sdf|2696|dock4
  -GOLD-   2262023133D 1   1.00000     0.00000
 Structure written by MMmdl.
 43 45  0  0  0  0  0  0  0  0  1 V2000
  142.9746  146.0946  154.5990 C   0  0  0  0  0  0  0  0  0  0  0  0
  143.3451  145.4195  155.7922 O   0  0  0  0  0  0  0  0  0  0  0  0
  144.3838  144.5154  155.7301 C   0  0  0  0  0  0  0  0  0  0  0  0
  144.9731  144.1304  156.9502 C   0  0  0  0  0  0  0  0  0  0  0  0
  146.0393  143.2120  156.9773 C   0  0  0  0  0  0  0  0  0  0  0  0
  146.5421  142.6554  155.7853 C   0  0  0  0  0  0  0  0  0  0  0  0
  147.5877  141.7647  155.9024 O   0  0  0  0  0  0  0  0  0  0  0  0
  148.0055  141.0627  154.7393 C   0  0  0  0  0  0  0  0  0  0  0  0
  149.4483  140.5675  154.9486 C   0  0  1  0  0  0  0  0  0  0  0  0
  149.9196  140.0452  153.7239 O   0  0  0  0  0  0  0  0  0  0  0  0
  150.4382  141.6725  155.3756 C   0  0  0  0  0  0  0  0  0  0  0  0
  151.2724  141.2947  156.5084 N   0  0  0  0  0  0  0  0  0  0  0  0
  151.9999  140.1618  156.6675 C   0  0  0  0  0  0  0  0  0  0  0  0
  152.0383  139.0930  155.6217 C   0  0  0  0  0  0  0  0  0  0  0  0
  152.6791  140.0622  157.8103 N   0  0  0  0  0  0  0  0  0  0  0  0
  152.3678  141.2454  158.4522 C   0  0  0  0  0  0  0  0  0  0  0  0
  152.7737  141.7416  159.7116 C   0  0  0  0  0  0  0  0  0  0  0  0
  152.3167  142.9961  160.1658 C   0  0  0  0  0  0  0  0  0  0  0  0
  151.4513  143.7724  159.3682 C   0  0  0  0  0  0  0  0  0  0  0  0
  151.0353  143.2973  158.1096 C   0  0  0  0  0  0  0  0  0  0  0  0
  151.4923  142.0430  157.6618 C   0  0  0  0  0  0  0  0  0  0  0  0
  145.9529  143.0395  154.5553 C   0  0  0  0  0  0  0  0  0  0  0  0
  144.8861  143.9590  154.5280 C   0  0  0  0  0  0  0  0  0  0  0  0
  142.1473  146.7717  154.8115 H   0  0  0  0  0  0  0  0  0  0  0  0
  142.6392  145.3946  153.8326 H   0  0  0  0  0  0  0  0  0  0  0  0
  143.7976  146.6934  154.2065 H   0  0  0  0  0  0  0  0  0  0  0  0
  144.6036  144.5439  157.8772 H   0  0  0  0  0  0  0  0  0  0  0  0
  146.4758  142.9316  157.9248 H   0  0  0  0  0  0  0  0  0  0  0  0
  147.3388  140.2295  154.5095 H   0  0  0  0  0  0  0  0  0  0  0  0
  147.9703  141.7609  153.9035 H   0  0  0  0  0  0  0  0  0  0  0  0
  149.4546  139.7702  155.6918 H   0  0  0  0  0  0  0  0  0  0  0  0
  149.1970  140.0163  153.1152 H   0  0  0  0  0  0  0  0  0  0  0  0
  151.0859  141.9431  154.5413 H   0  0  0  0  0  0  0  0  0  0  0  0
  149.8941  142.5808  155.6382 H   0  0  0  0  0  0  0  0  0  0  0  0
  152.6934  138.2784  155.9322 H   0  0  0  0  0  0  0  0  0  0  0  0
  152.4170  139.4954  154.6820 H   0  0  0  0  0  0  0  0  0  0  0  0
  151.0417  138.6847  155.4575 H   0  0  0  0  0  0  0  0  0  0  0  0
  153.4371  141.1549  160.3297 H   0  0  0  0  0  0  0  0  0  0  0  0
  152.6315  143.3643  161.1312 H   0  0  0  0  0  0  0  0  0  0  0  0
  151.1058  144.7323  159.7236 H   0  0  0  0  0  0  0  0  0  0  0  0
  150.3694  143.8880  157.4985 H   0  0  0  0  0  0  0  0  0  0  0  0
  146.3018  142.6436  153.6138 H   0  0  0  0  0  0  0  0  0  0  0  0
  144.4697  144.2220  153.5677 H   0  0  0  0  0  0  0  0  0  0  0  0
  1  2  1  0  0  0  0
  1 24  1  0  0  0  0
  1 25  1  0  0  0  0
  1 26  1  0  0  0  0
  2  3  1  0  0  0  0
  3 23  1  0  0  0  0
  3  4  2  0  0  0  0
  4  5  1  0  0  0  0
  4 27  1  0  0  0  0
  5  6  2  0  0  0  0
  5 28  1  0  0  0  0
  6  7  1  0  0  0  0
  6 22  1  0  0  0  0
  7  8  1  0  0  0  0
  8  9  1  0  0  0  0
  8 29  1  0  0  0  0
  8 30  1  0  0  0  0
  9 10  1  0  0  0  0
  9 11  1  0  0  0  0
  9 31  1  0  0  0  0
 10 32  1  0  0  0  0
 11 12  1  0  0  0  0
 11 33  1  0  0  0  0
 11 34  1  0  0  0  0
 12 21  1  0  0  0  0
 12 13  1  0  0  0  0
 13 14  1  0  0  0  0
 13 15  2  0  0  0  0
 14 35  1  0  0  0  0
 14 36  1  0  0  0  0
 14 37  1  0  0  0  0
 15 16  1  0  0  0  0
 16 21  2  0  0  0  0
 16 17  1  0  0  0  0
 17 18  2  0  0  0  0
 17 38  1  0  0  0  0
 18 19  1  0  0  0  0
 18 39  1  0  0  0  0
 19 20  2  0  0  0  0
 19 40  1  0  0  0  0
 20 21  1  0  0  0  0
 20 41  1  0  0  0  0
 22 23  2  0  0  0  0
 22 42  1  0  0  0  0
 23 43  1  0  0  0  0
M  END
> <s_m_source_file>
AV-unprocessed.smi

> <i_m_source_file_index>
486

> <i_lp_mmshare_version>
43012

> <i_f3d_flags>
0

> <s_epik_input>
W0NIM11PYzFbY0hdW2NIXWMoW2NIXVtjSF0xKU9bQ0gyXVtDQEhdKFtPSF0pW0NIMl1uKGMobjIpW0NIM10pYyhjMjMpW2NIXVtjSF1bY0hdW2NIXTM=

> <s_epik_cmdline>
J2VwaWtfcHl0aG9uJywgJy1waCcsICc3LjAnLCAnLXRuJywgJzgnLCAnLW1hJywgJzIwMCcsICctbWV0YWxfYmluZGluZycsICctaW1hZScsICc8aW5maWxlLm1hZT4nLCAnLW9tYWUnLCAnPG91dGZpbGUubWFlPic=

> <r_lp_tautomer_probability>
1

> <r_epik_Ionization_Penalty>
0.114052

> <r_epik_Ionization_Penalty_Charging>
0

> <r_epik_Ionization_Penalty_Neutral>
0.114052

> <r_epik_State_Penalty>
0.103717

> <r_epik_Charging_Adjusted_Penalty>
0.103717

> <i_epik_Tot_Q>
0

> <i_epik_Tot_abs_Q>
0

> <r_epik_Metal_State_Penalty>
0.000113338

> <b_epik_Metal_Only>
0

> <s_lp_Force_Field>
OPLS_2005

> <r_lp_Energy>
20.3049

> <b_lp_Chiralities_Consistent>
1

> <s_lp_Variant>
AV-unprocessed.smi:486-2

> <Gold.Version>
5.8.1

> <Gold.Id.Protein>
6NUR|6NUR_protein|mol2

> <Gold.PLP.Fitness>
47.0284

> <Gold.PLP.PLP>
-43.2750

> <Gold.PLP.part.hbond>
-3.0000

> <Gold.PLP.part.metal>
0.0000

> <Gold.PLP.part.buried>
-4.7694

> <Gold.PLP.part.nonpolar>
-35.0091

> <Gold.PLP.part.repulsive>
0.1401

> <Gold.PLP.ligand.clash>
0.0140

> <Gold.PLP.ligand.torsion>
1.1902

> <Gold.PLP.Chemscore.Hbond>
2.0160

> <Gold.PLP.Chemscore.CHOScore>
0.0000

> <Gold.PLP.Chemscore.Metal>
0.0000

> <Gold.Chemscore.Hbonds>
donor molecule, donor type, donor heavy atom, donor atom, acceptor molecule, acceptor atom, score
      L1  H    10    32       P1  7957  0.37
      P1  H  7989  7998       L1    10  0.75
      P1  H  7997  8008       L1    15  0.80

> <Gold.PLP.Chemscore.Internal.Correction>
0.0997

> <Gold.Rescore>
     Score         DG    S(hbond)    S(metal)    S(lipo)     H(rot)  DE(clash)    DE(int)     intcor
     14.99     -16.64       1.20        0.00     111.53       2.30       0.60       1.05       ----

> <Gold.Chemscore.Fitness>
14.9866

> <Gold.Chemscore.DG>
-16.6392

> <Gold.Chemscore.ZeroCoef>
-5.4800

> <Gold.Chemscore.Hbond>
1.1989

> <Gold.Chemscore.Metal>
0.0000

> <Gold.Chemscore.Lipo>
111.5285

> <Gold.Chemscore.Internal_Hbond>
0.0000

> <Gold.Chemscore.DEClash>
0.5983

> <Gold.Chemscore.DEInternal>
1.0543

> <Gold.Chemscore.Rot>
2.3023

> <Gold.Chemscore.Internal.Correction>
   9.000000E+99

> <Gold.Chemscore.Hbonds>
donor molecule, donor type, donor heavy atom, donor atom, acceptor molecule, acceptor atom, score
      L1  H    10    32       P1  7957  0.35
      P1  H  7989  7998       L1    10  0.38
      P1  H  7997  8008       L1    15  0.12

> <Gold.Chemscore.Hbond.Weighted>
-4.0044

> <Gold.Chemscore.Metal.Weighted>
-0.0000

> <Gold.Chemscore.Lipo.Weighted>
-13.0488

> <Gold.Chemscore.Internal_Hbond.Weighted>
0.0000

> <Gold.Chemscore.DEClash.Weighted>
0.5983

> <Gold.Chemscore.DEInternal.Weighted>
1.0543

> <Gold.Chemscore.Rot.Weighted>
5.8940

> <Gold.Chemscore.Internal.Correction.Weighted>
   9.000000E+99

> <Gold.Protein.RotatedTorsions>
[ 6907 6896 6895 6894 ] final -124.09 input  -60.11 | X-H torsion
[ 7974 7965 7964 7962 ] final -133.80 input  175.53 | X-H torsion
[ 8008 7997 7996 7995 ] final  -85.22 input   59.86 | X-H torsion
[ 10167 10162 10161 10158 ] final   73.49 input  -65.29 | X-H torsion
[ 10718 10713 10712 10709 ] final  146.22 input   66.30 | X-H torsion
[ 10763 10752 10751 10750 ] final  -14.61 input  -60.55 | X-H torsion
[ 11005 11000 10999 10996 ] final  -69.09 input  -57.11 | X-H torsion

> <Gold.Protein.ActiveResidues>
 VAL166  LYS551  ARG553  GLY616  TRP617  ASP618  TYR619  PRO620  LYS621  CYS622 
 ASP623  PHE694  ASN695  SER759  ASP760  ASP761  ALA762  ILE779  LEU786  VAL792 
 PHE793  MET794  SER795  GLU796  ALA797  LYS798  CYS799  TRP800  GLU811  SER814 

> <Gold.Protein.RotatedAtoms>
  150.8734  133.7473  159.2953 H   0  0  0  0  0  0  0  0  0  0  0  0  # atno 6907 bound_to 6896
  151.5077  135.1062  159.9855 H   0  0  0  0  0  0  0  0  0  0  0  0  # atno 6908 bound_to 6896
  152.4711  133.7987  159.6997 H   0  0  0  0  0  0  0  0  0  0  0  0  # atno 6909 bound_to 6896
  144.9161  140.6956  143.4995 H   0  0  0  0  0  0  0  0  0  0  0  0  # atno 7974 bound_to 7965
  154.6384  140.0594  156.9816 H   0  0  0  0  0  0  0  0  0  0  0  0  # atno 8008 bound_to 7997
  155.1556  140.3278  155.4403 H   0  0  0  0  0  0  0  0  0  0  0  0  # atno 8009 bound_to 7997
  156.2518  140.1940  156.6665 H   0  0  0  0  0  0  0  0  0  0  0  0  # atno 8010 bound_to 7997
  140.0240  144.5518  150.7559 H   0  0  0  0  0  0  0  0  0  0  0  0  # atno 10167 bound_to 10162
  157.3358  131.0928  151.1124 H   0  0  0  0  0  0  0  0  0  0  0  0  # atno 10718 bound_to 10713
  153.5308  135.7014  153.5684 H   0  0  0  0  0  0  0  0  0  0  0  0  # atno 10763 bound_to 10752
  153.3692  135.3949  155.1776 H   0  0  0  0  0  0  0  0  0  0  0  0  # atno 10764 bound_to 10752
  154.8685  135.3808  154.4805 H   0  0  0  0  0  0  0  0  0  0  0  0  # atno 10765 bound_to 10752
  141.1546  133.6756  156.6545 H   0  0  0  0  0  0  0  0  0  0  0  0  # atno 11005 bound_to 11000
  145.3374  139.1742  143.4504 LP  0  0  0  0  0  0  0  0  0  0  0  0  # atno 17320 bound_to 7965
  146.3182  140.3411  142.8648 LP  0  0  0  0  0  0  0  0  0  0  0  0  # atno 17321 bound_to 7965
  140.7330  143.2713  151.3881 LP  0  0  0  0  0  0  0  0  0  0  0  0  # atno 17342 bound_to 10162
  139.6121  144.1078  152.2309 LP  0  0  0  0  0  0  0  0  0  0  0  0  # atno 17343 bound_to 10162
  157.2355  130.6545  149.5867 LP  0  0  0  0  0  0  0  0  0  0  0  0  # atno 17370 bound_to 10713
  155.9701  130.4585  150.6002 LP  0  0  0  0  0  0  0  0  0  0  0  0  # atno 17371 bound_to 10713
  140.3294  134.7941  157.4315 LP  0  0  0  0  0  0  0  0  0  0  0  0  # atno 17394 bound_to 11000
  140.1029  134.5448  155.8336 LP  0  0  0  0  0  0  0  0  0  0  0  0  # atno 17395 bound_to 11000

$$$$
