AV-unprocessed.smi:692|AV-procd|sdf|3368|dock5
  -GOLD-   22720 0343D 1   1.00000     0.00000
 Structure written by MMmdl.
 37 38  0  0  0  0  0  0  0  0  1 V2000
  153.2999  142.2169  162.0542 C   0  0  0  0  0  0  0  0  0  0  0  0
  153.5238  142.0204  160.5506 C   0  0  0  0  0  0  0  0  0  0  0  0
  152.6441  142.9072  159.7227 C   0  0  0  0  0  0  0  0  0  0  0  0
  152.4259  144.2514  159.9033 C   0  0  0  0  0  0  0  0  0  0  0  0
  151.3380  144.9043  158.7079 S   0  0  0  0  0  0  0  0  0  0  0  0
  151.2165  143.3013  157.9998 C   0  0  0  0  0  0  0  0  0  0  0  0
  150.4131  143.0436  156.8583 N   0  0  0  0  0  0  0  0  0  0  0  0
  150.1851  141.8656  156.2512 C   0  0  0  0  0  0  0  0  0  0  0  0
  150.6437  140.7798  156.6078 O   0  0  0  0  0  0  0  0  0  0  0  0
  149.3768  142.0146  155.1917 N   0  0  0  0  0  0  0  0  0  0  0  0
  148.9228  140.9334  154.3221 C   0  0  2  0  0  0  0  0  0  0  0  0
  147.6822  141.3770  153.5450 C   0  0  0  0  0  0  0  0  0  0  0  0
  147.2177  140.2637  152.5983 C   0  0  0  0  0  0  0  0  0  0  0  0
  147.1387  138.8810  153.2635 C   0  0  0  0  0  0  0  0  0  0  0  0
  146.4598  138.0121  152.7153 O   0  0  0  0  0  0  0  0  0  0  0  0
  147.8354  138.6503  154.4026 N   0  0  0  0  0  0  0  0  0  0  0  0
  147.8019  137.3296  155.0334 C   0  0  0  0  0  0  0  0  0  0  0  0
  148.5985  139.6688  155.1413 C   0  0  0  0  0  0  0  0  0  0  0  0
  151.9475  142.3764  158.6323 N   0  0  0  0  0  0  0  0  0  0  0  0
  153.9475  141.5577  162.6325 H   0  0  0  0  0  0  0  0  0  0  0  0
  152.2681  141.9975  162.3306 H   0  0  0  0  0  0  0  0  0  0  0  0
  153.5167  143.2427  162.3542 H   0  0  0  0  0  0  0  0  0  0  0  0
  154.5717  142.2114  160.3162 H   0  0  0  0  0  0  0  0  0  0  0  0
  153.3463  140.9751  160.2957 H   0  0  0  0  0  0  0  0  0  0  0  0
  152.8411  144.8957  160.6641 H   0  0  0  0  0  0  0  0  0  0  0  0
  149.9575  143.8506  156.4584 H   0  0  0  0  0  0  0  0  0  0  0  0
  149.0474  142.9431  154.9715 H   0  0  0  0  0  0  0  0  0  0  0  0
  149.7086  140.7007  153.6003 H   0  0  0  0  0  0  0  0  0  0  0  0
  146.8770  141.6350  154.2351 H   0  0  0  0  0  0  0  0  0  0  0  0
  147.8994  142.2777  152.9695 H   0  0  0  0  0  0  0  0  0  0  0  0
  146.2456  140.5185  152.1748 H   0  0  0  0  0  0  0  0  0  0  0  0
  147.9111  140.1862  151.7604 H   0  0  0  0  0  0  0  0  0  0  0  0
  148.2650  136.5850  154.3845 H   0  0  0  0  0  0  0  0  0  0  0  0
  146.7744  137.0199  155.2308 H   0  0  0  0  0  0  0  0  0  0  0  0
  148.3332  137.3145  155.9860 H   0  0  0  0  0  0  0  0  0  0  0  0
  149.5279  139.2349  155.5133 H   0  0  0  0  0  0  0  0  0  0  0  0
  148.0095  139.9406  156.0186 H   0  0  0  0  0  0  0  0  0  0  0  0
  1  2  1  0  0  0  0
  1 20  1  0  0  0  0
  1 21  1  0  0  0  0
  1 22  1  0  0  0  0
  2  3  1  0  0  0  0
  2 23  1  0  0  0  0
  2 24  1  0  0  0  0
  3 19  1  0  0  0  0
  3  4  2  0  0  0  0
  4  5  1  0  0  0  0
  4 25  1  0  0  0  0
  5  6  1  0  0  0  0
  6  7  1  0  0  0  0
  6 19  2  0  0  0  0
  7  8  1  0  0  0  0
  7 26  1  0  0  0  0
  8  9  2  0  0  0  0
  8 10  1  0  0  0  0
 10 11  1  0  0  0  0
 10 27  1  0  0  0  0
 11 18  1  0  0  0  0
 11 12  1  0  0  0  0
 11 28  1  0  0  0  0
 12 13  1  0  0  0  0
 12 29  1  0  0  0  0
 12 30  1  0  0  0  0
 13 14  1  0  0  0  0
 13 31  1  0  0  0  0
 13 32  1  0  0  0  0
 14 15  2  0  0  0  0
 14 16  1  0  0  0  0
 16 17  1  0  0  0  0
 16 18  1  0  0  0  0
 17 33  1  0  0  0  0
 17 34  1  0  0  0  0
 17 35  1  0  0  0  0
 18 36  1  0  0  0  0
 18 37  1  0  0  0  0
M  END
> <s_m_source_file>
AV-unprocessed.smi

> <i_m_source_file_index>
692

> <i_lp_mmshare_version>
43012

> <i_f3d_flags>
0

> <s_epik_input>
W0NIM11bQ0gyXWMxW2NIXXNjKG4xKVtOSF1DKD1PKVtOSF1bQ0BASF0yW0NIMl1bQ0gyXUMoPU8pTihbQ0gzXSlbQ0gyXTI=

> <s_epik_cmdline>
J2VwaWtfcHl0aG9uJywgJy1waCcsICc3LjAnLCAnLXRuJywgJzgnLCAnLW1hJywgJzIwMCcsICctbWV0YWxfYmluZGluZycsICctaW1hZScsICc8aW5maWxlLm1hZT4nLCAnLW9tYWUnLCAnPG91dGZpbGUubWFlPic=

> <r_lp_tautomer_probability>
1

> <r_epik_Ionization_Penalty>
0.000165573

> <r_epik_Ionization_Penalty_Charging>
0

> <r_epik_Ionization_Penalty_Neutral>
0.000165573

> <r_epik_State_Penalty>
-0

> <r_epik_Charging_Adjusted_Penalty>
0

> <i_epik_Tot_Q>
0

> <i_epik_Tot_abs_Q>
0

> <r_epik_Metal_State_Penalty>
0.031163

> <b_epik_Metal_Only>
0

> <s_lp_Force_Field>
OPLS_2005

> <r_lp_Energy>
8.08929

> <b_lp_Chiralities_Consistent>
1

> <s_lp_Variant>
AV-unprocessed.smi:692-1

> <Gold.Version>
5.8.1

> <Gold.Id.Protein>
6NUR|6NUR_protein|mol2

> <Gold.PLP.Fitness>
43.3565

> <Gold.PLP.PLP>
-38.7264

> <Gold.PLP.part.hbond>
-2.0000

> <Gold.PLP.part.metal>
0.0000

> <Gold.PLP.part.buried>
-4.5704

> <Gold.PLP.part.nonpolar>
-32.7556

> <Gold.PLP.part.repulsive>
0.5091

> <Gold.PLP.ligand.clash>
0.0000

> <Gold.PLP.ligand.torsion>
0.4337

> <Gold.PLP.Chemscore.Hbond>
1.8320

> <Gold.PLP.Chemscore.CHOScore>
0.0000

> <Gold.PLP.Chemscore.Metal>
0.0000

> <Gold.Chemscore.Hbonds>
donor molecule, donor type, donor heavy atom, donor atom, acceptor molecule, acceptor atom, score
      L1  H     7    26       P1  8028  1.00
      L1  H    10    27       P1  8028  0.90

> <Gold.PLP.Chemscore.Internal.Correction>
0.0014

> <Gold.Rescore>
     Score         DG    S(hbond)    S(metal)    S(lipo)     H(rot)  DE(clash)    DE(int)     intcor
     15.61     -18.60       1.94        0.00      83.88       1.24       0.03       2.95       ----

> <Gold.Chemscore.Fitness>
15.6106

> <Gold.Chemscore.DG>
-18.5952

> <Gold.Chemscore.ZeroCoef>
-5.4800

> <Gold.Chemscore.Hbond>
1.9379

> <Gold.Chemscore.Metal>
0.0000

> <Gold.Chemscore.Lipo>
83.8767

> <Gold.Chemscore.Internal_Hbond>
0.0000

> <Gold.Chemscore.DEClash>
0.0297

> <Gold.Chemscore.DEInternal>
2.9549

> <Gold.Chemscore.Rot>
1.2386

> <Gold.Chemscore.Internal.Correction>
   9.000000E+99

> <Gold.Chemscore.Hbonds>
donor molecule, donor type, donor heavy atom, donor atom, acceptor molecule, acceptor atom, score
      L1  H     7    26       P1  8028  0.98
      L1  H    10    27       P1  8028  0.88

> <Gold.Chemscore.Hbond.Weighted>
-6.4725

> <Gold.Chemscore.Metal.Weighted>
-0.0000

> <Gold.Chemscore.Lipo.Weighted>
-9.8136

> <Gold.Chemscore.Internal_Hbond.Weighted>
0.0000

> <Gold.Chemscore.DEClash.Weighted>
0.0297

> <Gold.Chemscore.DEInternal.Weighted>
2.9549

> <Gold.Chemscore.Rot.Weighted>
3.1708

> <Gold.Chemscore.Internal.Correction.Weighted>
   9.000000E+99

> <Gold.Protein.RotatedTorsions>
[ 6907 6896 6895 6894 ] final  160.26 input  -60.11 | X-H torsion
[ 7974 7965 7964 7962 ] final   22.34 input  175.53 | X-H torsion
[ 8008 7997 7996 7995 ] final -145.22 input   59.86 | X-H torsion
[ 10167 10162 10161 10158 ] final   73.10 input  -65.29 | X-H torsion
[ 10718 10713 10712 10709 ] final   50.47 input   66.30 | X-H torsion
[ 10763 10752 10751 10750 ] final   78.98 input  -60.55 | X-H torsion
[ 11005 11000 10999 10996 ] final  -88.27 input  -57.11 | X-H torsion

> <Gold.Protein.ActiveResidues>
 VAL166  LYS551  ARG553  GLY616  TRP617  ASP618  TYR619  PRO620  LYS621  CYS622 
 ASP623  PHE694  ASN695  SER759  ASP760  ASP761  ALA762  ILE779  LEU786  VAL792 
 PHE793  MET794  SER795  GLU796  ALA797  LYS798  CYS799  TRP800  GLU811  SER814 

> <Gold.Protein.RotatedAtoms>
  151.9732  133.3733  159.4078 H   0  0  0  0  0  0  0  0  0  0  0  0  # atno 6907 bound_to 6896
  150.6945  134.4117  159.5174 H   0  0  0  0  0  0  0  0  0  0  0  0  # atno 6908 bound_to 6896
  152.1824  134.8742  160.0576 H   0  0  0  0  0  0  0  0  0  0  0  0  # atno 6909 bound_to 6896
  146.2033  139.7899  142.8745 H   0  0  0  0  0  0  0  0  0  0  0  0  # atno 7974 bound_to 7965
  155.5396  140.0607  157.2872 H   0  0  0  0  0  0  0  0  0  0  0  0  # atno 8008 bound_to 7997
  154.4456  140.1921  156.0621 H   0  0  0  0  0  0  0  0  0  0  0  0  # atno 8009 bound_to 7997
  156.0594  140.3274  155.7448 H   0  0  0  0  0  0  0  0  0  0  0  0  # atno 8010 bound_to 7997
  140.0281  144.5488  150.7529 H   0  0  0  0  0  0  0  0  0  0  0  0  # atno 10167 bound_to 10162
  157.4888  130.8362  149.8178 H   0  0  0  0  0  0  0  0  0  0  0  0  # atno 10718 bound_to 10713
  153.0916  135.4857  154.8701 H   0  0  0  0  0  0  0  0  0  0  0  0  # atno 10763 bound_to 10752
  154.7276  135.3053  154.8947 H   0  0  0  0  0  0  0  0  0  0  0  0  # atno 10764 bound_to 10752
  153.9593  135.6814  153.4798 H   0  0  0  0  0  0  0  0  0  0  0  0  # atno 10765 bound_to 10752
  141.1604  133.7560  156.9427 H   0  0  0  0  0  0  0  0  0  0  0  0  # atno 11005 bound_to 11000
  145.3408  141.0287  143.3393 LP  0  0  0  0  0  0  0  0  0  0  0  0  # atno 17320 bound_to 7965
  144.8733  139.5007  143.6757 LP  0  0  0  0  0  0  0  0  0  0  0  0  # atno 17321 bound_to 7965
  140.7314  143.2694  151.3938 LP  0  0  0  0  0  0  0  0  0  0  0  0  # atno 17342 bound_to 10162
  139.6094  144.1129  152.2283 LP  0  0  0  0  0  0  0  0  0  0  0  0  # atno 17343 bound_to 10162
  156.0162  130.3813  150.2105 LP  0  0  0  0  0  0  0  0  0  0  0  0  # atno 17370 bound_to 10713
  157.0293  131.0002  151.3317 LP  0  0  0  0  0  0  0  0  0  0  0  0  # atno 17371 bound_to 10713
  140.1311  134.9355  157.2337 LP  0  0  0  0  0  0  0  0  0  0  0  0  # atno 17394 bound_to 11000
  140.2952  134.3194  155.7304 LP  0  0  0  0  0  0  0  0  0  0  0  0  # atno 17395 bound_to 11000

$$$$
