#       Name:                AV-unprocessed.smi:1512
#       Creating user name   scv26
#       Creation time:       Fri Mar 27 06:23:41 2020


#       File generated by GOLD software.
#

@<TRIPOS>MOLECULE
AV-unprocessed.smi:1512
    50    52     1
SMALL
NO_CHARGES


@<TRIPOS>ATOM
      1 ****        -1.4774  -0.8516  -3.0041 C.3            1 S1                 0.0000
      2 ****        -1.1013  -0.0339  -1.7568 C.3            1 S1                 0.0000
      3 ****         0.3488   0.0127  -1.6083 N.am           1 S1                 0.0000
      4 ****         1.1809   0.8714  -2.2211 C.2            1 S1                 0.0000
      5 ****         0.8068   1.6688  -3.0798 O.2            1 S1                 0.0000
      6 ****         2.6588   0.8659  -1.7912 C.3            1 S1                 0.0000
      7 ****         2.9269   0.1378  -0.5355 N.am           1 S1                 0.0000
      8 ****         3.4748  -1.1535  -0.6496 C.2            1 S1                 0.0000
      9 ****         3.7258  -1.9140   0.4256 C.2            1 S1                 0.0000
     10 ****         3.4038  -1.3836   1.7279 C.2            1 S1                 0.0000
     11 ****         2.8775  -0.1447   1.8623 C.2            1 S1                 0.0000
     12 ****         2.5451   0.3131   3.1908 N.pl3          1 S1                 1.0000
     13 ****         1.4836   0.9041   3.3639 O.2            1 S1                 0.0000
     14 ****         3.3298   0.0782   4.1047 O.2            1 S1                -1.0000
     15 ****         2.6350   0.7034   0.6779 C.2            1 S1                 0.0000
     16 ****         2.1882   1.8492   0.7572 O.2            1 S1                 0.0000
     17 ****        -1.7279  -0.6185  -0.4683 C.3            1 S1                 0.0000
     18 ****        -3.2582  -0.4393  -0.3542 C.3            1 S1                 0.0000
     19 ****        -3.4329   0.1547   1.0565 C.3            1 S1                 0.0000
     20 ****        -2.9683   1.6229   1.0466 C.3            1 S1                 0.0000
     21 ****        -1.4374   1.4930   0.9487 C.3            1 S1                 0.0000
     22 ****        -1.2297  -0.0334   0.8788 C.3            1 S1                 0.0000
     23 ****        -2.3118  -0.5245   1.8342 C.3            1 S1                 0.0000
     24 ****        -2.5582  -0.8909  -3.1391 H              1 S1                 0.0000
     25 ****        -1.1137  -1.8773  -2.9316 H              1 S1                 0.0000
     26 ****        -1.0536  -0.4119  -3.9074 H              1 S1                 0.0000
     27 ****        -1.4708   0.9836  -1.8947 H              1 S1                 0.0000
     28 ****         0.7472  -0.6150  -0.9252 H              1 S1                 0.0000
     29 ****         3.2430   0.4476  -2.6118 H              1 S1                 0.0000
     30 ****         2.9997   1.8987  -1.7006 H              1 S1                 0.0000
     31 ****         3.6745  -1.4839  -1.6588 H              1 S1                 0.0000
     32 ****         4.1469  -2.9029   0.3191 H              1 S1                 0.0000
     33 ****         3.5693  -2.0030   2.5975 H              1 S1                 0.0000
     34 ****        -1.5094  -1.6880  -0.4498 H              1 S1                 0.0000
     35 ****        -3.6709   0.2170  -1.1216 H              1 S1                 0.0000
     36 ****        -3.7625  -1.4026  -0.4388 H              1 S1                 0.0000
     37 ****        -4.4325   0.0155   1.4693 H              1 S1                 0.0000
     38 ****        -3.3918   2.1854   0.2137 H              1 S1                 0.0000
     39 ****        -3.2514   2.1289   1.9705 H              1 S1                 0.0000
     40 ****        -1.0210   2.0261   0.0944 H              1 S1                 0.0000
     41 ****        -0.9648   1.8994   1.8439 H              1 S1                 0.0000
     42 ****        -0.2211  -0.3485   1.1471 H              1 S1                 0.0000
     43 ****        -2.1971  -0.1451   2.8513 H              1 S1                 0.0000
     44 ****        -2.4035  -1.6117   1.8664 H              1 S1                 0.0000
     45 ****        -0.1555   1.6974  -3.3503 LP             1 S1                 0.0000
     46 ****         1.4650   2.2884  -3.5074 LP             1 S1                 0.0000
     47 ****         0.8670   1.0608   2.5924 LP             1 S1                 0.0000
     48 ****         1.2353   1.2290   4.2765 LP             1 S1                 0.0000
     49 ****         2.0325   2.3838  -0.0735 LP             1 S1                 0.0000
     50 ****         1.9814   2.2444   1.6522 LP             1 S1                 0.0000
@<TRIPOS>BOND
    1    1    2 1     
    2    1   24 1     
    3    1   25 1     
    4    1   26 1     
    5    2    3 1     
    6    2   17 1     
    7    2   27 1     
    8    3    4 am    
    9    3   28 1     
   10    4    5 2     
   11    4    6 1     
   12    6    7 1     
   13    6   29 1     
   14    6   30 1     
   15    7   15 am    
   16    7    8 1     
   17    8    9 2     
   18    8   31 1     
   19    9   10 1     
   20    9   32 1     
   21   10   11 2     
   22   10   33 1     
   23   11   12 1     
   24   11   15 1     
   25   12   13 2     
   26   12   14 1     
   27   15   16 2     
   28   17   22 1     
   29   17   18 1     
   30   17   34 1     
   31   18   19 1     
   32   18   35 1     
   33   18   36 1     
   34   19   23 1     
   35   19   20 1     
   36   19   37 1     
   37   20   21 1     
   38   20   38 1     
   39   20   39 1     
   40   21   22 1     
   41   21   40 1     
   42   21   41 1     
   43   22   23 1     
   44   22   42 1     
   45   23   43 1     
   46   23   44 1     
   47    5   45 1     
   48    5   46 1     
   49   13   47 1     
   50   13   48 1     
   51   16   49 1     
   52   16   50 1     
@<TRIPOS>SUBSTRUCTURE
      1 S1             1
@<TRIPOS>SET
LONE_PAIRS      STATIC     ATOMS    <user>   **** ""
7 45 46 47 48 14 49 50
DONOR_HYDROGENS      STATIC     ATOMS    <user>   **** ""
1 28
ATOM$BLUE        STATIC     ATOMS    COLORGROUP SYSTEM
7 45 46 47 48 14 49 50
ATOM$RED        STATIC     ATOMS    COLORGROUP SYSTEM
1 28
