AV-unprocessed.smi:276|AV-procd|sdf|2070|dock6
  -GOLD-   2262021323D 1   1.00000     0.00000
 Structure written by MMmdl.
 57 61  0  0  0  0  0  0  0  0  1 V2000
  144.1565  135.8162  160.8530 C   0  0  0  0  0  0  0  0  0  0  0  0
  144.7725  134.7058  160.2248 O   0  0  0  0  0  0  0  0  0  0  0  0
  146.0286  135.0305  159.6500 C   0  0  2  0  0  0  0  0  0  0  0  0
  146.8248  133.8246  159.1365 C   0  0  0  0  0  0  0  0  0  0  0  0
  148.0964  134.4636  159.7294 C   0  0  1  0  0  0  0  0  0  0  0  0
  148.8102  135.2761  158.7334 N   0  0  0  0  0  0  0  0  0  0  0  0
  148.1854  136.5444  158.3708 C   0  0  0  0  0  0  0  0  0  0  0  0
  149.2048  134.6271  157.6151 C   0  0  0  0  0  0  0  0  0  0  0  0
  150.2955  133.8277  157.7208 N   0  0  0  0  0  0  0  0  0  0  0  0
  150.7313  133.1470  156.6566 C   0  0  0  0  0  0  0  0  0  0  0  0
  150.2361  133.1273  155.4173 N   0  0  0  0  0  0  0  0  0  0  0  0
  149.1487  133.9432  155.3048 C   0  0  0  0  0  0  0  0  0  0  0  0
  148.5726  134.7292  156.3423 C   0  0  0  0  0  0  0  0  0  0  0  0
  147.4818  135.4359  155.8489 N   0  0  0  0  0  0  0  0  0  0  0  0
  147.4072  135.0756  154.5971 C   0  0  0  0  0  0  0  0  0  0  0  0
  148.3683  134.1803  154.1874 N   0  0  0  0  0  0  0  0  0  0  0  0
  148.5120  133.6114  152.8582 C   0  0  0  0  0  0  0  0  0  0  0  0
  147.4683  132.5076  152.5697 C   0  0  2  0  0  0  0  0  0  0  0  0
  148.1102  131.2556  152.7283 O   0  0  0  0  0  0  0  0  0  0  0  0
  146.8848  132.5443  151.1369 C   0  0  2  0  0  0  0  0  0  0  0  0
  145.9156  133.7044  150.8472 C   0  0  0  0  0  0  0  0  0  0  0  0
  144.5577  133.1100  151.1395 C   0  0  0  0  0  0  0  0  0  0  0  0
  144.7486  131.6933  150.6249 C   0  0  0  0  0  0  0  0  0  0  0  0
  146.0866  131.3668  150.9772 O   0  0  0  0  0  0  0  0  0  0  0  0
  147.1505  135.2447  160.6822 C   0  0  0  0  0  0  0  0  0  0  0  0
  146.9641  134.7534  162.1296 C   0  0  0  0  0  0  0  0  0  0  0  0
  146.6371  136.1974  162.5198 C   0  0  0  0  0  0  0  0  0  0  0  0
  147.4218  136.6381  161.2819 C   0  0  0  0  0  0  0  0  0  0  0  0
  143.2054  135.5085  161.2877 H   0  0  0  0  0  0  0  0  0  0  0  0
  143.9568  136.6162  160.1392 H   0  0  0  0  0  0  0  0  0  0  0  0
  144.7814  136.2107  161.6549 H   0  0  0  0  0  0  0  0  0  0  0  0
  145.9805  135.8475  158.9268 H   0  0  0  0  0  0  0  0  0  0  0  0
  146.5529  132.8975  159.6440 H   0  0  0  0  0  0  0  0  0  0  0  0
  146.7966  133.6995  158.0546 H   0  0  0  0  0  0  0  0  0  0  0  0
  148.7218  133.7299  160.2377 H   0  0  0  0  0  0  0  0  0  0  0  0
  148.6085  136.9657  157.4570 H   0  0  0  0  0  0  0  0  0  0  0  0
  148.3301  137.2812  159.1602 H   0  0  0  0  0  0  0  0  0  0  0  0
  147.1135  136.4143  158.2176 H   0  0  0  0  0  0  0  0  0  0  0  0
  151.5997  132.5267  156.8228 H   0  0  0  0  0  0  0  0  0  0  0  0
  146.6419  135.4525  153.9342 H   0  0  0  0  0  0  0  0  0  0  0  0
  148.4221  134.4317  152.1477 H   0  0  0  0  0  0  0  0  0  0  0  0
  149.5236  133.2169  152.7533 H   0  0  0  0  0  0  0  0  0  0  0  0
  146.6612  132.5765  153.3001 H   0  0  0  0  0  0  0  0  0  0  0  0
  148.7779  131.1738  152.0645 H   0  0  0  0  0  0  0  0  0  0  0  0
  147.6917  132.5525  150.4026 H   0  0  0  0  0  0  0  0  0  0  0  0
  146.1038  134.6187  151.4057 H   0  0  0  0  0  0  0  0  0  0  0  0
  145.9702  133.9625  149.7885 H   0  0  0  0  0  0  0  0  0  0  0  0
  144.3687  133.1038  152.2138 H   0  0  0  0  0  0  0  0  0  0  0  0
  143.7410  133.6376  150.6464 H   0  0  0  0  0  0  0  0  0  0  0  0
  144.0366  130.9880  151.0541 H   0  0  0  0  0  0  0  0  0  0  0  0
  144.6503  131.6631  149.5389 H   0  0  0  0  0  0  0  0  0  0  0  0
  146.1552  134.0396  162.2868 H   0  0  0  0  0  0  0  0  0  0  0  0
  147.8962  134.4018  162.5753 H   0  0  0  0  0  0  0  0  0  0  0  0
  145.5722  136.4244  162.4487 H   0  0  0  0  0  0  0  0  0  0  0  0
  147.0600  136.5221  163.4708 H   0  0  0  0  0  0  0  0  0  0  0  0
  148.4672  136.8247  161.5267 H   0  0  0  0  0  0  0  0  0  0  0  0
  146.9821  137.4704  160.7320 H   0  0  0  0  0  0  0  0  0  0  0  0
  1  2  1  0  0  0  0
  1 29  1  0  0  0  0
  1 30  1  0  0  0  0
  1 31  1  0  0  0  0
  2  3  1  0  0  0  0
  3 25  1  0  0  0  0
  3  4  1  0  0  0  0
  3 32  1  0  0  0  0
  4  5  1  0  0  0  0
  4 33  1  0  0  0  0
  4 34  1  0  0  0  0
  5  6  1  0  0  0  0
  5 25  1  0  0  0  0
  5 35  1  0  0  0  0
  6  7  1  0  0  0  0
  6  8  1  0  0  0  0
  7 36  1  0  0  0  0
  7 37  1  0  0  0  0
  7 38  1  0  0  0  0
  8 13  1  0  0  0  0
  8  9  2  0  0  0  0
  9 10  1  0  0  0  0
 10 11  2  0  0  0  0
 10 39  1  0  0  0  0
 11 12  1  0  0  0  0
 12 16  1  0  0  0  0
 12 13  2  0  0  0  0
 13 14  1  0  0  0  0
 14 15  2  0  0  0  0
 15 16  1  0  0  0  0
 15 40  1  0  0  0  0
 16 17  1  0  0  0  0
 17 18  1  0  0  0  0
 17 41  1  0  0  0  0
 17 42  1  0  0  0  0
 18 19  1  0  0  0  0
 18 20  1  0  0  0  0
 18 43  1  0  0  0  0
 19 44  1  0  0  0  0
 20 24  1  0  0  0  0
 20 21  1  0  0  0  0
 20 45  1  0  0  0  0
 21 22  1  0  0  0  0
 21 46  1  0  0  0  0
 21 47  1  0  0  0  0
 22 23  1  0  0  0  0
 22 48  1  0  0  0  0
 22 49  1  0  0  0  0
 23 24  1  0  0  0  0
 23 50  1  0  0  0  0
 23 51  1  0  0  0  0
 25 28  1  0  0  0  0
 25 26  1  0  0  0  0
 26 27  1  0  0  0  0
 26 52  1  0  0  0  0
 26 53  1  0  0  0  0
 27 28  1  0  0  0  0
 27 54  1  0  0  0  0
 27 55  1  0  0  0  0
 28 56  1  0  0  0  0
 28 57  1  0  0  0  0
M  END
> <s_m_source_file>
AV-unprocessed.smi

> <i_m_source_file_index>
276

> <i_lp_mmshare_version>
43012

> <i_f3d_flags>
0

> <s_epik_input>
W0NIMl0xW0NIMl1bQ0gyXUMxMltDQEhdKE9bQ0gzXSlbQ0gyXVtDQEhdMk4oW0NIM10pYyhuW2NIXW4zKWMoYzM0KW5bY0hdbjRbQ0gyXVtDQEhdKFtPSF0pW0NAQEhdNVtDSDJdW0NIMl1bQ0gyXU81

> <s_epik_cmdline>
J2VwaWtfcHl0aG9uJywgJy1waCcsICc3LjAnLCAnLXRuJywgJzgnLCAnLW1hJywgJzIwMCcsICctbWV0YWxfYmluZGluZycsICctaW1hZScsICc8aW5maWxlLm1hZT4nLCAnLW9tYWUnLCAnPG91dGZpbGUubWFlPic=

> <r_lp_tautomer_probability>
1

> <r_epik_Ionization_Penalty>
0.00204117

> <r_epik_Ionization_Penalty_Charging>
0

> <r_epik_Ionization_Penalty_Neutral>
0.00204117

> <r_epik_State_Penalty>
0.00127401

> <r_epik_Charging_Adjusted_Penalty>
0.00127401

> <i_epik_Tot_Q>
0

> <i_epik_Tot_abs_Q>
0

> <r_epik_Metal_State_Penalty>
-0

> <b_epik_Metal_Only>
0

> <s_lp_Force_Field>
OPLS_2005

> <r_lp_Energy>
59.1309

> <b_lp_Chiralities_Consistent>
1

> <s_lp_Variant>
AV-unprocessed.smi:276-1

> <Gold.Version>
5.8.1

> <Gold.Id.Protein>
6NUR|6NUR_protein|mol2

> <Gold.PLP.Fitness>
39.7675

> <Gold.PLP.PLP>
-39.2571

> <Gold.PLP.part.hbond>
-3.0000

> <Gold.PLP.part.metal>
0.0000

> <Gold.PLP.part.buried>
-4.4805

> <Gold.PLP.part.nonpolar>
-32.0576

> <Gold.PLP.part.repulsive>
0.1445

> <Gold.PLP.ligand.clash>
2.3503

> <Gold.PLP.ligand.torsion>
1.9436

> <Gold.PLP.Chemscore.Hbond>
2.0000

> <Gold.PLP.Chemscore.CHOScore>
0.0000

> <Gold.PLP.Chemscore.Metal>
0.0000

> <Gold.Chemscore.Hbonds>
donor molecule, donor type, donor heavy atom, donor atom, acceptor molecule, acceptor atom, score
      L1  H    19    44       P1 10747  0.85
      P1  H  6896  6907       L1     9  0.21

> <Gold.PLP.Chemscore.Internal.Correction>
0.7478

> <Gold.Rescore>
     Score         DG    S(hbond)    S(metal)    S(lipo)     H(rot)  DE(clash)    DE(int)     intcor
      7.39     -12.59       1.07        0.00      89.64       2.72       0.15       5.04       ----

> <Gold.Chemscore.Fitness>
7.3924

> <Gold.Chemscore.DG>
-12.5899

> <Gold.Chemscore.ZeroCoef>
-5.4800

> <Gold.Chemscore.Hbond>
1.0713

> <Gold.Chemscore.Metal>
0.0000

> <Gold.Chemscore.Lipo>
89.6391

> <Gold.Chemscore.Internal_Hbond>
0.0000

> <Gold.Chemscore.DEClash>
0.1536

> <Gold.Chemscore.DEInternal>
5.0439

> <Gold.Chemscore.Rot>
2.7172

> <Gold.Chemscore.Internal.Correction>
   9.000000E+99

> <Gold.Chemscore.Hbonds>
donor molecule, donor type, donor heavy atom, donor atom, acceptor molecule, acceptor atom, score
      L1  H    19    44       P1 10747  0.72
      P1  H  6896  6907       L1     9  0.02

> <Gold.Chemscore.Hbond.Weighted>
-3.5781

> <Gold.Chemscore.Metal.Weighted>
-0.0000

> <Gold.Chemscore.Lipo.Weighted>
-10.4878

> <Gold.Chemscore.Internal_Hbond.Weighted>
0.0000

> <Gold.Chemscore.DEClash.Weighted>
0.1536

> <Gold.Chemscore.DEInternal.Weighted>
5.0439

> <Gold.Chemscore.Rot.Weighted>
6.9560

> <Gold.Chemscore.Internal.Correction.Weighted>
   9.000000E+99

> <Gold.Protein.RotatedTorsions>
[ 6907 6896 6895 6894 ] final  -75.31 input  -60.11 | X-H torsion
[ 7974 7965 7964 7962 ] final -175.39 input  175.53 | X-H torsion
[ 8008 7997 7996 7995 ] final   35.00 input   59.86 | X-H torsion
[ 10167 10162 10161 10158 ] final -167.10 input  -65.29 | X-H torsion
[ 10718 10713 10712 10709 ] final   34.66 input   66.30 | X-H torsion
[ 10763 10752 10751 10750 ] final   61.04 input  -60.55 | X-H torsion
[ 11005 11000 10999 10996 ] final -141.86 input  -57.11 | X-H torsion

> <Gold.Protein.ActiveResidues>
 VAL166  LYS551  ARG553  GLY616  TRP617  ASP618  TYR619  PRO620  LYS621  CYS622 
 ASP623  PHE694  ASN695  SER759  ASP760  ASP761  ALA762  ILE779  LEU786  VAL792 
 PHE793  MET794  SER795  GLU796  ALA797  LYS798  CYS799  TRP800  GLU811  SER814 

> <Gold.Protein.RotatedAtoms>
  150.7063  134.4740  159.5438 H   0  0  0  0  0  0  0  0  0  0  0  0  # atno 6907 bound_to 6896
  152.2391  134.8244  160.0472 H   0  0  0  0  0  0  0  0  0  0  0  0  # atno 6908 bound_to 6896
  151.9032  133.3508  159.3875 H   0  0  0  0  0  0  0  0  0  0  0  0  # atno 6909 bound_to 6896
  144.7128  140.1328  143.6397 H   0  0  0  0  0  0  0  0  0  0  0  0  # atno 7974 bound_to 7965
  155.1639  140.3286  155.4406 H   0  0  0  0  0  0  0  0  0  0  0  0  # atno 8008 bound_to 7997
  156.2533  140.1955  156.6696 H   0  0  0  0  0  0  0  0  0  0  0  0  # atno 8009 bound_to 7997
  154.6385  140.0573  156.9804 H   0  0  0  0  0  0  0  0  0  0  0  0  # atno 8010 bound_to 7997
  139.6071  144.0890  152.1804 H   0  0  0  0  0  0  0  0  0  0  0  0  # atno 10167 bound_to 10162
  157.3130  130.7409  149.6737 H   0  0  0  0  0  0  0  0  0  0  0  0  # atno 10718 bound_to 10713
  152.9938  135.5515  154.5970 H   0  0  0  0  0  0  0  0  0  0  0  0  # atno 10763 bound_to 10752
  154.5320  135.2814  155.1174 H   0  0  0  0  0  0  0  0  0  0  0  0  # atno 10764 bound_to 10752
  154.2485  135.6403  153.5285 H   0  0  0  0  0  0  0  0  0  0  0  0  # atno 10765 bound_to 10752
  140.8282  134.2549  157.4869 H   0  0  0  0  0  0  0  0  0  0  0  0  # atno 11005 bound_to 11000
  145.9271  139.2583  143.1347 LP  0  0  0  0  0  0  0  0  0  0  0  0  # atno 17320 bound_to 7965
  145.9560  140.8872  143.0235 LP  0  0  0  0  0  0  0  0  0  0  0  0  # atno 17321 bound_to 7965
  140.0500  144.5940  150.7343 LP  0  0  0  0  0  0  0  0  0  0  0  0  # atno 17342 bound_to 10162
  140.7293  143.2671  151.4010 LP  0  0  0  0  0  0  0  0  0  0  0  0  # atno 17343 bound_to 10162
  155.9679  130.4245  150.4613 LP  0  0  0  0  0  0  0  0  0  0  0  0  # atno 17370 bound_to 10713
  157.2615  131.0568  151.2317 LP  0  0  0  0  0  0  0  0  0  0  0  0  # atno 17371 bound_to 10713
  139.8706  134.9572  156.4261 LP  0  0  0  0  0  0  0  0  0  0  0  0  # atno 17394 bound_to 11000
  140.9026  133.7768  155.9698 LP  0  0  0  0  0  0  0  0  0  0  0  0  # atno 17395 bound_to 11000

$$$$
