AV-unprocessed.smi:72|AV-procd|sdf|709|dock6
  -GOLD-   2262017 33D 1   1.00000     0.00000
 Structure written by MMmdl.
 30 31  0  0  0  0  0  0  0  0  2 V2000
  146.1344  138.9377  152.2711 N   0  0  0  0  0  0  0  0  0  0  0  0
  145.5746  137.6808  152.3672 C   0  0  0  0  0  0  0  0  0  0  0  0
  146.4196  136.5911  152.2557 N   0  3  0  0  0  0  0  0  0  0  0  0
  146.0380  135.3088  152.3313 C   0  0  0  0  0  0  0  0  0  0  0  0
  144.7649  135.0310  152.5267 N   0  0  0  0  0  0  0  0  0  0  0  0
  144.2674  133.6086  152.6073 C   0  0  2  0  0  0  0  0  0  0  0  0
  145.3731  132.7547  152.6251 O   0  0  0  0  0  0  0  0  0  0  0  0
  145.4776  132.0567  151.3863 C   0  0  1  0  0  0  0  0  0  0  0  0
  146.2474  130.7434  151.5923 C   0  0  0  0  0  0  0  0  0  0  0  0
  147.2931  130.9414  152.5193 O   0  0  0  0  0  0  0  0  0  0  0  0
  144.0072  131.8606  151.0208 C   0  0  2  0  0  0  0  0  0  0  0  0
  143.8082  131.5111  149.6637 O   0  0  0  0  0  0  0  0  0  0  0  0
  143.3967  133.2069  151.3945 C   0  0  2  0  0  0  0  0  0  0  0  0
  143.4641  134.1338  150.3198 O   0  0  0  0  0  0  0  0  0  0  0  0
  143.8201  136.0828  152.6418 C   0  0  0  0  0  0  0  0  0  0  0  0
  142.6262  135.8323  152.8040 O   0  0  0  0  0  0  0  0  0  0  0  0
  144.3167  137.3915  152.5554 N   0  0  0  0  0  0  0  0  0  0  0  0
  143.7562  133.5170  153.5671 H   0  0  0  0  0  0  0  0  0  0  0  0
  145.9608  132.6841  150.6350 H   0  0  0  0  0  0  0  0  0  0  0  0
  143.5769  131.0819  151.6528 H   0  0  0  0  0  0  0  0  0  0  0  0
  142.3558  133.1056  151.7042 H   0  0  0  0  0  0  0  0  0  0  0  0
  145.5954  139.7895  152.3410 H   0  0  0  0  0  0  0  0  0  0  0  0
  147.1189  139.1069  152.1231 H   0  0  0  0  0  0  0  0  0  0  0  0
  146.7818  134.5301  152.2301 H   0  0  0  0  0  0  0  0  0  0  0  0
  145.5876  129.9423  151.9269 H   0  0  0  0  0  0  0  0  0  0  0  0
  146.6992  130.4210  150.6537 H   0  0  0  0  0  0  0  0  0  0  0  0
  148.1155  130.9176  152.0540 H   0  0  0  0  0  0  0  0  0  0  0  0
  143.6987  132.3040  149.1610 H   0  0  0  0  0  0  0  0  0  0  0  0
  142.5981  134.4826  150.1708 H   0  0  0  0  0  0  0  0  0  0  0  0
  147.4002  136.7797  152.1049 H   0  0  0  0  0  0  0  0  0  0  0  0
  1  2  1  0  0  0  0
  1 22  1  0  0  0  0
  1 23  1  0  0  0  0
  2 17  2  0  0  0  0
  2  3  1  0  0  0  0
  3  4  2  0  0  0  0
  3 30  1  0  0  0  0
  4  5  1  0  0  0  0
  4 24  1  0  0  0  0
  5  6  1  0  0  0  0
  5 15  1  0  0  0  0
  6 18  1  0  0  0  0
  6 13  1  0  0  0  0
  6  7  1  0  0  0  0
  7  8  1  0  0  0  0
  8 19  1  0  0  0  0
  8  9  1  0  0  0  0
  8 11  1  0  0  0  0
  9 10  1  0  0  0  0
  9 25  1  0  0  0  0
  9 26  1  0  0  0  0
 10 27  1  0  0  0  0
 11 20  1  0  0  0  0
 11 12  1  0  0  0  0
 11 13  1  0  0  0  0
 12 28  1  0  0  0  0
 13 21  1  0  0  0  0
 13 14  1  0  0  0  0
 14 29  1  0  0  0  0
 15 16  2  0  0  0  0
 15 17  1  0  0  0  0
M  CHG  1   3   1
M  END
> <s_m_source_file>
AV-unprocessed.smi

> <i_m_source_file_index>
72

> <i_lp_mmshare_version>
43012

> <i_f3d_flags>
0

> <s_epik_input>
W05IMl1jMW5bY0hdbihjKD1PKW4xKVtDQEBIXTJPW0NASF0oW0NIMl1bT0hdKVtDQEBIXShbT0hdKVtDQEhdMltPSF0=

> <s_epik_cmdline>
J2VwaWtfcHl0aG9uJywgJy1waCcsICc3LjAnLCAnLXRuJywgJzgnLCAnLW1hJywgJzIwMCcsICctbWV0YWxfYmluZGluZycsICctaW1hZScsICc8aW5maWxlLm1hZT4nLCAnLW9tYWUnLCAnPG91dGZpbGUubWFlPic=

> <r_lp_tautomer_probability>
4.77166e-05

> <r_epik_Ionization_Penalty>
0.104979

> <r_epik_Ionization_Penalty_Charging>
0.0999619

> <r_epik_Ionization_Penalty_Neutral>
0.00501745

> <r_epik_State_Penalty>
2.51541

> <r_epik_Charging_Adjusted_Penalty>
2.61537

> <i_epik_Tot_Q>
1

> <i_epik_Tot_abs_Q>
1

> <r_epik_Metal_State_Penalty>
3.53763

> <b_epik_Metal_Only>
0

> <s_epik_Chemistry_Notes>
This compound contains an acetal/aminal-like group ( X-CH(R)-Y where X, Y are N, S, or O) that may be acid/base labile, releasing an aldehyde.

> <s_lp_Force_Field>
OPLS_2005

> <r_lp_Energy>
36.649

> <b_lp_Chiralities_Consistent>
1

> <s_lp_Variant>
AV-unprocessed.smi:72-47

> <Gold.Version>
5.8.1

> <Gold.Id.Protein>
6NUR|6NUR_protein|mol2

> <Gold.PLP.Fitness>
38.1124

> <Gold.PLP.PLP>
-21.2817

> <Gold.PLP.part.hbond>
-5.6317

> <Gold.PLP.part.metal>
0.0000

> <Gold.PLP.part.buried>
-1.0828

> <Gold.PLP.part.nonpolar>
-15.9684

> <Gold.PLP.part.repulsive>
0.9496

> <Gold.PLP.ligand.clash>
0.0000

> <Gold.PLP.ligand.torsion>
0.4180

> <Gold.PLP.Chemscore.Hbond>
5.6748

> <Gold.PLP.Chemscore.CHOScore>
0.1743

> <Gold.PLP.Chemscore.Metal>
0.0000

> <Gold.Chemscore.Hbonds>
donor molecule, donor type, donor heavy atom, donor atom, acceptor molecule, acceptor atom, score
      L1  H     1    22       P1 10175  0.85
      L1  H     3    30       P1  7948  2.00
      L1  H    10    27       P1 10747  0.93
      L1  H    14    29       P1 10186  1.00
      P1  H 10785 10796       L1    12  0.80
      L1  C     4    24       P1  7948  0.16

> <Gold.PLP.Chemscore.Internal.Correction>
0.1194

> <Gold.Rescore>
     Score         DG    S(hbond)    S(metal)    S(lipo)     H(rot)  DE(clash)    DE(int)     intcor
     11.01     -13.18       4.19        0.00      35.53       4.08       1.58       0.59       ----

> <Gold.Chemscore.Fitness>
11.0074

> <Gold.Chemscore.DG>
-13.1771

> <Gold.Chemscore.ZeroCoef>
-5.4800

> <Gold.Chemscore.Hbond>
4.1858

> <Gold.Chemscore.Metal>
0.0000

> <Gold.Chemscore.Lipo>
35.5294

> <Gold.Chemscore.Internal_Hbond>
0.0000

> <Gold.Chemscore.DEClash>
1.5843

> <Gold.Chemscore.DEInternal>
0.5853

> <Gold.Chemscore.Rot>
4.0783

> <Gold.Chemscore.Internal.Correction>
   9.000000E+99

> <Gold.Chemscore.Hbonds>
donor molecule, donor type, donor heavy atom, donor atom, acceptor molecule, acceptor atom, score
      L1  H     1    22       P1 10175  0.74
      L1  H     3    30       P1  7948  0.94
      L1  H    10    27       P1 10747  0.88
      L1  H    14    29       P1 10186  0.69
      P1  H 10785 10796       L1    12  0.59

> <Gold.Chemscore.Hbond.Weighted>
-13.9805

> <Gold.Chemscore.Metal.Weighted>
-0.0000

> <Gold.Chemscore.Lipo.Weighted>
-4.1569

> <Gold.Chemscore.Internal_Hbond.Weighted>
0.0000

> <Gold.Chemscore.DEClash.Weighted>
1.5843

> <Gold.Chemscore.DEInternal.Weighted>
0.5853

> <Gold.Chemscore.Rot.Weighted>
10.4404

> <Gold.Chemscore.Internal.Correction.Weighted>
   9.000000E+99

> <Gold.Protein.RotatedTorsions>
[ 6907 6896 6895 6894 ] final  -33.76 input  -60.11 | X-H torsion
[ 7974 7965 7964 7962 ] final -117.78 input  175.53 | X-H torsion
[ 8008 7997 7996 7995 ] final   51.57 input   59.86 | X-H torsion
[ 10167 10162 10161 10158 ] final   97.23 input  -65.29 | X-H torsion
[ 10718 10713 10712 10709 ] final  -38.15 input   66.30 | X-H torsion
[ 10763 10752 10751 10750 ] final  101.63 input  -60.55 | X-H torsion
[ 11005 11000 10999 10996 ] final  134.09 input  -57.11 | X-H torsion

> <Gold.Protein.ActiveResidues>
 VAL166  LYS551  ARG553  GLY616  TRP617  ASP618  TYR619  PRO620  LYS621  CYS622 
 ASP623  PHE694  ASN695  SER759  ASP760  ASP761  ALA762  ILE779  LEU786  VAL792 
 PHE793  MET794  SER795  GLU796  ALA797  LYS798  CYS799  TRP800  GLU811  SER814 

> <Gold.Protein.RotatedAtoms>
  151.0614  134.9739  159.8262 H   0  0  0  0  0  0  0  0  0  0  0  0  # atno 6907 bound_to 6896
  152.5396  134.2413  159.8873 H   0  0  0  0  0  0  0  0  0  0  0  0  # atno 6908 bound_to 6896
  151.2433  133.4345  159.2642 H   0  0  0  0  0  0  0  0  0  0  0  0  # atno 6909 bound_to 6896
  145.0813  140.8427  143.4037 H   0  0  0  0  0  0  0  0  0  0  0  0  # atno 7974 bound_to 7965
  155.4376  140.3453  155.4286 H   0  0  0  0  0  0  0  0  0  0  0  0  # atno 8008 bound_to 7997
  156.1299  140.1511  156.9112 H   0  0  0  0  0  0  0  0  0  0  0  0  # atno 8009 bound_to 7997
  154.4886  140.0848  156.7524 H   0  0  0  0  0  0  0  0  0  0  0  0  # atno 8010 bound_to 7997
  139.7820  144.6884  151.0009 H   0  0  0  0  0  0  0  0  0  0  0  0  # atno 10167 bound_to 10162
  156.3070  130.4247  149.8087 H   0  0  0  0  0  0  0  0  0  0  0  0  # atno 10718 bound_to 10713
  153.3292  135.4038  155.1481 H   0  0  0  0  0  0  0  0  0  0  0  0  # atno 10763 bound_to 10752
  154.8619  135.3606  154.5493 H   0  0  0  0  0  0  0  0  0  0  0  0  # atno 10764 bound_to 10752
  153.5931  135.7073  153.5474 H   0  0  0  0  0  0  0  0  0  0  0  0  # atno 10765 bound_to 10752
  139.9893  134.9521  156.9817 H   0  0  0  0  0  0  0  0  0  0  0  0  # atno 11005 bound_to 11000
  145.1175  139.2715  143.5605 LP  0  0  0  0  0  0  0  0  0  0  0  0  # atno 17320 bound_to 7965
  146.3531  140.0789  142.8619 LP  0  0  0  0  0  0  0  0  0  0  0  0  # atno 17321 bound_to 7965
  140.7818  143.4472  151.0465 LP  0  0  0  0  0  0  0  0  0  0  0  0  # atno 17342 bound_to 10162
  139.8152  143.7895  152.3174 LP  0  0  0  0  0  0  0  0  0  0  0  0  # atno 17343 bound_to 10162
  156.5445  130.8314  151.3279 LP  0  0  0  0  0  0  0  0  0  0  0  0  # atno 17370 bound_to 10713
  157.7382  130.9809  150.2237 LP  0  0  0  0  0  0  0  0  0  0  0  0  # atno 17371 bound_to 10713
  140.4940  134.1164  155.7238 LP  0  0  0  0  0  0  0  0  0  0  0  0  # atno 17394 bound_to 11000
  141.1552  133.8896  157.1996 LP  0  0  0  0  0  0  0  0  0  0  0  0  # atno 17395 bound_to 11000

$$$$
