AV-unprocessed.smi:2989|AV-procd|sdf|11392|dock3
  -GOLD-   2272016313D 1   1.00000     0.00000
 Structure written by MMmdl.
 31 33  0  0  0  0  0  0  0  0  1 V2000
  151.4144  139.8344  155.0161 O   0  0  0  0  0  0  0  0  0  0  0  0
  150.2278  140.3666  155.5739 C   0  0  1  0  0  0  0  0  0  0  0  0
  150.4789  141.8063  156.0645 C   0  0  0  0  0  0  0  0  0  0  0  0
  151.1099  141.8506  157.3720 N   0  0  0  0  0  0  0  0  0  0  0  0
  151.4249  140.6833  158.0015 N   0  0  0  0  0  0  0  0  0  0  0  0
  151.9765  140.9623  159.1447 N   0  0  0  0  0  0  0  0  0  0  0  0
  152.0275  142.3407  159.2710 C   0  0  0  0  0  0  0  0  0  0  0  0
  152.5211  143.1753  160.2993 C   0  0  0  0  0  0  0  0  0  0  0  0
  152.4494  144.5792  160.1690 C   0  0  0  0  0  0  0  0  0  0  0  0
  151.8861  145.1643  159.0143 C   0  0  0  0  0  0  0  0  0  0  0  0
  151.3892  144.3473  157.9801 C   0  0  0  0  0  0  0  0  0  0  0  0
  151.4674  142.9512  158.1266 C   0  0  0  0  0  0  0  0  0  0  0  0
  149.0617  140.3105  154.5992 C   0  0  0  0  0  0  0  0  0  0  0  0
  148.6484  139.0713  154.0647 C   0  0  0  0  0  0  0  0  0  0  0  0
  147.5645  139.0111  153.1671 C   0  0  0  0  0  0  0  0  0  0  0  0
  146.8865  140.1894  152.8001 C   0  0  0  0  0  0  0  0  0  0  0  0
  147.2922  141.4282  153.3324 C   0  0  0  0  0  0  0  0  0  0  0  0
  148.3757  141.4889  154.2302 C   0  0  0  0  0  0  0  0  0  0  0  0
  151.7616  139.1885  155.6122 H   0  0  0  0  0  0  0  0  0  0  0  0
  149.9824  139.7417  156.4336 H   0  0  0  0  0  0  0  0  0  0  0  0
  151.1093  142.3468  155.3572 H   0  0  0  0  0  0  0  0  0  0  0  0
  149.5368  142.3541  156.1203 H   0  0  0  0  0  0  0  0  0  0  0  0
  152.9548  142.7379  161.1863 H   0  0  0  0  0  0  0  0  0  0  0  0
  152.8300  145.2101  160.9586 H   0  0  0  0  0  0  0  0  0  0  0  0
  151.8370  146.2393  158.9231 H   0  0  0  0  0  0  0  0  0  0  0  0
  150.9593  144.7847  157.0912 H   0  0  0  0  0  0  0  0  0  0  0  0
  149.1601  138.1613  154.3414 H   0  0  0  0  0  0  0  0  0  0  0  0
  147.2529  138.0603  152.7606 H   0  0  0  0  0  0  0  0  0  0  0  0
  146.0551  140.1427  152.1124 H   0  0  0  0  0  0  0  0  0  0  0  0
  146.7716  142.3322  153.0528 H   0  0  0  0  0  0  0  0  0  0  0  0
  148.6771  142.4434  154.6366 H   0  0  0  0  0  0  0  0  0  0  0  0
  1  2  1  0  0  0  0
  1 19  1  0  0  0  0
  2  3  1  0  0  0  0
  2 13  1  0  0  0  0
  2 20  1  0  0  0  0
  3  4  1  0  0  0  0
  3 21  1  0  0  0  0
  3 22  1  0  0  0  0
  4 12  1  0  0  0  0
  4  5  1  0  0  0  0
  5  6  2  0  0  0  0
  6  7  1  0  0  0  0
  7 12  2  0  0  0  0
  7  8  1  0  0  0  0
  8  9  2  0  0  0  0
  8 23  1  0  0  0  0
  9 10  1  0  0  0  0
  9 24  1  0  0  0  0
 10 11  2  0  0  0  0
 10 25  1  0  0  0  0
 11 12  1  0  0  0  0
 11 26  1  0  0  0  0
 13 18  1  0  0  0  0
 13 14  2  0  0  0  0
 14 15  1  0  0  0  0
 14 27  1  0  0  0  0
 15 16  2  0  0  0  0
 15 28  1  0  0  0  0
 16 17  1  0  0  0  0
 16 29  1  0  0  0  0
 17 18  2  0  0  0  0
 17 30  1  0  0  0  0
 18 31  1  0  0  0  0
M  END
> <s_m_source_file>
AV-unprocessed.smi

> <i_m_source_file_index>
2989

> <i_lp_mmshare_version>
43012

> <i_f3d_flags>
0

> <s_epik_input>
W2NIXTFbY0hdW2NIXVtjSF1bY0hdYzFbQ0BIXShbT0hdKVtDSDJdbihubjIpYyhjMjMpW2NIXVtjSF1bY0hdW2NIXTM=

> <s_epik_cmdline>
J2VwaWtfcHl0aG9uJywgJy1waCcsICc3LjAnLCAnLXRuJywgJzgnLCAnLW1hJywgJzIwMCcsICctbWV0YWxfYmluZGluZycsICctaW1hZScsICc8aW5maWxlLm1hZT4nLCAnLW9tYWUnLCAnPG91dGZpbGUubWFlPic=

> <r_lp_tautomer_probability>
1

> <r_epik_Ionization_Penalty>
4.09993e-05

> <r_epik_Ionization_Penalty_Charging>
0

> <r_epik_Ionization_Penalty_Neutral>
4.09993e-05

> <r_epik_State_Penalty>
-0

> <r_epik_Charging_Adjusted_Penalty>
0

> <i_epik_Tot_Q>
0

> <i_epik_Tot_abs_Q>
0

> <r_epik_Metal_State_Penalty>
-0

> <b_epik_Metal_Only>
0

> <s_lp_Force_Field>
OPLS_2005

> <r_lp_Energy>
11.6495

> <b_lp_Chiralities_Consistent>
1

> <s_lp_Variant>
AV-unprocessed.smi:2989-2

> <Gold.Version>
5.8.1

> <Gold.Id.Protein>
6NUR|6NUR_protein|mol2

> <Gold.PLP.Fitness>
45.0775

> <Gold.PLP.PLP>
-42.5844

> <Gold.PLP.part.hbond>
-1.0000

> <Gold.PLP.part.metal>
0.0000

> <Gold.PLP.part.buried>
-4.8327

> <Gold.PLP.part.nonpolar>
-37.6597

> <Gold.PLP.part.repulsive>
0.0000

> <Gold.PLP.ligand.clash>
0.0000

> <Gold.PLP.ligand.torsion>
0.2635

> <Gold.PLP.Chemscore.Hbond>
1.0000

> <Gold.PLP.Chemscore.CHOScore>
0.0000

> <Gold.PLP.Chemscore.Metal>
0.0000

> <Gold.Chemscore.Hbonds>
donor molecule, donor type, donor heavy atom, donor atom, acceptor molecule, acceptor atom, score
      P1  H  7989  7998       L1     1  1.00

> <Gold.PLP.Chemscore.Internal.Correction>
0.0201

> <Gold.Rescore>
     Score         DG    S(hbond)    S(metal)    S(lipo)     H(rot)  DE(clash)    DE(int)     intcor
     17.73     -18.20       0.81        0.00     123.89       1.76       0.13       0.34       ----

> <Gold.Chemscore.Fitness>
17.7299

> <Gold.Chemscore.DG>
-18.1979

> <Gold.Chemscore.ZeroCoef>
-5.4800

> <Gold.Chemscore.Hbond>
0.8140

> <Gold.Chemscore.Metal>
0.0000

> <Gold.Chemscore.Lipo>
123.8867

> <Gold.Chemscore.Internal_Hbond>
0.0000

> <Gold.Chemscore.DEClash>
0.1285

> <Gold.Chemscore.DEInternal>
0.3396

> <Gold.Chemscore.Rot>
1.7561

> <Gold.Chemscore.Internal.Correction>
   9.000000E+99

> <Gold.Chemscore.Hbonds>
donor molecule, donor type, donor heavy atom, donor atom, acceptor molecule, acceptor atom, score
      P1  H  7989  7998       L1     1  0.39

> <Gold.Chemscore.Hbond.Weighted>
-2.7187

> <Gold.Chemscore.Metal.Weighted>
-0.0000

> <Gold.Chemscore.Lipo.Weighted>
-14.4947

> <Gold.Chemscore.Internal_Hbond.Weighted>
0.0000

> <Gold.Chemscore.DEClash.Weighted>
0.1285

> <Gold.Chemscore.DEInternal.Weighted>
0.3396

> <Gold.Chemscore.Rot.Weighted>
4.4955

> <Gold.Chemscore.Internal.Correction.Weighted>
   9.000000E+99

> <Gold.Protein.RotatedTorsions>
[ 6907 6896 6895 6894 ] final   39.98 input  -60.11 | X-H torsion
[ 7974 7965 7964 7962 ] final  144.23 input  175.53 | X-H torsion
[ 8008 7997 7996 7995 ] final   94.43 input   59.86 | X-H torsion
[ 10167 10162 10161 10158 ] final   63.62 input  -65.29 | X-H torsion
[ 10718 10713 10712 10709 ] final  -65.76 input   66.30 | X-H torsion
[ 10763 10752 10751 10750 ] final  -36.48 input  -60.55 | X-H torsion
[ 11005 11000 10999 10996 ] final   25.36 input  -57.11 | X-H torsion

> <Gold.Protein.ActiveResidues>
 VAL166  LYS551  ARG553  GLY616  TRP617  ASP618  TYR619  PRO620  LYS621  CYS622 
 ASP623  PHE694  ASN695  SER759  ASP760  ASP761  ALA762  ILE779  LEU786  VAL792 
 PHE793  MET794  SER795  GLU796  ALA797  LYS798  CYS799  TRP800  GLU811  SER814 

> <Gold.Protein.RotatedAtoms>
  152.1766  134.8789  160.0529 H   0  0  0  0  0  0  0  0  0  0  0  0  # atno 6907 bound_to 6896
  151.9729  133.3727  159.4086 H   0  0  0  0  0  0  0  0  0  0  0  0  # atno 6908 bound_to 6896
  150.6910  134.4044  159.5177 H   0  0  0  0  0  0  0  0  0  0  0  0  # atno 6909 bound_to 6896
  144.8853  139.5638  143.5824 H   0  0  0  0  0  0  0  0  0  0  0  0  # atno 7974 bound_to 7965
  156.0578  140.3300  155.7426 H   0  0  0  0  0  0  0  0  0  0  0  0  # atno 8008 bound_to 7997
  155.5502  140.0609  157.2869 H   0  0  0  0  0  0  0  0  0  0  0  0  # atno 8009 bound_to 7997
  154.4466  140.1895  156.0667 H   0  0  0  0  0  0  0  0  0  0  0  0  # atno 8010 bound_to 7997
  140.1310  144.4643  150.6864 H   0  0  0  0  0  0  0  0  0  0  0  0  # atno 10167 bound_to 10162
  156.0651  130.4252  150.1610 H   0  0  0  0  0  0  0  0  0  0  0  0  # atno 10718 bound_to 10713
  153.8804  135.6822  153.4767 H   0  0  0  0  0  0  0  0  0  0  0  0  # atno 10763 bound_to 10752
  153.1237  135.4728  154.9234 H   0  0  0  0  0  0  0  0  0  0  0  0  # atno 10764 bound_to 10752
  154.7671  135.3227  154.8216 H   0  0  0  0  0  0  0  0  0  0  0  0  # atno 10765 bound_to 10752
  140.3486  134.2253  155.7682 H   0  0  0  0  0  0  0  0  0  0  0  0  # atno 11005 bound_to 11000
  146.3020  139.7458  142.9084 LP  0  0  0  0  0  0  0  0  0  0  0  0  # atno 17320 bound_to 7965
  145.3880  141.0368  143.3140 LP  0  0  0  0  0  0  0  0  0  0  0  0  # atno 17321 bound_to 7965
  140.6817  143.2330  151.5368 LP  0  0  0  0  0  0  0  0  0  0  0  0  # atno 17342 bound_to 10162
  139.5519  144.2373  152.1546 LP  0  0  0  0  0  0  0  0  0  0  0  0  # atno 17343 bound_to 10162
  156.9671  130.9823  151.3467 LP  0  0  0  0  0  0  0  0  0  0  0  0  # atno 17370 bound_to 10713
  157.5687  130.8295  149.8362 LP  0  0  0  0  0  0  0  0  0  0  0  0  # atno 17371 bound_to 10713
  141.2018  133.7953  157.0421 LP  0  0  0  0  0  0  0  0  0  0  0  0  # atno 17394 bound_to 11000
  140.0721  134.9696  157.1485 LP  0  0  0  0  0  0  0  0  0  0  0  0  # atno 17395 bound_to 11000

$$$$
