AV-unprocessed.smi:109|AV-procd|sdf|1046|dock3
  -GOLD-   2262018 83D 1   1.00000     0.00000
 Structure written by MMmdl.
 58 61  0  0  0  0  0  0  0  0  1 V2000
  150.2570  131.7453  158.5863 O   0  0  0  0  0  0  0  0  0  0  0  0
  148.9459  131.5283  159.0608 C   0  0  0  0  0  0  0  0  0  0  0  0
  147.9759  132.5135  158.3892 C   0  0  0  0  0  0  0  0  0  0  0  0
  148.3117  133.9894  158.6979 C   0  0  1  0  0  0  0  0  0  0  0  0
  147.9674  134.8244  157.5475 N   0  0  0  0  0  0  0  0  0  0  0  0
  148.2805  134.4595  156.2848 C   0  0  0  0  0  0  0  0  0  0  0  0
  149.4954  134.7413  155.7463 N   0  0  0  0  0  0  0  0  0  0  0  0
  149.7795  134.3554  154.4991 C   0  0  0  0  0  0  0  0  0  0  0  0
  149.0096  133.6876  153.6377 N   0  0  0  0  0  0  0  0  0  0  0  0
  147.7859  133.4039  154.1722 C   0  0  0  0  0  0  0  0  0  0  0  0
  147.3490  133.7549  155.4798 C   0  0  0  0  0  0  0  0  0  0  0  0
  146.0522  133.3015  155.6816 N   0  0  0  0  0  0  0  0  0  0  0  0
  145.7454  132.7121  154.5574 C   0  0  0  0  0  0  0  0  0  0  0  0
  146.7320  132.7207  153.5968 N   0  0  0  0  0  0  0  0  0  0  0  0
  146.6738  132.1091  152.2314 C   0  0  1  0  0  0  0  0  0  0  0  0
  145.4114  131.5601  152.0209 O   0  0  0  0  0  0  0  0  0  0  0  0
  145.0018  131.7385  150.6653 C   0  0  1  0  0  0  0  0  0  0  0  0
  143.6598  132.4895  150.6772 C   0  0  0  0  0  0  0  0  0  0  0  0
  142.8875  132.1350  149.5494 O   0  0  0  0  0  0  0  0  0  0  0  0
  146.1331  132.5161  149.9667 C   0  0  2  0  0  0  0  0  0  0  0  0
  146.9405  131.6114  149.2377 O   0  0  0  0  0  0  0  0  0  0  0  0
  146.9279  133.1240  151.1100 C   0  0  1  0  0  0  0  0  0  0  0  0
  146.4709  134.4304  151.4113 O   0  0  0  0  0  0  0  0  0  0  0  0
  147.6490  134.5367  159.9919 C   0  0  0  0  0  0  0  0  0  0  0  0
  148.1742  135.9333  160.3892 C   0  0  0  0  0  0  0  0  0  0  0  0
  147.4231  136.4885  161.6104 C   0  0  0  0  0  0  0  0  0  0  0  0
  147.5070  135.5204  162.8008 C   0  0  0  0  0  0  0  0  0  0  0  0
  146.9895  134.1253  162.4176 C   0  0  0  0  0  0  0  0  0  0  0  0
  147.7371  133.5696  161.1944 C   0  0  0  0  0  0  0  0  0  0  0  0
  147.4134  131.3074  152.2457 H   0  0  0  0  0  0  0  0  0  0  0  0
  144.8568  130.7545  150.2160 H   0  0  0  0  0  0  0  0  0  0  0  0
  145.7641  133.2692  149.2688 H   0  0  0  0  0  0  0  0  0  0  0  0
  147.9970  133.1815  150.9010 H   0  0  0  0  0  0  0  0  0  0  0  0
  150.7742  132.1069  159.2899 H   0  0  0  0  0  0  0  0  0  0  0  0
  148.6578  130.4987  158.8466 H   0  0  0  0  0  0  0  0  0  0  0  0
  148.9408  131.6501  160.1443 H   0  0  0  0  0  0  0  0  0  0  0  0
  147.9753  132.3464  157.3114 H   0  0  0  0  0  0  0  0  0  0  0  0
  146.9693  132.2804  158.7341 H   0  0  0  0  0  0  0  0  0  0  0  0
  149.3917  134.0325  158.8417 H   0  0  0  0  0  0  0  0  0  0  0  0
  147.5198  135.7030  157.7657 H   0  0  0  0  0  0  0  0  0  0  0  0
  150.7646  134.6159  154.1414 H   0  0  0  0  0  0  0  0  0  0  0  0
  144.7852  132.2428  154.3993 H   0  0  0  0  0  0  0  0  0  0  0  0
  143.0927  132.2297  151.5715 H   0  0  0  0  0  0  0  0  0  0  0  0
  143.8109  133.5691  150.6950 H   0  0  0  0  0  0  0  0  0  0  0  0
  142.2887  132.8417  149.3620 H   0  0  0  0  0  0  0  0  0  0  0  0
  147.7275  131.4473  149.7347 H   0  0  0  0  0  0  0  0  0  0  0  0
  147.1865  135.0339  151.2814 H   0  0  0  0  0  0  0  0  0  0  0  0
  146.5887  134.6706  159.7718 H   0  0  0  0  0  0  0  0  0  0  0  0
  149.2380  135.8914  160.6219 H   0  0  0  0  0  0  0  0  0  0  0  0
  148.0682  136.6240  159.5520 H   0  0  0  0  0  0  0  0  0  0  0  0
  147.8352  137.4584  161.8906 H   0  0  0  0  0  0  0  0  0  0  0  0
  146.3777  136.6603  161.3511 H   0  0  0  0  0  0  0  0  0  0  0  0
  148.5414  135.4466  163.1389 H   0  0  0  0  0  0  0  0  0  0  0  0
  146.9339  135.9128  163.6412 H   0  0  0  0  0  0  0  0  0  0  0  0
  147.0994  133.4435  163.2614 H   0  0  0  0  0  0  0  0  0  0  0  0
  145.9220  134.1783  162.1999 H   0  0  0  0  0  0  0  0  0  0  0  0
  147.3206  132.5971  160.9303 H   0  0  0  0  0  0  0  0  0  0  0  0
  148.7792  133.3974  161.4643 H   0  0  0  0  0  0  0  0  0  0  0  0
  1  2  1  0  0  0  0
  1 34  1  0  0  0  0
  2  3  1  0  0  0  0
  2 35  1  0  0  0  0
  2 36  1  0  0  0  0
  3  4  1  0  0  0  0
  3 37  1  0  0  0  0
  3 38  1  0  0  0  0
  4  5  1  0  0  0  0
  4 24  1  0  0  0  0
  4 39  1  0  0  0  0
  5  6  1  0  0  0  0
  5 40  1  0  0  0  0
  6 11  1  0  0  0  0
  6  7  2  0  0  0  0
  7  8  1  0  0  0  0
  8  9  2  0  0  0  0
  8 41  1  0  0  0  0
  9 10  1  0  0  0  0
 10 14  1  0  0  0  0
 10 11  2  0  0  0  0
 11 12  1  0  0  0  0
 12 13  2  0  0  0  0
 13 14  1  0  0  0  0
 13 42  1  0  0  0  0
 14 15  1  0  0  0  0
 15 30  1  0  0  0  0
 15 22  1  0  0  0  0
 15 16  1  0  0  0  0
 16 17  1  0  0  0  0
 17 31  1  0  0  0  0
 17 18  1  0  0  0  0
 17 20  1  0  0  0  0
 18 19  1  0  0  0  0
 18 43  1  0  0  0  0
 18 44  1  0  0  0  0
 19 45  1  0  0  0  0
 20 32  1  0  0  0  0
 20 21  1  0  0  0  0
 20 22  1  0  0  0  0
 21 46  1  0  0  0  0
 22 33  1  0  0  0  0
 22 23  1  0  0  0  0
 23 47  1  0  0  0  0
 24 29  1  0  0  0  0
 24 25  1  0  0  0  0
 24 48  1  0  0  0  0
 25 26  1  0  0  0  0
 25 49  1  0  0  0  0
 25 50  1  0  0  0  0
 26 27  1  0  0  0  0
 26 51  1  0  0  0  0
 26 52  1  0  0  0  0
 27 28  1  0  0  0  0
 27 53  1  0  0  0  0
 27 54  1  0  0  0  0
 28 29  1  0  0  0  0
 28 55  1  0  0  0  0
 28 56  1  0  0  0  0
 29 57  1  0  0  0  0
 29 58  1  0  0  0  0
M  END
> <s_m_source_file>
AV-unprocessed.smi

> <i_m_source_file_index>
109

> <i_lp_mmshare_version>
43012

> <i_f3d_flags>
0

> <s_epik_input>
W0NIMl0xW0NIMl1bQ0gyXVtDSDJdW0NIMl1bQ0hdMVtDQEhdKFtDSDJdW0NIMl1bT0hdKVtOSF1jKG5bY0hdbjIpYyhjMjMpbltjSF1uM1tDQEBIXTRPW0NASF0oW0NIMl1bT0hdKVtDQEBIXShbT0hdKVtDQEhdNFtPSF0=

> <s_epik_cmdline>
J2VwaWtfcHl0aG9uJywgJy1waCcsICc3LjAnLCAnLXRuJywgJzgnLCAnLW1hJywgJzIwMCcsICctbWV0YWxfYmluZGluZycsICctaW1hZScsICc8aW5maWxlLm1hZT4nLCAnLW9tYWUnLCAnPG91dGZpbGUubWFlPic=

> <r_lp_tautomer_probability>
1

> <r_epik_Ionization_Penalty>
0.000793976

> <r_epik_Ionization_Penalty_Charging>
0

> <r_epik_Ionization_Penalty_Neutral>
0.000793976

> <r_epik_State_Penalty>
-0

> <r_epik_Charging_Adjusted_Penalty>
0

> <i_epik_Tot_Q>
0

> <i_epik_Tot_abs_Q>
0

> <r_epik_Metal_State_Penalty>
-0

> <b_epik_Metal_Only>
0

> <s_epik_Chemistry_Notes>
This compound contains an acetal/aminal-like group ( X-CH(R)-Y where X, Y are N, S, or O) that may be acid/base labile, releasing an aldehyde.

> <s_lp_Force_Field>
OPLS_2005

> <r_lp_Energy>
52.4563

> <b_lp_Chiralities_Consistent>
1

> <s_lp_Variant>
AV-unprocessed.smi:109-16

> <Gold.Version>
5.8.1

> <Gold.Id.Protein>
6NUR|6NUR_protein|mol2

> <Gold.PLP.Fitness>
53.3401

> <Gold.PLP.PLP>
-44.2614

> <Gold.PLP.part.hbond>
-4.9699

> <Gold.PLP.part.metal>
0.0000

> <Gold.PLP.part.buried>
-6.1230

> <Gold.PLP.part.nonpolar>
-35.0444

> <Gold.PLP.part.repulsive>
0.9069

> <Gold.PLP.ligand.clash>
0.0000

> <Gold.PLP.ligand.torsion>
1.7820

> <Gold.PLP.Chemscore.Hbond>
3.1612

> <Gold.PLP.Chemscore.CHOScore>
1.0000

> <Gold.PLP.Chemscore.Metal>
0.0000

> <Gold.Chemscore.Hbonds>
donor molecule, donor type, donor heavy atom, donor atom, acceptor molecule, acceptor atom, score
      L1  H    19    45       P1 10186  0.99
      L1  H    21    46       P1 10747  0.83
      L1  H    23    47       P1  7948  0.68
      P1  H 10785 10796       L1    19  0.65
      L1  C    13    42       P1 10957  1.00

> <Gold.PLP.Chemscore.Internal.Correction>
0.1591

> <Gold.Rescore>
     Score         DG    S(hbond)    S(metal)    S(lipo)     H(rot)  DE(clash)    DE(int)     intcor
     10.40     -12.62       3.11        0.00      91.80       5.47       0.52       1.70       ----

> <Gold.Chemscore.Fitness>
10.3971

> <Gold.Chemscore.DG>
-12.6153

> <Gold.Chemscore.ZeroCoef>
-5.4800

> <Gold.Chemscore.Hbond>
3.1102

> <Gold.Chemscore.Metal>
0.0000

> <Gold.Chemscore.Lipo>
91.8000

> <Gold.Chemscore.Internal_Hbond>
0.0000

> <Gold.Chemscore.DEClash>
0.5158

> <Gold.Chemscore.DEInternal>
1.7025

> <Gold.Chemscore.Rot>
5.4662

> <Gold.Chemscore.Internal.Correction>
   9.000000E+99

> <Gold.Chemscore.Hbonds>
donor molecule, donor type, donor heavy atom, donor atom, acceptor molecule, acceptor atom, score
      L1  H    19    45       P1 10186  0.92
      L1  H    21    46       P1 10747  0.80
      L1  H    23    47       P1  7948  0.44
      P1  H 10785 10796       L1    19  0.61

> <Gold.Chemscore.Hbond.Weighted>
-10.3882

> <Gold.Chemscore.Metal.Weighted>
-0.0000

> <Gold.Chemscore.Lipo.Weighted>
-10.7406

> <Gold.Chemscore.Internal_Hbond.Weighted>
0.0000

> <Gold.Chemscore.DEClash.Weighted>
0.5158

> <Gold.Chemscore.DEInternal.Weighted>
1.7025

> <Gold.Chemscore.Rot.Weighted>
13.9935

> <Gold.Chemscore.Internal.Correction.Weighted>
   9.000000E+99

> <Gold.Protein.RotatedTorsions>
[ 6907 6896 6895 6894 ] final -112.57 input  -60.11 | X-H torsion
[ 7974 7965 7964 7962 ] final -177.13 input  175.53 | X-H torsion
[ 8008 7997 7996 7995 ] final -159.47 input   59.86 | X-H torsion
[ 10167 10162 10161 10158 ] final  141.38 input  -65.29 | X-H torsion
[ 10718 10713 10712 10709 ] final  -24.95 input   66.30 | X-H torsion
[ 10763 10752 10751 10750 ] final -113.98 input  -60.55 | X-H torsion
[ 11005 11000 10999 10996 ] final   93.25 input  -57.11 | X-H torsion

> <Gold.Protein.ActiveResidues>
 VAL166  LYS551  ARG553  GLY616  TRP617  ASP618  TYR619  PRO620  LYS621  CYS622 
 ASP623  PHE694  ASN695  SER759  ASP760  ASP761  ALA762  ILE779  LEU786  VAL792 
 PHE793  MET794  SER795  GLU796  ALA797  LYS798  CYS799  TRP800  GLU811  SER814 

> <Gold.Protein.RotatedAtoms>
  150.7768  133.9070  159.3357 H   0  0  0  0  0  0  0  0  0  0  0  0  # atno 6907 bound_to 6896
  151.6943  135.0939  160.0249 H   0  0  0  0  0  0  0  0  0  0  0  0  # atno 6908 bound_to 6896
  152.3806  133.6503  159.6194 H   0  0  0  0  0  0  0  0  0  0  0  0  # atno 6909 bound_to 6896
  144.7127  140.1066  143.6413 H   0  0  0  0  0  0  0  0  0  0  0  0  # atno 7974 bound_to 7965
  155.7630  140.0841  157.2146 H   0  0  0  0  0  0  0  0  0  0  0  0  # atno 8008 bound_to 7997
  154.4002  140.1539  156.2911 H   0  0  0  0  0  0  0  0  0  0  0  0  # atno 8009 bound_to 7997
  155.8821  140.3420  155.5898 H   0  0  0  0  0  0  0  0  0  0  0  0  # atno 8010 bound_to 7997
  139.5022  144.6175  151.6129 H   0  0  0  0  0  0  0  0  0  0  0  0  # atno 10167 bound_to 10162
  156.4708  130.4524  149.6870 H   0  0  0  0  0  0  0  0  0  0  0  0  # atno 10718 bound_to 10713
  154.8420  135.4434  154.1434 H   0  0  0  0  0  0  0  0  0  0  0  0  # atno 10763 bound_to 10752
  153.2613  135.6936  153.7581 H   0  0  0  0  0  0  0  0  0  0  0  0  # atno 10764 bound_to 10752
  153.6857  135.3395  155.3165 H   0  0  0  0  0  0  0  0  0  0  0  0  # atno 10765 bound_to 10752
  139.8812  134.8779  156.3690 H   0  0  0  0  0  0  0  0  0  0  0  0  # atno 11005 bound_to 11000
  145.9491  139.2721  143.1223 LP  0  0  0  0  0  0  0  0  0  0  0  0  # atno 17320 bound_to 7965
  145.9342  140.9027  143.0341 LP  0  0  0  0  0  0  0  0  0  0  0  0  # atno 17321 bound_to 7965
  140.5867  143.9851  150.6300 LP  0  0  0  0  0  0  0  0  0  0  0  0  # atno 17342 bound_to 10162
  140.3018  143.3255  152.0964 LP  0  0  0  0  0  0  0  0  0  0  0  0  # atno 17343 bound_to 10162
  156.3620  130.7486  151.2460 LP  0  0  0  0  0  0  0  0  0  0  0  0  # atno 17370 bound_to 10713
  157.7491  131.0347  150.4331 LP  0  0  0  0  0  0  0  0  0  0  0  0  # atno 17371 bound_to 10713
  140.9477  133.7472  156.0230 LP  0  0  0  0  0  0  0  0  0  0  0  0  # atno 17394 bound_to 11000
  140.8143  134.3363  157.5402 LP  0  0  0  0  0  0  0  0  0  0  0  0  # atno 17395 bound_to 11000

$$$$
