AV-unprocessed.smi:2925|AV-procd|sdf|11223|dock4
  -GOLD-   2272016113D 1   1.00000     0.00000
 Structure written by MMmdl.
 44 45  0  0  0  0  0  0  0  0  1 V2000
  151.3079  138.0193  154.0435 C   0  0  0  0  0  0  0  0  0  0  0  0
  151.9215  139.0918  154.9556 C   0  0  0  0  0  0  0  0  0  0  0  0
  150.8765  139.9124  155.7384 C   0  0  1  0  0  0  0  0  0  0  0  0
  151.5583  140.8876  156.5901 N   0  0  0  0  0  0  0  0  0  0  0  0
  151.7256  140.7886  157.9165 C   0  0  0  0  0  0  0  0  0  0  0  0
  151.3177  139.8436  158.5929 O   0  0  0  0  0  0  0  0  0  0  0  0
  152.4058  141.8412  158.4036 N   0  0  0  0  0  0  0  0  0  0  0  0
  152.7642  142.0404  159.7457 C   0  0  0  0  0  0  0  0  0  0  0  0
  152.1705  143.0428  160.4451 C   0  0  0  0  0  0  0  0  0  0  0  0
  151.1576  143.9770  159.8024 C   0  0  0  0  0  0  0  0  0  0  0  0
  152.5312  143.2407  161.8339 C   0  0  0  0  0  0  0  0  0  0  0  0
  153.4327  142.4291  162.4029 C   0  0  0  0  0  0  0  0  0  0  0  0
  154.0292  141.3774  161.6927 N   0  0  0  0  0  0  0  0  0  0  0  0
  154.9896  140.5338  162.4087 C   0  0  0  0  0  0  0  0  0  0  0  0
  153.7195  141.1080  160.3918 C   0  0  0  0  0  0  0  0  0  0  0  0
  154.2046  140.1312  159.8161 O   0  0  0  0  0  0  0  0  0  0  0  0
  149.8850  140.6297  154.7972 C   0  0  2  0  0  0  0  0  0  0  0  0
  148.9227  141.5998  155.4874 C   0  0  0  0  0  0  0  0  0  0  0  0
  147.7811  141.6550  154.4996 C   0  0  0  0  0  0  0  0  0  0  0  0
  147.7117  140.2073  154.0246 C   0  0  0  0  0  0  0  0  0  0  0  0
  149.0327  139.6860  154.1509 O   0  0  0  0  0  0  0  0  0  0  0  0
  152.0834  137.5083  153.4726 H   0  0  0  0  0  0  0  0  0  0  0  0
  150.6093  138.4618  153.3328 H   0  0  0  0  0  0  0  0  0  0  0  0
  150.7699  137.2632  154.6159 H   0  0  0  0  0  0  0  0  0  0  0  0
  152.6176  138.6195  155.6502 H   0  0  0  0  0  0  0  0  0  0  0  0
  152.5200  139.7636  154.3394 H   0  0  0  0  0  0  0  0  0  0  0  0
  150.3078  139.2152  156.3567 H   0  0  0  0  0  0  0  0  0  0  0  0
  151.9329  141.7030  156.1275 H   0  0  0  0  0  0  0  0  0  0  0  0
  152.7956  142.4941  157.7401 H   0  0  0  0  0  0  0  0  0  0  0  0
  150.8092  144.7291  160.5106 H   0  0  0  0  0  0  0  0  0  0  0  0
  150.2895  143.4179  159.4524 H   0  0  0  0  0  0  0  0  0  0  0  0
  151.6013  144.4965  158.9524 H   0  0  0  0  0  0  0  0  0  0  0  0
  152.0864  144.0394  162.4092 H   0  0  0  0  0  0  0  0  0  0  0  0
  153.7432  142.5294  163.4328 H   0  0  0  0  0  0  0  0  0  0  0  0
  155.9335  140.4752  161.8645 H   0  0  0  0  0  0  0  0  0  0  0  0
  154.5980  139.5217  162.5205 H   0  0  0  0  0  0  0  0  0  0  0  0
  155.2178  140.9095  163.4066 H   0  0  0  0  0  0  0  0  0  0  0  0
  150.4296  141.1685  154.0199 H   0  0  0  0  0  0  0  0  0  0  0  0
  148.5738  141.1877  156.4355 H   0  0  0  0  0  0  0  0  0  0  0  0
  149.3666  142.5767  155.6815 H   0  0  0  0  0  0  0  0  0  0  0  0
  146.8471  142.0056  154.9396 H   0  0  0  0  0  0  0  0  0  0  0  0
  148.0374  142.3129  153.6681 H   0  0  0  0  0  0  0  0  0  0  0  0
  147.0491  139.6262  154.6669 H   0  0  0  0  0  0  0  0  0  0  0  0
  147.3478  140.1251  153.0002 H   0  0  0  0  0  0  0  0  0  0  0  0
  1  2  1  0  0  0  0
  1 22  1  0  0  0  0
  1 23  1  0  0  0  0
  1 24  1  0  0  0  0
  2  3  1  0  0  0  0
  2 25  1  0  0  0  0
  2 26  1  0  0  0  0
  3  4  1  0  0  0  0
  3 17  1  0  0  0  0
  3 27  1  0  0  0  0
  4  5  1  0  0  0  0
  4 28  1  0  0  0  0
  5  6  2  0  0  0  0
  5  7  1  0  0  0  0
  7  8  1  0  0  0  0
  7 29  1  0  0  0  0
  8 15  1  0  0  0  0
  8  9  2  0  0  0  0
  9 10  1  0  0  0  0
  9 11  1  0  0  0  0
 10 30  1  0  0  0  0
 10 31  1  0  0  0  0
 10 32  1  0  0  0  0
 11 12  2  0  0  0  0
 11 33  1  0  0  0  0
 12 13  1  0  0  0  0
 12 34  1  0  0  0  0
 13 14  1  0  0  0  0
 13 15  1  0  0  0  0
 14 35  1  0  0  0  0
 14 36  1  0  0  0  0
 14 37  1  0  0  0  0
 15 16  2  0  0  0  0
 17 21  1  0  0  0  0
 17 18  1  0  0  0  0
 17 38  1  0  0  0  0
 18 19  1  0  0  0  0
 18 39  1  0  0  0  0
 18 40  1  0  0  0  0
 19 20  1  0  0  0  0
 19 41  1  0  0  0  0
 19 42  1  0  0  0  0
 20 21  1  0  0  0  0
 20 43  1  0  0  0  0
 20 44  1  0  0  0  0
M  END
> <s_m_source_file>
AV-unprocessed.smi

> <i_m_source_file_index>
2925

> <i_lp_mmshare_version>
43012

> <i_f3d_flags>
0

> <s_epik_input>
TzFbQ0gyXVtDSDJdW0NIMl1bQ0BIXTFbQ0BIXShbQ0gyXVtDSDNdKVtOSF1DKD1PKVtOSF1jMmMoW0NIM10pW2NIXVtjSF1uKFtDSDNdKWMyPU8=

> <s_epik_cmdline>
J2VwaWtfcHl0aG9uJywgJy1waCcsICc3LjAnLCAnLXRuJywgJzgnLCAnLW1hJywgJzIwMCcsICctbWV0YWxfYmluZGluZycsICctaW1hZScsICc8aW5maWxlLm1hZT4nLCAnLW9tYWUnLCAnPG91dGZpbGUubWFlPic=

> <r_lp_tautomer_probability>
1

> <r_epik_Ionization_Penalty>
2.58789e-05

> <r_epik_Ionization_Penalty_Charging>
6.72534e-06

> <r_epik_Ionization_Penalty_Neutral>
1.91535e-05

> <r_epik_State_Penalty>
-0

> <r_epik_Charging_Adjusted_Penalty>
6.72534e-06

> <i_epik_Tot_Q>
0

> <i_epik_Tot_abs_Q>
0

> <r_epik_Metal_State_Penalty>
-0

> <b_epik_Metal_Only>
0

> <s_lp_Force_Field>
OPLS_2005

> <r_lp_Energy>
34.616

> <b_lp_Chiralities_Consistent>
1

> <s_lp_Variant>
AV-unprocessed.smi:2925-2

> <Gold.Version>
5.8.1

> <Gold.Id.Protein>
6NUR|6NUR_protein|mol2

> <Gold.PLP.Fitness>
46.6885

> <Gold.PLP.PLP>
-47.9083

> <Gold.PLP.part.hbond>
0.0000

> <Gold.PLP.part.metal>
0.0000

> <Gold.PLP.part.buried>
-1.1449

> <Gold.PLP.part.nonpolar>
-45.2976

> <Gold.PLP.part.repulsive>
1.0310

> <Gold.PLP.ligand.clash>
0.0000

> <Gold.PLP.ligand.torsion>
0.8988

> <Gold.PLP.Chemscore.Hbond>
0.0000

> <Gold.PLP.Chemscore.CHOScore>
0.0000

> <Gold.PLP.Chemscore.Metal>
0.0000

> <Gold.PLP.Chemscore.Internal.Correction>
0.5779

> <Gold.Rescore>
     Score         DG    S(hbond)    S(metal)    S(lipo)     H(rot)  DE(clash)    DE(int)     intcor
     13.02     -15.18       0.00        0.00     112.66       1.36       0.12       2.04       ----

> <Gold.Chemscore.Fitness>
13.0207

> <Gold.Chemscore.DG>
-15.1848

> <Gold.Chemscore.ZeroCoef>
-5.4800

> <Gold.Chemscore.Hbond>
0.0000

> <Gold.Chemscore.Metal>
0.0000

> <Gold.Chemscore.Lipo>
112.6591

> <Gold.Chemscore.Internal_Hbond>
0.0000

> <Gold.Chemscore.DEClash>
0.1232

> <Gold.Chemscore.DEInternal>
2.0409

> <Gold.Chemscore.Rot>
1.3579

> <Gold.Chemscore.Internal.Correction>
   9.000000E+99

> <Gold.Chemscore.Hbond.Weighted>
-0.0000

> <Gold.Chemscore.Metal.Weighted>
-0.0000

> <Gold.Chemscore.Lipo.Weighted>
-13.1811

> <Gold.Chemscore.Internal_Hbond.Weighted>
0.0000

> <Gold.Chemscore.DEClash.Weighted>
0.1232

> <Gold.Chemscore.DEInternal.Weighted>
2.0409

> <Gold.Chemscore.Rot.Weighted>
3.4763

> <Gold.Chemscore.Internal.Correction.Weighted>
   9.000000E+99

> <Gold.Protein.RotatedTorsions>
[ 6907 6896 6895 6894 ] final   50.26 input  -60.11 | X-H torsion
[ 7974 7965 7964 7962 ] final -160.41 input  175.53 | X-H torsion
[ 8008 7997 7996 7995 ] final   27.94 input   59.86 | X-H torsion
[ 10167 10162 10161 10158 ] final -138.30 input  -65.29 | X-H torsion
[ 10718 10713 10712 10709 ] final -163.28 input   66.30 | X-H torsion
[ 10763 10752 10751 10750 ] final -152.41 input  -60.55 | X-H torsion
[ 11005 11000 10999 10996 ] final  127.38 input  -57.11 | X-H torsion

> <Gold.Protein.ActiveResidues>
 VAL166  LYS551  ARG553  GLY616  TRP617  ASP618  TYR619  PRO620  LYS621  CYS622 
 ASP623  PHE694  ASN695  SER759  ASP760  ASP761  ALA762  ILE779  LEU786  VAL792 
 PHE793  MET794  SER795  GLU796  ALA797  LYS798  CYS799  TRP800  GLU811  SER814 

> <Gold.Protein.RotatedAtoms>
  152.2999  134.7624  160.0359 H   0  0  0  0  0  0  0  0  0  0  0  0  # atno 6907 bound_to 6896
  151.8141  133.3380  159.3572 H   0  0  0  0  0  0  0  0  0  0  0  0  # atno 6908 bound_to 6896
  150.7269  134.5566  159.5865 H   0  0  0  0  0  0  0  0  0  0  0  0  # atno 6909 bound_to 6896
  144.7428  140.3545  143.6109 H   0  0  0  0  0  0  0  0  0  0  0  0  # atno 7974 bound_to 7965
  155.0509  140.3179  155.4692 H   0  0  0  0  0  0  0  0  0  0  0  0  # atno 8008 bound_to 7997
  156.2835  140.2146  156.5578 H   0  0  0  0  0  0  0  0  0  0  0  0  # atno 8009 bound_to 7997
  154.7212  140.0489  157.0628 H   0  0  0  0  0  0  0  0  0  0  0  0  # atno 8010 bound_to 7997
  139.8492  143.7221  152.2659 H   0  0  0  0  0  0  0  0  0  0  0  0  # atno 10167 bound_to 10162
  156.6224  130.8896  151.2960 H   0  0  0  0  0  0  0  0  0  0  0  0  # atno 10718 bound_to 10713
  154.7996  135.3237  154.7583 H   0  0  0  0  0  0  0  0  0  0  0  0  # atno 10763 bound_to 10752
  153.8254  135.6884  153.4826 H   0  0  0  0  0  0  0  0  0  0  0  0  # atno 10764 bound_to 10752
  153.1705  135.4625  154.9839 H   0  0  0  0  0  0  0  0  0  0  0  0  # atno 10765 bound_to 10752
  139.9505  134.9623  156.8846 H   0  0  0  0  0  0  0  0  0  0  0  0  # atno 11005 bound_to 11000
  145.7241  139.1718  143.2467 LP  0  0  0  0  0  0  0  0  0  0  0  0  # atno 17320 bound_to 7965
  146.1255  140.7254  142.9437 LP  0  0  0  0  0  0  0  0  0  0  0  0  # atno 17321 bound_to 7965
  139.7482  144.7541  151.0546 LP  0  0  0  0  0  0  0  0  0  0  0  0  # atno 17342 bound_to 10162
  140.7789  143.4891  150.9917 LP  0  0  0  0  0  0  0  0  0  0  0  0  # atno 17343 bound_to 10162
  157.7224  130.9576  150.1491 LP  0  0  0  0  0  0  0  0  0  0  0  0  # atno 17370 bound_to 10713
  156.2300  130.3681  149.8455 LP  0  0  0  0  0  0  0  0  0  0  0  0  # atno 17371 bound_to 10713
  140.5732  134.0424  155.7437 LP  0  0  0  0  0  0  0  0  0  0  0  0  # atno 17394 bound_to 11000
  141.1166  133.9530  157.2810 LP  0  0  0  0  0  0  0  0  0  0  0  0  # atno 17395 bound_to 11000

$$$$
