AV-unprocessed.smi:7|AV-procd|sdf|43|dock10
  -GOLD-   2262015163D 1   1.00000     0.00000
 Structure written by MMmdl.
 45 48  0  0  0  0  0  0  0  0  1 V2000
  150.6270  140.6256  154.1572 O   0  0  0  0  0  0  0  0  0  0  0  0
  150.9955  140.4144  155.3132 C   0  0  0  0  0  0  0  0  0  0  0  0
  151.2398  141.5096  156.2808 C   0  0  0  0  0  0  0  0  0  0  0  0
  151.1401  142.8924  156.1299 N   0  0  0  0  0  0  0  0  0  0  0  0
  151.4821  143.3469  157.3351 C   0  0  0  0  0  0  0  0  0  0  0  0
  151.7846  142.3756  158.2167 N   0  0  0  0  0  0  0  0  0  0  0  0
  152.1501  142.6946  159.5445 C   0  0  0  0  0  0  0  0  0  0  0  0
  151.9260  143.9896  160.0634 C   0  0  0  0  0  0  0  0  0  0  0  0
  152.3007  144.2957  161.3865 C   0  0  0  0  0  0  0  0  0  0  0  0
  152.9001  143.3112  162.1957 C   0  0  0  0  0  0  0  0  0  0  0  0
  153.1267  142.0200  161.6815 C   0  0  0  0  0  0  0  0  0  0  0  0
  152.7541  141.7124  160.3585 C   0  0  0  0  0  0  0  0  0  0  0  0
  151.6307  141.1702  157.5471 C   0  0  0  0  0  0  0  0  0  0  0  0
  151.8439  139.9166  158.0730 N   0  0  0  0  0  0  0  0  0  0  0  0
  151.6274  138.9729  157.1939 C   0  0  0  0  0  0  0  0  0  0  0  0
  151.2212  139.1734  155.8400 N   0  0  0  0  0  0  0  0  0  0  0  0
  151.0393  137.9622  155.0245 C   0  0  0  0  0  0  0  0  0  0  0  0
  150.7130  136.7201  155.8922 C   0  0  2  0  0  0  0  0  0  0  0  0
  151.9051  135.9656  156.0182 O   0  0  0  0  0  0  0  0  0  0  0  0
  149.6030  135.8134  155.2912 C   0  0  0  0  0  0  0  0  0  0  0  0
  148.3801  136.5274  155.3530 O   0  0  0  0  0  0  0  0  0  0  0  0
  149.8250  135.4027  153.8233 C   0  0  0  0  0  0  0  0  0  0  0  0
  149.0293  134.1092  153.6587 C   0  0  0  0  0  0  0  0  0  0  0  0
  149.2137  133.3853  154.9924 C   0  0  0  0  0  0  0  0  0  0  0  0
  149.3760  134.4843  156.0542 C   0  0  0  0  0  0  0  0  0  0  0  0
  151.5014  144.4007  157.5728 H   0  0  0  0  0  0  0  0  0  0  0  0
  151.4732  144.7543  159.4493 H   0  0  0  0  0  0  0  0  0  0  0  0
  152.1296  145.2871  161.7798 H   0  0  0  0  0  0  0  0  0  0  0  0
  153.1870  143.5469  163.2101 H   0  0  0  0  0  0  0  0  0  0  0  0
  153.5864  141.2645  162.3016 H   0  0  0  0  0  0  0  0  0  0  0  0
  152.9293  140.7188  159.9724 H   0  0  0  0  0  0  0  0  0  0  0  0
  151.7481  137.9221  157.4623 H   0  0  0  0  0  0  0  0  0  0  0  0
  150.2288  138.1519  154.3192 H   0  0  0  0  0  0  0  0  0  0  0  0
  151.9027  137.7699  154.3841 H   0  0  0  0  0  0  0  0  0  0  0  0
  150.4032  137.0287  156.8920 H   0  0  0  0  0  0  0  0  0  0  0  0
  152.2064  136.0290  156.9117 H   0  0  0  0  0  0  0  0  0  0  0  0
  148.2626  136.8452  156.2351 H   0  0  0  0  0  0  0  0  0  0  0  0
  149.5255  136.1732  153.1114 H   0  0  0  0  0  0  0  0  0  0  0  0
  150.8788  135.1891  153.6413 H   0  0  0  0  0  0  0  0  0  0  0  0
  147.9742  134.3407  153.5064 H   0  0  0  0  0  0  0  0  0  0  0  0
  149.3654  133.5144  152.8089 H   0  0  0  0  0  0  0  0  0  0  0  0
  148.3851  132.7119  155.2139 H   0  0  0  0  0  0  0  0  0  0  0  0
  150.1224  132.7831  154.9544 H   0  0  0  0  0  0  0  0  0  0  0  0
  150.2123  134.2338  156.7072 H   0  0  0  0  0  0  0  0  0  0  0  0
  148.4969  134.5335  156.6991 H   0  0  0  0  0  0  0  0  0  0  0  0
  1  2  2  0  0  0  0
  2 16  1  0  0  0  0
  2  3  1  0  0  0  0
  3 13  2  0  0  0  0
  3  4  1  0  0  0  0
  4  5  2  0  0  0  0
  5  6  1  0  0  0  0
  5 26  1  0  0  0  0
  6  7  1  0  0  0  0
  6 13  1  0  0  0  0
  7 12  1  0  0  0  0
  7  8  2  0  0  0  0
  8  9  1  0  0  0  0
  8 27  1  0  0  0  0
  9 10  2  0  0  0  0
  9 28  1  0  0  0  0
 10 11  1  0  0  0  0
 10 29  1  0  0  0  0
 11 12  2  0  0  0  0
 11 30  1  0  0  0  0
 12 31  1  0  0  0  0
 13 14  1  0  0  0  0
 14 15  2  0  0  0  0
 15 16  1  0  0  0  0
 15 32  1  0  0  0  0
 16 17  1  0  0  0  0
 17 18  1  0  0  0  0
 17 33  1  0  0  0  0
 17 34  1  0  0  0  0
 18 19  1  0  0  0  0
 18 20  1  0  0  0  0
 18 35  1  0  0  0  0
 19 36  1  0  0  0  0
 20 25  1  0  0  0  0
 20 21  1  0  0  0  0
 20 22  1  0  0  0  0
 21 37  1  0  0  0  0
 22 23  1  0  0  0  0
 22 38  1  0  0  0  0
 22 39  1  0  0  0  0
 23 24  1  0  0  0  0
 23 40  1  0  0  0  0
 23 41  1  0  0  0  0
 24 25  1  0  0  0  0
 24 42  1  0  0  0  0
 24 43  1  0  0  0  0
 25 44  1  0  0  0  0
 25 45  1  0  0  0  0
M  END
> <s_m_source_file>
AV-unprocessed.smi

> <i_m_source_file_index>
7

> <i_lp_mmshare_version>
43012

> <i_f3d_flags>
0

> <s_epik_input>
W0NIMl0xW0NIMl1bQ0gyXVtDSDJdQzEoW09IXSlbQ0BASF0oW09IXSlbQ0gyXW4oYzI9TylbY0hdbmMoYzIzKW4oW2NIXW4zKS1jNFtjSF1bY0hdW2NIXVtjSF1bY0hdNA==

> <s_epik_cmdline>
J2VwaWtfcHl0aG9uJywgJy1waCcsICc3LjAnLCAnLXRuJywgJzgnLCAnLW1hJywgJzIwMCcsICctbWV0YWxfYmluZGluZycsICctaW1hZScsICc8aW5maWxlLm1hZT4nLCAnLW9tYWUnLCAnPG91dGZpbGUubWFlPic=

> <r_lp_tautomer_probability>
1

> <r_epik_Ionization_Penalty>
0.000116694

> <r_epik_Ionization_Penalty_Charging>
6.60428e-09

> <r_epik_Ionization_Penalty_Neutral>
0.000116688

> <r_epik_State_Penalty>
-0

> <r_epik_Charging_Adjusted_Penalty>
6.60428e-09

> <i_epik_Tot_Q>
0

> <i_epik_Tot_abs_Q>
0

> <r_epik_Metal_State_Penalty>
-0

> <b_epik_Metal_Only>
0

> <s_lp_Force_Field>
OPLS_2005

> <r_lp_Energy>
55.7438

> <b_lp_Chiralities_Consistent>
1

> <s_lp_Variant>
AV-unprocessed.smi:7-1

> <Gold.Version>
5.8.1

> <Gold.Id.Protein>
6NUR|6NUR_protein|mol2

> <Gold.PLP.Fitness>
51.8056

> <Gold.PLP.PLP>
-48.0691

> <Gold.PLP.part.hbond>
-2.0000

> <Gold.PLP.part.metal>
0.0000

> <Gold.PLP.part.buried>
-5.3232

> <Gold.PLP.part.nonpolar>
-39.8803

> <Gold.PLP.part.repulsive>
0.4109

> <Gold.PLP.ligand.clash>
0.0000

> <Gold.PLP.ligand.torsion>
1.1379

> <Gold.PLP.Chemscore.Hbond>
2.0000

> <Gold.PLP.Chemscore.CHOScore>
0.0000

> <Gold.PLP.Chemscore.Metal>
0.0000

> <Gold.Chemscore.Hbonds>
donor molecule, donor type, donor heavy atom, donor atom, acceptor molecule, acceptor atom, score
      P1  H  7989  7998       L1     1  0.19
      P1  H 10752 10763       L1    19  1.00

> <Gold.PLP.Chemscore.Internal.Correction>
0.0123

> <Gold.Rescore>
     Score         DG    S(hbond)    S(metal)    S(lipo)     H(rot)  DE(clash)    DE(int)     intcor
     15.65     -17.48       1.94        0.00     108.16       2.79       0.02       1.82       ----

> <Gold.Chemscore.Fitness>
15.6453

> <Gold.Chemscore.DG>
-17.4848

> <Gold.Chemscore.ZeroCoef>
-5.4800

> <Gold.Chemscore.Hbond>
1.9407

> <Gold.Chemscore.Metal>
0.0000

> <Gold.Chemscore.Lipo>
108.1626

> <Gold.Chemscore.Internal_Hbond>
0.0000

> <Gold.Chemscore.DEClash>
0.0181

> <Gold.Chemscore.DEInternal>
1.8214

> <Gold.Chemscore.Rot>
2.7860

> <Gold.Chemscore.Internal.Correction>
   9.000000E+99

> <Gold.Chemscore.Hbonds>
donor molecule, donor type, donor heavy atom, donor atom, acceptor molecule, acceptor atom, score
      P1  H  7989  7998       L1     1  0.13
      P1  H 10752 10763       L1    19  0.82

> <Gold.Chemscore.Hbond.Weighted>
-6.4819

> <Gold.Chemscore.Metal.Weighted>
-0.0000

> <Gold.Chemscore.Lipo.Weighted>
-12.6550

> <Gold.Chemscore.Internal_Hbond.Weighted>
0.0000

> <Gold.Chemscore.DEClash.Weighted>
0.0181

> <Gold.Chemscore.DEInternal.Weighted>
1.8214

> <Gold.Chemscore.Rot.Weighted>
7.1322

> <Gold.Chemscore.Internal.Correction.Weighted>
   9.000000E+99

> <Gold.Protein.RotatedTorsions>
[ 6907 6896 6895 6894 ] final  145.61 input  -60.11 | X-H torsion
[ 7974 7965 7964 7962 ] final -150.22 input  175.53 | X-H torsion
[ 8008 7997 7996 7995 ] final -145.65 input   59.86 | X-H torsion
[ 10167 10162 10161 10158 ] final  129.93 input  -65.29 | X-H torsion
[ 10718 10713 10712 10709 ] final   51.34 input   66.30 | X-H torsion
[ 10763 10752 10751 10750 ] final   86.17 input  -60.55 | X-H torsion
[ 11005 11000 10999 10996 ] final -144.56 input  -57.11 | X-H torsion

> <Gold.Protein.ActiveResidues>
 VAL166  LYS551  ARG553  GLY616  TRP617  ASP618  TYR619  PRO620  LYS621  CYS622 
 ASP623  PHE694  ASN695  SER759  ASP760  ASP761  ALA762  ILE779  LEU786  VAL792 
 PHE793  MET794  SER795  GLU796  ALA797  LYS798  CYS799  TRP800  GLU811  SER814 

> <Gold.Protein.RotatedAtoms>
  152.1786  133.4692  159.4946 H   0  0  0  0  0  0  0  0  0  0  0  0  # atno 6907 bound_to 6896
  150.6931  134.1862  159.4276 H   0  0  0  0  0  0  0  0  0  0  0  0  # atno 6908 bound_to 6896
  151.9772  135.0047  160.0606 H   0  0  0  0  0  0  0  0  0  0  0  0  # atno 6909 bound_to 6896
  144.7920  140.4961  143.5766 H   0  0  0  0  0  0  0  0  0  0  0  0  # atno 7974 bound_to 7965
  155.5466  140.0613  157.2859 H   0  0  0  0  0  0  0  0  0  0  0  0  # atno 8008 bound_to 7997
  154.4434  140.1910  156.0689 H   0  0  0  0  0  0  0  0  0  0  0  0  # atno 8009 bound_to 7997
  156.0546  140.3280  155.7395 H   0  0  0  0  0  0  0  0  0  0  0  0  # atno 8010 bound_to 7997
  139.5454  144.6769  151.4489 H   0  0  0  0  0  0  0  0  0  0  0  0  # atno 10167 bound_to 10162
  157.4972  130.8414  149.8272 H   0  0  0  0  0  0  0  0  0  0  0  0  # atno 10718 bound_to 10713
  153.1544  135.4590  154.9683 H   0  0  0  0  0  0  0  0  0  0  0  0  # atno 10763 bound_to 10752
  154.7850  135.3201  154.7909 H   0  0  0  0  0  0  0  0  0  0  0  0  # atno 10764 bound_to 10752
  153.8409  135.6930  153.4857 H   0  0  0  0  0  0  0  0  0  0  0  0  # atno 10765 bound_to 10752
  140.8012  134.2855  157.4978 H   0  0  0  0  0  0  0  0  0  0  0  0  # atno 11005 bound_to 11000
  145.5769  139.1486  143.3257 LP  0  0  0  0  0  0  0  0  0  0  0  0  # atno 17320 bound_to 7965
  146.2176  140.5900  142.9031 LP  0  0  0  0  0  0  0  0  0  0  0  0  # atno 17321 bound_to 7965
  140.6700  143.8314  150.6988 LP  0  0  0  0  0  0  0  0  0  0  0  0  # atno 17342 bound_to 10162
  140.1735  143.4174  152.1984 LP  0  0  0  0  0  0  0  0  0  0  0  0  # atno 17343 bound_to 10162
  156.0207  130.3796  150.1970 LP  0  0  0  0  0  0  0  0  0  0  0  0  # atno 17370 bound_to 10713
  157.0160  130.9965  151.3353 LP  0  0  0  0  0  0  0  0  0  0  0  0  # atno 17371 bound_to 10713
  139.8721  134.9430  156.3841 LP  0  0  0  0  0  0  0  0  0  0  0  0  # atno 17394 bound_to 11000
  140.9293  133.7590  156.0004 LP  0  0  0  0  0  0  0  0  0  0  0  0  # atno 17395 bound_to 11000

$$$$
