AV-unprocessed.smi:281|AV-procd|sdf|2115|dock6
  -GOLD-   2262021413D 1   1.00000     0.00000
 Structure written by MMmdl.
 55 59  0  0  0  0  0  0  0  0  1 V2000
  152.5305  139.0577  154.7795 C   0  0  0  0  0  0  0  0  0  0  0  0
  151.0377  139.0807  155.1214 C   0  0  2  0  0  0  0  0  0  0  0  0
  150.3131  137.8148  154.6407 C   0  0  0  0  0  0  0  0  0  0  0  0
  148.8887  137.9323  154.9209 N   0  0  0  0  0  0  0  0  0  0  0  0
  148.1904  136.7702  154.8584 C   0  0  0  0  0  0  0  0  0  0  0  0
  148.5670  135.7087  155.6210 N   0  0  0  0  0  0  0  0  0  0  0  0
  147.8823  134.5625  155.5694 C   0  0  0  0  0  0  0  0  0  0  0  0
  146.8088  134.2645  154.8356 N   0  0  0  0  0  0  0  0  0  0  0  0
  146.4280  135.3224  154.0637 C   0  0  0  0  0  0  0  0  0  0  0  0
  147.0587  136.5977  154.0116 C   0  0  0  0  0  0  0  0  0  0  0  0
  146.4033  137.4105  153.0939 N   0  0  0  0  0  0  0  0  0  0  0  0
  145.4363  136.6623  152.6378 C   0  0  0  0  0  0  0  0  0  0  0  0
  145.3698  135.3961  153.1742 N   0  0  0  0  0  0  0  0  0  0  0  0
  144.4017  134.3582  152.8515 C   0  0  0  0  0  0  0  0  0  0  0  0
  144.5209  133.8241  151.4041 C   0  0  2  0  0  0  0  0  0  0  0  0
  143.9624  134.7714  150.5100 O   0  0  0  0  0  0  0  0  0  0  0  0
  143.7998  132.4964  151.2047 C   0  0  0  0  0  0  0  0  0  0  0  0
  144.6095  131.8352  150.0976 C   0  0  0  0  0  0  0  0  0  0  0  0
  145.9424  132.1781  150.4356 O   0  0  0  0  0  0  0  0  0  0  0  0
  145.9603  133.5082  150.9458 C   0  0  0  0  0  0  0  0  0  0  0  0
  148.2935  139.1269  154.3303 C   0  0  0  0  0  0  0  0  0  0  0  0
  149.0606  140.4045  154.7546 C   0  0  1  0  0  0  0  0  0  0  0  0
  148.5713  141.6040  153.9588 C   0  0  0  0  0  0  0  0  0  0  0  0
  147.3243  142.0333  154.7246 C   0  0  0  0  0  0  0  0  0  0  0  0
  147.5549  141.6614  156.0798 O   0  0  0  0  0  0  0  0  0  0  0  0
  148.7312  140.8615  156.1946 C   0  0  2  0  0  0  0  0  0  0  0  0
  149.7928  141.7661  156.8504 C   0  0  0  0  0  0  0  0  0  0  0  0
  150.4582  140.2294  154.5001 O   0  0  0  0  0  0  0  0  0  0  0  0
  153.0265  138.2049  155.2439 H   0  0  0  0  0  0  0  0  0  0  0  0
  153.0246  139.9626  155.1341 H   0  0  0  0  0  0  0  0  0  0  0  0
  152.6876  138.9921  153.7026 H   0  0  0  0  0  0  0  0  0  0  0  0
  150.9353  139.1516  156.2042 H   0  0  0  0  0  0  0  0  0  0  0  0
  150.4535  137.6842  153.5667 H   0  0  0  0  0  0  0  0  0  0  0  0
  150.7460  136.9402  155.1246 H   0  0  0  0  0  0  0  0  0  0  0  0
  148.2465  133.7710  156.2076 H   0  0  0  0  0  0  0  0  0  0  0  0
  144.7417  137.0184  151.8911 H   0  0  0  0  0  0  0  0  0  0  0  0
  144.5292  133.5428  153.5647 H   0  0  0  0  0  0  0  0  0  0  0  0
  143.4013  134.7585  153.0229 H   0  0  0  0  0  0  0  0  0  0  0  0
  143.0286  134.6331  150.4711 H   0  0  0  0  0  0  0  0  0  0  0  0
  143.8708  131.8881  152.1073 H   0  0  0  0  0  0  0  0  0  0  0  0
  142.7420  132.6022  150.9594 H   0  0  0  0  0  0  0  0  0  0  0  0
  144.4692  130.7548  150.0571 H   0  0  0  0  0  0  0  0  0  0  0  0
  144.3578  132.2545  149.1222 H   0  0  0  0  0  0  0  0  0  0  0  0
  146.3107  134.1993  150.1774 H   0  0  0  0  0  0  0  0  0  0  0  0
  146.6757  133.5433  151.7668 H   0  0  0  0  0  0  0  0  0  0  0  0
  148.3202  139.0241  153.2443 H   0  0  0  0  0  0  0  0  0  0  0  0
  147.2444  139.2037  154.6196 H   0  0  0  0  0  0  0  0  0  0  0  0
  149.3119  142.4042  153.9880 H   0  0  0  0  0  0  0  0  0  0  0  0
  148.3714  141.3826  152.9099 H   0  0  0  0  0  0  0  0  0  0  0  0
  147.1298  143.1022  154.6336 H   0  0  0  0  0  0  0  0  0  0  0  0
  146.4461  141.4988  154.3611 H   0  0  0  0  0  0  0  0  0  0  0  0
  148.5383  140.0095  156.8474 H   0  0  0  0  0  0  0  0  0  0  0  0
  150.7379  141.2476  157.0037 H   0  0  0  0  0  0  0  0  0  0  0  0
  149.4521  142.1072  157.8281 H   0  0  0  0  0  0  0  0  0  0  0  0
  149.9972  142.6523  156.2497 H   0  0  0  0  0  0  0  0  0  0  0  0
  1  2  1  0  0  0  0
  1 29  1  0  0  0  0
  1 30  1  0  0  0  0
  1 31  1  0  0  0  0
  2 28  1  0  0  0  0
  2  3  1  0  0  0  0
  2 32  1  0  0  0  0
  3  4  1  0  0  0  0
  3 33  1  0  0  0  0
  3 34  1  0  0  0  0
  4  5  1  0  0  0  0
  4 21  1  0  0  0  0
  5 10  1  0  0  0  0
  5  6  2  0  0  0  0
  6  7  1  0  0  0  0
  7  8  2  0  0  0  0
  7 35  1  0  0  0  0
  8  9  1  0  0  0  0
  9 13  1  0  0  0  0
  9 10  2  0  0  0  0
 10 11  1  0  0  0  0
 11 12  2  0  0  0  0
 12 13  1  0  0  0  0
 12 36  1  0  0  0  0
 13 14  1  0  0  0  0
 14 15  1  0  0  0  0
 14 37  1  0  0  0  0
 14 38  1  0  0  0  0
 15 20  1  0  0  0  0
 15 16  1  0  0  0  0
 15 17  1  0  0  0  0
 16 39  1  0  0  0  0
 17 18  1  0  0  0  0
 17 40  1  0  0  0  0
 17 41  1  0  0  0  0
 18 19  1  0  0  0  0
 18 42  1  0  0  0  0
 18 43  1  0  0  0  0
 19 20  1  0  0  0  0
 20 44  1  0  0  0  0
 20 45  1  0  0  0  0
 21 22  1  0  0  0  0
 21 46  1  0  0  0  0
 21 47  1  0  0  0  0
 22 26  1  0  0  0  0
 22 23  1  0  0  0  0
 22 28  1  0  0  0  0
 23 24  1  0  0  0  0
 23 48  1  0  0  0  0
 23 49  1  0  0  0  0
 24 25  1  0  0  0  0
 24 50  1  0  0  0  0
 24 51  1  0  0  0  0
 25 26  1  0  0  0  0
 26 27  1  0  0  0  0
 26 52  1  0  0  0  0
 27 53  1  0  0  0  0
 27 54  1  0  0  0  0
 27 55  1  0  0  0  0
M  END
> <s_m_source_file>
AV-unprocessed.smi

> <i_m_source_file_index>
281

> <i_lp_mmshare_version>
43012

> <i_f3d_flags>
0

> <s_epik_input>
W0NIM11bQ0BASF0xT1tDSDJdW0NIMl1bQ0BAXTEyW0NIMl1OKFtDSDJdW0NASF0oTzIpW0NIM10pYyhuW2NIXW4zKWMoYzM0KW5bY0hdbjRbQ0gyXVtDQEBdNShbT0hdKVtDSDJdW0NIMl1PW0NIMl01

> <s_epik_cmdline>
J2VwaWtfcHl0aG9uJywgJy1waCcsICc3LjAnLCAnLXRuJywgJzgnLCAnLW1hJywgJzIwMCcsICctbWV0YWxfYmluZGluZycsICctaW1hZScsICc8aW5maWxlLm1hZT4nLCAnLW9tYWUnLCAnPG91dGZpbGUubWFlPic=

> <r_lp_tautomer_probability>
1

> <r_epik_Ionization_Penalty>
0.00571331

> <r_epik_Ionization_Penalty_Charging>
0

> <r_epik_Ionization_Penalty_Neutral>
0.00571331

> <r_epik_State_Penalty>
0.00399586

> <r_epik_Charging_Adjusted_Penalty>
0.00399586

> <i_epik_Tot_Q>
0

> <i_epik_Tot_abs_Q>
0

> <r_epik_Metal_State_Penalty>
-0

> <b_epik_Metal_Only>
0

> <s_lp_Force_Field>
OPLS_2005

> <r_lp_Energy>
55.4075

> <b_lp_Chiralities_Consistent>
1

> <s_lp_Variant>
AV-unprocessed.smi:281-15

> <Gold.Version>
5.8.1

> <Gold.Id.Protein>
6NUR|6NUR_protein|mol2

> <Gold.PLP.Fitness>
43.5993

> <Gold.PLP.PLP>
-35.1307

> <Gold.PLP.part.hbond>
-2.0000

> <Gold.PLP.part.metal>
0.0000

> <Gold.PLP.part.buried>
-1.7059

> <Gold.PLP.part.nonpolar>
-33.1300

> <Gold.PLP.part.repulsive>
0.8381

> <Gold.PLP.ligand.clash>
0.0000

> <Gold.PLP.ligand.torsion>
0.4007

> <Gold.PLP.Chemscore.Hbond>
1.9913

> <Gold.PLP.Chemscore.CHOScore>
1.0000

> <Gold.PLP.Chemscore.Metal>
0.0000

> <Gold.Chemscore.Hbonds>
donor molecule, donor type, donor heavy atom, donor atom, acceptor molecule, acceptor atom, score
      L1  H    16    39       P1 10186  0.52
      P1  H  7989  7998       L1    28  1.00
      L1  C    12    36       P1 10171  0.46

> <Gold.PLP.Chemscore.Internal.Correction>
0.2963

> <Gold.Rescore>
     Score         DG    S(hbond)    S(metal)    S(lipo)     H(rot)  DE(clash)    DE(int)     intcor
     12.19     -15.68       1.62        0.00      86.80       2.09       1.33       2.16       ----

> <Gold.Chemscore.Fitness>
12.1947

> <Gold.Chemscore.DG>
-15.6832

> <Gold.Chemscore.ZeroCoef>
-5.4800

> <Gold.Chemscore.Hbond>
1.6182

> <Gold.Chemscore.Metal>
0.0000

> <Gold.Chemscore.Lipo>
86.8024

> <Gold.Chemscore.Internal_Hbond>
0.0000

> <Gold.Chemscore.DEClash>
1.3333

> <Gold.Chemscore.DEInternal>
2.1552

> <Gold.Chemscore.Rot>
2.0927

> <Gold.Chemscore.Internal.Correction>
   9.000000E+99

> <Gold.Chemscore.Hbonds>
donor molecule, donor type, donor heavy atom, donor atom, acceptor molecule, acceptor atom, score
      L1  H    16    39       P1 10186  0.23
      P1  H  7989  7998       L1    28  0.60

> <Gold.Chemscore.Hbond.Weighted>
-5.4046

> <Gold.Chemscore.Metal.Weighted>
-0.0000

> <Gold.Chemscore.Lipo.Weighted>
-10.1559

> <Gold.Chemscore.Internal_Hbond.Weighted>
0.0000

> <Gold.Chemscore.DEClash.Weighted>
1.3333

> <Gold.Chemscore.DEInternal.Weighted>
2.1552

> <Gold.Chemscore.Rot.Weighted>
5.3573

> <Gold.Chemscore.Internal.Correction.Weighted>
   9.000000E+99

> <Gold.Protein.RotatedTorsions>
[ 6907 6896 6895 6894 ] final  141.70 input  -60.11 | X-H torsion
[ 7974 7965 7964 7962 ] final  -86.98 input  175.53 | X-H torsion
[ 8008 7997 7996 7995 ] final  158.27 input   59.86 | X-H torsion
[ 10167 10162 10161 10158 ] final  -11.88 input  -65.29 | X-H torsion
[ 10718 10713 10712 10709 ] final   14.72 input   66.30 | X-H torsion
[ 10763 10752 10751 10750 ] final -126.51 input  -60.55 | X-H torsion
[ 11005 11000 10999 10996 ] final -107.59 input  -57.11 | X-H torsion

> <Gold.Protein.ActiveResidues>
 VAL166  LYS551  ARG553  GLY616  TRP617  ASP618  TYR619  PRO620  LYS621  CYS622 
 ASP623  PHE694  ASN695  SER759  ASP760  ASP761  ALA762  ILE779  LEU786  VAL792 
 PHE793  MET794  SER795  GLU796  ALA797  LYS798  CYS799  TRP800  GLU811  SER814 

> <Gold.Protein.RotatedAtoms>
  152.2278  133.5034  159.5198 H   0  0  0  0  0  0  0  0  0  0  0  0  # atno 6907 bound_to 6896
  150.7029  134.1257  159.4060 H   0  0  0  0  0  0  0  0  0  0  0  0  # atno 6908 bound_to 6896
  151.9178  135.0311  160.0570 H   0  0  0  0  0  0  0  0  0  0  0  0  # atno 6909 bound_to 6896
  145.4726  140.9559  143.1908 H   0  0  0  0  0  0  0  0  0  0  0  0  # atno 7974 bound_to 7965
  156.2313  140.1863  156.7235 H   0  0  0  0  0  0  0  0  0  0  0  0  # atno 8008 bound_to 7997
  154.6027  140.0633  156.9418 H   0  0  0  0  0  0  0  0  0  0  0  0  # atno 8009 bound_to 7997
  155.2147  140.3302  155.4326 H   0  0  0  0  0  0  0  0  0  0  0  0  # atno 8010 bound_to 7997
  140.7149  143.5592  150.9215 H   0  0  0  0  0  0  0  0  0  0  0  0  # atno 10167 bound_to 10162
  157.0431  130.6239  149.5754 H   0  0  0  0  0  0  0  0  0  0  0  0  # atno 10718 bound_to 10713
  154.8746  135.3993  154.3443 H   0  0  0  0  0  0  0  0  0  0  0  0  # atno 10763 bound_to 10752
  153.4238  135.7023  153.6282 H   0  0  0  0  0  0  0  0  0  0  0  0  # atno 10764 bound_to 10752
  153.4933  135.3743  155.2472 H   0  0  0  0  0  0  0  0  0  0  0  0  # atno 10765 bound_to 10752
  141.0946  133.8994  157.1994 H   0  0  0  0  0  0  0  0  0  0  0  0  # atno 11005 bound_to 11000
  144.7936  139.6279  143.7102 LP  0  0  0  0  0  0  0  0  0  0  0  0  # atno 17320 bound_to 7965
  146.2388  139.5959  142.9506 LP  0  0  0  0  0  0  0  0  0  0  0  0  # atno 17321 bound_to 7965
  139.9317  143.6485  152.3075 LP  0  0  0  0  0  0  0  0  0  0  0  0  # atno 17342 bound_to 10162
  139.6938  144.7643  151.1391 LP  0  0  0  0  0  0  0  0  0  0  0  0  # atno 17343 bound_to 10162
  156.0031  130.5114  150.7736 LP  0  0  0  0  0  0  0  0  0  0  0  0  # atno 17370 bound_to 10713
  157.5089  131.0924  151.0223 LP  0  0  0  0  0  0  0  0  0  0  0  0  # atno 17371 bound_to 10713
  139.9779  135.0108  156.9678 LP  0  0  0  0  0  0  0  0  0  0  0  0  # atno 17394 bound_to 11000
  140.5171  134.0944  155.7283 LP  0  0  0  0  0  0  0  0  0  0  0  0  # atno 17395 bound_to 11000

$$$$
