AV-unprocessed.smi:1542|AV-procd|sdf|6203|dock10
  -GOLD-   22720 6373D 1   1.00000     0.00000
 Structure written by MMmdl.
 45 47  0  0  0  0  0  0  0  0  1 V2000
  151.9559  136.8926  154.9429 O   0  0  0  0  0  0  0  0  0  0  0  0
  151.4547  138.1707  154.6159 C   0  0  0  0  0  0  0  0  0  0  0  0
  152.3581  139.2556  155.2163 C   0  0  0  0  0  0  0  0  0  0  0  0
  151.6361  140.0937  156.2810 C   0  0  0  0  0  0  0  0  0  0  0  0
  150.3332  140.6503  155.7876 C   0  0  0  0  0  0  0  0  0  0  0  0
  149.9535  140.4927  154.5193 N   0  0  0  0  0  0  0  0  0  0  0  0
  148.6980  141.0649  154.5028 C   0  0  0  0  0  0  0  0  0  0  0  0
  147.7701  141.2068  153.4463 C   0  0  0  0  0  0  0  0  0  0  0  0
  146.5206  141.8203  153.6710 C   0  0  0  0  0  0  0  0  0  0  0  0
  146.1805  142.2953  154.9538 C   0  0  0  0  0  0  0  0  0  0  0  0
  147.0913  142.1642  156.0197 C   0  0  0  0  0  0  0  0  0  0  0  0
  148.3426  141.5601  155.7892 C   0  0  0  0  0  0  0  0  0  0  0  0
  149.4474  141.2909  156.5954 N   0  0  0  0  0  0  0  0  0  0  0  0
  149.5773  141.6068  158.0165 C   0  0  0  0  0  0  0  0  0  0  0  0
  150.5707  142.7564  158.3441 C   0  0  0  0  0  0  0  0  0  0  0  0
  150.9985  143.3365  157.1255 O   0  0  0  0  0  0  0  0  0  0  0  0
  149.9279  143.8776  159.1982 C   0  0  0  0  0  0  0  0  0  0  0  0
  150.9368  144.9493  159.6498 C   0  0  0  0  0  0  0  0  0  0  0  0
  152.1288  144.3218  160.3846 C   0  0  0  0  0  0  0  0  0  0  0  0
  152.8125  143.2611  159.5116 C   0  0  0  0  0  0  0  0  0  0  0  0
  151.8144  142.1790  159.0609 C   0  0  0  0  0  0  0  0  0  0  0  0
  151.2851  136.4159  155.4076 H   0  0  0  0  0  0  0  0  0  0  0  0
  151.4059  138.2662  153.5308 H   0  0  0  0  0  0  0  0  0  0  0  0
  150.4380  138.2619  154.9992 H   0  0  0  0  0  0  0  0  0  0  0  0
  153.2401  138.7894  155.6579 H   0  0  0  0  0  0  0  0  0  0  0  0
  152.7188  139.9113  154.4226 H   0  0  0  0  0  0  0  0  0  0  0  0
  151.4824  139.4984  157.1784 H   0  0  0  0  0  0  0  0  0  0  0  0
  152.2714  140.9273  156.5834 H   0  0  0  0  0  0  0  0  0  0  0  0
  148.0191  140.8390  152.4620 H   0  0  0  0  0  0  0  0  0  0  0  0
  145.8185  141.9229  152.8566 H   0  0  0  0  0  0  0  0  0  0  0  0
  145.2198  142.7602  155.1196 H   0  0  0  0  0  0  0  0  0  0  0  0
  146.8282  142.5244  157.0025 H   0  0  0  0  0  0  0  0  0  0  0  0
  148.5862  141.8659  158.3907 H   0  0  0  0  0  0  0  0  0  0  0  0
  149.8564  140.6997  158.5530 H   0  0  0  0  0  0  0  0  0  0  0  0
  150.2634  143.7832  156.7340 H   0  0  0  0  0  0  0  0  0  0  0  0
  149.1173  144.3612  158.6523 H   0  0  0  0  0  0  0  0  0  0  0  0
  149.4792  143.4349  160.0876 H   0  0  0  0  0  0  0  0  0  0  0  0
  151.2932  145.5110  158.7855 H   0  0  0  0  0  0  0  0  0  0  0  0
  150.4412  145.6711  160.2994 H   0  0  0  0  0  0  0  0  0  0  0  0
  152.8454  145.0958  160.6608 H   0  0  0  0  0  0  0  0  0  0  0  0
  151.7884  143.8677  161.3160 H   0  0  0  0  0  0  0  0  0  0  0  0
  153.2622  143.7380  158.6401 H   0  0  0  0  0  0  0  0  0  0  0  0
  153.6316  142.7999  160.0639 H   0  0  0  0  0  0  0  0  0  0  0  0
  151.4920  141.6186  159.9396 H   0  0  0  0  0  0  0  0  0  0  0  0
  152.3220  141.4602  158.4160 H   0  0  0  0  0  0  0  0  0  0  0  0
  1  2  1  0  0  0  0
  1 22  1  0  0  0  0
  2  3  1  0  0  0  0
  2 23  1  0  0  0  0
  2 24  1  0  0  0  0
  3  4  1  0  0  0  0
  3 25  1  0  0  0  0
  3 26  1  0  0  0  0
  4  5  1  0  0  0  0
  4 27  1  0  0  0  0
  4 28  1  0  0  0  0
  5 13  1  0  0  0  0
  5  6  2  0  0  0  0
  6  7  1  0  0  0  0
  7 12  2  0  0  0  0
  7  8  1  0  0  0  0
  8  9  2  0  0  0  0
  8 29  1  0  0  0  0
  9 10  1  0  0  0  0
  9 30  1  0  0  0  0
 10 11  2  0  0  0  0
 10 31  1  0  0  0  0
 11 12  1  0  0  0  0
 11 32  1  0  0  0  0
 12 13  1  0  0  0  0
 13 14  1  0  0  0  0
 14 15  1  0  0  0  0
 14 33  1  0  0  0  0
 14 34  1  0  0  0  0
 15 21  1  0  0  0  0
 15 16  1  0  0  0  0
 15 17  1  0  0  0  0
 16 35  1  0  0  0  0
 17 18  1  0  0  0  0
 17 36  1  0  0  0  0
 17 37  1  0  0  0  0
 18 19  1  0  0  0  0
 18 38  1  0  0  0  0
 18 39  1  0  0  0  0
 19 20  1  0  0  0  0
 19 40  1  0  0  0  0
 19 41  1  0  0  0  0
 20 21  1  0  0  0  0
 20 42  1  0  0  0  0
 20 43  1  0  0  0  0
 21 44  1  0  0  0  0
 21 45  1  0  0  0  0
M  END
> <s_m_source_file>
AV-unprocessed.smi

> <i_m_source_file_index>
1542

> <i_lp_mmshare_version>
43012

> <i_f3d_flags>
0

> <s_epik_input>
W09IXVtDSDJdW0NIMl1bQ0gyXWMobjEpbihjKGMxMilbY0hdW2NIXVtjSF1bY0hdMilbQ0gyXUMzKFtPSF0pW0NIMl1bQ0gyXVtDSDJdW0NIMl1bQ0gyXTM=

> <s_epik_cmdline>
J2VwaWtfcHl0aG9uJywgJy1waCcsICc3LjAnLCAnLXRuJywgJzgnLCAnLW1hJywgJzIwMCcsICctbWV0YWxfYmluZGluZycsICctaW1hZScsICc8aW5maWxlLm1hZT4nLCAnLW9tYWUnLCAnPG91dGZpbGUubWFlPic=

> <r_epik_Ionization_Penalty>
0.294093

> <r_epik_Ionization_Penalty_Charging>
0

> <r_epik_Ionization_Penalty_Neutral>
0.294093

> <r_epik_State_Penalty>
0.287281

> <r_epik_Charging_Adjusted_Penalty>
0.287281

> <i_epik_Tot_Q>
0

> <i_epik_Tot_abs_Q>
0

> <r_epik_Metal_State_Penalty>
0.000369578

> <b_epik_Metal_Only>
0

> <s_lp_Force_Field>
OPLS_2005

> <r_lp_Energy>
13.7601

> <b_lp_Chiralities_Consistent>
1

> <s_lp_Variant>
AV-unprocessed.smi:1542-1

> <Gold.Version>
5.8.1

> <Gold.Id.Protein>
6NUR|6NUR_protein|mol2

> <Gold.PLP.Fitness>
52.1174

> <Gold.PLP.PLP>
-46.8982

> <Gold.PLP.part.hbond>
-3.0000

> <Gold.PLP.part.metal>
0.0000

> <Gold.PLP.part.buried>
-4.8619

> <Gold.PLP.part.nonpolar>
-39.5048

> <Gold.PLP.part.repulsive>
0.1184

> <Gold.PLP.ligand.clash>
0.0000

> <Gold.PLP.ligand.torsion>
1.6411

> <Gold.PLP.Chemscore.Hbond>
2.7368

> <Gold.PLP.Chemscore.CHOScore>
0.0000

> <Gold.PLP.Chemscore.Metal>
0.0000

> <Gold.Chemscore.Hbonds>
donor molecule, donor type, donor heavy atom, donor atom, acceptor molecule, acceptor atom, score
      L1  H    16    35       P1  8028  1.00
      P1  H  7989  7998       L1     6  0.86
      P1  H 10752 10764       L1     1  0.88

> <Gold.PLP.Chemscore.Internal.Correction>
0.2910

> <Gold.Rescore>
     Score         DG    S(hbond)    S(metal)    S(lipo)     H(rot)  DE(clash)    DE(int)     intcor
     16.06     -18.83       1.94        0.00     118.89       2.74       0.17       2.60       ----

> <Gold.Chemscore.Fitness>
16.0594

> <Gold.Chemscore.DG>
-18.8282

> <Gold.Chemscore.ZeroCoef>
-5.4800

> <Gold.Chemscore.Hbond>
1.9356

> <Gold.Chemscore.Metal>
0.0000

> <Gold.Chemscore.Lipo>
118.8895

> <Gold.Chemscore.Internal_Hbond>
0.0000

> <Gold.Chemscore.DEClash>
0.1684

> <Gold.Chemscore.DEInternal>
2.6004

> <Gold.Chemscore.Rot>
2.7449

> <Gold.Chemscore.Internal.Correction>
   9.000000E+99

> <Gold.Chemscore.Hbonds>
donor molecule, donor type, donor heavy atom, donor atom, acceptor molecule, acceptor atom, score
      L1  H    16    35       P1  8028  0.98
      P1  H  7989  7998       L1     6  0.37
      P1  H 10752 10764       L1     1  0.39

> <Gold.Chemscore.Hbond.Weighted>
-6.4650

> <Gold.Chemscore.Metal.Weighted>
-0.0000

> <Gold.Chemscore.Lipo.Weighted>
-13.9101

> <Gold.Chemscore.Internal_Hbond.Weighted>
0.0000

> <Gold.Chemscore.DEClash.Weighted>
0.1684

> <Gold.Chemscore.DEInternal.Weighted>
2.6004

> <Gold.Chemscore.Rot.Weighted>
7.0269

> <Gold.Chemscore.Internal.Correction.Weighted>
   9.000000E+99

> <Gold.Protein.RotatedTorsions>
[ 6907 6896 6895 6894 ] final  -19.46 input  -60.11 | X-H torsion
[ 7974 7965 7964 7962 ] final  -16.05 input  175.53 | X-H torsion
[ 8008 7997 7996 7995 ] final   83.45 input   59.86 | X-H torsion
[ 10167 10162 10161 10158 ] final  165.59 input  -65.29 | X-H torsion
[ 10718 10713 10712 10709 ] final  -49.33 input   66.30 | X-H torsion
[ 10763 10752 10751 10750 ] final  -79.17 input  -60.55 | X-H torsion
[ 11005 11000 10999 10996 ] final  138.53 input  -57.11 | X-H torsion

> <Gold.Protein.ActiveResidues>
 VAL166  LYS551  ARG553  GLY616  TRP617  ASP618  TYR619  PRO620  LYS621  CYS622 
 ASP623  PHE694  ASN695  SER759  ASP760  ASP761  ALA762  ILE779  LEU786  VAL792 
 PHE793  MET794  SER795  GLU796  ALA797  LYS798  CYS799  TRP800  GLU811  SER814 

> <Gold.Protein.RotatedAtoms>
  151.2628  135.0659  159.9104 H   0  0  0  0  0  0  0  0  0  0  0  0  # atno 6907 bound_to 6896
  152.5363  134.0213  159.7993 H   0  0  0  0  0  0  0  0  0  0  0  0  # atno 6908 bound_to 6896
  151.0438  133.5633  159.2679 H   0  0  0  0  0  0  0  0  0  0  0  0  # atno 6909 bound_to 6896
  146.2005  140.3580  142.8425 H   0  0  0  0  0  0  0  0  0  0  0  0  # atno 7974 bound_to 7965
  155.9241  140.3419  155.6196 H   0  0  0  0  0  0  0  0  0  0  0  0  # atno 8008 bound_to 7997
  155.7237  140.0787  157.2338 H   0  0  0  0  0  0  0  0  0  0  0  0  # atno 8009 bound_to 7997
  154.4074  140.1601  156.2418 H   0  0  0  0  0  0  0  0  0  0  0  0  # atno 8010 bound_to 7997
  139.4908  144.4116  151.9292 H   0  0  0  0  0  0  0  0  0  0  0  0  # atno 10167 bound_to 10162
  156.1903  130.4152  149.9380 H   0  0  0  0  0  0  0  0  0  0  0  0  # atno 10718 bound_to 10713
  154.5353  135.5704  153.6793 H   0  0  0  0  0  0  0  0  0  0  0  0  # atno 10763 bound_to 10752
  152.9949  135.6214  154.2575 H   0  0  0  0  0  0  0  0  0  0  0  0  # atno 10764 bound_to 10752
  154.2503  135.2859  155.2799 H   0  0  0  0  0  0  0  0  0  0  0  0  # atno 10765 bound_to 10752
  140.0190  134.9405  157.0435 H   0  0  0  0  0  0  0  0  0  0  0  0  # atno 11005 bound_to 11000
  144.8673  140.7224  143.6069 LP  0  0  0  0  0  0  0  0  0  0  0  0  # atno 17320 bound_to 7965
  145.3500  139.1709  143.4440 LP  0  0  0  0  0  0  0  0  0  0  0  0  # atno 17321 bound_to 7965
  140.3558  144.3033  150.5941 LP  0  0  0  0  0  0  0  0  0  0  0  0  # atno 17342 bound_to 10162
  140.5446  143.2217  151.8029 LP  0  0  0  0  0  0  0  0  0  0  0  0  # atno 17343 bound_to 10162
  156.7123  130.8975  151.3610 LP  0  0  0  0  0  0  0  0  0  0  0  0  # atno 17370 bound_to 10713
  157.6925  130.9248  150.0553 LP  0  0  0  0  0  0  0  0  0  0  0  0  # atno 17371 bound_to 10713
  140.4420  134.1671  155.7174 LP  0  0  0  0  0  0  0  0  0  0  0  0  # atno 17394 bound_to 11000
  141.1761  133.8510  157.1414 LP  0  0  0  0  0  0  0  0  0  0  0  0  # atno 17395 bound_to 11000

$$$$
