AV-unprocessed.smi:1295|AV-procd|sdf|5409|dock5
  -GOLD-   22720 4563D 1   1.00000     0.00000
 Structure written by MMmdl.
 42 43  0  0  0  0  0  0  0  0  2 V2000
  147.4435  135.8164  160.3370 C   0  0  0  0  0  0  0  0  0  0  0  0
  148.2524  136.6272  159.3476 C   0  0  0  0  0  0  0  0  0  0  0  0
  147.7185  137.6456  158.7888 N   0  0  0  0  0  0  0  0  0  0  0  0
  148.4676  138.4037  157.8731 C   0  0  0  0  0  0  0  0  0  0  0  0
  147.7537  139.5947  157.2571 C   0  0  0  0  0  0  0  0  0  0  0  0
  149.7561  138.0737  157.5708 C   0  0  0  0  0  0  0  0  0  0  0  0
  150.6106  138.8669  156.5830 C   0  0  0  0  0  0  0  0  0  0  0  0
  151.7850  139.6355  157.1922 C   0  0  0  0  0  0  0  0  0  0  0  0
  152.9420  139.3452  156.8889 O   0  0  0  0  0  0  0  0  0  0  0  0
  151.4672  140.6132  158.0551 N   0  0  0  0  0  0  0  0  0  0  0  0
  152.4122  141.4495  158.7931 C   0  0  2  0  0  0  0  0  0  0  0  0
  153.1179  140.5749  159.8481 C   0  0  0  0  0  0  0  0  0  0  0  0
  154.0826  141.3946  160.7168 C   0  0  0  0  0  0  0  0  0  0  0  0
  153.3576  142.5728  161.3802 C   0  0  0  0  0  0  0  0  0  0  0  0
  152.6735  143.4588  160.3288 C   0  0  0  0  0  0  0  0  0  0  0  0
  151.6932  142.6572  159.4484 C   0  0  1  0  0  0  0  0  0  0  0  0
  151.0210  143.5817  158.4174 C   0  0  0  0  0  0  0  0  0  0  0  0
  150.3348  136.8938  158.2382 C   0  0  0  0  0  0  0  0  0  0  0  0
  151.4962  136.5576  158.0103 O   0  0  0  0  0  0  0  0  0  0  0  0
  149.5405  136.2053  159.1067 N   0  5  0  0  0  0  0  0  0  0  0  0
  146.5200  136.3313  160.6052 H   0  0  0  0  0  0  0  0  0  0  0  0
  148.0161  135.6481  161.2497 H   0  0  0  0  0  0  0  0  0  0  0  0
  147.1853  134.8486  159.9069 H   0  0  0  0  0  0  0  0  0  0  0  0
  147.6720  139.4750  156.1767 H   0  0  0  0  0  0  0  0  0  0  0  0
  148.2951  140.5178  157.4655 H   0  0  0  0  0  0  0  0  0  0  0  0
  146.7455  139.7017  157.6595 H   0  0  0  0  0  0  0  0  0  0  0  0
  151.0009  138.2196  155.7972 H   0  0  0  0  0  0  0  0  0  0  0  0
  149.9603  139.5697  156.0610 H   0  0  0  0  0  0  0  0  0  0  0  0
  150.4871  140.7769  158.2335 H   0  0  0  0  0  0  0  0  0  0  0  0
  153.1792  141.8335  158.1178 H   0  0  0  0  0  0  0  0  0  0  0  0
  152.3756  140.0972  160.4895 H   0  0  0  0  0  0  0  0  0  0  0  0
  153.6647  139.7687  159.3570 H   0  0  0  0  0  0  0  0  0  0  0  0
  154.5306  140.7564  161.4788 H   0  0  0  0  0  0  0  0  0  0  0  0
  154.9030  141.7676  160.1022 H   0  0  0  0  0  0  0  0  0  0  0  0
  152.6138  142.1980  162.0847 H   0  0  0  0  0  0  0  0  0  0  0  0
  154.0648  143.1647  161.9619 H   0  0  0  0  0  0  0  0  0  0  0  0
  152.1461  144.2718  160.8288 H   0  0  0  0  0  0  0  0  0  0  0  0
  153.4332  143.9263  159.7006 H   0  0  0  0  0  0  0  0  0  0  0  0
  150.9083  142.2704  160.1003 H   0  0  0  0  0  0  0  0  0  0  0  0
  151.7468  143.9669  157.7007 H   0  0  0  0  0  0  0  0  0  0  0  0
  150.5500  144.4358  158.9046 H   0  0  0  0  0  0  0  0  0  0  0  0
  150.2431  143.0632  157.8570 H   0  0  0  0  0  0  0  0  0  0  0  0
  1  2  1  0  0  0  0
  1 21  1  0  0  0  0
  1 22  1  0  0  0  0
  1 23  1  0  0  0  0
  2 20  1  0  0  0  0
  2  3  2  0  0  0  0
  3  4  1  0  0  0  0
  4  5  1  0  0  0  0
  4  6  2  0  0  0  0
  5 24  1  0  0  0  0
  5 25  1  0  0  0  0
  5 26  1  0  0  0  0
  6  7  1  0  0  0  0
  6 18  1  0  0  0  0
  7  8  1  0  0  0  0
  7 27  1  0  0  0  0
  7 28  1  0  0  0  0
  8  9  2  0  0  0  0
  8 10  1  0  0  0  0
 10 11  1  0  0  0  0
 10 29  1  0  0  0  0
 11 16  1  0  0  0  0
 11 12  1  0  0  0  0
 11 30  1  0  0  0  0
 12 13  1  0  0  0  0
 12 31  1  0  0  0  0
 12 32  1  0  0  0  0
 13 14  1  0  0  0  0
 13 33  1  0  0  0  0
 13 34  1  0  0  0  0
 14 15  1  0  0  0  0
 14 35  1  0  0  0  0
 14 36  1  0  0  0  0
 15 16  1  0  0  0  0
 15 37  1  0  0  0  0
 15 38  1  0  0  0  0
 16 17  1  0  0  0  0
 16 39  1  0  0  0  0
 17 40  1  0  0  0  0
 17 41  1  0  0  0  0
 17 42  1  0  0  0  0
 18 19  2  0  0  0  0
 18 20  1  0  0  0  0
M  CHG  1  20  -1
M  END
> <s_m_source_file>
AV-unprocessed.smi

> <i_m_source_file_index>
1295

> <i_lp_mmshare_version>
43012

> <i_f3d_flags>
0

> <s_epik_input>
W0NIM11jMW5jKFtDSDNdKWMoYyg9TylbbkhdMSlbQ0gyXUMoPU8pW05IXVtDQEBIXTJbQ0gyXVtDSDJdW0NIMl1bQ0gyXVtDQEhdMltDSDNd

> <s_epik_cmdline>
J2VwaWtfcHl0aG9uJywgJy1waCcsICc3LjAnLCAnLXRuJywgJzgnLCAnLW1hJywgJzIwMCcsICctbWV0YWxfYmluZGluZycsICctaW1hZScsICc8aW5maWxlLm1hZT4nLCAnLW9tYWUnLCAnPG91dGZpbGUubWFlPic=

> <r_lp_tautomer_probability>
0.839158

> <r_epik_Ionization_Penalty>
6.67742

> <r_epik_Ionization_Penalty_Charging>
7.78154e-08

> <r_epik_Ionization_Penalty_Neutral>
6.67742

> <r_epik_State_Penalty>
4.51991

> <r_epik_Charging_Adjusted_Penalty>
4.51991

> <i_epik_Tot_Q>
-1

> <i_epik_Tot_abs_Q>
1

> <r_epik_Metal_State_Penalty>
0.853272

> <b_epik_Metal_Only>
1

> <s_lp_Force_Field>
OPLS_2005

> <r_lp_Energy>
15.3241

> <b_lp_Chiralities_Consistent>
1

> <s_lp_Variant>
AV-unprocessed.smi:1295-9

> <Gold.Version>
5.8.1

> <Gold.Id.Protein>
6NUR|6NUR_protein|mol2

> <Gold.PLP.Fitness>
41.1667

> <Gold.PLP.PLP>
-32.5448

> <Gold.PLP.part.hbond>
-3.5372

> <Gold.PLP.part.metal>
0.0000

> <Gold.PLP.part.buried>
-5.3592

> <Gold.PLP.part.nonpolar>
-23.1719

> <Gold.PLP.part.repulsive>
0.0945

> <Gold.PLP.ligand.clash>
0.0000

> <Gold.PLP.ligand.torsion>
0.1917

> <Gold.PLP.Chemscore.Hbond>
3.0000

> <Gold.PLP.Chemscore.CHOScore>
0.0000

> <Gold.PLP.Chemscore.Metal>
0.0000

> <Gold.Chemscore.Hbonds>
donor molecule, donor type, donor heavy atom, donor atom, acceptor molecule, acceptor atom, score
      P1  H  6896  6907       L1    20  2.00
      P1  H  7997  8008       L1     9  1.00

> <Gold.PLP.Chemscore.Internal.Correction>
0.0052

> <Gold.Rescore>
     Score         DG    S(hbond)    S(metal)    S(lipo)     H(rot)  DE(clash)    DE(int)     intcor
     17.73     -17.94       1.94        0.00      82.85       1.45       0.01       0.21       ----

> <Gold.Chemscore.Fitness>
17.7291

> <Gold.Chemscore.DG>
-17.9445

> <Gold.Chemscore.ZeroCoef>
-5.4800

> <Gold.Chemscore.Hbond>
1.9371

> <Gold.Chemscore.Metal>
0.0000

> <Gold.Chemscore.Lipo>
82.8528

> <Gold.Chemscore.Internal_Hbond>
0.0000

> <Gold.Chemscore.DEClash>
0.0089

> <Gold.Chemscore.DEInternal>
0.2065

> <Gold.Chemscore.Rot>
1.4450

> <Gold.Chemscore.Internal.Correction>
   9.000000E+99

> <Gold.Chemscore.Hbonds>
donor molecule, donor type, donor heavy atom, donor atom, acceptor molecule, acceptor atom, score
      P1  H  6896  6907       L1    20  0.33
      P1  H  7997  8008       L1     9  0.99

> <Gold.Chemscore.Hbond.Weighted>
-6.4699

> <Gold.Chemscore.Metal.Weighted>
-0.0000

> <Gold.Chemscore.Lipo.Weighted>
-9.6938

> <Gold.Chemscore.Internal_Hbond.Weighted>
0.0000

> <Gold.Chemscore.DEClash.Weighted>
0.0089

> <Gold.Chemscore.DEInternal.Weighted>
0.2065

> <Gold.Chemscore.Rot.Weighted>
3.6992

> <Gold.Chemscore.Internal.Correction.Weighted>
   9.000000E+99

> <Gold.Protein.RotatedTorsions>
[ 6907 6896 6895 6894 ] final  -65.84 input  -60.11 | X-H torsion
[ 7974 7965 7964 7962 ] final  -15.30 input  175.53 | X-H torsion
[ 8008 7997 7996 7995 ] final  -74.07 input   59.86 | X-H torsion
[ 10167 10162 10161 10158 ] final   56.32 input  -65.29 | X-H torsion
[ 10718 10713 10712 10709 ] final  -27.60 input   66.30 | X-H torsion
[ 10763 10752 10751 10750 ] final   50.55 input  -60.55 | X-H torsion
[ 11005 11000 10999 10996 ] final  -88.78 input  -57.11 | X-H torsion

> <Gold.Protein.ActiveResidues>
 VAL166  LYS551  ARG553  GLY616  TRP617  ASP618  TYR619  PRO620  LYS621  CYS622 
 ASP623  PHE694  ASN695  SER759  ASP760  ASP761  ALA762  ILE779  LEU786  VAL792 
 PHE793  MET794  SER795  GLU796  ALA797  LYS798  CYS799  TRP800  GLU811  SER814 

> <Gold.Protein.RotatedAtoms>
  150.7500  134.6104  159.6082 H   0  0  0  0  0  0  0  0  0  0  0  0  # atno 6907 bound_to 6896
  152.3440  134.7093  160.0264 H   0  0  0  0  0  0  0  0  0  0  0  0  # atno 6908 bound_to 6896
  151.7536  133.3293  159.3435 H   0  0  0  0  0  0  0  0  0  0  0  0  # atno 6909 bound_to 6896
  146.2038  140.3473  142.8414 H   0  0  0  0  0  0  0  0  0  0  0  0  # atno 7974 bound_to 7965
  154.5300  140.0768  156.8327 H   0  0  0  0  0  0  0  0  0  0  0  0  # atno 8008 bound_to 7997
  155.3395  140.3406  155.4221 H   0  0  0  0  0  0  0  0  0  0  0  0  # atno 8009 bound_to 7997
  156.1771  140.1639  156.8329 H   0  0  0  0  0  0  0  0  0  0  0  0  # atno 8010 bound_to 7997
  140.2100  144.3899  150.6493 H   0  0  0  0  0  0  0  0  0  0  0  0  # atno 10167 bound_to 10162
  156.4361  130.4455  149.7084 H   0  0  0  0  0  0  0  0  0  0  0  0  # atno 10718 bound_to 10713
  152.9784  135.5875  154.4271 H   0  0  0  0  0  0  0  0  0  0  0  0  # atno 10763 bound_to 10752
  154.3888  135.2767  155.2169 H   0  0  0  0  0  0  0  0  0  0  0  0  # atno 10764 bound_to 10752
  154.4050  135.6095  153.5973 H   0  0  0  0  0  0  0  0  0  0  0  0  # atno 10765 bound_to 10752
  141.1596  133.7590  156.9501 H   0  0  0  0  0  0  0  0  0  0  0  0  # atno 11005 bound_to 11000
  144.8743  140.7315  143.6027 LP  0  0  0  0  0  0  0  0  0  0  0  0  # atno 17320 bound_to 7965
  145.3393  139.1737  143.4494 LP  0  0  0  0  0  0  0  0  0  0  0  0  # atno 17321 bound_to 7965
  140.6330  143.2190  151.6454 LP  0  0  0  0  0  0  0  0  0  0  0  0  # atno 17342 bound_to 10162
  139.5184  144.3286  152.0846 LP  0  0  0  0  0  0  0  0  0  0  0  0  # atno 17343 bound_to 10162
  156.3968  130.7654  151.2660 LP  0  0  0  0  0  0  0  0  0  0  0  0  # atno 17370 bound_to 10713
  157.7507  131.0251  150.3907 LP  0  0  0  0  0  0  0  0  0  0  0  0  # atno 17371 bound_to 10713
  140.1263  134.9385  157.2274 LP  0  0  0  0  0  0  0  0  0  0  0  0  # atno 17394 bound_to 11000
  140.3009  134.3133  155.7290 LP  0  0  0  0  0  0  0  0  0  0  0  0  # atno 17395 bound_to 11000

$$$$
