AV-unprocessed.smi:123|AV-procd|sdf|1146|dock9
  -GOLD-   2262018283D 1   1.00000     0.00000
 Structure written by MMmdl.
 43 45  0  0  0  0  0  0  0  0  1 V2000
  146.3505  137.8702  158.9698 C   0  0  0  0  0  0  0  0  0  0  0  0
  147.4786  136.8716  159.2598 C   0  0  1  0  0  0  0  0  0  0  0  0
  148.7634  137.5019  158.9712 N   0  0  0  0  0  0  0  0  0  0  0  0
  149.8516  136.8669  158.5099 C   0  0  0  0  0  0  0  0  0  0  0  0
  149.8732  135.6598  158.2638 O   0  0  0  0  0  0  0  0  0  0  0  0
  151.0961  137.7432  158.3003 C   0  0  0  0  0  0  0  0  0  0  0  0
  150.7903  139.0831  157.7518 N   0  0  0  0  0  0  0  0  0  0  0  0
  150.2638  139.1750  156.4398 C   0  0  0  0  0  0  0  0  0  0  0  0
  150.0413  138.1668  155.7678 O   0  0  0  0  0  0  0  0  0  0  0  0
  150.0237  140.5277  155.9522 C   0  0  0  0  0  0  0  0  0  0  0  0
  149.5383  140.7125  154.7129 F   0  0  0  0  0  0  0  0  0  0  0  0
  150.2861  141.6010  156.7256 C   0  0  0  0  0  0  0  0  0  0  0  0
  150.7809  141.4995  158.0112 N   0  0  0  0  0  0  0  0  0  0  0  0
  151.0900  142.7681  158.7769 C   0  0  1  0  0  0  0  0  0  0  0  0
  152.5156  142.8164  159.3468 C   0  0  0  0  0  0  0  0  0  0  0  0
  152.8387  144.2886  159.2076 C   0  0  0  0  0  0  0  0  0  0  0  0
  152.1134  144.6529  157.9168 C   0  0  0  0  0  0  0  0  0  0  0  0
  150.9236  143.8684  157.9299 O   0  0  0  0  0  0  0  0  0  0  0  0
  151.0740  140.2219  158.5441 C   0  0  0  0  0  0  0  0  0  0  0  0
  151.5715  140.0968  159.6640 O   0  0  0  0  0  0  0  0  0  0  0  0
  147.4254  136.3542  160.6637 C   0  0  0  0  0  0  0  0  0  0  0  0
  147.2480  135.1075  161.1972 C   0  0  0  0  0  0  0  0  0  0  0  0
  147.2884  135.2656  162.6100 C   0  0  0  0  0  0  0  0  0  0  0  0
  147.4823  136.5986  162.8344 C   0  0  0  0  0  0  0  0  0  0  0  0
  147.5641  137.2777  161.6584 O   0  0  0  0  0  0  0  0  0  0  0  0
  145.3738  137.4130  159.1300 H   0  0  0  0  0  0  0  0  0  0  0  0
  146.3866  138.2152  157.9361 H   0  0  0  0  0  0  0  0  0  0  0  0
  146.4175  138.7459  159.6164 H   0  0  0  0  0  0  0  0  0  0  0  0
  147.3513  136.0301  158.5763 H   0  0  0  0  0  0  0  0  0  0  0  0
  148.8337  138.4930  159.1495 H   0  0  0  0  0  0  0  0  0  0  0  0
  151.6278  137.8191  159.2501 H   0  0  0  0  0  0  0  0  0  0  0  0
  151.7920  137.2083  157.6520 H   0  0  0  0  0  0  0  0  0  0  0  0
  150.0950  142.5807  156.3127 H   0  0  0  0  0  0  0  0  0  0  0  0
  150.3387  142.8353  159.5648 H   0  0  0  0  0  0  0  0  0  0  0  0
  152.5363  142.4612  160.3772 H   0  0  0  0  0  0  0  0  0  0  0  0
  153.2054  142.2149  158.7564 H   0  0  0  0  0  0  0  0  0  0  0  0
  152.4147  144.8456  160.0442 H   0  0  0  0  0  0  0  0  0  0  0  0
  153.9092  144.4907  159.1677 H   0  0  0  0  0  0  0  0  0  0  0  0
  151.8865  145.7170  157.8508 H   0  0  0  0  0  0  0  0  0  0  0  0
  152.7167  144.3849  157.0494 H   0  0  0  0  0  0  0  0  0  0  0  0
  147.1098  134.1940  160.6382 H   0  0  0  0  0  0  0  0  0  0  0  0
  147.1879  134.5012  163.3662 H   0  0  0  0  0  0  0  0  0  0  0  0
  147.5796  137.2030  163.7241 H   0  0  0  0  0  0  0  0  0  0  0  0
  1  2  1  0  0  0  0
  1 26  1  0  0  0  0
  1 27  1  0  0  0  0
  1 28  1  0  0  0  0
  2  3  1  0  0  0  0
  2 21  1  0  0  0  0
  2 29  1  0  0  0  0
  3  4  1  0  0  0  0
  3 30  1  0  0  0  0
  4  5  2  0  0  0  0
  4  6  1  0  0  0  0
  6  7  1  0  0  0  0
  6 31  1  0  0  0  0
  6 32  1  0  0  0  0
  7 19  1  0  0  0  0
  7  8  1  0  0  0  0
  8  9  2  0  0  0  0
  8 10  1  0  0  0  0
 10 11  1  0  0  0  0
 10 12  2  0  0  0  0
 12 13  1  0  0  0  0
 12 33  1  0  0  0  0
 13 14  1  0  0  0  0
 13 19  1  0  0  0  0
 14 18  1  0  0  0  0
 14 15  1  0  0  0  0
 14 34  1  0  0  0  0
 15 16  1  0  0  0  0
 15 35  1  0  0  0  0
 15 36  1  0  0  0  0
 16 17  1  0  0  0  0
 16 37  1  0  0  0  0
 16 38  1  0  0  0  0
 17 18  1  0  0  0  0
 17 39  1  0  0  0  0
 17 40  1  0  0  0  0
 19 20  2  0  0  0  0
 21 25  1  0  0  0  0
 21 22  2  0  0  0  0
 22 23  1  0  0  0  0
 22 41  1  0  0  0  0
 23 24  2  0  0  0  0
 23 42  1  0  0  0  0
 24 25  1  0  0  0  0
 24 43  1  0  0  0  0
M  END
> <s_m_source_file>
AV-unprocessed.smi

> <i_m_source_file_index>
123

> <i_lp_mmshare_version>
43012

> <i_f3d_flags>
0

> <s_epik_input>
bzFbY0hdW2NIXVtjSF1jMVtDQEhdKFtDSDNdKVtOSF1DKD1PKVtDSDJdbjJjKD1PKWMoRilbY0hdbihjMj1PKVtDQEBIXTNbQ0gyXVtDSDJdW0NIMl1PMw==

> <s_epik_cmdline>
J2VwaWtfcHl0aG9uJywgJy1waCcsICc3LjAnLCAnLXRuJywgJzgnLCAnLW1hJywgJzIwMCcsICctbWV0YWxfYmluZGluZycsICctaW1hZScsICc8aW5maWxlLm1hZT4nLCAnLW9tYWUnLCAnPG91dGZpbGUubWFlPic=

> <r_lp_tautomer_probability>
1

> <r_epik_Ionization_Penalty>
2.31906e-08

> <r_epik_Ionization_Penalty_Charging>
3.85846e-09

> <r_epik_Ionization_Penalty_Neutral>
1.93321e-08

> <r_epik_State_Penalty>
-0

> <r_epik_Charging_Adjusted_Penalty>
3.85846e-09

> <i_epik_Tot_Q>
0

> <i_epik_Tot_abs_Q>
0

> <r_epik_Metal_State_Penalty>
-0

> <b_epik_Metal_Only>
0

> <s_epik_Chemistry_Notes>
This compound contains an acetal/aminal-like group ( X-CH(R)-Y where X, Y are N, S, or O) that may be acid/base labile, releasing an aldehyde.

> <s_lp_Force_Field>
OPLS_2005

> <r_lp_Energy>
16.2808

> <b_lp_Chiralities_Consistent>
1

> <s_lp_Variant>
AV-unprocessed.smi:123-4

> <Gold.Version>
5.8.1

> <Gold.Id.Protein>
6NUR|6NUR_protein|mol2

> <Gold.PLP.Fitness>
53.8355

> <Gold.PLP.PLP>
-44.2997

> <Gold.PLP.part.hbond>
-3.1484

> <Gold.PLP.part.metal>
0.0000

> <Gold.PLP.part.buried>
-4.1645

> <Gold.PLP.part.nonpolar>
-36.8460

> <Gold.PLP.part.repulsive>
0.6179

> <Gold.PLP.ligand.clash>
0.0000

> <Gold.PLP.ligand.torsion>
0.8500

> <Gold.PLP.Chemscore.Hbond>
2.7280

> <Gold.PLP.Chemscore.CHOScore>
1.0000

> <Gold.PLP.Chemscore.Metal>
0.0000

> <Gold.Chemscore.Hbonds>
donor molecule, donor type, donor heavy atom, donor atom, acceptor molecule, acceptor atom, score
      P1  H  6896  6908       L1     5  1.00
      P1  H  6931  6943       L1    25  0.93
      P1  H  6934  6947       L1    25  0.75
      L1  C    12    33       P1  8028  0.97

> <Gold.PLP.Chemscore.Internal.Correction>
0.0518

> <Gold.Rescore>
     Score         DG    S(hbond)    S(metal)    S(lipo)     H(rot)  DE(clash)    DE(int)     intcor
     13.45     -16.56       1.87        0.00      90.09       2.23       0.19       2.92       ----

> <Gold.Chemscore.Fitness>
13.4503

> <Gold.Chemscore.DG>
-16.5576

> <Gold.Chemscore.ZeroCoef>
-5.4800

> <Gold.Chemscore.Hbond>
1.8737

> <Gold.Chemscore.Metal>
0.0000

> <Gold.Chemscore.Lipo>
90.0883

> <Gold.Chemscore.Internal_Hbond>
0.0000

> <Gold.Chemscore.DEClash>
0.1865

> <Gold.Chemscore.DEInternal>
2.9208

> <Gold.Chemscore.Rot>
2.2347

> <Gold.Chemscore.Internal.Correction>
   9.000000E+99

> <Gold.Chemscore.Hbonds>
donor molecule, donor type, donor heavy atom, donor atom, acceptor molecule, acceptor atom, score
      P1  H  6896  6908       L1     5  0.85
      P1  H  6931  6943       L1    25  0.31
      P1  H  6934  6947       L1    25  0.53

> <Gold.Chemscore.Hbond.Weighted>
-6.2580

> <Gold.Chemscore.Metal.Weighted>
-0.0000

> <Gold.Chemscore.Lipo.Weighted>
-10.5403

> <Gold.Chemscore.Internal_Hbond.Weighted>
0.0000

> <Gold.Chemscore.DEClash.Weighted>
0.1865

> <Gold.Chemscore.DEInternal.Weighted>
2.9208

> <Gold.Chemscore.Rot.Weighted>
5.7208

> <Gold.Chemscore.Internal.Correction.Weighted>
   9.000000E+99

> <Gold.Protein.RotatedTorsions>
[ 6907 6896 6895 6894 ] final  172.62 input  -60.11 | X-H torsion
[ 7974 7965 7964 7962 ] final  125.61 input  175.53 | X-H torsion
[ 8008 7997 7996 7995 ] final  -17.81 input   59.86 | X-H torsion
[ 10167 10162 10161 10158 ] final  -15.26 input  -65.29 | X-H torsion
[ 10718 10713 10712 10709 ] final  -58.87 input   66.30 | X-H torsion
[ 10763 10752 10751 10750 ] final  -97.27 input  -60.55 | X-H torsion
[ 11005 11000 10999 10996 ] final  -76.74 input  -57.11 | X-H torsion

> <Gold.Protein.ActiveResidues>
 VAL166  LYS551  ARG553  GLY616  TRP617  ASP618  TYR619  PRO620  LYS621  CYS622 
 ASP623  PHE694  ASN695  SER759  ASP760  ASP761  ALA762  ILE779  LEU786  VAL792 
 PHE793  MET794  SER795  GLU796  ALA797  LYS798  CYS799  TRP800  GLU811  SER814 

> <Gold.Protein.RotatedAtoms>
  151.7813  133.3350  159.3472 H   0  0  0  0  0  0  0  0  0  0  0  0  # atno 6907 bound_to 6896
  150.7425  134.5928  159.6005 H   0  0  0  0  0  0  0  0  0  0  0  0  # atno 6908 bound_to 6896
  152.3274  134.7305  160.0350 H   0  0  0  0  0  0  0  0  0  0  0  0  # atno 6909 bound_to 6896
  145.0710  139.3730  143.4957 H   0  0  0  0  0  0  0  0  0  0  0  0  # atno 7974 bound_to 7965
  154.4951  140.2133  155.9463 H   0  0  0  0  0  0  0  0  0  0  0  0  # atno 8008 bound_to 7997
  156.1360  140.3188  155.8389 H   0  0  0  0  0  0  0  0  0  0  0  0  # atno 8009 bound_to 7997
  155.4209  140.0497  157.3016 H   0  0  0  0  0  0  0  0  0  0  0  0  # atno 8010 bound_to 7997
  140.7215  143.5237  150.9603 H   0  0  0  0  0  0  0  0  0  0  0  0  # atno 10167 bound_to 10162
  156.1103  130.4176  150.0637 H   0  0  0  0  0  0  0  0  0  0  0  0  # atno 10718 bound_to 10713
  154.7313  135.5053  153.8968 H   0  0  0  0  0  0  0  0  0  0  0  0  # atno 10763 bound_to 10752
  153.0952  135.6670  153.9785 H   0  0  0  0  0  0  0  0  0  0  0  0  # atno 10764 bound_to 10752
  153.9585  135.3050  155.3414 H   0  0  0  0  0  0  0  0  0  0  0  0  # atno 10765 bound_to 10752
  141.1656  133.6995  156.7714 H   0  0  0  0  0  0  0  0  0  0  0  0  # atno 11005 bound_to 11000
  146.3528  140.0455  142.8639 LP  0  0  0  0  0  0  0  0  0  0  0  0  # atno 17320 bound_to 7965
  145.1292  140.9508  143.4554 LP  0  0  0  0  0  0  0  0  0  0  0  0  # atno 17321 bound_to 7965
  139.8955  143.6900  152.3139 LP  0  0  0  0  0  0  0  0  0  0  0  0  # atno 17342 bound_to 10162
  139.7231  144.7598  151.0922 LP  0  0  0  0  0  0  0  0  0  0  0  0  # atno 17343 bound_to 10162
  156.8602  130.9489  151.3618 LP  0  0  0  0  0  0  0  0  0  0  0  0  # atno 17370 bound_to 10713
  157.6283  130.8709  149.9229 LP  0  0  0  0  0  0  0  0  0  0  0  0  # atno 17371 bound_to 10713
  140.2461  134.8576  157.3622 LP  0  0  0  0  0  0  0  0  0  0  0  0  # atno 17394 bound_to 11000
  140.1748  134.4563  155.7809 LP  0  0  0  0  0  0  0  0  0  0  0  0  # atno 17395 bound_to 11000

$$$$
