AV-unprocessed.smi:2225|AV-procd|sdf|9000|dock6
  -GOLD-   2272012213D 1   1.00000     0.00000
 Structure written by MMmdl.
 33 34  0  0  0  0  0  0  0  0  1 V2000
  149.9701  141.0753  158.2393 O   0  0  0  0  0  0  0  0  0  0  0  0
  151.0703  141.2244  157.7092 C   0  0  0  0  0  0  0  0  0  0  0  0
  151.9994  142.3391  158.2209 C   0  0  0  0  0  0  0  0  0  0  0  0
  152.5505  142.1210  159.5713 N   0  0  0  0  0  0  0  0  0  0  0  0
  152.2174  143.0725  160.5518 C   0  0  0  0  0  0  0  0  0  0  0  0
  152.6613  142.9728  161.8117 C   0  0  0  0  0  0  0  0  0  0  0  0
  153.5058  141.8535  162.1506 C   0  0  0  0  0  0  0  0  0  0  0  0
  153.8401  140.9195  161.2302 C   0  0  0  0  0  0  0  0  0  0  0  0
  154.7297  139.7269  161.5736 C   0  0  0  0  0  0  0  0  0  0  0  0
  154.0491  138.5852  161.4635 F   0  0  0  0  0  0  0  0  0  0  0  0
  155.7747  139.6707  160.7473 F   0  0  0  0  0  0  0  0  0  0  0  0
  155.1985  139.8018  162.8202 F   0  0  0  0  0  0  0  0  0  0  0  0
  153.3362  141.0337  159.8463 C   0  0  0  0  0  0  0  0  0  0  0  0
  153.5986  140.2002  158.9779 O   0  0  0  0  0  0  0  0  0  0  0  0
  151.5004  140.4468  156.7013 N   0  0  0  0  0  0  0  0  0  0  0  0
  150.7502  139.3430  156.1126 C   0  0  1  0  0  0  0  0  0  0  0  0
  150.5482  139.5370  154.6113 C   0  0  0  0  0  0  0  0  0  0  0  0
  151.2959  138.3649  153.9796 C   0  0  0  0  0  0  0  0  0  0  0  0
  151.2467  137.3638  154.9810 O   0  0  0  0  0  0  0  0  0  0  0  0
  151.5107  138.0132  156.2138 C   0  0  0  0  0  0  0  0  0  0  0  0
  152.8043  142.4771  157.4969 H   0  0  0  0  0  0  0  0  0  0  0  0
  151.4415  143.2765  158.1951 H   0  0  0  0  0  0  0  0  0  0  0  0
  151.5769  143.8756  160.2167 H   0  0  0  0  0  0  0  0  0  0  0  0
  152.3925  143.7097  162.5542 H   0  0  0  0  0  0  0  0  0  0  0  0
  153.8704  141.7752  163.1639 H   0  0  0  0  0  0  0  0  0  0  0  0
  152.4169  140.6294  156.3192 H   0  0  0  0  0  0  0  0  0  0  0  0
  149.7733  139.2554  156.5917 H   0  0  0  0  0  0  0  0  0  0  0  0
  149.4859  139.4688  154.3741 H   0  0  0  0  0  0  0  0  0  0  0  0
  150.9075  140.4972  154.2383 H   0  0  0  0  0  0  0  0  0  0  0  0
  150.8420  138.0273  153.0477 H   0  0  0  0  0  0  0  0  0  0  0  0
  152.3356  138.6299  153.7801 H   0  0  0  0  0  0  0  0  0  0  0  0
  152.5870  138.1722  156.3030 H   0  0  0  0  0  0  0  0  0  0  0  0
  151.1868  137.4092  157.0616 H   0  0  0  0  0  0  0  0  0  0  0  0
  1  2  2  0  0  0  0
  2  3  1  0  0  0  0
  2 15  1  0  0  0  0
  3  4  1  0  0  0  0
  3 21  1  0  0  0  0
  3 22  1  0  0  0  0
  4 13  1  0  0  0  0
  4  5  1  0  0  0  0
  5  6  2  0  0  0  0
  5 23  1  0  0  0  0
  6  7  1  0  0  0  0
  6 24  1  0  0  0  0
  7  8  2  0  0  0  0
  7 25  1  0  0  0  0
  8  9  1  0  0  0  0
  8 13  1  0  0  0  0
  9 10  1  0  0  0  0
  9 11  1  0  0  0  0
  9 12  1  0  0  0  0
 13 14  2  0  0  0  0
 15 16  1  0  0  0  0
 15 26  1  0  0  0  0
 16 20  1  0  0  0  0
 16 17  1  0  0  0  0
 16 27  1  0  0  0  0
 17 18  1  0  0  0  0
 17 28  1  0  0  0  0
 17 29  1  0  0  0  0
 18 19  1  0  0  0  0
 18 30  1  0  0  0  0
 18 31  1  0  0  0  0
 19 20  1  0  0  0  0
 20 32  1  0  0  0  0
 20 33  1  0  0  0  0
M  END
> <s_m_source_file>
AV-unprocessed.smi

> <i_m_source_file_index>
2225

> <i_lp_mmshare_version>
43012

> <i_f3d_flags>
0

> <s_epik_input>
W0NIMl0xT1tDSDJdW0NIMl1bQ0BIXTFbTkhdQyg9TylbQ0gyXW4yW2NIXVtjSF1bY0hdYyhDKEYpKEYpRiljMj1P

> <s_epik_cmdline>
J2VwaWtfcHl0aG9uJywgJy1waCcsICc3LjAnLCAnLXRuJywgJzgnLCAnLW1hJywgJzIwMCcsICctbWV0YWxfYmluZGluZycsICctaW1hZScsICc8aW5maWxlLm1hZT4nLCAnLW9tYWUnLCAnPG91dGZpbGUubWFlPic=

> <r_lp_tautomer_probability>
1

> <r_epik_Ionization_Penalty>
3.32109e-08

> <r_epik_Ionization_Penalty_Charging>
1.91399e-09

> <r_epik_Ionization_Penalty_Neutral>
3.1297e-08

> <r_epik_State_Penalty>
-0

> <r_epik_Charging_Adjusted_Penalty>
1.91399e-09

> <i_epik_Tot_Q>
0

> <i_epik_Tot_abs_Q>
0

> <r_epik_Metal_State_Penalty>
-0

> <b_epik_Metal_Only>
0

> <s_lp_Force_Field>
OPLS_2005

> <r_lp_Energy>
24.9921

> <b_lp_Chiralities_Consistent>
1

> <s_lp_Variant>
AV-unprocessed.smi:2225-2

> <Gold.Version>
5.8.1

> <Gold.Id.Protein>
6NUR|6NUR_protein|mol2

> <Gold.PLP.Fitness>
47.3073

> <Gold.PLP.PLP>
-42.0704

> <Gold.PLP.part.hbond>
-2.0000

> <Gold.PLP.part.metal>
0.0000

> <Gold.PLP.part.buried>
-3.5183

> <Gold.PLP.part.nonpolar>
-34.8567

> <Gold.PLP.part.repulsive>
0.2111

> <Gold.PLP.ligand.clash>
0.2614

> <Gold.PLP.ligand.torsion>
0.1650

> <Gold.PLP.Chemscore.Hbond>
1.8219

> <Gold.PLP.Chemscore.CHOScore>
0.0000

> <Gold.PLP.Chemscore.Metal>
0.0000

> <Gold.Chemscore.Hbonds>
donor molecule, donor type, donor heavy atom, donor atom, acceptor molecule, acceptor atom, score
      P1  H  7997  8010       L1    14  0.62

> <Gold.PLP.Chemscore.Internal.Correction>
0.3625

> <Gold.Rescore>
     Score         DG    S(hbond)    S(metal)    S(lipo)     H(rot)  DE(clash)    DE(int)     intcor
     14.23     -17.00       1.74        0.00      84.58       1.64       0.17       2.60       ----

> <Gold.Chemscore.Fitness>
14.2308

> <Gold.Chemscore.DG>
-17.0012

> <Gold.Chemscore.ZeroCoef>
-5.4800

> <Gold.Chemscore.Hbond>
1.7429

> <Gold.Chemscore.Metal>
0.0000

> <Gold.Chemscore.Lipo>
84.5765

> <Gold.Chemscore.Internal_Hbond>
0.0000

> <Gold.Chemscore.DEClash>
0.1743

> <Gold.Chemscore.DEInternal>
2.5961

> <Gold.Chemscore.Rot>
1.6389

> <Gold.Chemscore.Internal.Correction>
   9.000000E+99

> <Gold.Chemscore.Hbonds>
donor molecule, donor type, donor heavy atom, donor atom, acceptor molecule, acceptor atom, score
      P1  H  7997  8010       L1    14  0.62
      P1  H 10752 10765       L1    19  0.01

> <Gold.Chemscore.Hbond.Weighted>
-5.8214

> <Gold.Chemscore.Metal.Weighted>
-0.0000

> <Gold.Chemscore.Lipo.Weighted>
-9.8955

> <Gold.Chemscore.Internal_Hbond.Weighted>
0.0000

> <Gold.Chemscore.DEClash.Weighted>
0.1743

> <Gold.Chemscore.DEInternal.Weighted>
2.5961

> <Gold.Chemscore.Rot.Weighted>
4.1956

> <Gold.Chemscore.Internal.Correction.Weighted>
   9.000000E+99

> <Gold.Protein.RotatedTorsions>
[ 6907 6896 6895 6894 ] final   66.08 input  -60.11 | X-H torsion
[ 7974 7965 7964 7962 ] final   12.59 input  175.53 | X-H torsion
[ 8008 7997 7996 7995 ] final   12.90 input   59.86 | X-H torsion
[ 10167 10162 10161 10158 ] final -126.86 input  -65.29 | X-H torsion
[ 10718 10713 10712 10709 ] final  123.67 input   66.30 | X-H torsion
[ 10763 10752 10751 10750 ] final -177.34 input  -60.55 | X-H torsion
[ 11005 11000 10999 10996 ] final  106.96 input  -57.11 | X-H torsion

> <Gold.Protein.ActiveResidues>
 VAL166  LYS551  ARG553  GLY616  TRP617  ASP618  TYR619  PRO620  LYS621  CYS622 
 ASP623  PHE694  ASN695  SER759  ASP760  ASP761  ALA762  ILE779  LEU786  VAL792 
 PHE793  MET794  SER795  GLU796  ALA797  LYS798  CYS799  TRP800  GLU811  SER814 

> <Gold.Protein.RotatedAtoms>
  152.4455  134.5504  159.9864 H   0  0  0  0  0  0  0  0  0  0  0  0  # atno 6907 bound_to 6896
  151.5590  133.3400  159.2975 H   0  0  0  0  0  0  0  0  0  0  0  0  # atno 6908 bound_to 6896
  150.8370  134.7680  159.6964 H   0  0  0  0  0  0  0  0  0  0  0  0  # atno 6909 bound_to 6896
  146.2348  139.9314  142.8496 H   0  0  0  0  0  0  0  0  0  0  0  0  # atno 7974 bound_to 7965
  154.8269  140.2893  155.5748 H   0  0  0  0  0  0  0  0  0  0  0  0  # atno 8008 bound_to 7997
  156.3002  140.2539  156.3118 H   0  0  0  0  0  0  0  0  0  0  0  0  # atno 8009 bound_to 7997
  154.9275  140.0384  157.2020 H   0  0  0  0  0  0  0  0  0  0  0  0  # atno 8010 bound_to 7997
  139.9670  143.5888  152.2426 H   0  0  0  0  0  0  0  0  0  0  0  0  # atno 10167 bound_to 10162
  157.5646  131.1087  150.8477 H   0  0  0  0  0  0  0  0  0  0  0  0  # atno 10718 bound_to 10713
  154.5614  135.2820  155.0916 H   0  0  0  0  0  0  0  0  0  0  0  0  # atno 10763 bound_to 10752
  154.2323  135.6372  153.5183 H   0  0  0  0  0  0  0  0  0  0  0  0  # atno 10764 bound_to 10752
  153.0030  135.5540  154.6209 H   0  0  0  0  0  0  0  0  0  0  0  0  # atno 10765 bound_to 10752
  139.8821  134.9386  156.5746 H   0  0  0  0  0  0  0  0  0  0  0  0  # atno 11005 bound_to 11000
  145.2040  140.9867  143.4139 LP  0  0  0  0  0  0  0  0  0  0  0  0  # atno 17320 bound_to 7965
  144.9748  139.3843  143.6291 LP  0  0  0  0  0  0  0  0  0  0  0  0  # atno 17321 bound_to 7965
  139.6510  144.7660  151.2147 LP  0  0  0  0  0  0  0  0  0  0  0  0  # atno 17342 bound_to 10162
  140.7535  143.6160  150.8559 LP  0  0  0  0  0  0  0  0  0  0  0  0  # atno 17343 bound_to 10162
  156.8966  130.5231  149.5284 LP  0  0  0  0  0  0  0  0  0  0  0  0  # atno 17370 bound_to 10713
  156.0695  130.5731  150.9356 LP  0  0  0  0  0  0  0  0  0  0  0  0  # atno 17371 bound_to 10713
  140.8073  133.8457  155.8779 LP  0  0  0  0  0  0  0  0  0  0  0  0  # atno 17394 bound_to 11000
  140.9538  134.1744  157.4707 LP  0  0  0  0  0  0  0  0  0  0  0  0  # atno 17395 bound_to 11000

$$$$
