AV-unprocessed.smi:196|AV-procd|sdf|1533|dock9
  -GOLD-   2262019383D 1   1.00000     0.00000
 Structure written by MMmdl.
 47 50  0  0  0  0  0  0  0  0  1 V2000
  149.0775  139.0076  154.1374 C   0  0  0  0  0  0  0  0  0  0  0  0
  150.3529  138.4713  154.8079 C   0  0  1  0  0  0  0  0  0  0  0  0
  151.4319  139.3916  154.6473 O   0  0  0  0  0  0  0  0  0  0  0  0
  151.9515  139.7625  155.9162 C   0  0  0  0  0  0  0  0  0  0  0  0
  151.6312  138.5763  156.8163 C   0  0  0  0  0  0  0  0  0  0  0  0
  150.2589  138.1457  156.3174 C   0  0  1  0  0  0  0  0  0  0  0  0
  149.2809  138.9556  156.9510 O   0  0  0  0  0  0  0  0  0  0  0  0
  149.9244  136.6616  156.5977 C   0  0  0  0  0  0  0  0  0  0  0  0
  148.8541  136.1427  155.7604 N   0  0  0  0  0  0  0  0  0  0  0  0
  147.5823  136.6562  155.6348 C   0  0  0  0  0  0  0  0  0  0  0  0
  146.7991  136.0111  154.8137 N   0  0  0  0  0  0  0  0  0  0  0  0
  147.5896  134.9706  154.3434 C   0  0  0  0  0  0  0  0  0  0  0  0
  147.3763  133.9029  153.4331 C   0  0  0  0  0  0  0  0  0  0  0  0
  146.1959  133.7294  152.7940 N   0  0  0  0  0  0  0  0  0  0  0  0
  145.6976  132.3558  152.7739 C   0  0  0  0  0  0  0  0  0  0  0  0
  145.6408  131.9577  151.3031 C   0  0  1  0  0  0  0  0  0  0  0  0
  144.7294  131.0166  151.0582 F   0  0  0  0  0  0  0  0  0  0  0  0
  145.3165  133.2788  150.6227 C   0  0  0  0  0  0  0  0  0  0  0  0
  146.1316  134.2971  151.4374 C   0  0  1  0  0  0  0  0  0  0  0  0
  145.5116  135.7046  151.3671 C   0  0  0  0  0  0  0  0  0  0  0  0
  145.3715  136.2898  150.1735 N   0  0  0  0  0  0  0  0  0  0  0  0
  145.1517  136.2623  152.4015 O   0  0  0  0  0  0  0  0  0  0  0  0
  148.4035  133.0402  153.2116 N   0  0  0  0  0  0  0  0  0  0  0  0
  149.5702  133.2171  153.8394 C   0  0  0  0  0  0  0  0  0  0  0  0
  149.9145  134.1700  154.7089 N   0  0  0  0  0  0  0  0  0  0  0  0
  148.8825  135.0332  154.9335 C   0  0  0  0  0  0  0  0  0  0  0  0
  146.6095  131.5841  150.9683 H   0  0  0  0  0  0  0  0  0  0  0  0
  147.1334  134.3579  151.0068 H   0  0  0  0  0  0  0  0  0  0  0  0
  148.2475  138.3114  154.2607 H   0  0  0  0  0  0  0  0  0  0  0  0
  149.2351  139.1494  153.0682 H   0  0  0  0  0  0  0  0  0  0  0  0
  148.7777  139.9700  154.5528 H   0  0  0  0  0  0  0  0  0  0  0  0
  150.6604  137.5716  154.2734 H   0  0  0  0  0  0  0  0  0  0  0  0
  153.0190  139.9772  155.8648 H   0  0  0  0  0  0  0  0  0  0  0  0
  151.4384  140.6602  156.2639 H   0  0  0  0  0  0  0  0  0  0  0  0
  152.3617  137.7858  156.6385 H   0  0  0  0  0  0  0  0  0  0  0  0
  151.6570  138.8246  157.8783 H   0  0  0  0  0  0  0  0  0  0  0  0
  149.1688  138.6529  157.8392 H   0  0  0  0  0  0  0  0  0  0  0  0
  150.8096  136.0401  156.4560 H   0  0  0  0  0  0  0  0  0  0  0  0
  149.6258  136.5323  157.6389 H   0  0  0  0  0  0  0  0  0  0  0  0
  147.2528  137.5340  156.1718 H   0  0  0  0  0  0  0  0  0  0  0  0
  146.2965  131.6550  153.3587 H   0  0  0  0  0  0  0  0  0  0  0  0
  144.6959  132.3610  153.2055 H   0  0  0  0  0  0  0  0  0  0  0  0
  145.5781  133.2790  149.5642 H   0  0  0  0  0  0  0  0  0  0  0  0
  144.2466  133.4808  150.7046 H   0  0  0  0  0  0  0  0  0  0  0  0
  144.9696  137.2145  150.1112 H   0  0  0  0  0  0  0  0  0  0  0  0
  145.6710  135.8067  149.3390 H   0  0  0  0  0  0  0  0  0  0  0  0
  150.3380  132.4921  153.6123 H   0  0  0  0  0  0  0  0  0  0  0  0
  1  2  1  0  0  0  0
  1 29  1  0  0  0  0
  1 30  1  0  0  0  0
  1 31  1  0  0  0  0
  2  6  1  0  0  0  0
  2  3  1  0  0  0  0
  2 32  1  0  0  0  0
  3  4  1  0  0  0  0
  4  5  1  0  0  0  0
  4 33  1  0  0  0  0
  4 34  1  0  0  0  0
  5  6  1  0  0  0  0
  5 35  1  0  0  0  0
  5 36  1  0  0  0  0
  6  7  1  0  0  0  0
  6  8  1  0  0  0  0
  7 37  1  0  0  0  0
  8  9  1  0  0  0  0
  8 38  1  0  0  0  0
  8 39  1  0  0  0  0
  9 26  1  0  0  0  0
  9 10  1  0  0  0  0
 10 11  2  0  0  0  0
 10 40  1  0  0  0  0
 11 12  1  0  0  0  0
 12 26  2  0  0  0  0
 12 13  1  0  0  0  0
 13 14  1  0  0  0  0
 13 23  2  0  0  0  0
 14 19  1  0  0  0  0
 14 15  1  0  0  0  0
 15 16  1  0  0  0  0
 15 41  1  0  0  0  0
 15 42  1  0  0  0  0
 16 27  1  0  0  0  0
 16 17  1  0  0  0  0
 16 18  1  0  0  0  0
 18 19  1  0  0  0  0
 18 43  1  0  0  0  0
 18 44  1  0  0  0  0
 19 28  1  0  0  0  0
 19 20  1  0  0  0  0
 20 21  1  0  0  0  0
 20 22  2  0  0  0  0
 21 45  1  0  0  0  0
 21 46  1  0  0  0  0
 23 24  1  0  0  0  0
 24 25  2  0  0  0  0
 24 47  1  0  0  0  0
 25 26  1  0  0  0  0
M  END
> <s_m_source_file>
AV-unprocessed.smi

> <i_m_source_file_index>
196

> <i_lp_mmshare_version>
43012

> <i_f3d_flags>
0

> <s_epik_input>
W0NIMl0xW0NIMl1PW0NAQEhdKFtDSDNdKVtDQEBdMShbT0hdKVtDSDJdbihbY0hdbjIpYyhjMjMpbltjSF1uYzNONFtDSDJdW0NASF0oRilbQ0gyXVtDQEhdNEMoPU8pW05IMl0=

> <s_epik_cmdline>
J2VwaWtfcHl0aG9uJywgJy1waCcsICc3LjAnLCAnLXRuJywgJzgnLCAnLW1hJywgJzIwMCcsICctbWV0YWxfYmluZGluZycsICctaW1hZScsICc8aW5maWxlLm1hZT4nLCAnLW9tYWUnLCAnPG91dGZpbGUubWFlPic=

> <r_lp_tautomer_probability>
1

> <r_epik_Ionization_Penalty>
0.000857933

> <r_epik_Ionization_Penalty_Charging>
0

> <r_epik_Ionization_Penalty_Neutral>
0.000857933

> <r_epik_State_Penalty>
0.000462053

> <r_epik_Charging_Adjusted_Penalty>
0.000462053

> <i_epik_Tot_Q>
0

> <i_epik_Tot_abs_Q>
0

> <r_epik_Metal_State_Penalty>
-0

> <b_epik_Metal_Only>
0

> <s_lp_Force_Field>
OPLS_2005

> <r_lp_Energy>
45.9197

> <b_lp_Chiralities_Consistent>
1

> <s_lp_Variant>
AV-unprocessed.smi:196-6

> <Gold.Version>
5.8.1

> <Gold.Id.Protein>
6NUR|6NUR_protein|mol2

> <Gold.PLP.Fitness>
40.5311

> <Gold.PLP.PLP>
-32.9912

> <Gold.PLP.part.hbond>
-3.0000

> <Gold.PLP.part.metal>
0.0000

> <Gold.PLP.part.buried>
-6.1974

> <Gold.PLP.part.nonpolar>
-24.7305

> <Gold.PLP.part.repulsive>
0.8406

> <Gold.PLP.ligand.clash>
0.0000

> <Gold.PLP.ligand.torsion>
0.7755

> <Gold.PLP.Chemscore.Hbond>
3.0000

> <Gold.PLP.Chemscore.CHOScore>
0.0000

> <Gold.PLP.Chemscore.Metal>
0.0000

> <Gold.Chemscore.Hbonds>
donor molecule, donor type, donor heavy atom, donor atom, acceptor molecule, acceptor atom, score
      L1  H    21    45       P1 10171  1.00
      L1  H    21    46       P1  7921  1.00
      P1  H  7989  7998       L1     3  1.00

> <Gold.PLP.Chemscore.Internal.Correction>
0.0909

> <Gold.Rescore>
     Score         DG    S(hbond)    S(metal)    S(lipo)     H(rot)  DE(clash)    DE(int)     intcor
     11.86     -13.80       2.91        0.00      54.56       3.04       0.02       1.91       ----

> <Gold.Chemscore.Fitness>
11.8567

> <Gold.Chemscore.DG>
-13.7953

> <Gold.Chemscore.ZeroCoef>
-5.4800

> <Gold.Chemscore.Hbond>
2.9095

> <Gold.Chemscore.Metal>
0.0000

> <Gold.Chemscore.Lipo>
54.5584

> <Gold.Chemscore.Internal_Hbond>
0.0000

> <Gold.Chemscore.DEClash>
0.0237

> <Gold.Chemscore.DEInternal>
1.9149

> <Gold.Chemscore.Rot>
3.0413

> <Gold.Chemscore.Internal.Correction>
   9.000000E+99

> <Gold.Chemscore.Hbonds>
donor molecule, donor type, donor heavy atom, donor atom, acceptor molecule, acceptor atom, score
      L1  H    21    45       P1 10171  1.00
      L1  H    21    46       P1  7921  0.95
      P1  H  7989  7998       L1     3  0.65

> <Gold.Chemscore.Hbond.Weighted>
-9.7176

> <Gold.Chemscore.Metal.Weighted>
-0.0000

> <Gold.Chemscore.Lipo.Weighted>
-6.3833

> <Gold.Chemscore.Internal_Hbond.Weighted>
0.0000

> <Gold.Chemscore.DEClash.Weighted>
0.0237

> <Gold.Chemscore.DEInternal.Weighted>
1.9149

> <Gold.Chemscore.Rot.Weighted>
7.7856

> <Gold.Chemscore.Internal.Correction.Weighted>
   9.000000E+99

> <Gold.Protein.RotatedTorsions>
[ 6907 6896 6895 6894 ] final  171.49 input  -60.11 | X-H torsion
[ 7974 7965 7964 7962 ] final -145.65 input  175.53 | X-H torsion
[ 8008 7997 7996 7995 ] final   15.70 input   59.86 | X-H torsion
[ 10167 10162 10161 10158 ] final  101.56 input  -65.29 | X-H torsion
[ 10718 10713 10712 10709 ] final -131.76 input   66.30 | X-H torsion
[ 10763 10752 10751 10750 ] final  109.84 input  -60.55 | X-H torsion
[ 11005 11000 10999 10996 ] final  -13.66 input  -57.11 | X-H torsion

> <Gold.Protein.ActiveResidues>
 VAL166  LYS551  ARG553  GLY616  TRP617  ASP618  TYR619  PRO620  LYS621  CYS622 
 ASP623  PHE694  ASN695  SER759  ASP760  ASP761  ALA762  ILE779  LEU786  VAL792 
 PHE793  MET794  SER795  GLU796  ALA797  LYS798  CYS799  TRP800  GLU811  SER814 

> <Gold.Protein.RotatedAtoms>
  151.7994  133.3368  159.3522 H   0  0  0  0  0  0  0  0  0  0  0  0  # atno 6907 bound_to 6896
  150.7364  134.5768  159.5927 H   0  0  0  0  0  0  0  0  0  0  0  0  # atno 6908 bound_to 6896
  152.3154  134.7448  160.0378 H   0  0  0  0  0  0  0  0  0  0  0  0  # atno 6909 bound_to 6896
  144.8213  140.5557  143.5576 H   0  0  0  0  0  0  0  0  0  0  0  0  # atno 7974 bound_to 7965
  154.8664  140.2952  155.5507 H   0  0  0  0  0  0  0  0  0  0  0  0  # atno 8008 bound_to 7997
  156.3021  140.2468  156.3579 H   0  0  0  0  0  0  0  0  0  0  0  0  # atno 8009 bound_to 7997
  154.8863  140.0396  157.1801 H   0  0  0  0  0  0  0  0  0  0  0  0  # atno 8010 bound_to 7997
  139.7427  144.7007  151.0551 H   0  0  0  0  0  0  0  0  0  0  0  0  # atno 10167 bound_to 10162
  156.2277  130.7018  151.0824 H   0  0  0  0  0  0  0  0  0  0  0  0  # atno 10718 bound_to 10713
  153.4405  135.3767  155.2225 H   0  0  0  0  0  0  0  0  0  0  0  0  # atno 10763 bound_to 10752
  154.8753  135.3861  154.4159 H   0  0  0  0  0  0  0  0  0  0  0  0  # atno 10764 bound_to 10752
  153.4704  135.7087  153.6060 H   0  0  0  0  0  0  0  0  0  0  0  0  # atno 10765 bound_to 10752
  140.7784  133.8382  155.9270 H   0  0  0  0  0  0  0  0  0  0  0  0  # atno 11005 bound_to 11000
  145.5099  139.1480  143.3611 LP  0  0  0  0  0  0  0  0  0  0  0  0  # atno 17320 bound_to 7965
  146.2518  140.5239  142.8890 LP  0  0  0  0  0  0  0  0  0  0  0  0  # atno 17321 bound_to 7965
  140.7788  143.4905  150.9900 LP  0  0  0  0  0  0  0  0  0  0  0  0  # atno 17342 bound_to 10162
  139.8593  143.7336  152.3174 LP  0  0  0  0  0  0  0  0  0  0  0  0  # atno 17343 bound_to 10162
  157.7118  131.0730  150.6473 LP  0  0  0  0  0  0  0  0  0  0  0  0  # atno 17370 bound_to 10713
  156.6539  130.4493  149.5710 LP  0  0  0  0  0  0  0  0  0  0  0  0  # atno 17371 bound_to 10713
  140.9506  134.1783  157.4730 LP  0  0  0  0  0  0  0  0  0  0  0  0  # atno 17394 bound_to 11000
  139.8746  134.9908  156.5518 LP  0  0  0  0  0  0  0  0  0  0  0  0  # atno 17395 bound_to 11000

$$$$
