#       Name:                AV-unprocessed.smi:3169
#       Creating user name   scv26
#       Creation time:       Fri Mar 27 17:54:16 2020


#       File generated by GOLD software.
#

@<TRIPOS>MOLECULE
AV-unprocessed.smi:3169
    40    41     1
SMALL
NO_CHARGES


@<TRIPOS>ATOM
      1 ****         0.8542   1.2540   0.2597 O.2            1 S1                 0.0000
      2 ****         0.3588   0.1432   0.0697 C.2            1 S1                 0.0000
      3 ****         1.0711  -0.9843  -0.0557 N.am           1 S1                 0.0000
      4 ****         2.5243  -1.0733   0.0471 C.3            1 S1                 0.0000
      5 ****         3.0108  -1.0222   1.5075 C.3            1 S1                 0.0000
      6 ****         2.5175  -2.1406   2.2891 N.pl3          1 S1                 0.0000
      7 ****         3.0386  -3.4269   2.3330 C.2            1 S1                 0.0000
      8 ****         2.2433  -4.1434   3.1986 C.2            1 S1                 0.0000
      9 ****         1.2339  -3.3230   3.6966 N.2            1 S1                 0.0000
     10 ****         1.4620  -2.1525   3.1150 C.2            1 S1                 0.0000
     11 ****        -0.9569  -0.0883  -0.0341 N.am           1 S1                 0.0000
     12 ****        -2.0023   0.9261   0.0483 C.3            1 S1                 0.0000
     13 ****        -2.4727   1.3690  -1.3469 C.3            1 S1                 0.0000
     14 ****        -1.4301   2.1189  -2.1762 C.3            1 S1                 0.0000
     15 ****        -2.3085   2.8796  -3.1424 C.3            1 S1                 0.0000
     16 ****        -3.4860   3.2722  -2.2534 C.3            1 S1                 0.0000
     17 ****        -3.5659   2.2758  -1.2361 O.3            1 S1                 0.0000
     18 ****         0.5725  -1.8477  -0.2148 H              1 S1                 0.0000
     19 ****         2.8456  -2.0043  -0.4208 H              1 S1                 0.0000
     20 ****         2.9833  -0.2674  -0.5276 H              1 S1                 0.0000
     21 ****         4.1007  -1.0424   1.5354 H              1 S1                 0.0000
     22 ****         2.7051  -0.0917   1.9879 H              1 S1                 0.0000
     23 ****         3.9059  -3.7179   1.7590 H              1 S1                 0.0000
     24 ****         2.3189  -5.1783   3.4981 H              1 S1                 0.0000
     25 ****         0.8425  -1.2845   3.2881 H              1 S1                 0.0000
     26 ****        -1.2606  -1.0386  -0.1878 H              1 S1                 0.0000
     27 ****        -2.8414   0.4915   0.5922 H              1 S1                 0.0000
     28 ****        -1.6739   1.7868   0.6335 H              1 S1                 0.0000
     29 ****        -2.8245   0.5041  -1.9118 H              1 S1                 0.0000
     30 ****        -0.8696   2.8164  -1.5518 H              1 S1                 0.0000
     31 ****        -0.7211   1.4561  -2.6727 H              1 S1                 0.0000
     32 ****        -1.8101   3.7369  -3.5954 H              1 S1                 0.0000
     33 ****        -2.6445   2.2170  -3.9411 H              1 S1                 0.0000
     34 ****        -3.3013   4.2360  -1.7776 H              1 S1                 0.0000
     35 ****        -4.4191   3.3449  -2.8126 H              1 S1                 0.0000
     36 ****         1.8468   1.3535   0.3294 LP             1 S1                 0.0000
     37 ****         0.2640   2.0568   0.3444 LP             1 S1                 0.0000
     38 ****         0.5074  -3.5606   4.3414 LP             1 S1                 0.0000
     39 ****        -3.5392   2.7170  -0.3391 LP             1 S1                 0.0000
     40 ****        -4.4241   1.7718  -1.3343 LP             1 S1                 0.0000
@<TRIPOS>BOND
    1    1    2 2     
    2    2    3 am    
    3    2   11 am    
    4    3    4 1     
    5    3   18 1     
    6    4    5 1     
    7    4   19 1     
    8    4   20 1     
    9    5    6 1     
   10    5   21 1     
   11    5   22 1     
   12    6   10 1     
   13    6    7 1     
   14    7    8 2     
   15    7   23 1     
   16    8    9 1     
   17    8   24 1     
   18    9   10 2     
   19   10   25 1     
   20   11   12 1     
   21   11   26 1     
   22   12   13 1     
   23   12   27 1     
   24   12   28 1     
   25   13   17 1     
   26   13   14 1     
   27   13   29 1     
   28   14   15 1     
   29   14   30 1     
   30   14   31 1     
   31   15   16 1     
   32   15   32 1     
   33   15   33 1     
   34   16   17 1     
   35   16   34 1     
   36   16   35 1     
   37    1   36 1     
   38    1   37 1     
   39    9   38 1     
   40   17   39 1     
   41   17   40 1     
@<TRIPOS>SUBSTRUCTURE
      1 S1             1
@<TRIPOS>SET
LONE_PAIRS      STATIC     ATOMS    <user>   **** ""
5 36 37 38 39 40
DONOR_HYDROGENS      STATIC     ATOMS    <user>   **** ""
2 18 26
ATOM$BLUE        STATIC     ATOMS    COLORGROUP SYSTEM
5 36 37 38 39 40
ATOM$RED        STATIC     ATOMS    COLORGROUP SYSTEM
2 18 26
