#       Name:                AV-unprocessed.smi:1499
#       Creating user name   scv26
#       Creation time:       Fri Mar 27 06:18:04 2020


#       File generated by GOLD software.
#

@<TRIPOS>MOLECULE
AV-unprocessed.smi:1499
    46    47     1
SMALL
NO_CHARGES


@<TRIPOS>ATOM
      1 ****        -5.8512   1.4831   0.0368 C.3            1 S1                 0.0000
      2 ****        -4.7628   0.4022  -0.0490 C.3            1 S1                 0.0000
      3 ****        -3.6286   0.6861   0.8290 N.3            1 S1                 0.0000
      4 ****        -2.7941  -0.5153   0.9339 C.3            1 S1                 0.0000
      5 ****        -1.5928  -0.2561   1.8641 C.3            1 S1                 0.0000
      6 ****        -0.8040   0.8572   1.3160 N.am           1 S1                 0.0000
      7 ****         0.4131   0.7728   0.7227 C.2            1 S1                 0.0000
      8 ****         0.8954   1.6930   0.0612 O.2            1 S1                 0.0000
      9 ****         1.0710  -0.3748   0.9760 N.am           1 S1                 0.0000
     10 ****         2.3439  -0.7721   0.4932 C.2            1 S1                 0.0000
     11 ****         2.9853  -1.9960   0.8169 C.2            1 S1                 0.0000
     12 ****         4.1621  -2.0943   0.2174 N.2            1 S1                 0.0000
     13 ****         4.2911  -0.9464  -0.4945 N.pl3          1 S1                 0.0000
     14 ****         5.4853  -0.7226  -1.2892 C.3            1 S1                 0.0000
     15 ****         5.2385  -1.0605  -2.7604 C.2            1 S1                 0.0000
     16 ****         5.3818  -2.3374  -3.1248 N.am           1 S1                 0.0000
     17 ****         4.9213  -0.1798  -3.5571 O.2            1 S1                 0.0000
     18 ****         3.1968  -0.1162  -0.3487 C.2            1 S1                 0.0000
     19 ****        -1.6283   2.0678   1.2552 C.3            1 S1                 0.0000
     20 ****        -2.8292   1.8098   0.3242 C.3            1 S1                 0.0000
     21 ****        -6.7338   1.1783  -0.5256 H              1 S1                 0.0000
     22 ****        -5.5206   2.4349  -0.3783 H              1 S1                 0.0000
     23 ****        -6.1608   1.6513   1.0689 H              1 S1                 0.0000
     24 ****        -5.2117  -0.5449   0.2535 H              1 S1                 0.0000
     25 ****        -4.4266   0.2740  -1.0790 H              1 S1                 0.0000
     26 ****        -3.3887  -1.3384   1.3323 H              1 S1                 0.0000
     27 ****        -2.4461  -0.8193  -0.0549 H              1 S1                 0.0000
     28 ****        -1.9411   0.0075   2.8641 H              1 S1                 0.0000
     29 ****        -1.0282  -1.1801   1.9864 H              1 S1                 0.0000
     30 ****         0.5977  -1.0420   1.5677 H              1 S1                 0.0000
     31 ****         2.6445  -2.7994   1.4535 H              1 S1                 0.0000
     32 ****         5.7772   0.3243  -1.1942 H              1 S1                 0.0000
     33 ****         6.3077  -1.3213  -0.8939 H              1 S1                 0.0000
     34 ****         5.2355  -2.6060  -4.0875 H              1 S1                 0.0000
     35 ****         5.6428  -3.0288  -2.4368 H              1 S1                 0.0000
     36 ****         3.1328   0.8384  -0.8498 H              1 S1                 0.0000
     37 ****        -1.9742   2.3227   2.2584 H              1 S1                 0.0000
     38 ****        -1.0710   2.9381   0.9062 H              1 S1                 0.0000
     39 ****        -2.4819   1.6001  -0.6889 H              1 S1                 0.0000
     40 ****        -3.4358   2.7133   0.2758 H              1 S1                 0.0000
     41 ****        -3.9774   0.9424   1.7304 LP             1 S1                 0.0000
     42 ****         0.3857   2.5453  -0.0557 LP             1 S1                 0.0000
     43 ****         1.7967   1.5877  -0.3591 LP             1 S1                 0.0000
     44 ****         4.8140  -2.8503   0.2765 LP             1 S1                 0.0000
     45 ****         4.8230   0.7651  -3.2449 LP             1 S1                 0.0000
     46 ****         4.7616  -0.4083  -4.5175 LP             1 S1                 0.0000
@<TRIPOS>BOND
    1    1    2 1     
    2    1   21 1     
    3    1   22 1     
    4    1   23 1     
    5    2    3 1     
    6    2   24 1     
    7    2   25 1     
    8    3   20 1     
    9    3    4 1     
   10    4    5 1     
   11    4   26 1     
   12    4   27 1     
   13    5    6 1     
   14    5   28 1     
   15    5   29 1     
   16    6    7 am    
   17    6   19 1     
   18    7    8 2     
   19    7    9 am    
   20    9   10 1     
   21    9   30 1     
   22   10   18 2     
   23   10   11 1     
   24   11   12 2     
   25   11   31 1     
   26   12   13 1     
   27   13   14 1     
   28   13   18 1     
   29   14   15 1     
   30   14   32 1     
   31   14   33 1     
   32   15   16 am    
   33   15   17 2     
   34   16   34 1     
   35   16   35 1     
   36   18   36 1     
   37   19   20 1     
   38   19   37 1     
   39   19   38 1     
   40   20   39 1     
   41   20   40 1     
   42    3   41 1     
   43    8   42 1     
   44    8   43 1     
   45   12   44 1     
   46   17   45 1     
   47   17   46 1     
@<TRIPOS>SUBSTRUCTURE
      1 S1             1
@<TRIPOS>SET
LONE_PAIRS      STATIC     ATOMS    <user>   **** ""
6 41 42 43 44 45 46
DONOR_HYDROGENS      STATIC     ATOMS    <user>   **** ""
3 30 34 35
ATOM$BLUE        STATIC     ATOMS    COLORGROUP SYSTEM
6 41 42 43 44 45 46
ATOM$RED        STATIC     ATOMS    COLORGROUP SYSTEM
3 30 34 35
