#       Name:                AV-unprocessed.smi:1199
#       Creating user name   scv26
#       Creation time:       Fri Mar 27 04:03:25 2020


#       File generated by GOLD software.
#

@<TRIPOS>MOLECULE
AV-unprocessed.smi:1199
    50    51     1
SMALL
NO_CHARGES


@<TRIPOS>ATOM
      1 ****        -2.4803  -2.6166   2.1621 C.3            1 S1                 0.0000
      2 ****        -1.8671  -1.4526   1.3724 C.3            1 S1                 0.0000
      3 ****        -2.0348  -1.6423  -0.1533 C.3            1 S1                 0.0000
      4 ****        -1.2740  -0.6516  -0.9596 N.4            1 S1                 1.0000
      5 ****        -1.0330  -1.1026  -2.3502 C.3            1 S1                 0.0000
      6 ****        -0.1730  -0.0733  -3.1033 C.3            1 S1                 0.0000
      7 ****        -0.7994   1.2036  -3.0634 O.3            1 S1                 0.0000
      8 ****        -0.9627   1.6765  -1.7318 C.3            1 S1                 0.0000
      9 ****        -1.8681   0.7065  -0.9555 C.3            1 S1                 0.0000
     10 ****        -0.4522  -1.3167   1.7151 N.am           1 S1                 0.0000
     11 ****         0.1678  -0.1718   2.0413 C.2            1 S1                 0.0000
     12 ****        -0.4229   0.8929   2.2258 O.2            1 S1                 0.0000
     13 ****         1.6940  -0.2414   2.1538 C.3            1 S1                 0.0000
     14 ****         2.3364   0.7667   1.3005 N.am           1 S1                 0.0000
     15 ****         2.5014   0.3360  -0.0871 N.pl3          1 S1                -1.0000
     16 ****         3.0896   1.1810  -0.9753 C.2            1 S1                 0.0000
     17 ****         3.2808   0.8820  -2.1514 O.2            1 S1                 0.0000
     18 ****         3.4973   2.4941  -0.5053 C.2            1 S1                 0.0000
     19 ****         3.3100   2.8727   0.7742 C.2            1 S1                 0.0000
     20 ****         2.6966   1.9972   1.7649 C.2            1 S1                 0.0000
     21 ****         2.5158   2.3418   2.9325 O.2            1 S1                 0.0000
     22 ****        -3.5410  -2.7267   1.9350 H              1 S1                 0.0000
     23 ****        -2.3898  -2.4527   3.2364 H              1 S1                 0.0000
     24 ****        -1.9894  -3.5616   1.9265 H              1 S1                 0.0000
     25 ****        -2.4077  -0.5525   1.6682 H              1 S1                 0.0000
     26 ****        -1.6737  -2.6397  -0.4093 H              1 S1                 0.0000
     27 ****        -3.0893  -1.6190  -0.4323 H              1 S1                 0.0000
     28 ****        -0.5244  -2.0673  -2.3457 H              1 S1                 0.0000
     29 ****        -1.9869  -1.2425  -2.8611 H              1 S1                 0.0000
     30 ****         0.8248  -0.0157  -2.6699 H              1 S1                 0.0000
     31 ****        -0.0495  -0.3741  -4.1436 H              1 S1                 0.0000
     32 ****         0.0075   1.7813  -1.2432 H              1 S1                 0.0000
     33 ****        -1.4133   2.6684  -1.7617 H              1 S1                 0.0000
     34 ****        -2.8605   0.6762  -1.4075 H              1 S1                 0.0000
     35 ****        -1.9952   1.0679   0.0637 H              1 S1                 0.0000
     36 ****         0.1214  -2.1413   1.6090 H              1 S1                 0.0000
     37 ****         1.9745  -0.1173   3.2009 H              1 S1                 0.0000
     38 ****         2.0473  -1.2359   1.8742 H              1 S1                 0.0000
     39 ****         3.9593   3.1827  -1.1976 H              1 S1                 0.0000
     40 ****         3.6278   3.8587   1.0789 H              1 S1                 0.0000
     41 ****        -0.3626  -0.5720  -0.5287 H              1 S1                 0.0000
     42 ****        -1.6993   1.1353  -3.4942 LP             1 S1                 0.0000
     43 ****        -0.2358   1.8556  -3.5705 LP             1 S1                 0.0000
     44 ****        -1.4178   0.9351   2.1342 LP             1 S1                 0.0000
     45 ****         0.0923   1.7153   2.4673 LP             1 S1                 0.0000
     46 ****         2.1861  -0.5671  -0.3786 LP             1 S1                 0.0000
     47 ****         2.9998  -0.0155  -2.4911 LP             1 S1                 0.0000
     48 ****         3.7174   1.5362  -2.7690 LP             1 S1                 0.0000
     49 ****         2.0902   1.7098   3.5802 LP             1 S1                 0.0000
     50 ****         2.7944   3.2538   3.2336 LP             1 S1                 0.0000
@<TRIPOS>BOND
    1    1    2 1     
    2    1   22 1     
    3    1   23 1     
    4    1   24 1     
    5    2    3 1     
    6    2   10 1     
    7    2   25 1     
    8    3    4 1     
    9    3   26 1     
   10    3   27 1     
   11    4    9 1     
   12    4    5 1     
   13    4   41 1     
   14    5    6 1     
   15    5   28 1     
   16    5   29 1     
   17    6    7 1     
   18    6   30 1     
   19    6   31 1     
   20    7    8 1     
   21    8    9 1     
   22    8   32 1     
   23    8   33 1     
   24    9   34 1     
   25    9   35 1     
   26   10   11 am    
   27   10   36 1     
   28   11   12 2     
   29   11   13 1     
   30   13   37 1     
   31   13   38 1     
   32   13   14 1     
   33   14   15 1     
   34   14   20 am    
   35   15   16 1     
   36   16   17 2     
   37   16   18 1     
   38   18   39 1     
   39   18   19 2     
   40   19   40 1     
   41   19   20 1     
   42   20   21 2     
   43    7   42 1     
   44    7   43 1     
   45   12   44 1     
   46   12   45 1     
   47   15   46 1     
   48   17   47 1     
   49   17   48 1     
   50   21   49 1     
   51   21   50 1     
@<TRIPOS>SUBSTRUCTURE
      1 S1             1
@<TRIPOS>SET
LONE_PAIRS      STATIC     ATOMS    <user>   **** ""
9 42 43 44 45 46 47 48 49 50
DONOR_HYDROGENS      STATIC     ATOMS    <user>   **** ""
2 41 36
ATOM$BLUE        STATIC     ATOMS    COLORGROUP SYSTEM
9 42 43 44 45 46 47 48 49 50
ATOM$RED        STATIC     ATOMS    COLORGROUP SYSTEM
2 41 36
