AV-unprocessed.smi:933|AV-procd|sdf|4204|dock5
  -GOLD-   22720 2113D 1   1.00000     0.00000
 Structure written by MMmdl.
 42 43  0  0  0  0  0  0  0  0  1 V2000
  153.0836  142.5003  160.2988 C   0  0  0  0  0  0  0  0  0  0  0  0
  153.4474  141.2901  159.4325 C   0  0  0  0  0  0  0  0  0  0  0  0
  152.5271  141.1176  158.2708 C   0  0  0  0  0  0  0  0  0  0  0  0
  152.6053  140.0958  157.4144 N   0  0  0  0  0  0  0  0  0  0  0  0
  151.6197  140.1453  156.4237 C   0  0  0  0  0  0  0  0  0  0  0  0
  151.5736  139.0865  155.3640 C   0  0  0  0  0  0  0  0  0  0  0  0
  150.2395  139.0875  154.6053 C   0  0  0  0  0  0  0  0  0  0  0  0
  149.8728  137.7328  154.2008 N   0  0  0  0  0  0  0  0  0  0  0  0
  149.4519  136.7352  154.9969 C   0  0  0  0  0  0  0  0  0  0  0  0
  149.3277  136.8812  156.2114 O   0  0  0  0  0  0  0  0  0  0  0  0
  149.1823  135.5863  154.3543 N   0  0  0  0  0  0  0  0  0  0  0  0
  148.7510  134.3431  154.9873 C   0  0  1  0  0  0  0  0  0  0  0  0
  147.5483  133.7518  154.2286 C   0  0  0  0  0  0  0  0  0  0  0  0
  148.0820  132.5306  153.4817 C   0  0  0  0  0  0  0  0  0  0  0  0
  149.1928  132.0064  154.3849 C   0  0  0  0  0  0  0  0  0  0  0  0
  149.8650  133.2704  154.9333 C   0  0  2  0  0  0  0  0  0  0  0  0
  150.5743  133.0440  156.2758 C   0  0  0  0  0  0  0  0  0  0  0  0
  150.7738  141.2182  156.5555 C   0  0  0  0  0  0  0  0  0  0  0  0
  151.1879  142.2070  157.9288 S   0  0  0  0  0  0  0  0  0  0  0  0
  153.7742  142.5997  161.1366 H   0  0  0  0  0  0  0  0  0  0  0  0
  152.0771  142.4037  160.7066 H   0  0  0  0  0  0  0  0  0  0  0  0
  153.1244  143.4239  159.7212 H   0  0  0  0  0  0  0  0  0  0  0  0
  154.4660  141.3945  159.0576 H   0  0  0  0  0  0  0  0  0  0  0  0
  153.4286  140.3821  160.0362 H   0  0  0  0  0  0  0  0  0  0  0  0
  152.3938  139.2330  154.6598 H   0  0  0  0  0  0  0  0  0  0  0  0
  151.7355  138.1053  155.8123 H   0  0  0  0  0  0  0  0  0  0  0  0
  149.4517  139.5028  155.2359 H   0  0  0  0  0  0  0  0  0  0  0  0
  150.3199  139.7232  153.7217 H   0  0  0  0  0  0  0  0  0  0  0  0
  149.9153  137.5378  153.2109 H   0  0  0  0  0  0  0  0  0  0  0  0
  149.3086  135.5652  153.3528 H   0  0  0  0  0  0  0  0  0  0  0  0
  148.4456  134.5395  156.0170 H   0  0  0  0  0  0  0  0  0  0  0  0
  146.7958  133.4276  154.9487 H   0  0  0  0  0  0  0  0  0  0  0  0
  147.0625  134.4636  153.5594 H   0  0  0  0  0  0  0  0  0  0  0  0
  147.3097  131.7859  153.2875 H   0  0  0  0  0  0  0  0  0  0  0  0
  148.5006  132.8381  152.5224 H   0  0  0  0  0  0  0  0  0  0  0  0
  148.7539  131.4274  155.1991 H   0  0  0  0  0  0  0  0  0  0  0  0
  149.8910  131.3573  153.8554 H   0  0  0  0  0  0  0  0  0  0  0  0
  150.6151  133.5751  154.2011 H   0  0  0  0  0  0  0  0  0  0  0  0
  149.8738  132.7230  157.0473 H   0  0  0  0  0  0  0  0  0  0  0  0
  151.0561  133.9583  156.6227 H   0  0  0  0  0  0  0  0  0  0  0  0
  151.3450  132.2784  156.1851 H   0  0  0  0  0  0  0  0  0  0  0  0
  149.9344  141.4857  155.9309 H   0  0  0  0  0  0  0  0  0  0  0  0
  1  2  1  0  0  0  0
  1 20  1  0  0  0  0
  1 21  1  0  0  0  0
  1 22  1  0  0  0  0
  2  3  1  0  0  0  0
  2 23  1  0  0  0  0
  2 24  1  0  0  0  0
  3 19  1  0  0  0  0
  3  4  2  0  0  0  0
  4  5  1  0  0  0  0
  5  6  1  0  0  0  0
  5 18  2  0  0  0  0
  6  7  1  0  0  0  0
  6 25  1  0  0  0  0
  6 26  1  0  0  0  0
  7  8  1  0  0  0  0
  7 27  1  0  0  0  0
  7 28  1  0  0  0  0
  8  9  1  0  0  0  0
  8 29  1  0  0  0  0
  9 10  2  0  0  0  0
  9 11  1  0  0  0  0
 11 12  1  0  0  0  0
 11 30  1  0  0  0  0
 12 16  1  0  0  0  0
 12 13  1  0  0  0  0
 12 31  1  0  0  0  0
 13 14  1  0  0  0  0
 13 32  1  0  0  0  0
 13 33  1  0  0  0  0
 14 15  1  0  0  0  0
 14 34  1  0  0  0  0
 14 35  1  0  0  0  0
 15 16  1  0  0  0  0
 15 36  1  0  0  0  0
 15 37  1  0  0  0  0
 16 17  1  0  0  0  0
 16 38  1  0  0  0  0
 17 39  1  0  0  0  0
 17 40  1  0  0  0  0
 17 41  1  0  0  0  0
 18 19  1  0  0  0  0
 18 42  1  0  0  0  0
M  END
> <s_m_source_file>
AV-unprocessed.smi

> <i_m_source_file_index>
933

> <i_lp_mmshare_version>
43012

> <i_f3d_flags>
0

> <s_epik_input>
W0NIM11bQ0gyXWMxbmMoW2NIXXMxKVtDSDJdW0NIMl1bTkhdQyg9TylbTkhdW0NAQEhdMltDSDJdW0NIMl1bQ0gyXVtDQEhdMltDSDNd

> <s_epik_cmdline>
J2VwaWtfcHl0aG9uJywgJy1waCcsICc3LjAnLCAnLXRuJywgJzgnLCAnLW1hJywgJzIwMCcsICctbWV0YWxfYmluZGluZycsICctaW1hZScsICc8aW5maWxlLm1hZT4nLCAnLW9tYWUnLCAnPG91dGZpbGUubWFlPic=

> <r_epik_Ionization_Penalty>
0.00203408

> <r_epik_Ionization_Penalty_Charging>
0

> <r_epik_Ionization_Penalty_Neutral>
0.00203408

> <r_epik_State_Penalty>
0.0013452

> <r_epik_Charging_Adjusted_Penalty>
0.0013452

> <i_epik_Tot_Q>
0

> <i_epik_Tot_abs_Q>
0

> <r_epik_Metal_State_Penalty>
-0

> <b_epik_Metal_Only>
0

> <s_lp_Force_Field>
OPLS_2005

> <r_lp_Energy>
18.1851

> <b_lp_Chiralities_Consistent>
1

> <s_lp_Variant>
AV-unprocessed.smi:933-4

> <Gold.Version>
5.8.1

> <Gold.Id.Protein>
6NUR|6NUR_protein|mol2

> <Gold.PLP.Fitness>
42.8507

> <Gold.PLP.PLP>
-36.2192

> <Gold.PLP.part.hbond>
-3.0000

> <Gold.PLP.part.metal>
0.0000

> <Gold.PLP.part.buried>
-3.6354

> <Gold.PLP.part.nonpolar>
-30.3714

> <Gold.PLP.part.repulsive>
0.0804

> <Gold.PLP.ligand.clash>
0.0000

> <Gold.PLP.ligand.torsion>
0.6000

> <Gold.PLP.Chemscore.Hbond>
2.5963

> <Gold.PLP.Chemscore.CHOScore>
0.0000

> <Gold.PLP.Chemscore.Metal>
0.0000

> <Gold.Chemscore.Hbonds>
donor molecule, donor type, donor heavy atom, donor atom, acceptor molecule, acceptor atom, score
      L1  H     8    29       P1  7948  0.70
      L1  H    11    30       P1  7948  1.00
      P1  H  7997  8010       L1     4  1.00

> <Gold.PLP.Chemscore.Internal.Correction>
0.0427

> <Gold.Rescore>
     Score         DG    S(hbond)    S(metal)    S(lipo)     H(rot)  DE(clash)    DE(int)     intcor
     17.90     -18.59       2.00        0.00      88.74       1.55       0.01       0.69       ----

> <Gold.Chemscore.Fitness>
17.8993

> <Gold.Chemscore.DG>
-18.5923

> <Gold.Chemscore.ZeroCoef>
-5.4800

> <Gold.Chemscore.Hbond>
2.0041

> <Gold.Chemscore.Metal>
0.0000

> <Gold.Chemscore.Lipo>
88.7367

> <Gold.Chemscore.Internal_Hbond>
0.0000

> <Gold.Chemscore.DEClash>
0.0060

> <Gold.Chemscore.DEInternal>
0.6870

> <Gold.Chemscore.Rot>
1.5482

> <Gold.Chemscore.Internal.Correction>
   9.000000E+99

> <Gold.Chemscore.Hbonds>
donor molecule, donor type, donor heavy atom, donor atom, acceptor molecule, acceptor atom, score
      L1  H     8    29       P1  7948  0.26
      L1  H    11    30       P1  7948  0.28
      P1  H  7997  8010       L1     4  0.45

> <Gold.Chemscore.Hbond.Weighted>
-6.6935

> <Gold.Chemscore.Metal.Weighted>
-0.0000

> <Gold.Chemscore.Lipo.Weighted>
-10.3822

> <Gold.Chemscore.Internal_Hbond.Weighted>
0.0000

> <Gold.Chemscore.DEClash.Weighted>
0.0060

> <Gold.Chemscore.DEInternal.Weighted>
0.6870

> <Gold.Chemscore.Rot.Weighted>
3.9635

> <Gold.Chemscore.Internal.Correction.Weighted>
   9.000000E+99

> <Gold.Protein.RotatedTorsions>
[ 6907 6896 6895 6894 ] final   27.81 input  -60.11 | X-H torsion
[ 7974 7965 7964 7962 ] final  -62.80 input  175.53 | X-H torsion
[ 8008 7997 7996 7995 ] final   46.39 input   59.86 | X-H torsion
[ 10167 10162 10161 10158 ] final   60.46 input  -65.29 | X-H torsion
[ 10718 10713 10712 10709 ] final  137.88 input   66.30 | X-H torsion
[ 10763 10752 10751 10750 ] final  157.12 input  -60.55 | X-H torsion
[ 11005 11000 10999 10996 ] final   39.79 input  -57.11 | X-H torsion

> <Gold.Protein.ActiveResidues>
 VAL166  LYS551  ARG553  GLY616  TRP617  ASP618  TYR619  PRO620  LYS621  CYS622 
 ASP623  PHE694  ASN695  SER759  ASP760  ASP761  ALA762  ILE779  LEU786  VAL792 
 PHE793  MET794  SER795  GLU796  ALA797  LYS798  CYS799  TRP800  GLU811  SER814 

> <Gold.Protein.RotatedAtoms>
  152.0077  134.9893  160.0566 H   0  0  0  0  0  0  0  0  0  0  0  0  # atno 6907 bound_to 6896
  152.1458  133.4487  159.4797 H   0  0  0  0  0  0  0  0  0  0  0  0  # atno 6908 bound_to 6896
  150.6870  134.2167  159.4424 H   0  0  0  0  0  0  0  0  0  0  0  0  # atno 6909 bound_to 6896
  145.7868  140.8732  143.0301 H   0  0  0  0  0  0  0  0  0  0  0  0  # atno 7974 bound_to 7965
  155.3517  140.3414  155.4239 H   0  0  0  0  0  0  0  0  0  0  0  0  # atno 8008 bound_to 7997
  156.1760  140.1648  156.8396 H   0  0  0  0  0  0  0  0  0  0  0  0  # atno 8009 bound_to 7997
  154.5283  140.0751  156.8281 H   0  0  0  0  0  0  0  0  0  0  0  0  # atno 8010 bound_to 7997
  140.1654  144.4329  150.6688 H   0  0  0  0  0  0  0  0  0  0  0  0  # atno 10167 bound_to 10162
  157.4313  131.1049  151.0246 H   0  0  0  0  0  0  0  0  0  0  0  0  # atno 10718 bound_to 10713
  154.1952  135.2793  155.3009 H   0  0  0  0  0  0  0  0  0  0  0  0  # atno 10763 bound_to 10752
  154.5898  135.5563  153.7270 H   0  0  0  0  0  0  0  0  0  0  0  0  # atno 10764 bound_to 10752
  153.0102  135.6365  154.2090 H   0  0  0  0  0  0  0  0  0  0  0  0  # atno 10765 bound_to 10752
  140.1994  134.3889  155.8104 H   0  0  0  0  0  0  0  0  0  0  0  0  # atno 11005 bound_to 11000
  144.6788  140.0067  143.7484 LP  0  0  0  0  0  0  0  0  0  0  0  0  # atno 17320 bound_to 7965
  146.0018  139.3097  143.0923 LP  0  0  0  0  0  0  0  0  0  0  0  0  # atno 17321 bound_to 7965
  140.6616  143.2254  151.5842 LP  0  0  0  0  0  0  0  0  0  0  0  0  # atno 17342 bound_to 10162
  139.5362  144.2775  152.1256 LP  0  0  0  0  0  0  0  0  0  0  0  0  # atno 17343 bound_to 10162
  157.1142  130.6034  149.5489 LP  0  0  0  0  0  0  0  0  0  0  0  0  # atno 17370 bound_to 10713
  155.9914  130.4969  150.7299 LP  0  0  0  0  0  0  0  0  0  0  0  0  # atno 17371 bound_to 10713
  141.2227  133.7086  156.8231 LP  0  0  0  0  0  0  0  0  0  0  0  0  # atno 17394 bound_to 11000
  140.2071  134.8854  157.3234 LP  0  0  0  0  0  0  0  0  0  0  0  0  # atno 17395 bound_to 11000

$$$$
