#       Name:                AV-unprocessed.smi:3244
#       Creating user name   scv26
#       Creation time:       Fri Mar 27 18:27:08 2020


#       File generated by GOLD software.
#

@<TRIPOS>MOLECULE
AV-unprocessed.smi:3244
    44    45     1
SMALL
NO_CHARGES


@<TRIPOS>ATOM
      1 ****        -3.1023  -0.7244   2.5209 C.3            1 S1                 0.0000
      2 ****        -3.0795  -0.1170   1.1086 C.3            1 S1                 0.0000
      3 ****        -2.1245   0.9964   1.0019 N.am           1 S1                 0.0000
      4 ****        -0.7905   0.8199   0.8236 C.2            1 S1                 0.0000
      5 ****         0.0165   1.7446   0.9358 O.2            1 S1                 0.0000
      6 ****        -0.2628  -0.5751   0.4471 C.3            1 S1                 0.0000
      7 ****         1.2089  -0.5961   0.3002 N.4            1 S1                 1.0000
      8 ****         1.7784  -1.8462  -0.2529 C.3            1 S1                 0.0000
      9 ****         1.7698  -2.9683   0.7985 C.3            1 S1                 0.0000
     10 ****         3.2068  -1.5940  -0.7744 C.3            1 S1                 0.0000
     11 ****         3.2328  -0.6522  -1.8800 N.pl3          1 S1                 0.0000
     12 ****         3.1703  -0.9155  -3.2321 C.2            1 S1                 0.0000
     13 ****         3.2199   0.2844  -3.8820 C.2            1 S1                 0.0000
     14 ****         3.3135   1.2368  -2.8291 C.2            1 S1                 0.0000
     15 ****         3.3192   0.6730  -1.6319 N.2            1 S1                 0.0000
     16 ****        -2.7113   2.2727   1.3192 C.3            1 S1                 0.0000
     17 ****        -3.6925   2.8915   0.3458 C.3            1 S1                 0.0000
     18 ****        -2.3396   3.5249   0.5433 C.3            1 S1                 0.0000
     19 ****        -3.8191  -1.5439   2.5749 H              1 S1                 0.0000
     20 ****        -3.3981   0.0187   3.2620 H              1 S1                 0.0000
     21 ****        -2.1312  -1.1176   2.8181 H              1 S1                 0.0000
     22 ****        -2.8691  -0.8910   0.3706 H              1 S1                 0.0000
     23 ****        -4.0836   0.2309   0.8630 H              1 S1                 0.0000
     24 ****        -0.5529  -1.3024   1.2029 H              1 S1                 0.0000
     25 ****        -0.7163  -0.8736  -0.4988 H              1 S1                 0.0000
     26 ****         1.4517   0.1513  -0.3357 H              1 S1                 0.0000
     27 ****         1.1655  -2.1603  -1.0993 H              1 S1                 0.0000
     28 ****         2.2048  -3.8834   0.3958 H              1 S1                 0.0000
     29 ****         0.7583  -3.2116   1.1230 H              1 S1                 0.0000
     30 ****         2.3461  -2.6893   1.6812 H              1 S1                 0.0000
     31 ****         3.8523  -1.2234   0.0237 H              1 S1                 0.0000
     32 ****         3.6496  -2.5286  -1.1219 H              1 S1                 0.0000
     33 ****         3.0957  -1.9226  -3.6155 H              1 S1                 0.0000
     34 ****         3.1947   0.4561  -4.9481 H              1 S1                 0.0000
     35 ****         3.3761   2.3130  -2.8985 H              1 S1                 0.0000
     36 ****        -2.9297   2.4284   2.3740 H              1 S1                 0.0000
     37 ****        -3.8685   2.3786  -0.5979 H              1 S1                 0.0000
     38 ****        -4.5552   3.4068   0.7631 H              1 S1                 0.0000
     39 ****        -2.3001   4.4623   1.0945 H              1 S1                 0.0000
     40 ****        -1.6408   3.4463  -0.2871 H              1 S1                 0.0000
     41 ****         1.6375  -0.3982   1.1930 H              1 S1                 0.0000
     42 ****        -0.3046   2.6633   1.1657 LP             1 S1                 0.0000
     43 ****         0.9924   1.5761   0.7970 LP             1 S1                 0.0000
     44 ****         3.3750   1.1265  -0.7424 LP             1 S1                 0.0000
@<TRIPOS>BOND
    1    1    2 1     
    2    1   19 1     
    3    1   20 1     
    4    1   21 1     
    5    2    3 1     
    6    2   22 1     
    7    2   23 1     
    8    3    4 am    
    9    3   16 1     
   10    4    5 2     
   11    4    6 1     
   12    6    7 1     
   13    6   24 1     
   14    6   25 1     
   15    7    8 1     
   16    7   26 1     
   17    7   41 1     
   18    8    9 1     
   19    8   10 1     
   20    8   27 1     
   21    9   28 1     
   22    9   29 1     
   23    9   30 1     
   24   10   11 1     
   25   10   31 1     
   26   10   32 1     
   27   11   15 1     
   28   11   12 1     
   29   12   13 2     
   30   12   33 1     
   31   13   14 1     
   32   13   34 1     
   33   14   15 2     
   34   14   35 1     
   35   16   18 1     
   36   16   17 1     
   37   16   36 1     
   38   17   18 1     
   39   17   37 1     
   40   17   38 1     
   41   18   39 1     
   42   18   40 1     
   43    5   42 1     
   44    5   43 1     
   45   15   44 1     
@<TRIPOS>SUBSTRUCTURE
      1 S1             1
@<TRIPOS>SET
LONE_PAIRS      STATIC     ATOMS    <user>   **** ""
3 42 43 44
DONOR_HYDROGENS      STATIC     ATOMS    <user>   **** ""
2 26 41
ATOM$BLUE        STATIC     ATOMS    COLORGROUP SYSTEM
3 42 43 44
ATOM$RED        STATIC     ATOMS    COLORGROUP SYSTEM
2 26 41
