AV-unprocessed.smi:2078|AV-procd|sdf|8472|dock3
  -GOLD-   2272011173D 1   1.00000     0.00000
 Structure written by MMmdl.
 41 42  0  0  0  0  0  0  0  0  3 V2000
  153.7933  141.4022  159.8369 C   0  0  0  0  0  0  0  0  0  0  0  0
  152.9051  140.8374  158.7815 C   0  0  0  0  0  0  0  0  0  0  0  0
  151.6362  141.1419  158.3761 C   0  0  0  0  0  0  0  0  0  0  0  0
  151.4012  140.2115  157.3289 C   0  0  0  0  0  0  0  0  0  0  0  0
  150.1623  140.2019  156.6354 N   0  0  0  0  0  0  0  0  0  0  0  0
  149.9194  139.9051  155.3460 C   0  0  0  0  0  0  0  0  0  0  0  0
  150.8494  139.6108  154.5854 O   0  0  0  0  0  0  0  0  0  0  0  0
  148.5944  139.9827  155.0407 N   0  5  0  0  0  0  0  0  0  0  0  0
  147.9478  139.2692  153.9410 C   0  0  0  0  0  0  0  0  0  0  0  0
  147.1837  138.0412  154.4753 C   0  0  0  0  0  0  0  0  0  0  0  0
  146.5912  137.2452  153.3687 N   0  3  2  0  0  0  0  0  0  0  0  0
  145.9651  138.0798  152.3066 C   0  0  0  0  0  0  0  0  0  0  0  0
  145.5376  137.2169  151.1093 C   0  0  0  0  0  0  0  0  0  0  0  0
  144.5946  136.0895  151.5533 C   0  0  0  0  0  0  0  0  0  0  0  0
  145.2095  135.2629  152.6984 C   0  0  1  0  0  0  0  0  0  0  0  0
  146.3379  134.3317  152.2212 C   0  0  0  0  0  0  0  0  0  0  0  0
  145.6654  136.1849  153.8484 C   0  0  0  0  0  0  0  0  0  0  0  0
  152.4357  139.4123  157.1134 N   0  0  0  0  0  0  0  0  0  0  0  0
  153.4041  139.8085  158.0435 O   0  0  0  0  0  0  0  0  0  0  0  0
  153.6176  142.4710  159.9598 H   0  0  0  0  0  0  0  0  0  0  0  0
  154.8436  141.2609  159.5814 H   0  0  0  0  0  0  0  0  0  0  0  0
  153.6091  140.9168  160.7954 H   0  0  0  0  0  0  0  0  0  0  0  0
  150.9818  141.9063  158.7679 H   0  0  0  0  0  0  0  0  0  0  0  0
  149.3521  140.4373  157.1892 H   0  0  0  0  0  0  0  0  0  0  0  0
  147.2602  139.9071  153.3840 H   0  0  0  0  0  0  0  0  0  0  0  0
  148.6820  138.9310  153.2094 H   0  0  0  0  0  0  0  0  0  0  0  0
  147.8839  137.4269  155.0436 H   0  0  0  0  0  0  0  0  0  0  0  0
  146.4055  138.3371  155.1811 H   0  0  0  0  0  0  0  0  0  0  0  0
  145.1025  138.6065  152.7177 H   0  0  0  0  0  0  0  0  0  0  0  0
  146.6661  138.8428  151.9657 H   0  0  0  0  0  0  0  0  0  0  0  0
  145.0447  137.8388  150.3615 H   0  0  0  0  0  0  0  0  0  0  0  0
  146.4195  136.7977  150.6241 H   0  0  0  0  0  0  0  0  0  0  0  0
  143.6543  136.5265  151.8921 H   0  0  0  0  0  0  0  0  0  0  0  0
  144.3450  135.4481  150.7073 H   0  0  0  0  0  0  0  0  0  0  0  0
  144.4234  134.6160  153.0899 H   0  0  0  0  0  0  0  0  0  0  0  0
  147.1934  134.8897  151.8402 H   0  0  0  0  0  0  0  0  0  0  0  0
  145.9918  133.6713  151.4258 H   0  0  0  0  0  0  0  0  0  0  0  0
  146.6949  133.7021  153.0367 H   0  0  0  0  0  0  0  0  0  0  0  0
  146.1524  135.5866  154.6202 H   0  0  0  0  0  0  0  0  0  0  0  0
  144.7991  136.6548  154.3170 H   0  0  0  0  0  0  0  0  0  0  0  0
  147.3677  136.7610  152.9412 H   0  0  0  0  0  0  0  0  0  0  0  0
  1  2  1  0  0  0  0
  1 20  1  0  0  0  0
  1 21  1  0  0  0  0
  1 22  1  0  0  0  0
  2 19  1  0  0  0  0
  2  3  2  0  0  0  0
  3  4  1  0  0  0  0
  3 23  1  0  0  0  0
  4  5  1  0  0  0  0
  4 18  2  0  0  0  0
  5  6  1  0  0  0  0
  5 24  1  0  0  0  0
  6  7  2  0  0  0  0
  6  8  1  0  0  0  0
  8  9  1  0  0  0  0
  9 10  1  0  0  0  0
  9 25  1  0  0  0  0
  9 26  1  0  0  0  0
 10 11  1  0  0  0  0
 10 27  1  0  0  0  0
 10 28  1  0  0  0  0
 11 17  1  0  0  0  0
 11 12  1  0  0  0  0
 11 41  1  0  0  0  0
 12 13  1  0  0  0  0
 12 29  1  0  0  0  0
 12 30  1  0  0  0  0
 13 14  1  0  0  0  0
 13 31  1  0  0  0  0
 13 32  1  0  0  0  0
 14 15  1  0  0  0  0
 14 33  1  0  0  0  0
 14 34  1  0  0  0  0
 15 16  1  0  0  0  0
 15 17  1  0  0  0  0
 15 35  1  0  0  0  0
 16 36  1  0  0  0  0
 16 37  1  0  0  0  0
 16 38  1  0  0  0  0
 17 39  1  0  0  0  0
 17 40  1  0  0  0  0
 18 19  1  0  0  0  0
M  CHG  1   8  -1
M  CHG  1  11   1
M  END
> <s_m_source_file>
AV-unprocessed.smi

> <i_m_source_file_index>
2078

> <i_lp_mmshare_version>
43012

> <i_f3d_flags>
0

> <s_epik_input>
W0NIM11jMVtjSF1jKG5vMSlbTkhdQyg9TylbTkhdW0NIMl1bQ0gyXU4yW0NIMl1bQ0gyXVtDSDJdW0NAQEhdKFtDSDNdKVtDSDJdMg==

> <s_epik_cmdline>
J2VwaWtfcHl0aG9uJywgJy1waCcsICc3LjAnLCAnLXRuJywgJzgnLCAnLW1hJywgJzIwMCcsICctbWV0YWxfYmluZGluZycsICctaW1hZScsICc8aW5maWxlLm1hZT4nLCAnLW9tYWUnLCAnPG91dGZpbGUubWFlPic=

> <r_epik_Ionization_Penalty>
6.76934

> <r_epik_Ionization_Penalty_Charging>
6.76934

> <r_epik_Ionization_Penalty_Neutral>
5.77849e-06

> <r_epik_State_Penalty>
6.79457

> <r_epik_Charging_Adjusted_Penalty>
13.5639

> <i_epik_Tot_Q>
0

> <i_epik_Tot_abs_Q>
2

> <r_epik_Metal_State_Penalty>
2.72837

> <b_epik_Metal_Only>
1

> <s_lp_Force_Field>
OPLS_2005

> <r_lp_Energy>
14.163

> <b_lp_Chiralities_Consistent>
1

> <s_lp_Variant>
AV-unprocessed.smi:2078-10

> <Gold.Version>
5.8.1

> <Gold.Id.Protein>
6NUR|6NUR_protein|mol2

> <Gold.PLP.Fitness>
36.9902

> <Gold.PLP.PLP>
-26.7090

> <Gold.PLP.part.hbond>
-3.3009

> <Gold.PLP.part.metal>
0.0000

> <Gold.PLP.part.buried>
1.4325

> <Gold.PLP.part.nonpolar>
-24.6881

> <Gold.PLP.part.repulsive>
0.2112

> <Gold.PLP.ligand.clash>
0.0000

> <Gold.PLP.ligand.torsion>
0.5734

> <Gold.PLP.Chemscore.Hbond>
3.8000

> <Gold.PLP.Chemscore.CHOScore>
0.0000

> <Gold.PLP.Chemscore.Metal>
0.0000

> <Gold.Chemscore.Hbonds>
donor molecule, donor type, donor heavy atom, donor atom, acceptor molecule, acceptor atom, score
      L1  H    11    41       P1  7948  2.00
      P1  H  7989  7998       L1     7  1.00
      P1  H  7997  8010       L1    19  0.85

> <Gold.PLP.Chemscore.Internal.Correction>
0.0281

> <Gold.Rescore>
     Score         DG    S(hbond)    S(metal)    S(lipo)     H(rot)  DE(clash)    DE(int)     intcor
     14.33     -15.31       2.00        0.00      60.64       1.54       0.29       0.69       ----

> <Gold.Chemscore.Fitness>
14.3343

> <Gold.Chemscore.DG>
-15.3130

> <Gold.Chemscore.ZeroCoef>
-5.4800

> <Gold.Chemscore.Hbond>
2.0008

> <Gold.Chemscore.Metal>
0.0000

> <Gold.Chemscore.Lipo>
60.6406

> <Gold.Chemscore.Internal_Hbond>
0.0000

> <Gold.Chemscore.DEClash>
0.2851

> <Gold.Chemscore.DEInternal>
0.6936

> <Gold.Chemscore.Rot>
1.5409

> <Gold.Chemscore.Internal.Correction>
   9.000000E+99

> <Gold.Chemscore.Hbonds>
donor molecule, donor type, donor heavy atom, donor atom, acceptor molecule, acceptor atom, score
      L1  H    11    41       P1  7948  0.97
      P1  H  7989  7998       L1     7  0.99
      P1  H  7997  8010       L1    19  0.54

> <Gold.Chemscore.Hbond.Weighted>
-6.6826

> <Gold.Chemscore.Metal.Weighted>
-0.0000

> <Gold.Chemscore.Lipo.Weighted>
-7.0949

> <Gold.Chemscore.Internal_Hbond.Weighted>
0.0000

> <Gold.Chemscore.DEClash.Weighted>
0.2851

> <Gold.Chemscore.DEInternal.Weighted>
0.6936

> <Gold.Chemscore.Rot.Weighted>
3.9446

> <Gold.Chemscore.Internal.Correction.Weighted>
   9.000000E+99

> <Gold.Protein.RotatedTorsions>
[ 6907 6896 6895 6894 ] final   34.59 input  -60.11 | X-H torsion
[ 7974 7965 7964 7962 ] final   35.72 input  175.53 | X-H torsion
[ 8008 7997 7996 7995 ] final   13.80 input   59.86 | X-H torsion
[ 10167 10162 10161 10158 ] final  -47.99 input  -65.29 | X-H torsion
[ 10718 10713 10712 10709 ] final -145.94 input   66.30 | X-H torsion
[ 10763 10752 10751 10750 ] final  102.52 input  -60.55 | X-H torsion
[ 11005 11000 10999 10996 ] final   -5.92 input  -57.11 | X-H torsion

> <Gold.Protein.ActiveResidues>
 VAL166  LYS551  ARG553  GLY616  TRP617  ASP618  TYR619  PRO620  LYS621  CYS622 
 ASP623  PHE694  ASN695  SER759  ASP760  ASP761  ALA762  ILE779  LEU786  VAL792 
 PHE793  MET794  SER795  GLU796  ALA797  LYS798  CYS799  TRP800  GLU811  SER814 

> <Gold.Protein.RotatedAtoms>
  152.1044  134.9319  160.0568 H   0  0  0  0  0  0  0  0  0  0  0  0  # atno 6907 bound_to 6896
  152.0520  133.4018  159.4389 H   0  0  0  0  0  0  0  0  0  0  0  0  # atno 6908 bound_to 6896
  150.6840  134.3217  159.4833 H   0  0  0  0  0  0  0  0  0  0  0  0  # atno 6909 bound_to 6896
  146.1262  139.6106  142.9257 H   0  0  0  0  0  0  0  0  0  0  0  0  # atno 7974 bound_to 7965
  154.8395  140.2912  155.5669 H   0  0  0  0  0  0  0  0  0  0  0  0  # atno 8008 bound_to 7997
  156.3011  140.2516  156.3266 H   0  0  0  0  0  0  0  0  0  0  0  0  # atno 8009 bound_to 7997
  154.9141  140.0387  157.1952 H   0  0  0  0  0  0  0  0  0  0  0  0  # atno 8010 bound_to 7997
  140.6751  143.2760  151.4006 H   0  0  0  0  0  0  0  0  0  0  0  0  # atno 10167 bound_to 10162
  156.3887  130.7874  151.2074 H   0  0  0  0  0  0  0  0  0  0  0  0  # atno 10718 bound_to 10713
  153.3406  135.4008  155.1569 H   0  0  0  0  0  0  0  0  0  0  0  0  # atno 10763 bound_to 10752
  154.8643  135.3632  154.5351 H   0  0  0  0  0  0  0  0  0  0  0  0  # atno 10764 bound_to 10752
  153.5795  135.7077  153.5529 H   0  0  0  0  0  0  0  0  0  0  0  0  # atno 10765 bound_to 10752
  140.6964  133.9027  155.8653 H   0  0  0  0  0  0  0  0  0  0  0  0  # atno 11005 bound_to 11000
  145.5359  141.0424  143.2357 LP  0  0  0  0  0  0  0  0  0  0  0  0  # atno 17320 bound_to 7965
  144.7645  139.6878  143.7220 LP  0  0  0  0  0  0  0  0  0  0  0  0  # atno 17321 bound_to 7965
  139.6039  144.1239  152.2227 LP  0  0  0  0  0  0  0  0  0  0  0  0  # atno 17342 bound_to 10162
  140.0631  144.5840  150.7248 LP  0  0  0  0  0  0  0  0  0  0  0  0  # atno 17343 bound_to 10162
  157.7497  131.0322  150.4216 LP  0  0  0  0  0  0  0  0  0  0  0  0  # atno 17370 bound_to 10713
  156.4473  130.4004  149.6658 LP  0  0  0  0  0  0  0  0  0  0  0  0  # atno 17371 bound_to 10713
  141.0199  134.0903  157.4131 LP  0  0  0  0  0  0  0  0  0  0  0  0  # atno 17394 bound_to 11000
  139.8909  135.0115  156.6761 LP  0  0  0  0  0  0  0  0  0  0  0  0  # atno 17395 bound_to 11000

$$$$
