AV-unprocessed.smi:693|AV-procd|sdf|3373|dock7
  -GOLD-   22720 0353D 1   1.00000     0.00000
 Structure written by MMmdl.
 46 47  0  0  0  0  0  0  0  0  1 V2000
  151.5551  145.0534  159.4602 C   0  0  0  0  0  0  0  0  0  0  0  0
  152.2196  143.8583  160.1112 C   0  0  0  0  0  0  0  0  0  0  0  0
  152.2680  143.7461  161.5162 C   0  0  0  0  0  0  0  0  0  0  0  0
  152.8970  142.6182  162.0782 C   0  0  0  0  0  0  0  0  0  0  0  0
  153.4519  141.6501  161.2163 C   0  0  0  0  0  0  0  0  0  0  0  0
  154.1355  140.4143  161.7665 C   0  0  0  0  0  0  0  0  0  0  0  0
  153.4968  139.1193  161.2398 C   0  0  0  0  0  0  0  0  0  0  0  0
  154.2436  137.9413  161.6653 N   0  0  0  0  0  0  0  0  0  0  0  0
  153.9940  136.6820  161.2673 C   0  0  0  0  0  0  0  0  0  0  0  0
  153.0935  136.4157  160.4695 O   0  0  0  0  0  0  0  0  0  0  0  0
  154.8280  135.7446  161.7853 N   0  0  0  0  0  0  0  0  0  0  0  0
  155.4848  135.7959  163.1015 C   0  0  0  0  0  0  0  0  0  0  0  0
  154.7538  134.8294  164.0480 C   0  0  0  0  0  0  0  0  0  0  0  0
  154.7243  133.4020  163.4685 C   0  0  0  0  0  0  0  0  0  0  0  0
  154.2193  133.3708  162.0034 C   0  0  2  0  0  0  0  0  0  0  0  0
  154.3205  131.9755  161.3459 C   0  0  0  0  0  0  0  0  0  0  0  0
  154.1522  131.9940  159.8230 C   0  0  0  0  0  0  0  0  0  0  0  0
  155.1522  131.4915  159.0945 N   0  0  0  0  0  0  0  0  0  0  0  0
  153.1257  132.4338  159.3096 O   0  0  0  0  0  0  0  0  0  0  0  0
  154.9852  134.4214  161.1680 C   0  0  0  0  0  0  0  0  0  0  0  0
  153.3496  141.8573  159.8246 C   0  0  0  0  0  0  0  0  0  0  0  0
  152.7485  142.9355  159.2773 N   0  0  0  0  0  0  0  0  0  0  0  0
  150.5470  145.1867  159.8535 H   0  0  0  0  0  0  0  0  0  0  0  0
  151.4837  144.9321  158.3785 H   0  0  0  0  0  0  0  0  0  0  0  0
  152.1266  145.9588  159.6649 H   0  0  0  0  0  0  0  0  0  0  0  0
  151.8329  144.5059  162.1489 H   0  0  0  0  0  0  0  0  0  0  0  0
  152.9495  142.4991  163.1505 H   0  0  0  0  0  0  0  0  0  0  0  0
  155.1925  140.4524  161.5001 H   0  0  0  0  0  0  0  0  0  0  0  0
  154.0921  140.4371  162.8562 H   0  0  0  0  0  0  0  0  0  0  0  0
  152.4767  139.0289  161.6137 H   0  0  0  0  0  0  0  0  0  0  0  0
  153.4270  139.1422  160.1508 H   0  0  0  0  0  0  0  0  0  0  0  0
  155.0041  138.0907  162.3124 H   0  0  0  0  0  0  0  0  0  0  0  0
  156.5277  135.4937  162.9946 H   0  0  0  0  0  0  0  0  0  0  0  0
  155.5184  136.7919  163.5430 H   0  0  0  0  0  0  0  0  0  0  0  0
  155.2365  134.8239  165.0254 H   0  0  0  0  0  0  0  0  0  0  0  0
  153.7331  135.1795  164.2083 H   0  0  0  0  0  0  0  0  0  0  0  0
  155.7304  132.9826  163.5105 H   0  0  0  0  0  0  0  0  0  0  0  0
  154.1027  132.7747  164.1071 H   0  0  0  0  0  0  0  0  0  0  0  0
  153.1670  133.6618  162.0067 H   0  0  0  0  0  0  0  0  0  0  0  0
  155.2868  131.5277  161.5834 H   0  0  0  0  0  0  0  0  0  0  0  0
  153.5693  131.3084  161.7707 H   0  0  0  0  0  0  0  0  0  0  0  0
  155.0869  131.4788  158.0871 H   0  0  0  0  0  0  0  0  0  0  0  0
  155.9711  131.1225  159.5557 H   0  0  0  0  0  0  0  0  0  0  0  0
  154.6403  134.4075  160.1331 H   0  0  0  0  0  0  0  0  0  0  0  0
  156.0454  134.1670  161.1232 H   0  0  0  0  0  0  0  0  0  0  0  0
  153.7577  141.1371  159.1306 H   0  0  0  0  0  0  0  0  0  0  0  0
  1  2  1  0  0  0  0
  1 23  1  0  0  0  0
  1 24  1  0  0  0  0
  1 25  1  0  0  0  0
  2 22  1  0  0  0  0
  2  3  2  0  0  0  0
  3  4  1  0  0  0  0
  3 26  1  0  0  0  0
  4  5  2  0  0  0  0
  4 27  1  0  0  0  0
  5  6  1  0  0  0  0
  5 21  1  0  0  0  0
  6  7  1  0  0  0  0
  6 28  1  0  0  0  0
  6 29  1  0  0  0  0
  7  8  1  0  0  0  0
  7 30  1  0  0  0  0
  7 31  1  0  0  0  0
  8  9  1  0  0  0  0
  8 32  1  0  0  0  0
  9 10  2  0  0  0  0
  9 11  1  0  0  0  0
 11 20  1  0  0  0  0
 11 12  1  0  0  0  0
 12 13  1  0  0  0  0
 12 33  1  0  0  0  0
 12 34  1  0  0  0  0
 13 14  1  0  0  0  0
 13 35  1  0  0  0  0
 13 36  1  0  0  0  0
 14 15  1  0  0  0  0
 14 37  1  0  0  0  0
 14 38  1  0  0  0  0
 15 16  1  0  0  0  0
 15 20  1  0  0  0  0
 15 39  1  0  0  0  0
 16 17  1  0  0  0  0
 16 40  1  0  0  0  0
 16 41  1  0  0  0  0
 17 18  1  0  0  0  0
 17 19  2  0  0  0  0
 18 42  1  0  0  0  0
 18 43  1  0  0  0  0
 20 44  1  0  0  0  0
 20 45  1  0  0  0  0
 21 22  2  0  0  0  0
 21 46  1  0  0  0  0
M  END
> <s_m_source_file>
AV-unprocessed.smi

> <i_m_source_file_index>
693

> <i_lp_mmshare_version>
43012

> <i_f3d_flags>
0

> <s_epik_input>
W0NIM11jMVtjSF1bY0hdYyhbY0hdbjEpW0NIMl1bQ0gyXVtOSF1DKD1PKU4yW0NIMl1bQ0gyXVtDSDJdW0NASF0oW0NIMl0yKVtDSDJdQyg9TylbTkgyXQ==

> <s_epik_cmdline>
J2VwaWtfcHl0aG9uJywgJy1waCcsICc3LjAnLCAnLXRuJywgJzgnLCAnLW1hJywgJzIwMCcsICctbWV0YWxfYmluZGluZycsICctaW1hZScsICc8aW5maWxlLm1hZT4nLCAnLW9tYWUnLCAnPG91dGZpbGUubWFlPic=

> <r_epik_Ionization_Penalty>
0.056948

> <r_epik_Ionization_Penalty_Charging>
0

> <r_epik_Ionization_Penalty_Neutral>
0.056948

> <r_epik_State_Penalty>
0.0490937

> <r_epik_Charging_Adjusted_Penalty>
0.0490937

> <i_epik_Tot_Q>
0

> <i_epik_Tot_abs_Q>
0

> <r_epik_Metal_State_Penalty>
0.0447689

> <b_epik_Metal_Only>
0

> <s_lp_Force_Field>
OPLS_2005

> <r_lp_Energy>
26.3335

> <b_lp_Chiralities_Consistent>
1

> <s_lp_Variant>
AV-unprocessed.smi:693-2

> <Gold.Version>
5.8.1

> <Gold.Id.Protein>
6NUR|6NUR_protein|mol2

> <Gold.PLP.Fitness>
45.4406

> <Gold.PLP.PLP>
-40.2516

> <Gold.PLP.part.hbond>
-1.9806

> <Gold.PLP.part.metal>
0.0000

> <Gold.PLP.part.buried>
-5.7957

> <Gold.PLP.part.nonpolar>
-33.3883

> <Gold.PLP.part.repulsive>
0.0000

> <Gold.PLP.ligand.clash>
0.0000

> <Gold.PLP.ligand.torsion>
0.4263

> <Gold.PLP.Chemscore.Hbond>
1.9920

> <Gold.PLP.Chemscore.CHOScore>
0.0000

> <Gold.PLP.Chemscore.Metal>
0.0000

> <Gold.Chemscore.Hbonds>
donor molecule, donor type, donor heavy atom, donor atom, acceptor molecule, acceptor atom, score
      P1  H  6896  6907       L1    10  1.00
      P1  H  6896  6908       L1    19  0.63

> <Gold.PLP.Chemscore.Internal.Correction>
0.0657

> <Gold.Rescore>
     Score         DG    S(hbond)    S(metal)    S(lipo)     H(rot)  DE(clash)    DE(int)     intcor
     18.45     -18.85       1.97        0.00     107.22       2.25       0.00       0.39       ----

> <Gold.Chemscore.Fitness>
18.4546

> <Gold.Chemscore.DG>
-18.8494

> <Gold.Chemscore.ZeroCoef>
-5.4800

> <Gold.Chemscore.Hbond>
1.9724

> <Gold.Chemscore.Metal>
0.0000

> <Gold.Chemscore.Lipo>
107.2207

> <Gold.Chemscore.Internal_Hbond>
0.0000

> <Gold.Chemscore.DEClash>
0.0000

> <Gold.Chemscore.DEInternal>
0.3949

> <Gold.Chemscore.Rot>
2.2512

> <Gold.Chemscore.Internal.Correction>
   9.000000E+99

> <Gold.Chemscore.Hbonds>
donor molecule, donor type, donor heavy atom, donor atom, acceptor molecule, acceptor atom, score
      P1  H  6896  6907       L1    10  1.00
      P1  H  6896  6908       L1    19  0.60

> <Gold.Chemscore.Hbond.Weighted>
-6.5877

> <Gold.Chemscore.Metal.Weighted>
-0.0000

> <Gold.Chemscore.Lipo.Weighted>
-12.5448

> <Gold.Chemscore.Internal_Hbond.Weighted>
0.0000

> <Gold.Chemscore.DEClash.Weighted>
0.0000

> <Gold.Chemscore.DEInternal.Weighted>
0.3949

> <Gold.Chemscore.Rot.Weighted>
5.7631

> <Gold.Chemscore.Internal.Correction.Weighted>
   9.000000E+99

> <Gold.Protein.RotatedTorsions>
[ 6907 6896 6895 6894 ] final   34.80 input  -60.11 | X-H torsion
[ 7974 7965 7964 7962 ] final  179.54 input  175.53 | X-H torsion
[ 8008 7997 7996 7995 ] final   89.11 input   59.86 | X-H torsion
[ 10167 10162 10161 10158 ] final  158.28 input  -65.29 | X-H torsion
[ 10718 10713 10712 10709 ] final -119.33 input   66.30 | X-H torsion
[ 10763 10752 10751 10750 ] final  -38.30 input  -60.55 | X-H torsion
[ 11005 11000 10999 10996 ] final   26.51 input  -57.11 | X-H torsion

> <Gold.Protein.ActiveResidues>
 VAL166  LYS551  ARG553  GLY616  TRP617  ASP618  TYR619  PRO620  LYS621  CYS622 
 ASP623  PHE694  ASN695  SER759  ASP760  ASP761  ALA762  ILE779  LEU786  VAL792 
 PHE793  MET794  SER795  GLU796  ALA797  LYS798  CYS799  TRP800  GLU811  SER814 

> <Gold.Protein.RotatedAtoms>
  152.1074  134.9298  160.0567 H   0  0  0  0  0  0  0  0  0  0  0  0  # atno 6907 bound_to 6896
  152.0489  133.4005  159.4377 H   0  0  0  0  0  0  0  0  0  0  0  0  # atno 6908 bound_to 6896
  150.6842  134.3251  159.4847 H   0  0  0  0  0  0  0  0  0  0  0  0  # atno 6909 bound_to 6896
  144.7145  140.0563  143.6434 H   0  0  0  0  0  0  0  0  0  0  0  0  # atno 7974 bound_to 7965
  155.9960  140.3364  155.6799 H   0  0  0  0  0  0  0  0  0  0  0  0  # atno 8008 bound_to 7997
  155.6356  140.0689  157.2653 H   0  0  0  0  0  0  0  0  0  0  0  0  # atno 8009 bound_to 7997
  154.4234  140.1752  156.1506 H   0  0  0  0  0  0  0  0  0  0  0  0  # atno 8010 bound_to 7997
  139.4826  144.4839  151.8405 H   0  0  0  0  0  0  0  0  0  0  0  0  # atno 10167 bound_to 10162
  156.1173  130.6296  150.9403 H   0  0  0  0  0  0  0  0  0  0  0  0  # atno 10718 bound_to 10713
  153.9105  135.6793  153.4751 H   0  0  0  0  0  0  0  0  0  0  0  0  # atno 10763 bound_to 10752
  153.1081  135.4796  154.8984 H   0  0  0  0  0  0  0  0  0  0  0  0  # atno 10764 bound_to 10752
  154.7529  135.3189  154.8479 H   0  0  0  0  0  0  0  0  0  0  0  0  # atno 10765 bound_to 10752
  140.3363  134.2382  155.7695 H   0  0  0  0  0  0  0  0  0  0  0  0  # atno 11005 bound_to 11000
  145.9901  139.3008  143.0990 LP  0  0  0  0  0  0  0  0  0  0  0  0  # atno 17320 bound_to 7965
  145.8912  140.9302  143.0551 LP  0  0  0  0  0  0  0  0  0  0  0  0  # atno 17321 bound_to 7965
  140.4317  144.2106  150.5888 LP  0  0  0  0  0  0  0  0  0  0  0  0  # atno 17342 bound_to 10162
  140.4772  143.2392  151.9006 LP  0  0  0  0  0  0  0  0  0  0  0  0  # atno 17343 bound_to 10162
  157.6356  131.0916  150.8354 LP  0  0  0  0  0  0  0  0  0  0  0  0  # atno 17370 bound_to 10713
  156.8456  130.5063  149.5317 LP  0  0  0  0  0  0  0  0  0  0  0  0  # atno 17371 bound_to 10713
  141.2050  133.7871  157.0255 LP  0  0  0  0  0  0  0  0  0  0  0  0  # atno 17394 bound_to 11000
  140.0818  134.9643  157.1637 LP  0  0  0  0  0  0  0  0  0  0  0  0  # atno 17395 bound_to 11000

$$$$
