#       Name:                AV-unprocessed.smi:9
#       Creating user name   scv26
#       Creation time:       Thu Mar 26 15:16:51 2020


#       File generated by GOLD software.
#

@<TRIPOS>MOLECULE
AV-unprocessed.smi:9
    43    45     1
SMALL
NO_CHARGES


@<TRIPOS>ATOM
      1 ****        -5.1119   0.6445   1.3982 O.2            1 S1                 0.0000
      2 ****        -3.9528   1.0504   1.3413 C.2            1 S1                 0.0000
      3 ****        -3.5764   2.3677   1.3153 N.pl3          1 S1                -1.0000
      4 ****        -2.2245   2.7254   1.2548 C.2            1 S1                 0.0000
      5 ****        -1.9167   4.2193   1.2239 C.3            1 S1                 0.0000
      6 ****        -0.7050   4.4735   1.7230 F              1 S1                 0.0000
      7 ****        -1.9515   4.6699  -0.0301 F              1 S1                 0.0000
      8 ****        -2.8023   4.9129   1.9422 F              1 S1                 0.0000
      9 ****        -1.2308   1.8973   1.2093 N.2            1 S1                 0.0000
     10 ****        -1.5756   0.5637   1.2300 C.2            1 S1                 0.0000
     11 ****        -2.8442   0.0607   1.2956 C.2            1 S1                 0.0000
     12 ****        -2.8348  -1.3295   1.3099 N.2            1 S1                 0.0000
     13 ****        -1.5309  -1.6004   1.2488 C.2            1 S1                 0.0000
     14 ****        -0.7170  -0.5271   1.1867 N.pl3          1 S1                 0.0000
     15 ****         0.7366  -0.5237   1.1099 C.3            1 S1                 0.0000
     16 ****         1.2995  -0.5367  -0.3349 C.3            1 S1                 0.0000
     17 ****         0.9275   0.6865  -0.9423 O.3            1 S1                 0.0000
     18 ****         0.7400  -1.7105  -1.1693 C.3            1 S1                 0.0000
     19 ****         1.4925  -1.8774  -2.4933 C.3            1 S1                 0.0000
     20 ****         3.0018  -1.9466  -2.2375 C.3            1 S1                 0.0000
     21 ****         3.4172  -0.7546  -1.5856 O.3            1 S1                 0.0000
     22 ****         2.8456  -0.5753  -0.2920 C.3            1 S1                 0.0000
     23 ****        -1.1549  -2.6129   1.2417 H              1 S1                 0.0000
     24 ****         1.1080   0.3453   1.6551 H              1 S1                 0.0000
     25 ****         1.0977  -1.3966   1.6552 H              1 S1                 0.0000
     26 ****         1.3015   0.7155  -1.8095 H              1 S1                 0.0000
     27 ****         0.8367  -2.6343  -0.5972 H              1 S1                 0.0000
     28 ****        -0.3250  -1.5797  -1.3655 H              1 S1                 0.0000
     29 ****         1.1551  -2.7795  -3.0043 H              1 S1                 0.0000
     30 ****         1.2704  -1.0408  -3.1568 H              1 S1                 0.0000
     31 ****         3.2610  -2.8190  -1.6355 H              1 S1                 0.0000
     32 ****         3.5384  -2.0375  -3.1820 H              1 S1                 0.0000
     33 ****         3.2429   0.3408   0.1468 H              1 S1                 0.0000
     34 ****         3.1833  -1.3927   0.3472 H              1 S1                 0.0000
     35 ****        -5.2975  -0.3380   1.4131 LP             1 S1                 0.0000
     36 ****        -5.8692   1.2969   1.4296 LP             1 S1                 0.0000
     37 ****        -4.2759   3.0820   1.3399 LP             1 S1                 0.0000
     38 ****        -0.2801   2.2039   1.1625 LP             1 S1                 0.0000
     39 ****        -3.6072  -1.9630   1.3546 LP             1 S1                 0.0000
     40 ****         1.2736   1.4519  -0.3996 LP             1 S1                 0.0000
     41 ****        -0.0691   0.7443  -1.0023 LP             1 S1                 0.0000
     42 ****         3.1558   0.0240  -2.1561 LP             1 S1                 0.0000
     43 ****         4.4123  -0.7783  -1.4897 LP             1 S1                 0.0000
@<TRIPOS>BOND
    1    1    2 2     
    2    2   11 1     
    3    2    3 1     
    4    3    4 1     
    5    4    5 1     
    6    4    9 2     
    7    5    6 1     
    8    5    7 1     
    9    5    8 1     
   10    9   10 1     
   11   10   14 1     
   12   10   11 2     
   13   11   12 1     
   14   12   13 2     
   15   13   14 1     
   16   13   23 1     
   17   14   15 1     
   18   15   16 1     
   19   15   24 1     
   20   15   25 1     
   21   16   22 1     
   22   16   17 1     
   23   16   18 1     
   24   17   26 1     
   25   18   19 1     
   26   18   27 1     
   27   18   28 1     
   28   19   20 1     
   29   19   29 1     
   30   19   30 1     
   31   20   21 1     
   32   20   31 1     
   33   20   32 1     
   34   21   22 1     
   35   22   33 1     
   36   22   34 1     
   37    1   35 1     
   38    1   36 1     
   39    3   37 1     
   40    9   38 1     
   41   12   39 1     
   42   17   40 1     
   43   17   41 1     
   44   21   42 1     
   45   21   43 1     
@<TRIPOS>SUBSTRUCTURE
      1 S1             1
@<TRIPOS>SET
LONE_PAIRS      STATIC     ATOMS    <user>   **** ""
9 35 36 37 38 39 40 41 42 43
DONOR_HYDROGENS      STATIC     ATOMS    <user>   **** ""
1 26
ATOM$BLUE        STATIC     ATOMS    COLORGROUP SYSTEM
9 35 36 37 38 39 40 41 42 43
ATOM$RED        STATIC     ATOMS    COLORGROUP SYSTEM
1 26
