AV-unprocessed.smi:3328|AV-procd|sdf|12791|dock5
  -GOLD-   2272019143D 1   1.00000     0.00000
 Structure written by MMmdl.
 41 42  0  0  0  0  0  0  0  0  2 V2000
  150.9100  135.9101  155.3914 C   0  0  0  0  0  0  0  0  0  0  0  0
  150.6558  137.3357  154.9950 C   0  0  0  0  0  0  0  0  0  0  0  0
  151.6120  138.3723  154.7995 C   0  0  0  0  0  0  0  0  0  0  0  0
  151.0581  139.5251  154.4606 N   0  0  0  0  0  0  0  0  0  0  0  0
  149.7337  139.2651  154.4260 N   0  0  0  0  0  0  0  0  0  0  0  0
  148.7992  140.3296  154.1080 C   0  0  0  0  0  0  0  0  0  0  0  0
  148.5737  141.3032  155.2855 C   0  0  2  0  0  0  0  0  0  0  0  0
  147.2455  142.0540  155.1198 C   0  0  0  0  0  0  0  0  0  0  0  0
  149.6818  142.2799  155.3924 N   0  3  0  0  0  0  0  0  0  0  0  0
  150.8122  141.8508  156.2421 C   0  0  0  0  0  0  0  0  0  0  0  0
  150.3878  141.7660  157.7155 C   0  0  0  0  0  0  0  0  0  0  0  0
  151.5282  141.9127  158.6156 N   0  0  0  0  0  0  0  0  0  0  0  0
  151.6338  143.0593  159.5022 C   0  0  0  0  0  0  0  0  0  0  0  0
  152.8681  142.7805  160.3726 C   0  0  0  0  0  0  0  0  0  0  0  0
  153.5982  141.6107  159.7031 C   0  0  0  0  0  0  0  0  0  0  0  0
  152.5929  141.1041  158.6832 C   0  0  0  0  0  0  0  0  0  0  0  0
  152.7696  140.0822  158.0216 O   0  0  0  0  0  0  0  0  0  0  0  0
  149.4629  137.9499  154.7381 C   0  0  0  0  0  0  0  0  0  0  0  0
  151.9347  135.7610  155.7324 H   0  0  0  0  0  0  0  0  0  0  0  0
  150.7453  135.2266  154.5582 H   0  0  0  0  0  0  0  0  0  0  0  0
  150.2535  135.5945  156.2023 H   0  0  0  0  0  0  0  0  0  0  0  0
  152.6862  138.3226  154.9007 H   0  0  0  0  0  0  0  0  0  0  0  0
  149.1599  140.8673  153.2292 H   0  0  0  0  0  0  0  0  0  0  0  0
  147.8540  139.8676  153.8198 H   0  0  0  0  0  0  0  0  0  0  0  0
  148.5089  140.7318  156.2133 H   0  0  0  0  0  0  0  0  0  0  0  0
  146.4058  141.3599  155.0690 H   0  0  0  0  0  0  0  0  0  0  0  0
  147.2373  142.6521  154.2077 H   0  0  0  0  0  0  0  0  0  0  0  0
  147.0653  142.7249  155.9606 H   0  0  0  0  0  0  0  0  0  0  0  0
  150.0253  142.4663  154.4606 H   0  0  0  0  0  0  0  0  0  0  0  0
  151.1718  140.8819  155.8939 H   0  0  0  0  0  0  0  0  0  0  0  0
  151.6400  142.5511  156.1354 H   0  0  0  0  0  0  0  0  0  0  0  0
  149.6556  142.5437  157.9401 H   0  0  0  0  0  0  0  0  0  0  0  0
  149.8935  140.8124  157.9070 H   0  0  0  0  0  0  0  0  0  0  0  0
  151.7704  143.9641  158.9084 H   0  0  0  0  0  0  0  0  0  0  0  0
  150.7327  143.1784  160.1056 H   0  0  0  0  0  0  0  0  0  0  0  0
  153.5053  143.6612  160.4597 H   0  0  0  0  0  0  0  0  0  0  0  0
  152.5612  142.4984  161.3807 H   0  0  0  0  0  0  0  0  0  0  0  0
  154.5001  141.9449  159.1896 H   0  0  0  0  0  0  0  0  0  0  0  0
  153.8692  140.8316  160.4162 H   0  0  0  0  0  0  0  0  0  0  0  0
  148.4535  137.5660  154.7609 H   0  0  0  0  0  0  0  0  0  0  0  0
  149.3166  143.1392  155.7776 H   0  0  0  0  0  0  0  0  0  0  0  0
  1  2  1  0  0  0  0
  1 19  1  0  0  0  0
  1 20  1  0  0  0  0
  1 21  1  0  0  0  0
  2 18  2  0  0  0  0
  2  3  1  0  0  0  0
  3  4  2  0  0  0  0
  3 22  1  0  0  0  0
  4  5  1  0  0  0  0
  5  6  1  0  0  0  0
  5 18  1  0  0  0  0
  6  7  1  0  0  0  0
  6 23  1  0  0  0  0
  6 24  1  0  0  0  0
  7  8  1  0  0  0  0
  7  9  1  0  0  0  0
  7 25  1  0  0  0  0
  8 26  1  0  0  0  0
  8 27  1  0  0  0  0
  8 28  1  0  0  0  0
  9 10  1  0  0  0  0
  9 29  1  0  0  0  0
  9 41  1  0  0  0  0
 10 11  1  0  0  0  0
 10 30  1  0  0  0  0
 10 31  1  0  0  0  0
 11 12  1  0  0  0  0
 11 32  1  0  0  0  0
 11 33  1  0  0  0  0
 12 16  1  0  0  0  0
 12 13  1  0  0  0  0
 13 14  1  0  0  0  0
 13 34  1  0  0  0  0
 13 35  1  0  0  0  0
 14 15  1  0  0  0  0
 14 36  1  0  0  0  0
 14 37  1  0  0  0  0
 15 16  1  0  0  0  0
 15 38  1  0  0  0  0
 15 39  1  0  0  0  0
 16 17  2  0  0  0  0
 18 40  1  0  0  0  0
M  CHG  1   9   1
M  END
> <s_m_source_file>
AV-unprocessed.smi

> <i_m_source_file_index>
3328

> <i_lp_mmshare_version>
43012

> <i_f3d_flags>
0

> <s_epik_input>
W0NIM11jMVtjSF1ubihbY0hdMSlbQ0gyXVtDQEhdKFtDSDNdKVtOSF1bQ0gyXVtDSDJdTjJbQ0gyXVtDSDJdW0NIMl1DMj1P

> <s_epik_cmdline>
J2VwaWtfcHl0aG9uJywgJy1waCcsICc3LjAnLCAnLXRuJywgJzgnLCAnLW1hJywgJzIwMCcsICctbWV0YWxfYmluZGluZycsICctaW1hZScsICc8aW5maWxlLm1hZT4nLCAnLW9tYWUnLCAnPG91dGZpbGUubWFlPic=

> <r_lp_tautomer_probability>
1

> <r_epik_Ionization_Penalty>
0.00826719

> <r_epik_Ionization_Penalty_Charging>
0.00825899

> <r_epik_Ionization_Penalty_Neutral>
8.19932e-06

> <r_epik_State_Penalty>
0.00621436

> <r_epik_Charging_Adjusted_Penalty>
0.0144734

> <i_epik_Tot_Q>
1

> <i_epik_Tot_abs_Q>
1

> <r_epik_Metal_State_Penalty>
0.00621509

> <b_epik_Metal_Only>
0

> <s_lp_Force_Field>
OPLS_2005

> <r_lp_Energy>
18.6505

> <b_lp_Chiralities_Consistent>
1

> <s_lp_Variant>
AV-unprocessed.smi:3328-1

> <Gold.Version>
5.8.1

> <Gold.Id.Protein>
6NUR|6NUR_protein|mol2

> <Gold.PLP.Fitness>
48.1012

> <Gold.PLP.PLP>
-37.9575

> <Gold.PLP.part.hbond>
-3.0000

> <Gold.PLP.part.metal>
0.0000

> <Gold.PLP.part.buried>
-1.7988

> <Gold.PLP.part.nonpolar>
-32.6694

> <Gold.PLP.part.repulsive>
0.3179

> <Gold.PLP.ligand.clash>
0.0000

> <Gold.PLP.ligand.torsion>
0.9675

> <Gold.PLP.Chemscore.Hbond>
4.0000

> <Gold.PLP.Chemscore.CHOScore>
0.0000

> <Gold.PLP.Chemscore.Metal>
0.0000

> <Gold.Chemscore.Hbonds>
donor molecule, donor type, donor heavy atom, donor atom, acceptor molecule, acceptor atom, score
      L1  H     9    41       P1  8028  2.00
      P1  H  7989  7998       L1     4  1.00
      P1  H  7997  8010       L1    17  0.94

> <Gold.PLP.Chemscore.Internal.Correction>
0.0787

> <Gold.Rescore>
     Score         DG    S(hbond)    S(metal)    S(lipo)     H(rot)  DE(clash)    DE(int)     intcor
     18.85     -20.04       2.88        0.00      85.45       1.97       0.05       1.14       ----

> <Gold.Chemscore.Fitness>
18.8502

> <Gold.Chemscore.DG>
-20.0374

> <Gold.Chemscore.ZeroCoef>
-5.4800

> <Gold.Chemscore.Hbond>
2.8762

> <Gold.Chemscore.Metal>
0.0000

> <Gold.Chemscore.Lipo>
85.4510

> <Gold.Chemscore.Internal_Hbond>
0.0000

> <Gold.Chemscore.DEClash>
0.0472

> <Gold.Chemscore.DEInternal>
1.1399

> <Gold.Chemscore.Rot>
1.9714

> <Gold.Chemscore.Internal.Correction>
   9.000000E+99

> <Gold.Chemscore.Hbonds>
donor molecule, donor type, donor heavy atom, donor atom, acceptor molecule, acceptor atom, score
      L1  H     9    41       P1  8028  0.96
      P1  H  7989  7998       L1     4  0.94
      P1  H  7997  8010       L1    17  0.76

> <Gold.Chemscore.Hbond.Weighted>
-9.6064

> <Gold.Chemscore.Metal.Weighted>
-0.0000

> <Gold.Chemscore.Lipo.Weighted>
-9.9978

> <Gold.Chemscore.Internal_Hbond.Weighted>
0.0000

> <Gold.Chemscore.DEClash.Weighted>
0.0472

> <Gold.Chemscore.DEInternal.Weighted>
1.1399

> <Gold.Chemscore.Rot.Weighted>
5.0468

> <Gold.Chemscore.Internal.Correction.Weighted>
   9.000000E+99

> <Gold.Protein.RotatedTorsions>
[ 6907 6896 6895 6894 ] final    2.30 input  -60.11 | X-H torsion
[ 7974 7965 7964 7962 ] final   75.70 input  175.53 | X-H torsion
[ 8008 7997 7996 7995 ] final   40.38 input   59.86 | X-H torsion
[ 10167 10162 10161 10158 ] final  -52.79 input  -65.29 | X-H torsion
[ 10718 10713 10712 10709 ] final  -48.35 input   66.30 | X-H torsion
[ 10763 10752 10751 10750 ] final  112.03 input  -60.55 | X-H torsion
[ 11005 11000 10999 10996 ] final   77.07 input  -57.11 | X-H torsion

> <Gold.Protein.ActiveResidues>
 VAL166  LYS551  ARG553  GLY616  TRP617  ASP618  TYR619  PRO620  LYS621  CYS622 
 ASP623  PHE694  ASN695  SER759  ASP760  ASP761  ALA762  ILE779  LEU786  VAL792 
 PHE793  MET794  SER795  GLU796  ALA797  LYS798  CYS799  TRP800  GLU811  SER814 

> <Gold.Protein.RotatedAtoms>
  151.6066  135.1043  160.0071 H   0  0  0  0  0  0  0  0  0  0  0  0  # atno 6907 bound_to 6896
  152.4230  133.7144  159.6508 H   0  0  0  0  0  0  0  0  0  0  0  0  # atno 6908 bound_to 6896
  150.8118  133.8336  159.3201 H   0  0  0  0  0  0  0  0  0  0  0  0  # atno 6909 bound_to 6896
  145.7122  139.2619  143.1644 H   0  0  0  0  0  0  0  0  0  0  0  0  # atno 7974 bound_to 7965
  155.2521  140.3353  155.4281 H   0  0  0  0  0  0  0  0  0  0  0  0  # atno 8008 bound_to 7997
  156.2211  140.1809  156.7518 H   0  0  0  0  0  0  0  0  0  0  0  0  # atno 8009 bound_to 7997
  154.5827  140.0651  156.9111 H   0  0  0  0  0  0  0  0  0  0  0  0  # atno 8010 bound_to 7997
  140.6519  143.2572  151.4699 H   0  0  0  0  0  0  0  0  0  0  0  0  # atno 10167 bound_to 10162
  156.1997  130.4155  149.9258 H   0  0  0  0  0  0  0  0  0  0  0  0  # atno 10718 bound_to 10713
  153.4719  135.3698  155.2396 H   0  0  0  0  0  0  0  0  0  0  0  0  # atno 10763 bound_to 10752
  154.8757  135.3933  154.3801 H   0  0  0  0  0  0  0  0  0  0  0  0  # atno 10764 bound_to 10752
  153.4391  135.7084  153.6245 H   0  0  0  0  0  0  0  0  0  0  0  0  # atno 10765 bound_to 10752
  139.9270  134.7652  156.1475 H   0  0  0  0  0  0  0  0  0  0  0  0  # atno 11005 bound_to 11000
  146.0702  140.7877  142.9692 LP  0  0  0  0  0  0  0  0  0  0  0  0  # atno 17320 bound_to 7965
  144.6939  140.3330  143.7212 LP  0  0  0  0  0  0  0  0  0  0  0  0  # atno 17321 bound_to 7965
  139.5735  144.1873  152.1870 LP  0  0  0  0  0  0  0  0  0  0  0  0  # atno 17342 bound_to 10162
  140.1176  144.5402  150.6884 LP  0  0  0  0  0  0  0  0  0  0  0  0  # atno 17343 bound_to 10162
  156.6972  130.8919  151.3595 LP  0  0  0  0  0  0  0  0  0  0  0  0  # atno 17370 bound_to 10713
  157.6978  130.9300  150.0696 LP  0  0  0  0  0  0  0  0  0  0  0  0  # atno 17371 bound_to 10713
  141.0835  133.6744  156.2386 LP  0  0  0  0  0  0  0  0  0  0  0  0  # atno 17394 bound_to 11000
  140.6307  134.5267  157.5559 LP  0  0  0  0  0  0  0  0  0  0  0  0  # atno 17395 bound_to 11000

$$$$
