AV-unprocessed.smi:2608|AV-procd|sdf|10204|dock10
  -GOLD-   2272014213D 1   1.00000     0.00000
 Structure written by MMmdl.
 40 41  0  0  0  0  0  0  0  0  1 V2000
  152.4567  142.6822  160.8856 C   0  0  0  0  0  0  0  0  0  0  0  0
  152.2673  143.5699  159.6462 C   0  0  0  0  0  0  0  0  0  0  0  0
  152.1697  145.0501  160.0586 C   0  0  0  0  0  0  0  0  0  0  0  0
  151.0576  143.0865  158.8133 C   0  0  0  0  0  0  0  0  0  0  0  0
  151.2240  141.6727  158.2470 C   0  0  0  0  0  0  0  0  0  0  0  0
  151.9615  140.8697  158.8177 O   0  0  0  0  0  0  0  0  0  0  0  0
  150.5286  141.4110  157.1258 N   0  0  0  0  0  0  0  0  0  0  0  0
  150.4629  140.1984  156.3826 C   0  0  0  0  0  0  0  0  0  0  0  0
  151.3519  139.1165  156.5923 C   0  0  0  0  0  0  0  0  0  0  0  0
  151.2287  137.9640  155.7948 C   0  0  0  0  0  0  0  0  0  0  0  0
  150.2271  137.9368  154.8078 C   0  0  0  0  0  0  0  0  0  0  0  0
  149.3827  138.9644  154.5842 N   0  0  0  0  0  0  0  0  0  0  0  0
  149.4977  140.0759  155.3506 C   0  0  0  0  0  0  0  0  0  0  0  0
  148.6047  141.1302  155.0953 N   0  0  0  0  0  0  0  0  0  0  0  0
  147.9392  141.0414  153.8020 C   0  0  0  0  0  0  0  0  0  0  0  0
  147.1055  142.3104  153.5556 C   0  0  0  0  0  0  0  0  0  0  0  0
  146.1855  142.4927  154.6285 O   0  0  0  0  0  0  0  0  0  0  0  0
  146.8467  142.6494  155.8813 C   0  0  0  0  0  0  0  0  0  0  0  0
  147.6769  141.3912  156.1884 C   0  0  0  0  0  0  0  0  0  0  0  0
  151.5954  142.7431  161.5516 H   0  0  0  0  0  0  0  0  0  0  0  0
  153.3387  142.9806  161.4531 H   0  0  0  0  0  0  0  0  0  0  0  0
  152.5875  141.6365  160.6055 H   0  0  0  0  0  0  0  0  0  0  0  0
  153.1640  143.4579  159.0347 H   0  0  0  0  0  0  0  0  0  0  0  0
  151.2594  145.2432  160.6268 H   0  0  0  0  0  0  0  0  0  0  0  0
  152.1709  145.7129  159.1938 H   0  0  0  0  0  0  0  0  0  0  0  0
  153.0164  145.3396  160.6815 H   0  0  0  0  0  0  0  0  0  0  0  0
  150.1555  143.1107  159.4270 H   0  0  0  0  0  0  0  0  0  0  0  0
  150.8740  143.7748  157.9873 H   0  0  0  0  0  0  0  0  0  0  0  0
  149.8991  142.1383  156.8181 H   0  0  0  0  0  0  0  0  0  0  0  0
  152.1328  139.1550  157.3359 H   0  0  0  0  0  0  0  0  0  0  0  0
  151.8909  137.1226  155.9334 H   0  0  0  0  0  0  0  0  0  0  0  0
  150.1046  137.0698  154.1757 H   0  0  0  0  0  0  0  0  0  0  0  0
  148.6808  140.9195  153.0116 H   0  0  0  0  0  0  0  0  0  0  0  0
  147.2923  140.1633  153.7784 H   0  0  0  0  0  0  0  0  0  0  0  0
  147.7492  143.1868  153.4621 H   0  0  0  0  0  0  0  0  0  0  0  0
  146.5504  142.2212  152.6217 H   0  0  0  0  0  0  0  0  0  0  0  0
  147.4798  143.5379  155.8612 H   0  0  0  0  0  0  0  0  0  0  0  0
  146.1005  142.8074  156.6601 H   0  0  0  0  0  0  0  0  0  0  0  0
  147.0143  140.5349  156.3228 H   0  0  0  0  0  0  0  0  0  0  0  0
  148.2291  141.5232  157.1198 H   0  0  0  0  0  0  0  0  0  0  0  0
  1  2  1  0  0  0  0
  1 20  1  0  0  0  0
  1 21  1  0  0  0  0
  1 22  1  0  0  0  0
  2  3  1  0  0  0  0
  2  4  1  0  0  0  0
  2 23  1  0  0  0  0
  3 24  1  0  0  0  0
  3 25  1  0  0  0  0
  3 26  1  0  0  0  0
  4  5  1  0  0  0  0
  4 27  1  0  0  0  0
  4 28  1  0  0  0  0
  5  6  2  0  0  0  0
  5  7  1  0  0  0  0
  7  8  1  0  0  0  0
  7 29  1  0  0  0  0
  8 13  1  0  0  0  0
  8  9  2  0  0  0  0
  9 10  1  0  0  0  0
  9 30  1  0  0  0  0
 10 11  2  0  0  0  0
 10 31  1  0  0  0  0
 11 12  1  0  0  0  0
 11 32  1  0  0  0  0
 12 13  2  0  0  0  0
 13 14  1  0  0  0  0
 14 19  1  0  0  0  0
 14 15  1  0  0  0  0
 15 16  1  0  0  0  0
 15 33  1  0  0  0  0
 15 34  1  0  0  0  0
 16 17  1  0  0  0  0
 16 35  1  0  0  0  0
 16 36  1  0  0  0  0
 17 18  1  0  0  0  0
 18 19  1  0  0  0  0
 18 37  1  0  0  0  0
 18 38  1  0  0  0  0
 19 39  1  0  0  0  0
 19 40  1  0  0  0  0
M  END
> <s_m_source_file>
AV-unprocessed.smi

> <i_m_source_file_index>
2608

> <i_lp_mmshare_version>
43012

> <i_f3d_flags>
0

> <s_epik_input>
W0NIM11bQ0hdKFtDSDNdKVtDSDJdQyg9TylbTkhdYzFbY0hdW2NIXVtjSF1uYzFOMltDSDJdW0NIMl1PW0NIMl1bQ0gyXTI=

> <s_epik_cmdline>
J2VwaWtfcHl0aG9uJywgJy1waCcsICc3LjAnLCAnLXRuJywgJzgnLCAnLW1hJywgJzIwMCcsICctbWV0YWxfYmluZGluZycsICctaW1hZScsICc8aW5maWxlLm1hZT4nLCAnLW9tYWUnLCAnPG91dGZpbGUubWFlPic=

> <r_lp_tautomer_probability>
1

> <r_epik_Ionization_Penalty>
0.0006373

> <r_epik_Ionization_Penalty_Charging>
0

> <r_epik_Ionization_Penalty_Neutral>
0.0006373

> <r_epik_State_Penalty>
0.000394234

> <r_epik_Charging_Adjusted_Penalty>
0.000394234

> <i_epik_Tot_Q>
0

> <i_epik_Tot_abs_Q>
0

> <r_epik_Metal_State_Penalty>
-0

> <b_epik_Metal_Only>
0

> <s_lp_Force_Field>
OPLS_2005

> <r_lp_Energy>
24.3939

> <b_lp_Chiralities_Consistent>
1

> <s_lp_Variant>
AV-unprocessed.smi:2608-1

> <Gold.Version>
5.8.1

> <Gold.Id.Protein>
6NUR|6NUR_protein|mol2

> <Gold.PLP.Fitness>
42.3352

> <Gold.PLP.PLP>
-40.2248

> <Gold.PLP.part.hbond>
0.0000

> <Gold.PLP.part.metal>
0.0000

> <Gold.PLP.part.buried>
-7.1604

> <Gold.PLP.part.nonpolar>
-33.7205

> <Gold.PLP.part.repulsive>
1.1416

> <Gold.PLP.ligand.clash>
0.0000

> <Gold.PLP.ligand.torsion>
0.6580

> <Gold.PLP.Chemscore.Hbond>
0.0000

> <Gold.PLP.Chemscore.CHOScore>
1.0967

> <Gold.PLP.Chemscore.Metal>
0.0000

> <Gold.Chemscore.Hbonds>
donor molecule, donor type, donor heavy atom, donor atom, acceptor molecule, acceptor atom, score
      L1  C    11    32       P1  7948  0.63

> <Gold.PLP.Chemscore.Internal.Correction>
0.1363

> <Gold.Rescore>
     Score         DG    S(hbond)    S(metal)    S(lipo)     H(rot)  DE(clash)    DE(int)     intcor
     11.08     -15.37       0.95        0.00      86.07       1.31       0.17       4.12       ----

> <Gold.Chemscore.Fitness>
11.0787

> <Gold.Chemscore.DG>
-15.3686

> <Gold.Chemscore.ZeroCoef>
-5.4800

> <Gold.Chemscore.Hbond>
0.9513

> <Gold.Chemscore.Metal>
0.0000

> <Gold.Chemscore.Lipo>
86.0724

> <Gold.Chemscore.Internal_Hbond>
0.0000

> <Gold.Chemscore.DEClash>
0.1734

> <Gold.Chemscore.DEInternal>
4.1164

> <Gold.Chemscore.Rot>
1.3122

> <Gold.Chemscore.Internal.Correction>
   9.000000E+99

> <Gold.Chemscore.Hbond.Weighted>
-3.1773

> <Gold.Chemscore.Metal.Weighted>
-0.0000

> <Gold.Chemscore.Lipo.Weighted>
-10.0705

> <Gold.Chemscore.Internal_Hbond.Weighted>
0.0000

> <Gold.Chemscore.DEClash.Weighted>
0.1734

> <Gold.Chemscore.DEInternal.Weighted>
4.1164

> <Gold.Chemscore.Rot.Weighted>
3.3592

> <Gold.Chemscore.Internal.Correction.Weighted>
   9.000000E+99

> <Gold.Protein.RotatedTorsions>
[ 6907 6896 6895 6894 ] final  149.97 input  -60.11 | X-H torsion
[ 7974 7965 7964 7962 ] final  146.03 input  175.53 | X-H torsion
[ 8008 7997 7996 7995 ] final  168.19 input   59.86 | X-H torsion
[ 10167 10162 10161 10158 ] final  -85.20 input  -65.29 | X-H torsion
[ 10718 10713 10712 10709 ] final  -66.93 input   66.30 | X-H torsion
[ 10763 10752 10751 10750 ] final   85.52 input  -60.55 | X-H torsion
[ 11005 11000 10999 10996 ] final  -86.70 input  -57.11 | X-H torsion

> <Gold.Protein.ActiveResidues>
 VAL166  LYS551  ARG553  GLY616  TRP617  ASP618  TYR619  PRO620  LYS621  CYS622 
 ASP623  PHE694  ASN695  SER759  ASP760  ASP761  ALA762  ILE779  LEU786  VAL792 
 PHE793  MET794  SER795  GLU796  ALA797  LYS798  CYS799  TRP800  GLU811  SER814 

> <Gold.Protein.RotatedAtoms>
  152.1207  133.4352  159.4674 H   0  0  0  0  0  0  0  0  0  0  0  0  # atno 6907 bound_to 6896
  150.6872  134.2538  159.4530 H   0  0  0  0  0  0  0  0  0  0  0  0  # atno 6908 bound_to 6896
  152.0414  134.9708  160.0624 H   0  0  0  0  0  0  0  0  0  0  0  0  # atno 6909 bound_to 6896
  144.8704  139.5855  143.5889 H   0  0  0  0  0  0  0  0  0  0  0  0  # atno 7974 bound_to 7965
  156.1569  140.1597  156.8678 H   0  0  0  0  0  0  0  0  0  0  0  0  # atno 8008 bound_to 7997
  154.5123  140.0798  156.8050 H   0  0  0  0  0  0  0  0  0  0  0  0  # atno 8009 bound_to 7997
  155.3786  140.3404  155.4248 H   0  0  0  0  0  0  0  0  0  0  0  0  # atno 8010 bound_to 7997
  140.4060  143.2642  151.9080 H   0  0  0  0  0  0  0  0  0  0  0  0  # atno 10167 bound_to 10162
  156.0585  130.4270  150.1780 H   0  0  0  0  0  0  0  0  0  0  0  0  # atno 10718 bound_to 10713
  153.1483  135.4614  154.9598 H   0  0  0  0  0  0  0  0  0  0  0  0  # atno 10763 bound_to 10752
  154.7804  135.3186  154.8004 H   0  0  0  0  0  0  0  0  0  0  0  0  # atno 10764 bound_to 10752
  153.8514  135.6921  153.4846 H   0  0  0  0  0  0  0  0  0  0  0  0  # atno 10765 bound_to 10752
  141.1626  133.7469  156.9200 H   0  0  0  0  0  0  0  0  0  0  0  0  # atno 11005 bound_to 11000
  146.2926  139.7184  142.9150 LP  0  0  0  0  0  0  0  0  0  0  0  0  # atno 17320 bound_to 7965
  145.4141  141.0399  143.3000 LP  0  0  0  0  0  0  0  0  0  0  0  0  # atno 17321 bound_to 7965
  139.4783  144.5585  151.8276 LP  0  0  0  0  0  0  0  0  0  0  0  0  # atno 17342 bound_to 10162
  140.4689  144.1615  150.5915 LP  0  0  0  0  0  0  0  0  0  0  0  0  # atno 17343 bound_to 10162
  156.9852  130.9876  151.3428 LP  0  0  0  0  0  0  0  0  0  0  0  0  # atno 17370 bound_to 10713
  157.5575  130.8223  149.8223 LP  0  0  0  0  0  0  0  0  0  0  0  0  # atno 17371 bound_to 10713
  140.1458  134.9263  157.2527 LP  0  0  0  0  0  0  0  0  0  0  0  0  # atno 17394 bound_to 11000
  140.2782  134.3381  155.7351 LP  0  0  0  0  0  0  0  0  0  0  0  0  # atno 17395 bound_to 11000

$$$$
