AV-unprocessed.smi:1292|AV-procd|sdf|5395|dock2
  -GOLD-   22720 4553D 1   1.00000     0.00000
 Structure written by MMmdl.
 40 41  0  0  0  0  0  0  0  0  1 V2000
  151.7086  145.1813  158.9814 C   0  0  0  0  0  0  0  0  0  0  0  0
  151.7504  143.8712  159.7803 C   0  0  2  0  0  0  0  0  0  0  0  0
  152.5165  144.0420  161.0999 C   0  0  0  0  0  0  0  0  0  0  0  0
  152.5287  142.7155  161.8654 C   0  0  0  0  0  0  0  0  0  0  0  0
  153.1202  141.5833  161.0109 C   0  0  0  0  0  0  0  0  0  0  0  0
  152.4162  141.4661  159.7199 N   0  0  0  0  0  0  0  0  0  0  0  0
  152.6160  139.9886  158.8340 S   0  0  0  0  0  0  0  0  0  0  0  0
  154.0490  139.6590  158.8070 O   0  0  0  0  0  0  0  0  0  0  0  0
  151.6158  139.0163  159.3019 O   0  0  0  0  0  0  0  0  0  0  0  0
  152.1465  140.5292  157.2637 N   0  0  0  0  0  0  0  0  0  0  0  0
  150.7413  140.4510  156.8641 C   0  0  0  0  0  0  0  0  0  0  0  0
  150.4945  141.2949  155.6071 C   0  0  0  0  0  0  0  0  0  0  0  0
  149.3033  140.7964  154.8108 C   0  0  0  0  0  0  0  0  0  0  0  0
  148.2751  141.6826  154.4242 C   0  0  0  0  0  0  0  0  0  0  0  0
  147.1834  141.1678  153.6985 C   0  0  0  0  0  0  0  0  0  0  0  0
  147.1610  139.7939  153.3903 C   0  0  0  0  0  0  0  0  0  0  0  0
  148.2357  138.9923  153.8242 C   0  0  0  0  0  0  0  0  0  0  0  0
  149.2870  139.4757  154.5209 N   0  0  0  0  0  0  0  0  0  0  0  0
  152.3618  142.7262  158.9497 C   0  0  0  0  0  0  0  0  0  0  0  0
  152.7114  145.5115  158.7087 H   0  0  0  0  0  0  0  0  0  0  0  0
  151.2408  145.9787  159.5593 H   0  0  0  0  0  0  0  0  0  0  0  0
  151.1358  145.0620  158.0614 H   0  0  0  0  0  0  0  0  0  0  0  0
  150.7206  143.5998  160.0183 H   0  0  0  0  0  0  0  0  0  0  0  0
  153.5397  144.3649  160.9021 H   0  0  0  0  0  0  0  0  0  0  0  0
  152.0538  144.8183  161.7102 H   0  0  0  0  0  0  0  0  0  0  0  0
  153.1016  142.8230  162.7867 H   0  0  0  0  0  0  0  0  0  0  0  0
  151.5120  142.4549  162.1632 H   0  0  0  0  0  0  0  0  0  0  0  0
  154.1801  141.7589  160.8227 H   0  0  0  0  0  0  0  0  0  0  0  0
  153.0471  140.6436  161.5583 H   0  0  0  0  0  0  0  0  0  0  0  0
  152.6104  141.3941  156.9878 H   0  0  0  0  0  0  0  0  0  0  0  0
  150.4787  139.4077  156.6861 H   0  0  0  0  0  0  0  0  0  0  0  0
  150.1128  140.8093  157.6799 H   0  0  0  0  0  0  0  0  0  0  0  0
  150.3275  142.3369  155.8839 H   0  0  0  0  0  0  0  0  0  0  0  0
  151.3790  141.2847  154.9681 H   0  0  0  0  0  0  0  0  0  0  0  0
  148.3186  142.7310  154.6800 H   0  0  0  0  0  0  0  0  0  0  0  0
  146.3772  141.8147  153.3857 H   0  0  0  0  0  0  0  0  0  0  0  0
  146.3397  139.3644  152.8360 H   0  0  0  0  0  0  0  0  0  0  0  0
  148.2511  137.9348  153.6061 H   0  0  0  0  0  0  0  0  0  0  0  0
  151.7725  142.5809  158.0449 H   0  0  0  0  0  0  0  0  0  0  0  0
  153.3713  142.9843  158.6262 H   0  0  0  0  0  0  0  0  0  0  0  0
  1  2  1  0  0  0  0
  1 20  1  0  0  0  0
  1 21  1  0  0  0  0
  1 22  1  0  0  0  0
  2 19  1  0  0  0  0
  2  3  1  0  0  0  0
  2 23  1  0  0  0  0
  3  4  1  0  0  0  0
  3 24  1  0  0  0  0
  3 25  1  0  0  0  0
  4  5  1  0  0  0  0
  4 26  1  0  0  0  0
  4 27  1  0  0  0  0
  5  6  1  0  0  0  0
  5 28  1  0  0  0  0
  5 29  1  0  0  0  0
  6  7  1  0  0  0  0
  6 19  1  0  0  0  0
  7  8  2  0  0  0  0
  7  9  2  0  0  0  0
  7 10  1  0  0  0  0
 10 11  1  0  0  0  0
 10 30  1  0  0  0  0
 11 12  1  0  0  0  0
 11 31  1  0  0  0  0
 11 32  1  0  0  0  0
 12 13  1  0  0  0  0
 12 33  1  0  0  0  0
 12 34  1  0  0  0  0
 13 18  1  0  0  0  0
 13 14  2  0  0  0  0
 14 15  1  0  0  0  0
 14 35  1  0  0  0  0
 15 16  2  0  0  0  0
 15 36  1  0  0  0  0
 16 17  1  0  0  0  0
 16 37  1  0  0  0  0
 17 18  2  0  0  0  0
 17 38  1  0  0  0  0
 19 39  1  0  0  0  0
 19 40  1  0  0  0  0
M  END
> <s_m_source_file>
AV-unprocessed.smi

> <i_m_source_file_index>
1292

> <i_lp_mmshare_version>
43012

> <i_f3d_flags>
0

> <s_epik_input>
W0NIM11bQ0BASF0xW0NIMl1bQ0gyXVtDSDJdTihbQ0gyXTEpUyg9TykoPU8pW05IXVtDSDJdW0NIMl1jMltjSF1bY0hdW2NIXVtjSF1uMg==

> <s_epik_cmdline>
J2VwaWtfcHl0aG9uJywgJy1waCcsICc3LjAnLCAnLXRuJywgJzgnLCAnLW1hJywgJzIwMCcsICctbWV0YWxfYmluZGluZycsICctaW1hZScsICc8aW5maWxlLm1hZT4nLCAnLW9tYWUnLCAnPG91dGZpbGUubWFlPic=

> <r_epik_Ionization_Penalty>
0.0252758

> <r_epik_Ionization_Penalty_Charging>
0

> <r_epik_Ionization_Penalty_Neutral>
0.0252758

> <r_epik_State_Penalty>
0.0138562

> <r_epik_Charging_Adjusted_Penalty>
0.0138562

> <i_epik_Tot_Q>
0

> <i_epik_Tot_abs_Q>
0

> <r_epik_Metal_State_Penalty>
0.204365

> <b_epik_Metal_Only>
0

> <s_lp_Force_Field>
OPLS_2005

> <r_lp_Energy>
7.0541

> <b_lp_Chiralities_Consistent>
1

> <s_lp_Variant>
AV-unprocessed.smi:1292-1

> <Gold.Version>
5.8.1

> <Gold.Id.Protein>
6NUR|6NUR_protein|mol2

> <Gold.PLP.Fitness>
45.6209

> <Gold.PLP.PLP>
-41.7981

> <Gold.PLP.part.hbond>
-1.3120

> <Gold.PLP.part.metal>
0.0000

> <Gold.PLP.part.buried>
-4.4446

> <Gold.PLP.part.nonpolar>
-35.5651

> <Gold.PLP.part.repulsive>
0.1274

> <Gold.PLP.ligand.clash>
0.0000

> <Gold.PLP.ligand.torsion>
1.5406

> <Gold.PLP.Chemscore.Hbond>
1.0000

> <Gold.PLP.Chemscore.CHOScore>
1.0000

> <Gold.PLP.Chemscore.Metal>
0.0000

> <Gold.Chemscore.Hbonds>
donor molecule, donor type, donor heavy atom, donor atom, acceptor molecule, acceptor atom, score
      P1  H  7997  8010       L1     8  1.00
      L1  C    17    38       P1  7948  1.00

> <Gold.PLP.Chemscore.Internal.Correction>
0.9040

> <Gold.Rescore>
     Score         DG    S(hbond)    S(metal)    S(lipo)     H(rot)  DE(clash)    DE(int)     intcor
     16.73     -18.25       0.97        0.00     117.39       1.64       0.02       1.50       ----

> <Gold.Chemscore.Fitness>
16.7291

> <Gold.Chemscore.DG>
-18.2498

> <Gold.Chemscore.ZeroCoef>
-5.4800

> <Gold.Chemscore.Hbond>
0.9678

> <Gold.Chemscore.Metal>
0.0000

> <Gold.Chemscore.Lipo>
117.3866

> <Gold.Chemscore.Internal_Hbond>
0.0000

> <Gold.Chemscore.DEClash>
0.0191

> <Gold.Chemscore.DEInternal>
1.5016

> <Gold.Chemscore.Rot>
1.6394

> <Gold.Chemscore.Internal.Correction>
   9.000000E+99

> <Gold.Chemscore.Hbonds>
donor molecule, donor type, donor heavy atom, donor atom, acceptor molecule, acceptor atom, score
      P1  H  7997  8010       L1     8  0.78

> <Gold.Chemscore.Hbond.Weighted>
-3.2324

> <Gold.Chemscore.Metal.Weighted>
-0.0000

> <Gold.Chemscore.Lipo.Weighted>
-13.7342

> <Gold.Chemscore.Internal_Hbond.Weighted>
0.0000

> <Gold.Chemscore.DEClash.Weighted>
0.0191

> <Gold.Chemscore.DEInternal.Weighted>
1.5016

> <Gold.Chemscore.Rot.Weighted>
4.1968

> <Gold.Chemscore.Internal.Correction.Weighted>
   9.000000E+99

> <Gold.Protein.RotatedTorsions>
[ 6907 6896 6895 6894 ] final   49.45 input  -60.11 | X-H torsion
[ 7974 7965 7964 7962 ] final -144.34 input  175.53 | X-H torsion
[ 8008 7997 7996 7995 ] final   21.35 input   59.86 | X-H torsion
[ 10167 10162 10161 10158 ] final  114.22 input  -65.29 | X-H torsion
[ 10718 10713 10712 10709 ] final  -11.51 input   66.30 | X-H torsion
[ 10763 10752 10751 10750 ] final   76.34 input  -60.55 | X-H torsion
[ 11005 11000 10999 10996 ] final    6.11 input  -57.11 | X-H torsion

> <Gold.Protein.ActiveResidues>
 VAL166  LYS551  ARG553  GLY616  TRP617  ASP618  TYR619  PRO620  LYS621  CYS622 
 ASP623  PHE694  ASN695  SER759  ASP760  ASP761  ALA762  ILE779  LEU786  VAL792 
 PHE793  MET794  SER795  GLU796  ALA797  LYS798  CYS799  TRP800  GLU811  SER814 

> <Gold.Protein.RotatedAtoms>
  152.2909  134.7723  160.0377 H   0  0  0  0  0  0  0  0  0  0  0  0  # atno 6907 bound_to 6896
  151.8269  133.3397  159.3609 H   0  0  0  0  0  0  0  0  0  0  0  0  # atno 6908 bound_to 6896
  150.7230  134.5449  159.5810 H   0  0  0  0  0  0  0  0  0  0  0  0  # atno 6909 bound_to 6896
  144.8304  140.5722  143.5518 H   0  0  0  0  0  0  0  0  0  0  0  0  # atno 7974 bound_to 7965
  154.9493  140.3063  155.5083 H   0  0  0  0  0  0  0  0  0  0  0  0  # atno 8008 bound_to 7997
  156.2988  140.2322  156.4507 H   0  0  0  0  0  0  0  0  0  0  0  0  # atno 8009 bound_to 7997
  154.8070  140.0430  157.1303 H   0  0  0  0  0  0  0  0  0  0  0  0  # atno 8010 bound_to 7997
  139.6404  144.7123  151.2248 H   0  0  0  0  0  0  0  0  0  0  0  0  # atno 10167 bound_to 10162
  156.6579  130.4973  149.6040 H   0  0  0  0  0  0  0  0  0  0  0  0  # atno 10718 bound_to 10713
  153.0718  135.4955  154.8321 H   0  0  0  0  0  0  0  0  0  0  0  0  # atno 10763 bound_to 10752
  154.7033  135.3006  154.9310 H   0  0  0  0  0  0  0  0  0  0  0  0  # atno 10764 bound_to 10752
  154.0027  135.6764  153.4813 H   0  0  0  0  0  0  0  0  0  0  0  0  # atno 10765 bound_to 10752
  140.5632  134.0173  155.7979 H   0  0  0  0  0  0  0  0  0  0  0  0  # atno 11005 bound_to 11000
  145.4907  139.1489  143.3711 LP  0  0  0  0  0  0  0  0  0  0  0  0  # atno 17320 bound_to 7965
  146.2608  140.5045  142.8854 LP  0  0  0  0  0  0  0  0  0  0  0  0  # atno 17321 bound_to 7965
  140.7488  143.6322  150.8413 LP  0  0  0  0  0  0  0  0  0  0  0  0  # atno 17342 bound_to 10162
  139.9958  143.5797  152.2893 LP  0  0  0  0  0  0  0  0  0  0  0  0  # atno 17343 bound_to 10162
  156.2033  130.6633  151.1191 LP  0  0  0  0  0  0  0  0  0  0  0  0  # atno 17370 bound_to 10713
  157.7119  131.0730  150.6469 LP  0  0  0  0  0  0  0  0  0  0  0  0  # atno 17371 bound_to 10713
  141.1102  133.9629  157.2924 LP  0  0  0  0  0  0  0  0  0  0  0  0  # atno 17394 bound_to 11000
  139.9398  135.0192  156.8671 LP  0  0  0  0  0  0  0  0  0  0  0  0  # atno 17395 bound_to 11000

$$$$
