#       Name:                AV-unprocessed.smi:1464
#       Creating user name   scv26
#       Creation time:       Fri Mar 27 06:02:03 2020


#       File generated by GOLD software.
#

@<TRIPOS>MOLECULE
AV-unprocessed.smi:1464
    47    48     1
SMALL
NO_CHARGES


@<TRIPOS>ATOM
      1 ****        -3.8449  -0.0496   1.7084 C.3            1 S1                 0.0000
      2 ****        -3.1138  -1.3830   1.4495 C.3            1 S1                 0.0000
      3 ****        -3.6199  -2.0680   0.1641 C.3            1 S1                 0.0000
      4 ****        -3.1369  -1.3473  -1.1039 C.3            1 S1                 0.0000
      5 ****        -1.6066  -1.2334  -1.1260 C.3            1 S1                 0.0000
      6 ****        -1.0565  -0.5553   0.1463 C.3            1 S1                 0.0000
      7 ****         0.4043  -0.5684   0.1071 N.am           1 S1                 0.0000
      8 ****         1.1822   0.3683  -0.4568 C.2            1 S1                 0.0000
      9 ****         0.7323   1.3691  -1.0171 O.2            1 S1                 0.0000
     10 ****         2.6947   0.1104  -0.3644 C.3            1 S1                 0.0000
     11 ****         3.5310   1.1791  -0.9307 N.am           1 S1                 0.0000
     12 ****         4.1269   2.0554   0.0747 N.pl3          1 S1                -1.0000
     13 ****         4.9223   3.0814  -0.3283 C.2            1 S1                 0.0000
     14 ****         5.4502   3.8641   0.4583 O.2            1 S1                 0.0000
     15 ****         5.1541   3.2483  -1.7535 C.2            1 S1                 0.0000
     16 ****         4.6052   2.4139  -2.6582 C.2            1 S1                 0.0000
     17 ****         3.7483   1.2997  -2.2717 C.2            1 S1                 0.0000
     18 ****         3.2561   0.5246  -3.0921 O.2            1 S1                 0.0000
     19 ****        -1.5660  -1.2662   1.4273 C.3            1 S1                 0.0000
     20 ****        -1.0066  -0.6425   2.7216 C.3            1 S1                 0.0000
     21 ****        -3.6014   0.7062   0.9624 H              1 S1                 0.0000
     22 ****        -3.5956   0.3605   2.6868 H              1 S1                 0.0000
     23 ****        -4.9260  -0.1905   1.6910 H              1 S1                 0.0000
     24 ****        -3.3776  -2.0399   2.2794 H              1 S1                 0.0000
     25 ****        -3.2638  -3.0990   0.1435 H              1 S1                 0.0000
     26 ****        -4.7088  -2.1265   0.1689 H              1 S1                 0.0000
     27 ****        -3.4785  -1.8864  -1.9879 H              1 S1                 0.0000
     28 ****        -3.5815  -0.3537  -1.1631 H              1 S1                 0.0000
     29 ****        -1.1768  -2.2314  -1.2245 H              1 S1                 0.0000
     30 ****        -1.2961  -0.6775  -2.0117 H              1 S1                 0.0000
     31 ****        -1.4007   0.4801   0.1694 H              1 S1                 0.0000
     32 ****         0.8623  -1.3533   0.5469 H              1 S1                 0.0000
     33 ****         2.9494  -0.0491   0.6851 H              1 S1                 0.0000
     34 ****         2.9186  -0.8339  -0.8636 H              1 S1                 0.0000
     35 ****         5.7821   4.0583  -2.0938 H              1 S1                 0.0000
     36 ****         4.8053   2.5753  -3.7069 H              1 S1                 0.0000
     37 ****        -1.1844  -2.2883   1.3955 H              1 S1                 0.0000
     38 ****        -1.2290   0.4231   2.7823 H              1 S1                 0.0000
     39 ****         0.0763  -0.7521   2.7832 H              1 S1                 0.0000
     40 ****        -1.4286  -1.1243   3.6038 H              1 S1                 0.0000
     41 ****        -0.2562   1.5125  -1.0669 LP             1 S1                 0.0000
     42 ****         1.3555   2.0381  -1.4221 LP             1 S1                 0.0000
     43 ****         3.9518   1.9025   1.0473 LP             1 S1                 0.0000
     44 ****         5.3020   3.7607   1.4418 LP             1 S1                 0.0000
     45 ****         6.0280   4.6046   0.1149 LP             1 S1                 0.0000
     46 ****         2.6731  -0.2267  -2.7829 LP             1 S1                 0.0000
     47 ****         3.4393   0.6465  -4.0676 LP             1 S1                 0.0000
@<TRIPOS>BOND
    1    1    2 1     
    2    1   21 1     
    3    1   22 1     
    4    1   23 1     
    5    2   19 1     
    6    2    3 1     
    7    2   24 1     
    8    3    4 1     
    9    3   25 1     
   10    3   26 1     
   11    4    5 1     
   12    4   27 1     
   13    4   28 1     
   14    5    6 1     
   15    5   29 1     
   16    5   30 1     
   17    6    7 1     
   18    6   19 1     
   19    6   31 1     
   20    7    8 am    
   21    7   32 1     
   22    8    9 2     
   23    8   10 1     
   24   10   33 1     
   25   10   34 1     
   26   10   11 1     
   27   11   12 1     
   28   11   17 am    
   29   12   13 1     
   30   13   14 2     
   31   13   15 1     
   32   15   35 1     
   33   15   16 2     
   34   16   36 1     
   35   16   17 1     
   36   17   18 2     
   37   19   20 1     
   38   19   37 1     
   39   20   38 1     
   40   20   39 1     
   41   20   40 1     
   42    9   41 1     
   43    9   42 1     
   44   12   43 1     
   45   14   44 1     
   46   14   45 1     
   47   18   46 1     
   48   18   47 1     
@<TRIPOS>SUBSTRUCTURE
      1 S1             1
@<TRIPOS>SET
LONE_PAIRS      STATIC     ATOMS    <user>   **** ""
7 41 42 43 44 45 46 47
DONOR_HYDROGENS      STATIC     ATOMS    <user>   **** ""
1 32
ATOM$BLUE        STATIC     ATOMS    COLORGROUP SYSTEM
7 41 42 43 44 45 46 47
ATOM$RED        STATIC     ATOMS    COLORGROUP SYSTEM
1 32
