#       Name:                AV-unprocessed.smi:1784
#       Creating user name   scv26
#       Creation time:       Fri Mar 27 08:44:08 2020


#       File generated by GOLD software.
#

@<TRIPOS>MOLECULE
AV-unprocessed.smi:1784
    49    51     1
SMALL
NO_CHARGES


@<TRIPOS>ATOM
      1 ****         1.5279   1.6885  -1.1202 O.2            1 S1                 0.0000
      2 ****         0.9829   0.5855  -1.1570 C.2            1 S1                 0.0000
      3 ****         1.6521  -0.5740  -1.2182 N.am           1 S1                 0.0000
      4 ****         3.1050  -0.7037  -1.2086 C.3            1 S1                 0.0000
      5 ****         3.6433  -0.8679   0.2225 C.3            1 S1                 0.0000
      6 ****         5.1479  -1.1290   0.2848 C.3            1 S1                 0.0000
      7 ****         5.4910  -0.6198   1.6658 C.3            1 S1                 0.0000
      8 ****         4.5990   0.6129   1.7667 C.3            1 S1                 0.0000
      9 ****         3.4430   0.3204   0.9866 O.3            1 S1                 0.0000
     10 ****        -0.3441   0.3798  -1.1187 N.am           1 S1                 0.0000
     11 ****        -1.3741   1.3537  -0.9897 C.ar           1 S1                 0.0000
     12 ****        -1.2506   2.6350  -1.5859 C.ar           1 S1                 0.0000
     13 ****        -2.2743   3.5872  -1.4245 C.ar           1 S1                 0.0000
     14 ****        -3.4098   3.2432  -0.6716 C.ar           1 S1                 0.0000
     15 ****        -3.5070   2.0096  -0.1340 N.pl3          1 S1                 1.0000
     16 ****        -2.5630   1.0444  -0.2669 C.ar           1 S1                 0.0000
     17 ****        -2.8100  -0.2073   0.3420 N.3            1 S1                 0.0000
     18 ****        -3.9381  -0.3784   1.2504 C.3            1 S1                 0.0000
     19 ****        -4.0881  -1.8883   1.4142 C.3            1 S1                 0.0000
     20 ****        -3.7064  -2.4066   0.0309 C.3            1 S1                 0.0000
     21 ****        -2.6268  -1.4261  -0.4394 C.3            1 S1                 0.0000
     22 ****         1.1213  -1.4321  -1.2457 H              1 S1                 0.0000
     23 ****         3.3612  -1.5845  -1.7978 H              1 S1                 0.0000
     24 ****         3.5778   0.1462  -1.7042 H              1 S1                 0.0000
     25 ****         3.1227  -1.6818   0.7299 H              1 S1                 0.0000
     26 ****         5.4043  -2.1787   0.1394 H              1 S1                 0.0000
     27 ****         5.6739  -0.5405  -0.4685 H              1 S1                 0.0000
     28 ****         5.2055  -1.3553   2.4190 H              1 S1                 0.0000
     29 ****         6.5500  -0.3926   1.7909 H              1 S1                 0.0000
     30 ****         4.3357   0.8537   2.7968 H              1 S1                 0.0000
     31 ****         5.0979   1.4802   1.3326 H              1 S1                 0.0000
     32 ****        -0.6414  -0.5825  -1.0548 H              1 S1                 0.0000
     33 ****        -0.3836   2.9016  -2.1714 H              1 S1                 0.0000
     34 ****        -2.1868   4.5674  -1.8702 H              1 S1                 0.0000
     35 ****        -4.2418   3.9084  -0.4910 H              1 S1                 0.0000
     36 ****        -3.7605   0.1166   2.2055 H              1 S1                 0.0000
     37 ****        -4.8480   0.0336   0.8120 H              1 S1                 0.0000
     38 ****        -3.3801  -2.2563   2.1585 H              1 S1                 0.0000
     39 ****        -5.0909  -2.1857   1.7225 H              1 S1                 0.0000
     40 ****        -3.3631  -3.4414   0.0427 H              1 S1                 0.0000
     41 ****        -4.5702  -2.3469  -0.6326 H              1 S1                 0.0000
     42 ****        -2.6982  -1.2426  -1.5124 H              1 S1                 0.0000
     43 ****        -1.6379  -1.8331  -0.2274 H              1 S1                 0.0000
     44 ****        -4.3477   1.7871   0.3991 H              1 S1                 0.0000
     45 ****         2.5256   1.7540  -1.1356 LP             1 S1                 0.0000
     46 ****         0.9729   2.5192  -1.0750 LP             1 S1                 0.0000
     47 ****         2.6594   0.1925   1.5945 LP             1 S1                 0.0000
     48 ****         3.2626   1.0839   0.3664 LP             1 S1                 0.0000
     49 ****        -2.0058  -0.0933   0.9253 LP             1 S1                 0.0000
@<TRIPOS>BOND
    1    1    2 2     
    2    2    3 am    
    3    2   10 am    
    4    3    4 1     
    5    3   22 1     
    6    4    5 1     
    7    4   23 1     
    8    4   24 1     
    9    5    9 1     
   10    5    6 1     
   11    5   25 1     
   12    6    7 1     
   13    6   26 1     
   14    6   27 1     
   15    7    8 1     
   16    7   28 1     
   17    7   29 1     
   18    8    9 1     
   19    8   30 1     
   20    8   31 1     
   21   10   11 1     
   22   10   32 1     
   23   11   16 ar    
   24   11   12 ar    
   25   12   13 ar    
   26   12   33 1     
   27   13   14 ar    
   28   13   34 1     
   29   14   15 ar    
   30   14   35 1     
   31   15   16 ar    
   32   15   44 1     
   33   16   17 1     
   34   17   21 1     
   35   17   18 1     
   36   18   19 1     
   37   18   36 1     
   38   18   37 1     
   39   19   20 1     
   40   19   38 1     
   41   19   39 1     
   42   20   21 1     
   43   20   40 1     
   44   20   41 1     
   45   21   42 1     
   46   21   43 1     
   47    1   45 1     
   48    1   46 1     
   49    9   47 1     
   50    9   48 1     
   51   17   49 1     
@<TRIPOS>SUBSTRUCTURE
      1 S1             1
@<TRIPOS>SET
LONE_PAIRS      STATIC     ATOMS    <user>   **** ""
5 45 46 47 48 49
DONOR_HYDROGENS      STATIC     ATOMS    <user>   **** ""
3 22 32 44
ATOM$BLUE        STATIC     ATOMS    COLORGROUP SYSTEM
5 45 46 47 48 49
ATOM$RED        STATIC     ATOMS    COLORGROUP SYSTEM
3 22 32 44
