#       Name:                AV-unprocessed.smi:2845
#       Creating user name   scv26
#       Creation time:       Fri Mar 27 15:40:18 2020


#       File generated by GOLD software.
#

@<TRIPOS>MOLECULE
AV-unprocessed.smi:2845
    47    49     1
SMALL
NO_CHARGES


@<TRIPOS>ATOM
      1 ****        -4.1174   3.6877   2.2934 C.3            1 S1                 0.0000
      2 ****        -3.4050   2.7990   1.2879 C.ar           1 S1                 0.0000
      3 ****        -3.2234   3.2806  -0.0282 C.ar           1 S1                 0.0000
      4 ****        -2.5641   2.4467  -0.9235 C.ar           1 S1                 0.0000
      5 ****        -2.2306   2.6297  -2.2672 N.pl3          1 S1                 1.0000
      6 ****        -1.5788   1.5265  -2.7280 C.2            1 S1                 0.0000
      7 ****        -1.4923   0.6405  -1.6990 N.pl3          1 S1                 0.0000
      8 ****        -0.8862  -0.6985  -1.6625 C.3            1 S1                 0.0000
      9 ****         0.6249  -0.6651  -1.3611 C.3            1 S1                 0.0000
     10 ****         0.8535  -0.0585  -0.1031 O.3            1 S1                 0.0000
     11 ****         1.2440  -2.0759  -1.3801 C.3            1 S1                 0.0000
     12 ****         2.6842  -2.0533  -1.1975 N.pl3          1 S1                 0.0000
     13 ****         3.6684  -1.9044  -2.0890 C.2            1 S1                 0.0000
     14 ****         4.8843  -1.9242  -1.5588 N.2            1 S1                 0.0000
     15 ****         4.5422  -2.1010  -0.2499 C.2            1 S1                 0.0000
     16 ****         5.8073  -2.2162   1.0538 S.o            1 S1                 0.0000
     17 ****         5.7563  -4.0647   1.1962 C.3            1 S1                 0.0000
     18 ****         5.1602  -1.6510   2.3201 O.2            1 S1                 0.0000
     19 ****         3.2429  -2.1879   0.0285 N.2            1 S1                 0.0000
     20 ****        -2.0936   1.1722  -0.5516 C.ar           1 S1                 0.0000
     21 ****        -2.2655   0.6826   0.7411 C.ar           1 S1                 0.0000
     22 ****        -2.9321   1.5161   1.6673 C.ar           1 S1                 0.0000
     23 ****        -3.1286   1.0094   3.0860 C.3            1 S1                 0.0000
     24 ****        -4.3951   4.6459   1.8531 H              1 S1                 0.0000
     25 ****        -3.4742   3.8893   3.1504 H              1 S1                 0.0000
     26 ****        -5.0294   3.2080   2.6492 H              1 S1                 0.0000
     27 ****        -3.5796   4.2566  -0.3243 H              1 S1                 0.0000
     28 ****        -1.1985   1.3812  -3.7289 H              1 S1                 0.0000
     29 ****        -1.4216  -1.3173  -0.9421 H              1 S1                 0.0000
     30 ****        -1.0580  -1.1522  -2.6394 H              1 S1                 0.0000
     31 ****         1.1200  -0.0530  -2.1161 H              1 S1                 0.0000
     32 ****         1.7821  -0.0748   0.0746 H              1 S1                 0.0000
     33 ****         0.7979  -2.7022  -0.6056 H              1 S1                 0.0000
     34 ****         1.0348  -2.5632  -2.3331 H              1 S1                 0.0000
     35 ****         3.4907  -1.7755  -3.1467 H              1 S1                 0.0000
     36 ****         5.4635  -4.5226   0.2511 H              1 S1                 0.0000
     37 ****         5.0420  -4.3645   1.9631 H              1 S1                 0.0000
     38 ****         6.7398  -4.4453   1.4710 H              1 S1                 0.0000
     39 ****        -1.8984  -0.2900   1.0337 H              1 S1                 0.0000
     40 ****        -2.7607  -0.0109   3.1996 H              1 S1                 0.0000
     41 ****        -4.1854   1.0121   3.3535 H              1 S1                 0.0000
     42 ****        -2.5895   1.6396   3.7937 H              1 S1                 0.0000
     43 ****        -2.4300   3.4470  -2.8299 H              1 S1                 0.0000
     44 ****         0.3652  -0.5637   0.6084 LP             1 S1                 0.0000
     45 ****         0.5303   0.8877  -0.1215 LP             1 S1                 0.0000
     46 ****         5.7825  -1.8359  -1.9895 LP             1 S1                 0.0000
     47 ****         2.7958  -2.3186   0.9134 LP             1 S1                 0.0000
@<TRIPOS>BOND
    1    1    2 1     
    2    1   24 1     
    3    1   25 1     
    4    1   26 1     
    5    2   22 ar    
    6    2    3 ar    
    7    3    4 ar    
    8    3   27 1     
    9    4   20 ar    
   10    4    5 1     
   11    5    6 2     
   12    5   43 1     
   13    6    7 1     
   14    6   28 1     
   15    7    8 1     
   16    7   20 1     
   17    8    9 1     
   18    8   29 1     
   19    8   30 1     
   20    9   10 1     
   21    9   11 1     
   22    9   31 1     
   23   10   32 1     
   24   11   12 1     
   25   11   33 1     
   26   11   34 1     
   27   12   19 1     
   28   12   13 1     
   29   13   14 2     
   30   13   35 1     
   31   14   15 1     
   32   15   16 1     
   33   15   19 2     
   34   16   17 1     
   35   16   18 2     
   36   17   36 1     
   37   17   37 1     
   38   17   38 1     
   39   20   21 ar    
   40   21   22 ar    
   41   21   39 1     
   42   22   23 1     
   43   23   40 1     
   44   23   41 1     
   45   23   42 1     
   46   10   44 1     
   47   10   45 1     
   48   14   46 1     
   49   19   47 1     
@<TRIPOS>SUBSTRUCTURE
      1 S1             1
@<TRIPOS>SET
LONE_PAIRS      STATIC     ATOMS    <user>   **** ""
5 44 45 46 18 47
DONOR_HYDROGENS      STATIC     ATOMS    <user>   **** ""
2 43 32
ATOM$BLUE        STATIC     ATOMS    COLORGROUP SYSTEM
5 44 45 46 18 47
ATOM$RED        STATIC     ATOMS    COLORGROUP SYSTEM
2 43 32
