AV-unprocessed.smi:680|AV-procd|sdf|3323|dock2
  -GOLD-   22720 0293D 1   1.00000     0.00000
 Structure written by MMmdl.
 32 33  0  0  0  0  0  0  0  0  1 V2000
  146.9321  138.8499  151.9314 C   0  0  0  0  0  0  0  0  0  0  0  0
  147.3162  140.0380  152.7630 C   0  0  0  0  0  0  0  0  0  0  0  0
  148.4047  140.1656  153.6702 C   0  0  0  0  0  0  0  0  0  0  0  0
  148.2655  141.4471  154.1325 C   0  0  0  0  0  0  0  0  0  0  0  0
  149.0424  142.1118  155.0271 N   0  0  0  0  0  0  0  0  0  0  0  0
  150.1933  141.7196  155.6018 C   0  0  0  0  0  0  0  0  0  0  0  0
  150.7615  140.6458  155.4025 O   0  0  0  0  0  0  0  0  0  0  0  0
  150.6554  142.6575  156.4418 N   0  0  0  0  0  0  0  0  0  0  0  0
  151.8673  142.5530  157.2510 C   0  0  0  0  0  0  0  0  0  0  0  0
  151.5798  142.8020  158.7441 C   0  0  2  0  0  0  0  0  0  0  0  0
  151.3455  144.2988  159.0173 C   0  0  0  0  0  0  0  0  0  0  0  0
  150.6519  144.5981  160.6678 S   0  0  0  0  0  0  0  0  0  0  0  0
  151.9985  143.9496  161.6944 C   0  0  0  0  0  0  0  0  0  0  0  0
  152.2487  142.4596  161.4329 C   0  0  0  0  0  0  0  0  0  0  0  0
  152.9376  142.1689  159.7801 S   0  0  0  0  0  0  0  0  0  0  0  0
  147.1976  142.0599  153.5665 O   0  0  0  0  0  0  0  0  0  0  0  0
  146.5953  141.1473  152.6924 N   0  0  0  0  0  0  0  0  0  0  0  0
  147.6156  138.0169  152.0966 H   0  0  0  0  0  0  0  0  0  0  0  0
  146.9547  139.0909  150.8685 H   0  0  0  0  0  0  0  0  0  0  0  0
  145.9262  138.5073  152.1757 H   0  0  0  0  0  0  0  0  0  0  0  0
  149.1517  139.4286  153.9231 H   0  0  0  0  0  0  0  0  0  0  0  0
  148.6957  143.0184  155.3037 H   0  0  0  0  0  0  0  0  0  0  0  0
  150.1199  143.5075  156.5410 H   0  0  0  0  0  0  0  0  0  0  0  0
  152.3625  141.5894  157.1190 H   0  0  0  0  0  0  0  0  0  0  0  0
  152.5649  143.3043  156.8799 H   0  0  0  0  0  0  0  0  0  0  0  0
  150.6745  142.2552  159.0117 H   0  0  0  0  0  0  0  0  0  0  0  0
  152.2719  144.8631  158.9042 H   0  0  0  0  0  0  0  0  0  0  0  0
  150.6392  144.7054  158.2931 H   0  0  0  0  0  0  0  0  0  0  0  0
  152.9041  144.5297  161.5140 H   0  0  0  0  0  0  0  0  0  0  0  0
  151.7284  144.0995  162.7399 H   0  0  0  0  0  0  0  0  0  0  0  0
  152.9573  142.0727  162.1654 H   0  0  0  0  0  0  0  0  0  0  0  0
  151.3282  141.8868  161.5490 H   0  0  0  0  0  0  0  0  0  0  0  0
  1  2  1  0  0  0  0
  1 18  1  0  0  0  0
  1 19  1  0  0  0  0
  1 20  1  0  0  0  0
  2 17  2  0  0  0  0
  2  3  1  0  0  0  0
  3  4  2  0  0  0  0
  3 21  1  0  0  0  0
  4  5  1  0  0  0  0
  4 16  1  0  0  0  0
  5  6  1  0  0  0  0
  5 22  1  0  0  0  0
  6  7  2  0  0  0  0
  6  8  1  0  0  0  0
  8  9  1  0  0  0  0
  8 23  1  0  0  0  0
  9 10  1  0  0  0  0
  9 24  1  0  0  0  0
  9 25  1  0  0  0  0
 10 15  1  0  0  0  0
 10 11  1  0  0  0  0
 10 26  1  0  0  0  0
 11 12  1  0  0  0  0
 11 27  1  0  0  0  0
 11 28  1  0  0  0  0
 12 13  1  0  0  0  0
 13 14  1  0  0  0  0
 13 29  1  0  0  0  0
 13 30  1  0  0  0  0
 14 15  1  0  0  0  0
 14 31  1  0  0  0  0
 14 32  1  0  0  0  0
 16 17  1  0  0  0  0
M  END
> <s_m_source_file>
AV-unprocessed.smi

> <i_m_source_file_index>
680

> <i_lp_mmshare_version>
43012

> <i_f3d_flags>
0

> <s_epik_input>
W0NIM11jMVtjSF1jKG9uMSlbTkhdQyg9TylbTkhdW0NIMl1bQ0BASF0yW0NIMl1TW0NIMl1bQ0gyXVMy

> <s_epik_cmdline>
J2VwaWtfcHl0aG9uJywgJy1waCcsICc3LjAnLCAnLXRuJywgJzgnLCAnLW1hJywgJzIwMCcsICctbWV0YWxfYmluZGluZycsICctaW1hZScsICc8aW5maWxlLm1hZT4nLCAnLW9tYWUnLCAnPG91dGZpbGUubWFlPic=

> <r_epik_Ionization_Penalty>
0.000554698

> <r_epik_Ionization_Penalty_Charging>
0

> <r_epik_Ionization_Penalty_Neutral>
0.000554698

> <r_epik_State_Penalty>
0.000333438

> <r_epik_Charging_Adjusted_Penalty>
0.000333438

> <i_epik_Tot_Q>
0

> <i_epik_Tot_abs_Q>
0

> <r_epik_Metal_State_Penalty>
-0

> <b_epik_Metal_Only>
0

> <s_lp_Force_Field>
OPLS_2005

> <r_lp_Energy>
4.32293

> <b_lp_Chiralities_Consistent>
1

> <s_lp_Variant>
AV-unprocessed.smi:680-1

> <Gold.Version>
5.8.1

> <Gold.Id.Protein>
6NUR|6NUR_protein|mol2

> <Gold.PLP.Fitness>
40.8760

> <Gold.PLP.PLP>
-33.3272

> <Gold.PLP.part.hbond>
-3.0000

> <Gold.PLP.part.metal>
0.0000

> <Gold.PLP.part.buried>
-1.3347

> <Gold.PLP.part.nonpolar>
-30.5580

> <Gold.PLP.part.repulsive>
2.6820

> <Gold.PLP.ligand.clash>
0.0000

> <Gold.PLP.ligand.torsion>
0.1531

> <Gold.PLP.Chemscore.Hbond>
2.6160

> <Gold.PLP.Chemscore.CHOScore>
0.0000

> <Gold.PLP.Chemscore.Metal>
0.0000

> <Gold.Chemscore.Hbonds>
donor molecule, donor type, donor heavy atom, donor atom, acceptor molecule, acceptor atom, score
      L1  H     5    22       P1  8028  1.00
      L1  H     8    23       P1  8028  0.91
      P1  H  7989  7998       L1     7  0.74

> <Gold.PLP.Chemscore.Internal.Correction>
0.0069

> <Gold.Rescore>
     Score         DG    S(hbond)    S(metal)    S(lipo)     H(rot)  DE(clash)    DE(int)     intcor
     16.19     -20.98       2.04        0.00     101.85       1.26       3.60       1.19       ----

> <Gold.Chemscore.Fitness>
16.1935

> <Gold.Chemscore.DG>
-20.9805

> <Gold.Chemscore.ZeroCoef>
-5.4800

> <Gold.Chemscore.Hbond>
2.0381

> <Gold.Chemscore.Metal>
0.0000

> <Gold.Chemscore.Lipo>
101.8488

> <Gold.Chemscore.Internal_Hbond>
0.0000

> <Gold.Chemscore.DEClash>
3.5961

> <Gold.Chemscore.DEInternal>
1.1909

> <Gold.Chemscore.Rot>
1.2590

> <Gold.Chemscore.Internal.Correction>
   9.000000E+99

> <Gold.Chemscore.Hbonds>
donor molecule, donor type, donor heavy atom, donor atom, acceptor molecule, acceptor atom, score
      L1  H     5    22       P1  8028  0.98
      L1  H     8    23       P1  8028  0.89
      P1  H  7989  7998       L1     7  0.32

> <Gold.Chemscore.Hbond.Weighted>
-6.8074

> <Gold.Chemscore.Metal.Weighted>
-0.0000

> <Gold.Chemscore.Lipo.Weighted>
-11.9163

> <Gold.Chemscore.Internal_Hbond.Weighted>
0.0000

> <Gold.Chemscore.DEClash.Weighted>
3.5961

> <Gold.Chemscore.DEInternal.Weighted>
1.1909

> <Gold.Chemscore.Rot.Weighted>
3.2232

> <Gold.Chemscore.Internal.Correction.Weighted>
   9.000000E+99

> <Gold.Protein.RotatedTorsions>
[ 6907 6896 6895 6894 ] final   23.31 input  -60.11 | X-H torsion
[ 7974 7965 7964 7962 ] final  -66.04 input  175.53 | X-H torsion
[ 8008 7997 7996 7995 ] final  -98.89 input   59.86 | X-H torsion
[ 10167 10162 10161 10158 ] final  -89.70 input  -65.29 | X-H torsion
[ 10718 10713 10712 10709 ] final -112.53 input   66.30 | X-H torsion
[ 10763 10752 10751 10750 ] final    8.19 input  -60.55 | X-H torsion
[ 11005 11000 10999 10996 ] final   22.72 input  -57.11 | X-H torsion

> <Gold.Protein.ActiveResidues>
 VAL166  LYS551  ARG553  GLY616  TRP617  ASP618  TYR619  PRO620  LYS621  CYS622 
 ASP623  PHE694  ASN695  SER759  ASP760  ASP761  ALA762  ILE779  LEU786  VAL792 
 PHE793  MET794  SER795  GLU796  ALA797  LYS798  CYS799  TRP800  GLU811  SER814 

> <Gold.Protein.RotatedAtoms>
  151.9403  135.0216  160.0535 H   0  0  0  0  0  0  0  0  0  0  0  0  # atno 6907 bound_to 6896
  152.2042  133.4858  159.5083 H   0  0  0  0  0  0  0  0  0  0  0  0  # atno 6908 bound_to 6896
  150.6961  134.1468  159.4168 H   0  0  0  0  0  0  0  0  0  0  0  0  # atno 6909 bound_to 6896
  145.7468  140.8927  143.0501 H   0  0  0  0  0  0  0  0  0  0  0  0  # atno 7974 bound_to 7965
  154.8074  140.0452  157.1318 H   0  0  0  0  0  0  0  0  0  0  0  0  # atno 8008 bound_to 7997
  154.9408  140.3052  155.5102 H   0  0  0  0  0  0  0  0  0  0  0  0  # atno 8009 bound_to 7997
  156.2968  140.2306  156.4477 H   0  0  0  0  0  0  0  0  0  0  0  0  # atno 8010 bound_to 7997
  140.3622  143.2836  151.9601 H   0  0  0  0  0  0  0  0  0  0  0  0  # atno 10167 bound_to 10162
  156.0711  130.5925  150.8520 H   0  0  0  0  0  0  0  0  0  0  0  0  # atno 10718 bound_to 10713
  153.2278  135.6889  153.7925 H   0  0  0  0  0  0  0  0  0  0  0  0  # atno 10763 bound_to 10752
  153.7101  135.3283  155.3245 H   0  0  0  0  0  0  0  0  0  0  0  0  # atno 10764 bound_to 10752
  154.8300  135.4588  154.1151 H   0  0  0  0  0  0  0  0  0  0  0  0  # atno 10765 bound_to 10752
  140.3774  134.1957  155.7664 H   0  0  0  0  0  0  0  0  0  0  0  0  # atno 11005 bound_to 11000
  144.6858  139.9536  143.7478 LP  0  0  0  0  0  0  0  0  0  0  0  0  # atno 17320 bound_to 7965
  146.0395  139.3408  143.0706 LP  0  0  0  0  0  0  0  0  0  0  0  0  # atno 17321 bound_to 7965
  139.4813  144.5982  151.7652 LP  0  0  0  0  0  0  0  0  0  0  0  0  # atno 17342 bound_to 10162
  140.5116  144.1016  150.5997 LP  0  0  0  0  0  0  0  0  0  0  0  0  # atno 17343 bound_to 10162
  157.5782  131.0946  150.9312 LP  0  0  0  0  0  0  0  0  0  0  0  0  # atno 17370 bound_to 10713
  156.9513  130.5421  149.5282 LP  0  0  0  0  0  0  0  0  0  0  0  0  # atno 17371 bound_to 10713
  141.1934  133.8150  157.0798 LP  0  0  0  0  0  0  0  0  0  0  0  0  # atno 17394 bound_to 11000
  140.0504  134.9808  157.1126 LP  0  0  0  0  0  0  0  0  0  0  0  0  # atno 17395 bound_to 11000

$$$$
