AV-unprocessed.smi:1795|AV-procd|sdf|7246|dock7
  -GOLD-   22720 8493D 1   1.00000     0.00000
 Structure written by MMmdl.
 48 49  0  0  0  0  0  0  0  0  2 V2000
  149.3416  130.3430  153.5727 C   0  0  0  0  0  0  0  0  0  0  0  0
  148.3196  131.4841  153.6137 C   0  0  1  0  0  0  0  0  0  0  0  0
  148.9449  132.8366  153.2169 C   0  0  0  0  0  0  0  0  0  0  0  0
  147.9270  133.9226  153.2136 N   0  3  2  0  0  0  0  0  0  0  0  0
  147.4826  134.4570  154.5452 C   0  0  1  0  0  0  0  0  0  0  0  0
  146.7497  133.4084  155.4170 C   0  0  0  0  0  0  0  0  0  0  0  0
  148.6977  135.0299  155.3159 C   0  0  0  0  0  0  0  0  0  0  0  0
  149.3286  136.1375  154.6081 N   0  0  0  0  0  0  0  0  0  0  0  0
  150.2838  136.9204  155.1292 C   0  0  0  0  0  0  0  0  0  0  0  0
  150.7235  136.7721  156.2702 O   0  0  0  0  0  0  0  0  0  0  0  0
  150.8320  138.0176  154.2054 C   0  0  0  0  0  0  0  0  0  0  0  0
  150.5477  139.3807  154.6836 N   0  0  0  0  0  0  0  0  0  0  0  0
  149.3954  140.0113  154.1731 C   0  0  0  0  0  0  0  0  0  0  0  0
  149.0441  141.2536  154.5405 C   0  0  0  0  0  0  0  0  0  0  0  0
  149.8822  141.9472  155.4897 C   0  0  0  0  0  0  0  0  0  0  0  0
  150.9895  141.3555  155.9801 C   0  0  0  0  0  0  0  0  0  0  0  0
  151.3810  139.9999  155.5758 C   0  0  0  0  0  0  0  0  0  0  0  0
  152.3949  139.4541  156.0125 O   0  0  0  0  0  0  0  0  0  0  0  0
  146.8087  133.5257  152.3141 C   0  0  0  0  0  0  0  0  0  0  0  0
  146.2343  132.1411  152.6909 C   0  0  1  0  0  0  0  0  0  0  0  0
  145.1613  131.6772  151.7000 C   0  0  0  0  0  0  0  0  0  0  0  0
  147.2820  131.1778  152.6888 O   0  0  0  0  0  0  0  0  0  0  0  0
  150.1593  130.5231  154.2709 H   0  0  0  0  0  0  0  0  0  0  0  0
  149.7703  130.2313  152.5763 H   0  0  0  0  0  0  0  0  0  0  0  0
  148.8772  129.3942  153.8425 H   0  0  0  0  0  0  0  0  0  0  0  0
  147.9027  131.5397  154.6205 H   0  0  0  0  0  0  0  0  0  0  0  0
  149.8097  133.0789  153.8327 H   0  0  0  0  0  0  0  0  0  0  0  0
  149.3429  132.7549  152.2043 H   0  0  0  0  0  0  0  0  0  0  0  0
  146.7750  135.2678  154.3736 H   0  0  0  0  0  0  0  0  0  0  0  0
  146.4752  133.8118  156.3913 H   0  0  0  0  0  0  0  0  0  0  0  0
  147.3729  132.5309  155.5927 H   0  0  0  0  0  0  0  0  0  0  0  0
  145.8149  133.0793  154.9636 H   0  0  0  0  0  0  0  0  0  0  0  0
  148.3810  135.3723  156.3027 H   0  0  0  0  0  0  0  0  0  0  0  0
  149.4611  134.2709  155.4810 H   0  0  0  0  0  0  0  0  0  0  0  0
  149.0204  136.3216  153.6642 H   0  0  0  0  0  0  0  0  0  0  0  0
  151.9077  137.8690  154.1026 H   0  0  0  0  0  0  0  0  0  0  0  0
  150.4283  137.8788  153.2007 H   0  0  0  0  0  0  0  0  0  0  0  0
  148.8269  139.4274  153.4635 H   0  0  0  0  0  0  0  0  0  0  0  0
  148.1604  141.7230  154.1339 H   0  0  0  0  0  0  0  0  0  0  0  0
  149.6201  142.9457  155.8075 H   0  0  0  0  0  0  0  0  0  0  0  0
  151.6046  141.8903  156.6890 H   0  0  0  0  0  0  0  0  0  0  0  0
  146.0151  134.2703  152.2990 H   0  0  0  0  0  0  0  0  0  0  0  0
  147.1958  133.4882  151.2947 H   0  0  0  0  0  0  0  0  0  0  0  0
  145.7843  132.1725  153.6837 H   0  0  0  0  0  0  0  0  0  0  0  0
  144.3219  132.3727  151.6767 H   0  0  0  0  0  0  0  0  0  0  0  0
  144.7714  130.6975  151.9776 H   0  0  0  0  0  0  0  0  0  0  0  0
  145.5621  131.6015  150.6887 H   0  0  0  0  0  0  0  0  0  0  0  0
  148.3837  134.7063  152.7688 H   0  0  0  0  0  0  0  0  0  0  0  0
  1  2  1  0  0  0  0
  1 23  1  0  0  0  0
  1 24  1  0  0  0  0
  1 25  1  0  0  0  0
  2 22  1  0  0  0  0
  2  3  1  0  0  0  0
  2 26  1  0  0  0  0
  3  4  1  0  0  0  0
  3 27  1  0  0  0  0
  3 28  1  0  0  0  0
  4  5  1  0  0  0  0
  4 19  1  0  0  0  0
  4 48  1  0  0  0  0
  5  6  1  0  0  0  0
  5  7  1  0  0  0  0
  5 29  1  0  0  0  0
  6 30  1  0  0  0  0
  6 31  1  0  0  0  0
  6 32  1  0  0  0  0
  7  8  1  0  0  0  0
  7 33  1  0  0  0  0
  7 34  1  0  0  0  0
  8  9  1  0  0  0  0
  8 35  1  0  0  0  0
  9 10  2  0  0  0  0
  9 11  1  0  0  0  0
 11 12  1  0  0  0  0
 11 36  1  0  0  0  0
 11 37  1  0  0  0  0
 12 17  1  0  0  0  0
 12 13  1  0  0  0  0
 13 14  2  0  0  0  0
 13 38  1  0  0  0  0
 14 15  1  0  0  0  0
 14 39  1  0  0  0  0
 15 16  2  0  0  0  0
 15 40  1  0  0  0  0
 16 17  1  0  0  0  0
 16 41  1  0  0  0  0
 17 18  2  0  0  0  0
 19 20  1  0  0  0  0
 19 42  1  0  0  0  0
 19 43  1  0  0  0  0
 20 21  1  0  0  0  0
 20 22  1  0  0  0  0
 20 44  1  0  0  0  0
 21 45  1  0  0  0  0
 21 46  1  0  0  0  0
 21 47  1  0  0  0  0
M  CHG  1   4   1
M  END
> <s_m_source_file>
AV-unprocessed.smi

> <i_m_source_file_index>
1795

> <i_lp_mmshare_version>
43012

> <i_f3d_flags>
0

> <s_epik_input>
W0NIM11bQ0BASF0xW0NIMl1OKFtDSDJdW0NASF0oTzEpW0NIM10pW0NASF0oW0NIM10pW0NIMl1bTkhdQyg9TylbQ0gyXW4yW2NIXVtjSF1bY0hdW2NIXWMyPU8=

> <s_epik_cmdline>
J2VwaWtfcHl0aG9uJywgJy1waCcsICc3LjAnLCAnLXRuJywgJzgnLCAnLW1hJywgJzIwMCcsICctbWV0YWxfYmluZGluZycsICctaW1hZScsICc8aW5maWxlLm1hZT4nLCAnLW9tYWUnLCAnPG91dGZpbGUubWFlPic=

> <r_lp_tautomer_probability>
1

> <r_epik_Ionization_Penalty>
0.656654

> <r_epik_Ionization_Penalty_Charging>
0.656654

> <r_epik_Ionization_Penalty_Neutral>
8.90321e-08

> <r_epik_State_Penalty>
0.675641

> <r_epik_Charging_Adjusted_Penalty>
1.33229

> <i_epik_Tot_Q>
1

> <i_epik_Tot_abs_Q>
1

> <r_epik_Metal_State_Penalty>
0.675691

> <b_epik_Metal_Only>
0

> <s_lp_Force_Field>
OPLS_2005

> <r_lp_Energy>
32.8471

> <b_lp_Chiralities_Consistent>
1

> <s_lp_Variant>
AV-unprocessed.smi:1795-10

> <Gold.Version>
5.8.1

> <Gold.Id.Protein>
6NUR|6NUR_protein|mol2

> <Gold.PLP.Fitness>
51.6325

> <Gold.PLP.PLP>
-38.6633

> <Gold.PLP.part.hbond>
-3.0000

> <Gold.PLP.part.metal>
0.0000

> <Gold.PLP.part.buried>
-3.8747

> <Gold.PLP.part.nonpolar>
-30.5278

> <Gold.PLP.part.repulsive>
0.9155

> <Gold.PLP.ligand.clash>
0.0000

> <Gold.PLP.ligand.torsion>
0.4620

> <Gold.PLP.Chemscore.Hbond>
3.9913

> <Gold.PLP.Chemscore.CHOScore>
0.6099

> <Gold.PLP.Chemscore.Metal>
0.0000

> <Gold.Chemscore.Hbonds>
donor molecule, donor type, donor heavy atom, donor atom, acceptor molecule, acceptor atom, score
      L1  H     4    48       P1  7948  2.00
      L1  H     8    35       P1  7948  1.00
      P1  H  7997  8010       L1    18  0.53
      L1  C    13    38       P1  7957  0.57

> <Gold.PLP.Chemscore.Internal.Correction>
0.0898

> <Gold.Rescore>
     Score         DG    S(hbond)    S(metal)    S(lipo)     H(rot)  DE(clash)    DE(int)     intcor
     17.21     -19.09       2.77        0.00      78.65       1.89       0.34       1.54       ----

> <Gold.Chemscore.Fitness>
17.2092

> <Gold.Chemscore.DG>
-19.0923

> <Gold.Chemscore.ZeroCoef>
-5.4800

> <Gold.Chemscore.Hbond>
2.7669

> <Gold.Chemscore.Metal>
0.0000

> <Gold.Chemscore.Lipo>
78.6457

> <Gold.Chemscore.Internal_Hbond>
0.0000

> <Gold.Chemscore.DEClash>
0.3449

> <Gold.Chemscore.DEInternal>
1.5382

> <Gold.Chemscore.Rot>
1.8870

> <Gold.Chemscore.Internal.Correction>
   9.000000E+99

> <Gold.Chemscore.Hbonds>
donor molecule, donor type, donor heavy atom, donor atom, acceptor molecule, acceptor atom, score
      L1  H     4    48       P1  7948  0.40
      L1  H     8    35       P1  7948  0.98
      P1  H  7997  8010       L1    18  0.52

> <Gold.Chemscore.Hbond.Weighted>
-9.2415

> <Gold.Chemscore.Metal.Weighted>
-0.0000

> <Gold.Chemscore.Lipo.Weighted>
-9.2015

> <Gold.Chemscore.Internal_Hbond.Weighted>
0.0000

> <Gold.Chemscore.DEClash.Weighted>
0.3449

> <Gold.Chemscore.DEInternal.Weighted>
1.5382

> <Gold.Chemscore.Rot.Weighted>
4.8308

> <Gold.Chemscore.Internal.Correction.Weighted>
   9.000000E+99

> <Gold.Protein.RotatedTorsions>
[ 6907 6896 6895 6894 ] final  -25.54 input  -60.11 | X-H torsion
[ 7974 7965 7964 7962 ] final  -35.17 input  175.53 | X-H torsion
[ 8008 7997 7996 7995 ] final   55.82 input   59.86 | X-H torsion
[ 10167 10162 10161 10158 ] final  -96.59 input  -65.29 | X-H torsion
[ 10718 10713 10712 10709 ] final  -83.18 input   66.30 | X-H torsion
[ 10763 10752 10751 10750 ] final   20.36 input  -60.55 | X-H torsion
[ 11005 11000 10999 10996 ] final  -61.52 input  -57.11 | X-H torsion

> <Gold.Protein.ActiveResidues>
 VAL166  LYS551  ARG553  GLY616  TRP617  ASP618  TYR619  PRO620  LYS621  CYS622 
 ASP623  PHE694  ASN695  SER759  ASP760  ASP761  ALA762  ILE779  LEU786  VAL792 
 PHE793  MET794  SER795  GLU796  ALA797  LYS798  CYS799  TRP800  GLU811  SER814 

> <Gold.Protein.RotatedAtoms>
  151.1737  135.0329  159.8762 H   0  0  0  0  0  0  0  0  0  0  0  0  # atno 6907 bound_to 6896
  152.5448  134.1142  159.8381 H   0  0  0  0  0  0  0  0  0  0  0  0  # atno 6908 bound_to 6896
  151.1251  133.5030  159.2633 H   0  0  0  0  0  0  0  0  0  0  0  0  # atno 6909 bound_to 6896
  146.0769  140.6127  142.8926 H   0  0  0  0  0  0  0  0  0  0  0  0  # atno 7974 bound_to 7965
  155.5073  140.3476  155.4382 H   0  0  0  0  0  0  0  0  0  0  0  0  # atno 8008 bound_to 7997
  156.0873  140.1401  156.9664 H   0  0  0  0  0  0  0  0  0  0  0  0  # atno 8009 bound_to 7997
  154.4614  140.0933  156.6880 H   0  0  0  0  0  0  0  0  0  0  0  0  # atno 8010 bound_to 7997
  140.2922  143.3214  152.0334 H   0  0  0  0  0  0  0  0  0  0  0  0  # atno 10167 bound_to 10162
  156.0022  130.4657  150.4219 H   0  0  0  0  0  0  0  0  0  0  0  0  # atno 10718 bound_to 10713
  153.1084  135.6690  153.9545 H   0  0  0  0  0  0  0  0  0  0  0  0  # atno 10763 bound_to 10752
  153.9095  135.3026  155.3450 H   0  0  0  0  0  0  0  0  0  0  0  0  # atno 10764 bound_to 10752
  154.7504  135.5037  153.9356 H   0  0  0  0  0  0  0  0  0  0  0  0  # atno 10765 bound_to 10752
  141.1327  133.6631  156.5388 H   0  0  0  0  0  0  0  0  0  0  0  0  # atno 11005 bound_to 11000
  144.7267  140.4547  143.6968 LP  0  0  0  0  0  0  0  0  0  0  0  0  # atno 17320 bound_to 7965
  145.6290  139.1534  143.2980 LP  0  0  0  0  0  0  0  0  0  0  0  0  # atno 17321 bound_to 7965
  139.4935  144.6517  151.6662 LP  0  0  0  0  0  0  0  0  0  0  0  0  # atno 17342 bound_to 10162
  140.5722  144.0089  150.6223 LP  0  0  0  0  0  0  0  0  0  0  0  0  # atno 17343 bound_to 10162
  157.2274  131.0496  151.2512 LP  0  0  0  0  0  0  0  0  0  0  0  0  # atno 17370 bound_to 10713
  157.3743  130.7197  149.6586 LP  0  0  0  0  0  0  0  0  0  0  0  0  # atno 17371 bound_to 10713
  140.4156  134.7233  157.4861 LP  0  0  0  0  0  0  0  0  0  0  0  0  # atno 17394 bound_to 11000
  140.0396  134.6287  155.8998 LP  0  0  0  0  0  0  0  0  0  0  0  0  # atno 17395 bound_to 11000

$$$$
