AV-unprocessed.smi:22|AV-procd|sdf|170|dock8
  -GOLD-   2262015423D 1   1.00000     0.00000
 Structure written by MMmdl.
 56 59  0  0  0  0  0  0  0  0  2 V2000
  146.0873  131.6383  149.6318 C   0  0  0  0  0  0  0  0  0  0  0  0
  145.1528  132.7924  149.6704 N   0  3  1  0  0  0  0  0  0  0  0  0
  143.8142  132.4136  149.1391 C   0  0  0  0  0  0  0  0  0  0  0  0
  143.7085  132.6601  147.6254 C   0  0  0  0  0  0  0  0  0  0  0  0
  143.9078  134.0294  147.3452 O   0  0  0  0  0  0  0  0  0  0  0  0
  145.0777  133.5035  150.9858 C   0  0  0  0  0  0  0  0  0  0  0  0
  144.5215  134.9356  150.7961 C   0  0  0  0  0  0  0  0  0  0  0  0
  144.4254  135.6920  152.1302 C   0  0  0  0  0  0  0  0  0  0  0  0
  145.7206  135.7174  152.8072 N   0  0  0  0  0  0  0  0  0  0  0  0
  145.8785  136.5924  153.8330 C   0  0  0  0  0  0  0  0  0  0  0  0
  145.4802  136.2489  155.0873 N   0  0  0  0  0  0  0  0  0  0  0  0
  145.6416  137.1010  156.1040 C   0  0  0  0  0  0  0  0  0  0  0  0
  146.1654  138.3278  156.0890 N   0  0  0  0  0  0  0  0  0  0  0  0
  146.5597  138.6822  154.8326 C   0  0  0  0  0  0  0  0  0  0  0  0
  146.4561  137.8818  153.6598 C   0  0  0  0  0  0  0  0  0  0  0  0
  146.9541  138.5796  152.5656 N   0  0  0  0  0  0  0  0  0  0  0  0
  147.3366  139.7234  153.0645 C   0  0  0  0  0  0  0  0  0  0  0  0
  147.1305  139.8726  154.4174 N   0  0  0  0  0  0  0  0  0  0  0  0
  147.4545  141.0396  155.2235 C   0  0  0  0  0  0  0  0  0  0  0  0
  148.9750  141.2770  155.3741 C   0  0  1  0  0  0  0  0  0  0  0  0
  149.3552  142.3552  154.5363 O   0  0  0  0  0  0  0  0  0  0  0  0
  149.4211  141.5882  156.7997 C   0  0  0  0  0  0  0  0  0  0  0  0
  150.8279  141.0096  156.8475 C   0  0  0  0  0  0  0  0  0  0  0  0
  150.6913  139.8066  156.1103 O   0  0  0  0  0  0  0  0  0  0  0  0
  149.8280  140.0476  155.0031 C   0  0  0  0  0  0  0  0  0  0  0  0
  146.3157  134.4033  153.0349 C   0  0  0  0  0  0  0  0  0  0  0  0
  146.4393  133.6177  151.7191 C   0  0  0  0  0  0  0  0  0  0  0  0
  145.8408  130.9094  150.4053 H   0  0  0  0  0  0  0  0  0  0  0  0
  147.1211  131.9560  149.7664 H   0  0  0  0  0  0  0  0  0  0  0  0
  146.0461  131.1287  148.6694 H   0  0  0  0  0  0  0  0  0  0  0  0
  143.6212  131.3628  149.3613 H   0  0  0  0  0  0  0  0  0  0  0  0
  143.0117  132.9589  149.6348 H   0  0  0  0  0  0  0  0  0  0  0  0
  144.4254  132.0624  147.0628 H   0  0  0  0  0  0  0  0  0  0  0  0
  142.7151  132.3808  147.2735 H   0  0  0  0  0  0  0  0  0  0  0  0
  144.8120  134.2447  147.5188 H   0  0  0  0  0  0  0  0  0  0  0  0
  144.4034  132.9396  151.6329 H   0  0  0  0  0  0  0  0  0  0  0  0
  145.1688  135.4906  150.1151 H   0  0  0  0  0  0  0  0  0  0  0  0
  143.5356  134.9278  150.3336 H   0  0  0  0  0  0  0  0  0  0  0  0
  144.0825  136.7109  151.9440 H   0  0  0  0  0  0  0  0  0  0  0  0
  143.6869  135.2154  152.7766 H   0  0  0  0  0  0  0  0  0  0  0  0
  145.3033  136.7491  157.0675 H   0  0  0  0  0  0  0  0  0  0  0  0
  147.7757  140.4993  152.4539 H   0  0  0  0  0  0  0  0  0  0  0  0
  146.9831  141.9106  154.7665 H   0  0  0  0  0  0  0  0  0  0  0  0
  146.9899  140.9207  156.2035 H   0  0  0  0  0  0  0  0  0  0  0  0
  148.9656  143.1476  154.8734 H   0  0  0  0  0  0  0  0  0  0  0  0
  149.3793  142.6479  157.0553 H   0  0  0  0  0  0  0  0  0  0  0  0
  148.8000  141.0490  157.5154 H   0  0  0  0  0  0  0  0  0  0  0  0
  151.5422  141.6685  156.3513 H   0  0  0  0  0  0  0  0  0  0  0  0
  151.1749  140.8232  157.8640 H   0  0  0  0  0  0  0  0  0  0  0  0
  149.2205  139.1588  154.8294 H   0  0  0  0  0  0  0  0  0  0  0  0
  150.4235  140.2149  154.1039 H   0  0  0  0  0  0  0  0  0  0  0  0
  147.2999  134.4878  153.4948 H   0  0  0  0  0  0  0  0  0  0  0  0
  145.6901  133.8530  153.7390 H   0  0  0  0  0  0  0  0  0  0  0  0
  146.8407  132.6331  151.9592 H   0  0  0  0  0  0  0  0  0  0  0  0
  147.1700  134.1096  151.0753 H   0  0  0  0  0  0  0  0  0  0  0  0
  145.5250  133.4721  149.0219 H   0  0  0  0  0  0  0  0  0  0  0  0
  1  2  1  0  0  0  0
  1 28  1  0  0  0  0
  1 29  1  0  0  0  0
  1 30  1  0  0  0  0
  2  3  1  0  0  0  0
  2  6  1  0  0  0  0
  2 56  1  0  0  0  0
  3  4  1  0  0  0  0
  3 31  1  0  0  0  0
  3 32  1  0  0  0  0
  4  5  1  0  0  0  0
  4 33  1  0  0  0  0
  4 34  1  0  0  0  0
  5 35  1  0  0  0  0
  6 27  1  0  0  0  0
  6  7  1  0  0  0  0
  6 36  1  0  0  0  0
  7  8  1  0  0  0  0
  7 37  1  0  0  0  0
  7 38  1  0  0  0  0
  8  9  1  0  0  0  0
  8 39  1  0  0  0  0
  8 40  1  0  0  0  0
  9 10  1  0  0  0  0
  9 26  1  0  0  0  0
 10 15  1  0  0  0  0
 10 11  2  0  0  0  0
 11 12  1  0  0  0  0
 12 13  2  0  0  0  0
 12 41  1  0  0  0  0
 13 14  1  0  0  0  0
 14 18  1  0  0  0  0
 14 15  2  0  0  0  0
 15 16  1  0  0  0  0
 16 17  2  0  0  0  0
 17 18  1  0  0  0  0
 17 42  1  0  0  0  0
 18 19  1  0  0  0  0
 19 20  1  0  0  0  0
 19 43  1  0  0  0  0
 19 44  1  0  0  0  0
 20 25  1  0  0  0  0
 20 21  1  0  0  0  0
 20 22  1  0  0  0  0
 21 45  1  0  0  0  0
 22 23  1  0  0  0  0
 22 46  1  0  0  0  0
 22 47  1  0  0  0  0
 23 24  1  0  0  0  0
 23 48  1  0  0  0  0
 23 49  1  0  0  0  0
 24 25  1  0  0  0  0
 25 50  1  0  0  0  0
 25 51  1  0  0  0  0
 26 27  1  0  0  0  0
 26 52  1  0  0  0  0
 26 53  1  0  0  0  0
 27 54  1  0  0  0  0
 27 55  1  0  0  0  0
M  CHG  1   2   1
M  END
> <s_m_source_file>
AV-unprocessed.smi

> <i_m_source_file_index>
22

> <i_lp_mmshare_version>
43012

> <i_f3d_flags>
0

> <s_epik_input>
W09IXVtDSDJdW0NIMl1OKFtDSDNdKVtDSF0xW0NIMl1bQ0gyXU4oW0NIMl1bQ0gyXTEpYyhuW2NIXW4yKWMoYzIzKW5bY0hdbjNbQ0gyXVtDQEBdNChbT0hdKVtDSDJdW0NIMl1PW0NIMl00

> <s_epik_cmdline>
J2VwaWtfcHl0aG9uJywgJy1waCcsICc3LjAnLCAnLXRuJywgJzgnLCAnLW1hJywgJzIwMCcsICctbWV0YWxfYmluZGluZycsICctaW1hZScsICc8aW5maWxlLm1hZT4nLCAnLW9tYWUnLCAnPG91dGZpbGUubWFlPic=

> <r_lp_tautomer_probability>
1

> <r_epik_Ionization_Penalty>
0.00317524

> <r_epik_Ionization_Penalty_Charging>
0.00191487

> <r_epik_Ionization_Penalty_Neutral>
0.00126037

> <r_epik_State_Penalty>
-0

> <r_epik_Charging_Adjusted_Penalty>
0.00191487

> <i_epik_Tot_Q>
1

> <i_epik_Tot_abs_Q>
1

> <r_epik_Metal_State_Penalty>
-0

> <b_epik_Metal_Only>
0

> <s_lp_Force_Field>
OPLS_2005

> <r_lp_Energy>
47.7053

> <b_lp_Chiralities_Consistent>
1

> <s_lp_Variant>
AV-unprocessed.smi:22-2

> <Gold.Version>
5.8.1

> <Gold.Id.Protein>
6NUR|6NUR_protein|mol2

> <Gold.PLP.Fitness>
50.5668

> <Gold.PLP.PLP>
-40.3803

> <Gold.PLP.part.hbond>
-6.5402

> <Gold.PLP.part.metal>
0.0000

> <Gold.PLP.part.buried>
0.2059

> <Gold.PLP.part.nonpolar>
-33.7206

> <Gold.PLP.part.repulsive>
0.5920

> <Gold.PLP.ligand.clash>
0.0000

> <Gold.PLP.ligand.torsion>
2.1799

> <Gold.PLP.Chemscore.Hbond>
4.0686

> <Gold.PLP.Chemscore.CHOScore>
0.6190

> <Gold.PLP.Chemscore.Metal>
0.0000

> <Gold.Chemscore.Hbonds>
donor molecule, donor type, donor heavy atom, donor atom, acceptor molecule, acceptor atom, score
      L1  H     2    56       P1  7921  1.00
      L1  H     5    35       P1  7921  0.70
      L1  H    21    45       P1  8028  1.00
      P1  H  8011  8017       L1    21  0.08
      P1  H 10192 10197       L1     5  0.57
      L1  C    17    42       P1  7957  0.81

> <Gold.PLP.Chemscore.Internal.Correction>
0.4834

> <Gold.Rescore>
     Score         DG    S(hbond)    S(metal)    S(lipo)     H(rot)  DE(clash)    DE(int)     intcor
     16.62     -20.29       3.91        0.00      97.24       3.76       1.43       2.24       ----

> <Gold.Chemscore.Fitness>
16.6201

> <Gold.Chemscore.DG>
-20.2891

> <Gold.Chemscore.ZeroCoef>
-5.4800

> <Gold.Chemscore.Hbond>
3.9082

> <Gold.Chemscore.Metal>
0.0000

> <Gold.Chemscore.Lipo>
97.2385

> <Gold.Chemscore.Internal_Hbond>
0.0000

> <Gold.Chemscore.DEClash>
1.4299

> <Gold.Chemscore.DEInternal>
2.2391

> <Gold.Chemscore.Rot>
3.7583

> <Gold.Chemscore.Internal.Correction>
   9.000000E+99

> <Gold.Chemscore.Hbonds>
donor molecule, donor type, donor heavy atom, donor atom, acceptor molecule, acceptor atom, score
      L1  H     2    56       P1  7921  0.24
      L1  H     5    35       P1  7921  0.69
      L1  H    21    45       P1  8028  0.99
      P1  H  8011  8017       L1    21  0.07
      P1  H 10192 10197       L1     5  0.48

> <Gold.Chemscore.Hbond.Weighted>
-13.0535

> <Gold.Chemscore.Metal.Weighted>
-0.0000

> <Gold.Chemscore.Lipo.Weighted>
-11.3769

> <Gold.Chemscore.Internal_Hbond.Weighted>
0.0000

> <Gold.Chemscore.DEClash.Weighted>
1.4299

> <Gold.Chemscore.DEInternal.Weighted>
2.2391

> <Gold.Chemscore.Rot.Weighted>
9.6213

> <Gold.Chemscore.Internal.Correction.Weighted>
   9.000000E+99

> <Gold.Protein.RotatedTorsions>
[ 6907 6896 6895 6894 ] final  178.52 input  -60.11 | X-H torsion
[ 7974 7965 7964 7962 ] final  163.19 input  175.53 | X-H torsion
[ 8008 7997 7996 7995 ] final  -19.76 input   59.86 | X-H torsion
[ 10167 10162 10161 10158 ] final  -11.25 input  -65.29 | X-H torsion
[ 10718 10713 10712 10709 ] final -105.11 input   66.30 | X-H torsion
[ 10763 10752 10751 10750 ] final   55.17 input  -60.55 | X-H torsion
[ 11005 11000 10999 10996 ] final  -40.20 input  -57.11 | X-H torsion

> <Gold.Protein.ActiveResidues>
 VAL166  LYS551  ARG553  GLY616  TRP617  ASP618  TYR619  PRO620  LYS621  CYS622 
 ASP623  PHE694  ASN695  SER759  ASP760  ASP761  ALA762  ILE779  LEU786  VAL792 
 PHE793  MET794  SER795  GLU796  ALA797  LYS798  CYS799  TRP800  GLU811  SER814 

> <Gold.Protein.RotatedAtoms>
  151.6866  133.3311  159.3232 H   0  0  0  0  0  0  0  0  0  0  0  0  # atno 6907 bound_to 6896
  150.7798  134.6735  159.6414 H   0  0  0  0  0  0  0  0  0  0  0  0  # atno 6908 bound_to 6896
  152.3852  134.6531  160.0180 H   0  0  0  0  0  0  0  0  0  0  0  0  # atno 6909 bound_to 6896
  144.7601  139.8147  143.6335 H   0  0  0  0  0  0  0  0  0  0  0  0  # atno 7974 bound_to 7965
  154.4815  140.2080  155.9754 H   0  0  0  0  0  0  0  0  0  0  0  0  # atno 8008 bound_to 7997
  156.1171  140.3219  155.8125 H   0  0  0  0  0  0  0  0  0  0  0  0  # atno 8009 bound_to 7997
  155.4533  140.0518  157.2989 H   0  0  0  0  0  0  0  0  0  0  0  0  # atno 8010 bound_to 7997
  140.7134  143.5660  150.9143 H   0  0  0  0  0  0  0  0  0  0  0  0  # atno 10167 bound_to 10162
  156.0332  130.5548  150.7493 H   0  0  0  0  0  0  0  0  0  0  0  0  # atno 10718 bound_to 10713
  152.9813  135.5720  154.5024 H   0  0  0  0  0  0  0  0  0  0  0  0  # atno 10763 bound_to 10752
  154.4541  135.2779  155.1762 H   0  0  0  0  0  0  0  0  0  0  0  0  # atno 10764 bound_to 10752
  154.3377  135.6236  153.5635 H   0  0  0  0  0  0  0  0  0  0  0  0  # atno 10765 bound_to 10752
  141.0157  133.6886  156.2290 H   0  0  0  0  0  0  0  0  0  0  0  0  # atno 11005 bound_to 11000
  146.1655  139.4785  142.9961 LP  0  0  0  0  0  0  0  0  0  0  0  0  # atno 17320 bound_to 7965
  145.6647  141.0231  143.1690 LP  0  0  0  0  0  0  0  0  0  0  0  0  # atno 17321 bound_to 7965
  139.9386  143.6408  152.3059 LP  0  0  0  0  0  0  0  0  0  0  0  0  # atno 17342 bound_to 10162
  139.6885  144.7649  151.1481 LP  0  0  0  0  0  0  0  0  0  0  0  0  # atno 17343 bound_to 10162
  157.5041  131.0921  151.0278 LP  0  0  0  0  0  0  0  0  0  0  0  0  # atno 17370 bound_to 10713
  157.0651  130.5841  149.5392 LP  0  0  0  0  0  0  0  0  0  0  0  0  # atno 17371 bound_to 10713
  140.6658  134.4920  157.5585 LP  0  0  0  0  0  0  0  0  0  0  0  0  # atno 17394 bound_to 11000
  139.9116  134.8333  156.1509 LP  0  0  0  0  0  0  0  0  0  0  0  0  # atno 17395 bound_to 11000

$$$$
