AV-unprocessed.smi:117|AV-procd|sdf|1129|dock10
  -GOLD-   2262018253D 1   1.00000     0.00000
 Structure written by MMmdl.
 53 55  0  0  0  0  0  0  0  0  1 V2000
  151.1389  145.4968  159.6523 C   0  0  0  0  0  0  0  0  0  0  0  0
  151.4374  144.0428  159.9779 C   0  0  0  0  0  0  0  0  0  0  0  0
  151.9749  143.7369  161.2447 C   0  0  0  0  0  0  0  0  0  0  0  0
  152.2906  142.4110  161.5825 C   0  0  0  0  0  0  0  0  0  0  0  0
  152.0685  141.3784  160.6562 C   0  0  0  0  0  0  0  0  0  0  0  0
  151.5095  141.6594  159.3860 C   0  0  0  0  0  0  0  0  0  0  0  0
  151.3028  140.6411  158.4105 N   0  0  0  0  0  0  0  0  0  0  0  0
  151.6164  139.3332  158.4668 C   0  0  0  0  0  0  0  0  0  0  0  0
  152.1568  138.7838  159.4276 O   0  0  0  0  0  0  0  0  0  0  0  0
  151.2323  138.5255  157.2190 C   0  0  0  0  0  0  0  0  0  0  0  0
  149.9390  137.8530  157.3246 N   0  0  0  0  0  0  0  0  0  0  0  0
  149.5428  137.0850  158.3516 C   0  0  0  0  0  0  0  0  0  0  0  0
  150.2429  136.8717  159.3423 O   0  0  0  0  0  0  0  0  0  0  0  0
  148.1328  136.4864  158.2357 C   0  0  0  0  0  0  0  0  0  0  0  0
  147.8171  135.5148  159.3057 N   0  0  0  0  0  0  0  0  0  0  0  0
  147.4978  136.0127  160.5933 C   0  0  0  0  0  0  0  0  0  0  0  0
  147.4935  137.2222  160.8274 O   0  0  0  0  0  0  0  0  0  0  0  0
  147.1726  135.0045  161.5956 C   0  0  0  0  0  0  0  0  0  0  0  0
  146.8471  135.3850  162.8426 F   0  0  0  0  0  0  0  0  0  0  0  0
  147.1908  133.6910  161.2900 C   0  0  0  0  0  0  0  0  0  0  0  0
  147.5222  133.2168  160.0361 N   0  0  0  0  0  0  0  0  0  0  0  0
  147.4631  131.7302  159.7707 C   0  0  2  0  0  0  0  0  0  0  0  0
  147.1030  130.8943  161.0136 C   0  0  0  0  0  0  0  0  0  0  0  0
  148.2937  129.9598  161.1516 C   0  0  0  0  0  0  0  0  0  0  0  0
  148.8962  129.9682  159.7509 C   0  0  0  0  0  0  0  0  0  0  0  0
  148.7146  131.3089  159.3235 O   0  0  0  0  0  0  0  0  0  0  0  0
  147.8158  134.1325  158.9989 C   0  0  0  0  0  0  0  0  0  0  0  0
  148.0569  133.7408  157.8559 O   0  0  0  0  0  0  0  0  0  0  0  0
  151.1963  143.0021  159.0412 C   0  0  0  0  0  0  0  0  0  0  0  0
  150.6138  143.3143  157.6644 C   0  0  0  0  0  0  0  0  0  0  0  0
  151.4936  146.1625  160.4398 H   0  0  0  0  0  0  0  0  0  0  0  0
  150.0651  145.6516  159.5454 H   0  0  0  0  0  0  0  0  0  0  0  0
  151.6308  145.7920  158.7250 H   0  0  0  0  0  0  0  0  0  0  0  0
  152.1585  144.5222  161.9635 H   0  0  0  0  0  0  0  0  0  0  0  0
  152.7151  142.1860  162.5498 H   0  0  0  0  0  0  0  0  0  0  0  0
  152.3528  140.3768  160.9389 H   0  0  0  0  0  0  0  0  0  0  0  0
  150.7813  140.9292  157.5954 H   0  0  0  0  0  0  0  0  0  0  0  0
  151.2455  139.1787  156.3447 H   0  0  0  0  0  0  0  0  0  0  0  0
  151.9943  137.7643  157.0504 H   0  0  0  0  0  0  0  0  0  0  0  0
  149.3024  137.9706  156.5502 H   0  0  0  0  0  0  0  0  0  0  0  0
  147.4166  137.3089  158.2204 H   0  0  0  0  0  0  0  0  0  0  0  0
  148.0207  136.0223  157.2543 H   0  0  0  0  0  0  0  0  0  0  0  0
  146.9367  132.9856  162.0676 H   0  0  0  0  0  0  0  0  0  0  0  0
  146.7335  131.5959  158.9706 H   0  0  0  0  0  0  0  0  0  0  0  0
  146.9375  131.5085  161.8992 H   0  0  0  0  0  0  0  0  0  0  0  0
  146.1894  130.3369  160.8040 H   0  0  0  0  0  0  0  0  0  0  0  0
  149.0098  130.3658  161.8663 H   0  0  0  0  0  0  0  0  0  0  0  0
  148.0142  128.9609  161.4864 H   0  0  0  0  0  0  0  0  0  0  0  0
  149.9481  129.6824  159.7425 H   0  0  0  0  0  0  0  0  0  0  0  0
  148.3491  129.2966  159.0873 H   0  0  0  0  0  0  0  0  0  0  0  0
  149.8786  142.5655  157.3685 H   0  0  0  0  0  0  0  0  0  0  0  0
  151.4085  143.3258  156.9182 H   0  0  0  0  0  0  0  0  0  0  0  0
  150.1012  144.2738  157.6265 H   0  0  0  0  0  0  0  0  0  0  0  0
  1  2  1  0  0  0  0
  1 31  1  0  0  0  0
  1 32  1  0  0  0  0
  1 33  1  0  0  0  0
  2 29  1  0  0  0  0
  2  3  2  0  0  0  0
  3  4  1  0  0  0  0
  3 34  1  0  0  0  0
  4  5  2  0  0  0  0
  4 35  1  0  0  0  0
  5  6  1  0  0  0  0
  5 36  1  0  0  0  0
  6  7  1  0  0  0  0
  6 29  2  0  0  0  0
  7  8  1  0  0  0  0
  7 37  1  0  0  0  0
  8  9  2  0  0  0  0
  8 10  1  0  0  0  0
 10 11  1  0  0  0  0
 10 38  1  0  0  0  0
 10 39  1  0  0  0  0
 11 12  1  0  0  0  0
 11 40  1  0  0  0  0
 12 13  2  0  0  0  0
 12 14  1  0  0  0  0
 14 15  1  0  0  0  0
 14 41  1  0  0  0  0
 14 42  1  0  0  0  0
 15 27  1  0  0  0  0
 15 16  1  0  0  0  0
 16 17  2  0  0  0  0
 16 18  1  0  0  0  0
 18 19  1  0  0  0  0
 18 20  2  0  0  0  0
 20 21  1  0  0  0  0
 20 43  1  0  0  0  0
 21 22  1  0  0  0  0
 21 27  1  0  0  0  0
 22 26  1  0  0  0  0
 22 23  1  0  0  0  0
 22 44  1  0  0  0  0
 23 24  1  0  0  0  0
 23 45  1  0  0  0  0
 23 46  1  0  0  0  0
 24 25  1  0  0  0  0
 24 47  1  0  0  0  0
 24 48  1  0  0  0  0
 25 26  1  0  0  0  0
 25 49  1  0  0  0  0
 25 50  1  0  0  0  0
 27 28  2  0  0  0  0
 29 30  1  0  0  0  0
 30 51  1  0  0  0  0
 30 52  1  0  0  0  0
 30 53  1  0  0  0  0
M  END
> <s_m_source_file>
AV-unprocessed.smi

> <i_m_source_file_index>
117

> <i_lp_mmshare_version>
43012

> <i_f3d_flags>
0

> <s_epik_input>
W0NIM11jMVtjSF1bY0hdW2NIXWMoYzFbQ0gzXSlbTkhdQyg9TylbQ0gyXVtOSF1DKD1PKVtDSDJdbjJjKD1PKWMoRilbY0hdbihjMj1PKVtDQEBIXTNbQ0gyXVtDSDJdW0NIMl1PMw==

> <s_epik_cmdline>
J2VwaWtfcHl0aG9uJywgJy1waCcsICc3LjAnLCAnLXRuJywgJzgnLCAnLW1hJywgJzIwMCcsICctbWV0YWxfYmluZGluZycsICctaW1hZScsICc8aW5maWxlLm1hZT4nLCAnLW9tYWUnLCAnPG91dGZpbGUubWFlPic=

> <r_lp_tautomer_probability>
1

> <r_epik_Ionization_Penalty>
1.58439e-06

> <r_epik_Ionization_Penalty_Charging>
4.14583e-09

> <r_epik_Ionization_Penalty_Neutral>
1.58025e-06

> <r_epik_State_Penalty>
-0

> <r_epik_Charging_Adjusted_Penalty>
4.14583e-09

> <i_epik_Tot_Q>
0

> <i_epik_Tot_abs_Q>
0

> <r_epik_Metal_State_Penalty>
-0

> <b_epik_Metal_Only>
0

> <s_epik_Chemistry_Notes>
This compound contains an acetal/aminal-like group ( X-CH(R)-Y where X, Y are N, S, or O) that may be acid/base labile, releasing an aldehyde.

> <s_lp_Force_Field>
OPLS_2005

> <r_lp_Energy>
28.8349

> <b_lp_Chiralities_Consistent>
1

> <s_lp_Variant>
AV-unprocessed.smi:117-1

> <Gold.Version>
5.8.1

> <Gold.Id.Protein>
6NUR|6NUR_protein|mol2

> <Gold.PLP.Fitness>
59.3270

> <Gold.PLP.PLP>
-53.0245

> <Gold.PLP.part.hbond>
-2.6849

> <Gold.PLP.part.metal>
0.0000

> <Gold.PLP.part.buried>
-5.5193

> <Gold.PLP.part.nonpolar>
-44.6848

> <Gold.PLP.part.repulsive>
0.1490

> <Gold.PLP.ligand.clash>
0.0000

> <Gold.PLP.ligand.torsion>
0.6762

> <Gold.PLP.Chemscore.Hbond>
2.5360

> <Gold.PLP.Chemscore.CHOScore>
0.0000

> <Gold.PLP.Chemscore.Metal>
0.0000

> <Gold.Chemscore.Hbonds>
donor molecule, donor type, donor heavy atom, donor atom, acceptor molecule, acceptor atom, score
      P1  H  6896  6908       L1    13  0.94
      P1  H  6931  6943       L1    17  0.59
      P1  H  6934  6947       L1    17  1.00

> <Gold.PLP.Chemscore.Internal.Correction>
0.0469

> <Gold.Rescore>
     Score         DG    S(hbond)    S(metal)    S(lipo)     H(rot)  DE(clash)    DE(int)     intcor
     17.31     -22.47       2.64        0.00     120.44       2.32       0.07       5.09       ----

> <Gold.Chemscore.Fitness>
17.3120

> <Gold.Chemscore.DG>
-22.4716

> <Gold.Chemscore.ZeroCoef>
-5.4800

> <Gold.Chemscore.Hbond>
2.6440

> <Gold.Chemscore.Metal>
0.0000

> <Gold.Chemscore.Lipo>
120.4367

> <Gold.Chemscore.Internal_Hbond>
0.0000

> <Gold.Chemscore.DEClash>
0.0744

> <Gold.Chemscore.DEInternal>
5.0852

> <Gold.Chemscore.Rot>
2.3166

> <Gold.Chemscore.Internal.Correction>
   9.000000E+99

> <Gold.Chemscore.Hbonds>
donor molecule, donor type, donor heavy atom, donor atom, acceptor molecule, acceptor atom, score
      P1  H  6896  6908       L1    13  0.90
      P1  H  6931  6943       L1    17  0.58
      P1  H  6934  6947       L1    17  0.95

> <Gold.Chemscore.Hbond.Weighted>
-8.8310

> <Gold.Chemscore.Metal.Weighted>
-0.0000

> <Gold.Chemscore.Lipo.Weighted>
-14.0911

> <Gold.Chemscore.Internal_Hbond.Weighted>
0.0000

> <Gold.Chemscore.DEClash.Weighted>
0.0744

> <Gold.Chemscore.DEInternal.Weighted>
5.0852

> <Gold.Chemscore.Rot.Weighted>
5.9306

> <Gold.Chemscore.Internal.Correction.Weighted>
   9.000000E+99

> <Gold.Protein.RotatedTorsions>
[ 6907 6896 6895 6894 ] final -151.02 input  -60.11 | X-H torsion
[ 7974 7965 7964 7962 ] final    1.56 input  175.53 | X-H torsion
[ 8008 7997 7996 7995 ] final -123.71 input   59.86 | X-H torsion
[ 10167 10162 10161 10158 ] final  164.35 input  -65.29 | X-H torsion
[ 10718 10713 10712 10709 ] final   82.89 input   66.30 | X-H torsion
[ 10763 10752 10751 10750 ] final   88.16 input  -60.55 | X-H torsion
[ 11005 11000 10999 10996 ] final  171.41 input  -57.11 | X-H torsion

> <Gold.Protein.ActiveResidues>
 VAL166  LYS551  ARG553  GLY616  TRP617  ASP618  TYR619  PRO620  LYS621  CYS622 
 ASP623  PHE694  ASN695  SER759  ASP760  ASP761  ALA762  ILE779  LEU786  VAL792 
 PHE793  MET794  SER795  GLU796  ALA797  LYS798  CYS799  TRP800  GLU811  SER814 

> <Gold.Protein.RotatedAtoms>
  151.2071  133.4577  159.2597 H   0  0  0  0  0  0  0  0  0  0  0  0  # atno 6907 bound_to 6896
  151.1013  134.9974  159.8460 H   0  0  0  0  0  0  0  0  0  0  0  0  # atno 6908 bound_to 6896
  152.5443  134.1997  159.8760 H   0  0  0  0  0  0  0  0  0  0  0  0  # atno 6909 bound_to 6896
  146.2441  140.0968  142.8349 H   0  0  0  0  0  0  0  0  0  0  0  0  # atno 7974 bound_to 7965
  155.1850  140.0411  157.2889 H   0  0  0  0  0  0  0  0  0  0  0  0  # atno 8008 bound_to 7997
  154.6177  140.2493  155.7560 H   0  0  0  0  0  0  0  0  0  0  0  0  # atno 8009 bound_to 7997
  156.2416  140.2901  156.0471 H   0  0  0  0  0  0  0  0  0  0  0  0  # atno 8010 bound_to 7997
  139.4887  144.4244  151.9147 H   0  0  0  0  0  0  0  0  0  0  0  0  # atno 10167 bound_to 10162
  157.6867  131.0067  150.2442 H   0  0  0  0  0  0  0  0  0  0  0  0  # atno 10718 bound_to 10713
  153.1740  135.4517  154.9941 H   0  0  0  0  0  0  0  0  0  0  0  0  # atno 10763 bound_to 10752
  154.7986  135.3247  154.7609 H   0  0  0  0  0  0  0  0  0  0  0  0  # atno 10764 bound_to 10752
  153.8082  135.6957  153.4900 H   0  0  0  0  0  0  0  0  0  0  0  0  # atno 10765 bound_to 10752
  140.3187  134.7455  157.4048 H   0  0  0  0  0  0  0  0  0  0  0  0  # atno 11005 bound_to 11000
  145.0603  140.9082  143.4943 LP  0  0  0  0  0  0  0  0  0  0  0  0  # atno 17320 bound_to 7965
  145.1082  139.2775  143.5651 LP  0  0  0  0  0  0  0  0  0  0  0  0  # atno 17321 bound_to 7965
  140.3689  144.2880  150.5922 LP  0  0  0  0  0  0  0  0  0  0  0  0  # atno 17342 bound_to 10162
  140.5336  143.2238  151.8198 LP  0  0  0  0  0  0  0  0  0  0  0  0  # atno 17343 bound_to 10162
  156.3051  130.3764  149.7714 LP  0  0  0  0  0  0  0  0  0  0  0  0  # atno 17370 bound_to 10713
  156.5332  130.8267  151.3244 LP  0  0  0  0  0  0  0  0  0  0  0  0  # atno 17371 bound_to 10713
  140.0960  134.5536  155.8398 LP  0  0  0  0  0  0  0  0  0  0  0  0  # atno 17394 bound_to 11000
  141.2091  133.6681  156.6419 LP  0  0  0  0  0  0  0  0  0  0  0  0  # atno 17395 bound_to 11000

$$$$
