AV-unprocessed.smi:317|AV-procd|sdf|2329|dock9
  -GOLD-   2262022233D 1   1.00000     0.00000
 Structure written by MMmdl.
 40 41  0  0  0  0  0  0  0  0  2 V2000
  153.1322  143.7032  159.3204 C   0  0  0  0  0  0  0  0  0  0  0  0
  151.6241  143.9812  159.4549 C   0  0  1  0  0  0  0  0  0  0  0  0
  151.2943  145.4627  159.7175 C   0  0  0  0  0  0  0  0  0  0  0  0
  150.1196  145.6059  160.4905 O   0  0  0  0  0  0  0  0  0  0  0  0
  150.8860  143.5072  158.2866 N   0  0  0  0  0  0  0  0  0  0  0  0
  151.0634  142.3263  157.6779 C   0  0  0  0  0  0  0  0  0  0  0  0
  151.8865  141.4870  158.0426 O   0  0  0  0  0  0  0  0  0  0  0  0
  150.2448  142.1996  156.6200 N   0  0  0  0  0  0  0  0  0  0  0  0
  150.1581  141.1216  155.6931 C   0  0  0  0  0  0  0  0  0  0  0  0
  151.1775  140.1388  155.6007 C   0  0  0  0  0  0  0  0  0  0  0  0
  151.0690  139.0991  154.6579 C   0  0  0  0  0  0  0  0  0  0  0  0
  149.9398  139.0533  153.8227 C   0  0  0  0  0  0  0  0  0  0  0  0
  148.9779  139.9905  153.9479 N   0  3  0  0  0  0  0  0  0  0  0  0
  149.0178  141.0072  154.8455 C   0  0  0  0  0  0  0  0  0  0  0  0
  147.9285  141.9075  154.8726 N   0  0  0  0  0  0  0  0  0  0  0  0
  147.0759  142.0693  153.7007 C   0  0  0  0  0  0  0  0  0  0  0  0
  145.8471  142.8185  154.2077 C   0  0  0  0  0  0  0  0  0  0  0  0
  145.6757  142.2524  155.6143 C   0  0  0  0  0  0  0  0  0  0  0  0
  147.1122  141.9883  156.0798 C   0  0  0  0  0  0  0  0  0  0  0  0
  153.6746  144.0636  160.1948 H   0  0  0  0  0  0  0  0  0  0  0  0
  153.5553  144.1906  158.4416 H   0  0  0  0  0  0  0  0  0  0  0  0
  153.3304  142.6346  159.2313 H   0  0  0  0  0  0  0  0  0  0  0  0
  151.2622  143.4265  160.3226 H   0  0  0  0  0  0  0  0  0  0  0  0
  152.1226  145.9624  160.2212 H   0  0  0  0  0  0  0  0  0  0  0  0
  151.1411  145.9819  158.7709 H   0  0  0  0  0  0  0  0  0  0  0  0
  149.9822  144.8083  160.9789 H   0  0  0  0  0  0  0  0  0  0  0  0
  150.1919  144.1377  157.9126 H   0  0  0  0  0  0  0  0  0  0  0  0
  149.6923  143.0131  156.3925 H   0  0  0  0  0  0  0  0  0  0  0  0
  152.0435  140.1604  156.2446 H   0  0  0  0  0  0  0  0  0  0  0  0
  151.8423  138.3492  154.5770 H   0  0  0  0  0  0  0  0  0  0  0  0
  149.7726  138.2967  153.0700 H   0  0  0  0  0  0  0  0  0  0  0  0
  147.5861  142.6177  152.9084 H   0  0  0  0  0  0  0  0  0  0  0  0
  146.7753  141.0968  153.3088 H   0  0  0  0  0  0  0  0  0  0  0  0
  146.0557  143.8881  154.2592 H   0  0  0  0  0  0  0  0  0  0  0  0
  144.9695  142.6729  153.5773 H   0  0  0  0  0  0  0  0  0  0  0  0
  145.1314  142.9231  156.2799 H   0  0  0  0  0  0  0  0  0  0  0  0
  145.1265  141.3111  155.5639 H   0  0  0  0  0  0  0  0  0  0  0  0
  147.1733  141.0782  156.6785 H   0  0  0  0  0  0  0  0  0  0  0  0
  147.4642  142.8214  156.6890 H   0  0  0  0  0  0  0  0  0  0  0  0
  148.1656  139.9242  153.3344 H   0  0  0  0  0  0  0  0  0  0  0  0
  1  2  1  0  0  0  0
  1 20  1  0  0  0  0
  1 21  1  0  0  0  0
  1 22  1  0  0  0  0
  2  3  1  0  0  0  0
  2  5  1  0  0  0  0
  2 23  1  0  0  0  0
  3  4  1  0  0  0  0
  3 24  1  0  0  0  0
  3 25  1  0  0  0  0
  4 26  1  0  0  0  0
  5  6  1  0  0  0  0
  5 27  1  0  0  0  0
  6  7  2  0  0  0  0
  6  8  1  0  0  0  0
  8  9  1  0  0  0  0
  8 28  1  0  0  0  0
  9 14  1  0  0  0  0
  9 10  2  0  0  0  0
 10 11  1  0  0  0  0
 10 29  1  0  0  0  0
 11 12  2  0  0  0  0
 11 30  1  0  0  0  0
 12 13  1  0  0  0  0
 12 31  1  0  0  0  0
 13 14  2  0  0  0  0
 13 40  1  0  0  0  0
 14 15  1  0  0  0  0
 15 19  1  0  0  0  0
 15 16  1  0  0  0  0
 16 17  1  0  0  0  0
 16 32  1  0  0  0  0
 16 33  1  0  0  0  0
 17 18  1  0  0  0  0
 17 34  1  0  0  0  0
 17 35  1  0  0  0  0
 18 19  1  0  0  0  0
 18 36  1  0  0  0  0
 18 37  1  0  0  0  0
 19 38  1  0  0  0  0
 19 39  1  0  0  0  0
M  CHG  1  13   1
M  END
> <s_m_source_file>
AV-unprocessed.smi

> <i_m_source_file_index>
317

> <i_lp_mmshare_version>
43012

> <i_f3d_flags>
0

> <s_epik_input>
W09IXVtDSDJdW0NAQEhdKFtDSDNdKVtOSF1DKD1PKVtOSF1jMVtjSF1bY0hdW2NIXW5jMU4yW0NIMl1bQ0gyXVtDSDJdW0NIMl0y

> <s_epik_cmdline>
J2VwaWtfcHl0aG9uJywgJy1waCcsICc3LjAnLCAnLXRuJywgJzgnLCAnLW1hJywgJzIwMCcsICctbWV0YWxfYmluZGluZycsICctaW1hZScsICc8aW5maWxlLm1hZT4nLCAnLW9tYWUnLCAnPG91dGZpbGUubWFlPic=

> <r_lp_tautomer_probability>
0.999994

> <r_epik_Ionization_Penalty>
1.11558

> <r_epik_Ionization_Penalty_Charging>
1.11556

> <r_epik_Ionization_Penalty_Neutral>
2.02999e-05

> <r_epik_State_Penalty>
1.17393

> <r_epik_Charging_Adjusted_Penalty>
2.28949

> <i_epik_Tot_Q>
1

> <i_epik_Tot_abs_Q>
1

> <r_epik_Metal_State_Penalty>
1.25924

> <b_epik_Metal_Only>
0

> <s_lp_Force_Field>
OPLS_2005

> <r_lp_Energy>
42.0309

> <b_lp_Chiralities_Consistent>
1

> <s_lp_Variant>
AV-unprocessed.smi:317-4

> <Gold.Version>
5.8.1

> <Gold.Id.Protein>
6NUR|6NUR_protein|mol2

> <Gold.PLP.Fitness>
42.2162

> <Gold.PLP.PLP>
-40.5674

> <Gold.PLP.part.hbond>
-4.0000

> <Gold.PLP.part.metal>
0.0000

> <Gold.PLP.part.buried>
-4.3767

> <Gold.PLP.part.nonpolar>
-33.1565

> <Gold.PLP.part.repulsive>
0.9013

> <Gold.PLP.ligand.clash>
0.0000

> <Gold.PLP.ligand.torsion>
0.8739

> <Gold.PLP.Chemscore.Hbond>
1.0000

> <Gold.PLP.Chemscore.CHOScore>
0.0000

> <Gold.PLP.Chemscore.Metal>
0.0000

> <Gold.Chemscore.Hbonds>
donor molecule, donor type, donor heavy atom, donor atom, acceptor molecule, acceptor atom, score
      L1  H     8    28       P1  8028  1.00

> <Gold.PLP.Chemscore.Internal.Correction>
0.3966

> <Gold.Rescore>
     Score         DG    S(hbond)    S(metal)    S(lipo)     H(rot)  DE(clash)    DE(int)     intcor
      7.63     -13.68       0.97        0.00      88.68       2.11       2.45       3.61       ----

> <Gold.Chemscore.Fitness>
7.6278

> <Gold.Chemscore.DG>
-13.6850

> <Gold.Chemscore.ZeroCoef>
-5.4800

> <Gold.Chemscore.Hbond>
0.9675

> <Gold.Chemscore.Metal>
0.0000

> <Gold.Chemscore.Lipo>
88.6753

> <Gold.Chemscore.Internal_Hbond>
0.0000

> <Gold.Chemscore.DEClash>
2.4515

> <Gold.Chemscore.DEInternal>
3.6056

> <Gold.Chemscore.Rot>
2.1099

> <Gold.Chemscore.Internal.Correction>
   9.000000E+99

> <Gold.Chemscore.Hbonds>
donor molecule, donor type, donor heavy atom, donor atom, acceptor molecule, acceptor atom, score
      L1  H     8    28       P1  8028  0.93

> <Gold.Chemscore.Hbond.Weighted>
-3.2314

> <Gold.Chemscore.Metal.Weighted>
-0.0000

> <Gold.Chemscore.Lipo.Weighted>
-10.3750

> <Gold.Chemscore.Internal_Hbond.Weighted>
0.0000

> <Gold.Chemscore.DEClash.Weighted>
2.4515

> <Gold.Chemscore.DEInternal.Weighted>
3.6056

> <Gold.Chemscore.Rot.Weighted>
5.4015

> <Gold.Chemscore.Internal.Correction.Weighted>
   9.000000E+99

> <Gold.Protein.RotatedTorsions>
[ 6907 6896 6895 6894 ] final  116.89 input  -60.11 | X-H torsion
[ 7974 7965 7964 7962 ] final  125.03 input  175.53 | X-H torsion
[ 8008 7997 7996 7995 ] final  144.83 input   59.86 | X-H torsion
[ 10167 10162 10161 10158 ] final  -87.65 input  -65.29 | X-H torsion
[ 10718 10713 10712 10709 ] final  -61.41 input   66.30 | X-H torsion
[ 10763 10752 10751 10750 ] final   19.40 input  -60.55 | X-H torsion
[ 11005 11000 10999 10996 ] final -130.89 input  -57.11 | X-H torsion

> <Gold.Protein.ActiveResidues>
 VAL166  LYS551  ARG553  GLY616  TRP617  ASP618  TYR619  PRO620  LYS621  CYS622 
 ASP623  PHE694  ASN695  SER759  ASP760  ASP761  ALA762  ILE779  LEU786  VAL792 
 PHE793  MET794  SER795  GLU796  ALA797  LYS798  CYS799  TRP800  GLU811  SER814 

> <Gold.Protein.RotatedAtoms>
  152.4648  133.7900  159.6896 H   0  0  0  0  0  0  0  0  0  0  0  0  # atno 6907 bound_to 6896
  150.8608  133.7636  159.2999 H   0  0  0  0  0  0  0  0  0  0  0  0  # atno 6908 bound_to 6896
  151.5202  135.1070  159.9928 H   0  0  0  0  0  0  0  0  0  0  0  0  # atno 6909 bound_to 6896
  145.0777  139.3681  143.4925 H   0  0  0  0  0  0  0  0  0  0  0  0  # atno 7974 bound_to 7965
  156.2898  140.2225  156.5117 H   0  0  0  0  0  0  0  0  0  0  0  0  # atno 8008 bound_to 7997
  154.7603  140.0474  157.0990 H   0  0  0  0  0  0  0  0  0  0  0  0  # atno 8009 bound_to 7997
  154.9999  140.3100  155.4875 H   0  0  0  0  0  0  0  0  0  0  0  0  # atno 8010 bound_to 7997
  140.3824  143.2742  151.9367 H   0  0  0  0  0  0  0  0  0  0  0  0  # atno 10167 bound_to 10162
  156.0924  130.4198  150.0990 H   0  0  0  0  0  0  0  0  0  0  0  0  # atno 10718 bound_to 10713
  153.1165  135.6709  153.9409 H   0  0  0  0  0  0  0  0  0  0  0  0  # atno 10763 bound_to 10752
  153.8937  135.3044  155.3449 H   0  0  0  0  0  0  0  0  0  0  0  0  # atno 10764 bound_to 10752
  154.7581  135.5002  153.9490 H   0  0  0  0  0  0  0  0  0  0  0  0  # atno 10765 bound_to 10752
  140.9307  134.1323  157.4237 H   0  0  0  0  0  0  0  0  0  0  0  0  # atno 11005 bound_to 11000
  146.3530  140.0552  142.8633 LP  0  0  0  0  0  0  0  0  0  0  0  0  # atno 17320 bound_to 7965
  145.1216  140.9466  143.4597 LP  0  0  0  0  0  0  0  0  0  0  0  0  # atno 17321 bound_to 7965
  139.4794  144.5806  151.7939 LP  0  0  0  0  0  0  0  0  0  0  0  0  # atno 17342 bound_to 10162
  140.4924  144.1291  150.5953 LP  0  0  0  0  0  0  0  0  0  0  0  0  # atno 17343 bound_to 10162
  156.8997  130.9616  151.3578 LP  0  0  0  0  0  0  0  0  0  0  0  0  # atno 17370 bound_to 10713
  157.6076  130.8559  149.8900 LP  0  0  0  0  0  0  0  0  0  0  0  0  # atno 17371 bound_to 10713
  139.8795  135.0004  156.6007 LP  0  0  0  0  0  0  0  0  0  0  0  0  # atno 17394 bound_to 11000
  140.7867  133.8616  155.8612 LP  0  0  0  0  0  0  0  0  0  0  0  0  # atno 17395 bound_to 11000

$$$$
