#       Name:                AV-unprocessed.smi:1662
#       Creating user name   scv26
#       Creation time:       Fri Mar 27 07:37:28 2020


#       File generated by GOLD software.
#

@<TRIPOS>MOLECULE
AV-unprocessed.smi:1662
    53    54     1
SMALL
NO_CHARGES


@<TRIPOS>ATOM
      1 ****        -4.6964   1.9201   2.1554 C.3            1 S1                 0.0000
      2 ****        -4.0614   0.5642   2.0021 C.2            1 S1                 0.0000
      3 ****        -2.7696   0.5238   2.0100 N.2            1 S1                 0.0000
      4 ****        -2.0860  -0.6688   1.8724 N.am           1 S1                 0.0000
      5 ****        -0.6228  -0.5232   1.8747 C.3            1 S1                 0.0000
      6 ****        -0.0028  -0.5058   0.4694 C.2            1 S1                 0.0000
      7 ****        -0.7087  -0.4142  -0.5363 O.2            1 S1                 0.0000
      8 ****         1.3361  -0.5790   0.4223 N.am           1 S1                 0.0000
      9 ****         2.1428  -0.5720  -0.7964 C.3            1 S1                 0.0000
     10 ****         3.5166  -1.2115  -0.5157 C.3            1 S1                 0.0000
     11 ****         4.3813  -1.2566  -1.7846 C.3            1 S1                 0.0000
     12 ****         4.5255   0.1349  -2.4207 C.3            1 S1                 0.0000
     13 ****         3.1498   0.7756  -2.6947 C.3            1 S1                 0.0000
     14 ****         3.2829   2.1220  -3.4255 C.3            1 S1                 0.0000
     15 ****         2.2870   0.8504  -1.4064 C.3            1 S1                 0.0000
     16 ****         2.7854   1.9025  -0.3882 C.3            1 S1                 0.0000
     17 ****        -2.6767  -1.8910   1.7340 C.2            1 S1                 0.0000
     18 ****        -2.0271  -2.9321   1.6248 O.2            1 S1                 0.0000
     19 ****        -4.1404  -1.8375   1.7250 C.2            1 S1                 0.0000
     20 ****        -4.7993  -3.0948   1.5753 C.1            1 S1                 0.0000
     21 ****        -5.3506  -4.1067   1.4637 N.1            1 S1                 0.0000
     22 ****        -4.8226  -0.6713   1.8488 C.2            1 S1                 0.0000
     23 ****        -6.3410  -0.5608   1.8430 C.3            1 S1                 0.0000
     24 ****        -5.3773   1.9363   3.0065 H              1 S1                 0.0000
     25 ****        -5.2626   2.1845   1.2622 H              1 S1                 0.0000
     26 ****        -3.9525   2.7017   2.3169 H              1 S1                 0.0000
     27 ****        -0.3400   0.4025   2.3797 H              1 S1                 0.0000
     28 ****        -0.1664  -1.3246   2.4590 H              1 S1                 0.0000
     29 ****         1.8369  -0.6461   1.2965 H              1 S1                 0.0000
     30 ****         1.6382  -1.2056  -1.5289 H              1 S1                 0.0000
     31 ****         4.0395  -0.6577   0.2647 H              1 S1                 0.0000
     32 ****         3.3844  -2.2245  -0.1335 H              1 S1                 0.0000
     33 ****         5.3658  -1.6621  -1.5496 H              1 S1                 0.0000
     34 ****         3.9313  -1.9400  -2.5057 H              1 S1                 0.0000
     35 ****         5.1177   0.7785  -1.7696 H              1 S1                 0.0000
     36 ****         5.0863   0.0478  -3.3521 H              1 S1                 0.0000
     37 ****         2.6246   0.1120  -3.3838 H              1 S1                 0.0000
     38 ****         3.8879   2.8319  -2.8615 H              1 S1                 0.0000
     39 ****         2.3062   2.5742  -3.5994 H              1 S1                 0.0000
     40 ****         3.7603   1.9898  -4.3969 H              1 S1                 0.0000
     41 ****         1.2908   1.1730  -1.7126 H              1 S1                 0.0000
     42 ****         3.7950   1.6902  -0.0384 H              1 S1                 0.0000
     43 ****         2.1387   1.9507   0.4877 H              1 S1                 0.0000
     44 ****         2.7892   2.9032  -0.8188 H              1 S1                 0.0000
     45 ****        -6.8248  -1.5236   1.6817 H              1 S1                 0.0000
     46 ****        -6.6734   0.1079   1.0483 H              1 S1                 0.0000
     47 ****        -6.6989  -0.1688   2.7955 H              1 S1                 0.0000
     48 ****        -2.2540   1.3738   2.1180 LP             1 S1                 0.0000
     49 ****        -1.7024  -0.3497  -0.4455 LP             1 S1                 0.0000
     50 ****        -0.2878  -0.4044  -1.4434 LP             1 S1                 0.0000
     51 ****        -1.0276  -2.9013   1.6357 LP             1 S1                 0.0000
     52 ****        -2.4993  -3.8079   1.5252 LP             1 S1                 0.0000
     53 ****        -5.8268  -4.9807   1.3673 LP             1 S1                 0.0000
@<TRIPOS>BOND
    1    1    2 1     
    2    1   24 1     
    3    1   25 1     
    4    1   26 1     
    5    2   22 1     
    6    2    3 2     
    7    3    4 1     
    8    4    5 1     
    9    4   17 am    
   10    5    6 1     
   11    5   27 1     
   12    5   28 1     
   13    6    7 2     
   14    6    8 am    
   15    8    9 1     
   16    8   29 1     
   17    9   15 1     
   18    9   10 1     
   19    9   30 1     
   20   10   11 1     
   21   10   31 1     
   22   10   32 1     
   23   11   12 1     
   24   11   33 1     
   25   11   34 1     
   26   12   13 1     
   27   12   35 1     
   28   12   36 1     
   29   13   14 1     
   30   13   15 1     
   31   13   37 1     
   32   14   38 1     
   33   14   39 1     
   34   14   40 1     
   35   15   16 1     
   36   15   41 1     
   37   16   42 1     
   38   16   43 1     
   39   16   44 1     
   40   17   18 2     
   41   17   19 1     
   42   19   20 1     
   43   19   22 2     
   44   20   21 3     
   45   22   23 1     
   46   23   45 1     
   47   23   46 1     
   48   23   47 1     
   49    3   48 1     
   50    7   49 1     
   51    7   50 1     
   52   18   51 1     
   53   18   52 1     
   54   21   53 1     
@<TRIPOS>SUBSTRUCTURE
      1 S1             1
@<TRIPOS>SET
LONE_PAIRS      STATIC     ATOMS    <user>   **** ""
6 48 49 50 51 52 53
DONOR_HYDROGENS      STATIC     ATOMS    <user>   **** ""
1 29
ATOM$BLUE        STATIC     ATOMS    COLORGROUP SYSTEM
6 48 49 50 51 52 53
ATOM$RED        STATIC     ATOMS    COLORGROUP SYSTEM
1 29
