AV-unprocessed.smi:2177|AV-procd|sdf|8851|dock7
  -GOLD-   2272012 43D 1   1.00000     0.00000
 Structure written by MMmdl.
 42 43  0  0  0  0  0  0  0  0  1 V2000
  154.0520  140.6588  160.6584 C   0  0  0  0  0  0  0  0  0  0  0  0
  153.2269  141.5141  159.7400 C   0  0  0  0  0  0  0  0  0  0  0  0
  153.3228  142.8307  159.8192 N   0  0  0  0  0  0  0  0  0  0  0  0
  152.4594  143.2951  158.8936 N   0  0  0  0  0  0  0  0  0  0  0  0
  152.3077  144.7261  158.7165 C   0  0  0  0  0  0  0  0  0  0  0  0
  151.8186  142.2697  158.2266 C   0  0  0  0  0  0  0  0  0  0  0  0
  150.8046  142.5246  157.1588 C   0  0  0  0  0  0  0  0  0  0  0  0
  152.2880  141.0950  158.7514 C   0  0  0  0  0  0  0  0  0  0  0  0
  151.8931  139.6811  158.3992 C   0  0  0  0  0  0  0  0  0  0  0  0
  151.8307  139.5336  156.8783 C   0  0  0  0  0  0  0  0  0  0  0  0
  152.8614  139.5920  156.2090 O   0  0  0  0  0  0  0  0  0  0  0  0
  150.6079  139.3676  156.3511 N   0  0  0  0  0  0  0  0  0  0  0  0
  150.2768  139.3741  154.9303 C   0  0  1  0  0  0  0  0  0  0  0  0
  150.6225  138.0122  154.3106 C   0  0  0  0  0  0  0  0  0  0  0  0
  148.7878  139.7311  154.7606 C   0  0  1  0  0  0  0  0  0  0  0  0
  148.5038  141.2270  154.5938 C   0  0  0  0  0  0  0  0  0  0  0  0
  147.2006  141.2634  153.8104 C   0  0  0  0  0  0  0  0  0  0  0  0
  147.0231  139.8268  153.3105 C   0  0  0  0  0  0  0  0  0  0  0  0
  148.2705  139.1929  153.5543 O   0  0  0  0  0  0  0  0  0  0  0  0
  153.4185  140.1353  161.3747 H   0  0  0  0  0  0  0  0  0  0  0  0
  154.7731  141.2499  161.2240 H   0  0  0  0  0  0  0  0  0  0  0  0
  154.6091  139.9090  160.0971 H   0  0  0  0  0  0  0  0  0  0  0  0
  152.6843  145.0147  157.7351 H   0  0  0  0  0  0  0  0  0  0  0  0
  152.8618  145.2706  159.4825 H   0  0  0  0  0  0  0  0  0  0  0  0
  151.2535  144.9955  158.7880 H   0  0  0  0  0  0  0  0  0  0  0  0
  150.4729  141.5945  156.6976 H   0  0  0  0  0  0  0  0  0  0  0  0
  151.2172  143.1578  156.3733 H   0  0  0  0  0  0  0  0  0  0  0  0
  149.9276  143.0231  157.5718 H   0  0  0  0  0  0  0  0  0  0  0  0
  152.6028  138.9586  158.8041 H   0  0  0  0  0  0  0  0  0  0  0  0
  150.9210  139.4176  158.8168 H   0  0  0  0  0  0  0  0  0  0  0  0
  149.8289  139.3215  156.9918 H   0  0  0  0  0  0  0  0  0  0  0  0
  150.8640  140.1419  154.4229 H   0  0  0  0  0  0  0  0  0  0  0  0
  150.3977  137.9984  153.2439 H   0  0  0  0  0  0  0  0  0  0  0  0
  150.0574  137.2064  154.7803 H   0  0  0  0  0  0  0  0  0  0  0  0
  151.6835  137.7872  154.4247 H   0  0  0  0  0  0  0  0  0  0  0  0
  148.2063  139.3407  155.5984 H   0  0  0  0  0  0  0  0  0  0  0  0
  148.4386  141.7514  155.5479 H   0  0  0  0  0  0  0  0  0  0  0  0
  149.2940  141.6989  154.0077 H   0  0  0  0  0  0  0  0  0  0  0  0
  146.3606  141.5604  154.4393 H   0  0  0  0  0  0  0  0  0  0  0  0
  147.2673  141.9712  152.9833 H   0  0  0  0  0  0  0  0  0  0  0  0
  146.2454  139.3166  153.8805 H   0  0  0  0  0  0  0  0  0  0  0  0
  146.7570  139.7798  152.2542 H   0  0  0  0  0  0  0  0  0  0  0  0
  1  2  1  0  0  0  0
  1 20  1  0  0  0  0
  1 21  1  0  0  0  0
  1 22  1  0  0  0  0
  2  8  1  0  0  0  0
  2  3  2  0  0  0  0
  3  4  1  0  0  0  0
  4  5  1  0  0  0  0
  4  6  1  0  0  0  0
  5 23  1  0  0  0  0
  5 24  1  0  0  0  0
  5 25  1  0  0  0  0
  6  7  1  0  0  0  0
  6  8  2  0  0  0  0
  7 26  1  0  0  0  0
  7 27  1  0  0  0  0
  7 28  1  0  0  0  0
  8  9  1  0  0  0  0
  9 10  1  0  0  0  0
  9 29  1  0  0  0  0
  9 30  1  0  0  0  0
 10 11  2  0  0  0  0
 10 12  1  0  0  0  0
 12 13  1  0  0  0  0
 12 31  1  0  0  0  0
 13 14  1  0  0  0  0
 13 15  1  0  0  0  0
 13 32  1  0  0  0  0
 14 33  1  0  0  0  0
 14 34  1  0  0  0  0
 14 35  1  0  0  0  0
 15 19  1  0  0  0  0
 15 16  1  0  0  0  0
 15 36  1  0  0  0  0
 16 17  1  0  0  0  0
 16 37  1  0  0  0  0
 16 38  1  0  0  0  0
 17 18  1  0  0  0  0
 17 39  1  0  0  0  0
 17 40  1  0  0  0  0
 18 19  1  0  0  0  0
 18 41  1  0  0  0  0
 18 42  1  0  0  0  0
M  END
> <s_m_source_file>
AV-unprocessed.smi

> <i_m_source_file_index>
2177

> <i_lp_mmshare_version>
43012

> <i_f3d_flags>
0

> <s_epik_input>
W0NIM11jMW5uKFtDSDNdKWMoW0NIM10pYzFbQ0gyXUMoPU8pW05IXVtDQEhdKFtDSDNdKVtDQEBIXTJbQ0gyXVtDSDJdW0NIMl1PMg==

> <s_epik_cmdline>
J2VwaWtfcHl0aG9uJywgJy1waCcsICc3LjAnLCAnLXRuJywgJzgnLCAnLW1hJywgJzIwMCcsICctbWV0YWxfYmluZGluZycsICctaW1hZScsICc8aW5maWxlLm1hZT4nLCAnLW9tYWUnLCAnPG91dGZpbGUubWFlPic=

> <r_lp_tautomer_probability>
1

> <r_epik_Ionization_Penalty>
0.00310467

> <r_epik_Ionization_Penalty_Charging>
0

> <r_epik_Ionization_Penalty_Neutral>
0.00310467

> <r_epik_State_Penalty>
0.00218493

> <r_epik_Charging_Adjusted_Penalty>
0.00218493

> <i_epik_Tot_Q>
0

> <i_epik_Tot_abs_Q>
0

> <r_epik_Metal_State_Penalty>
-0

> <b_epik_Metal_Only>
0

> <s_lp_Force_Field>
OPLS_2005

> <r_lp_Energy>
11.3681

> <b_lp_Chiralities_Consistent>
1

> <s_lp_Variant>
AV-unprocessed.smi:2177-4

> <Gold.Version>
5.8.1

> <Gold.Id.Protein>
6NUR|6NUR_protein|mol2

> <Gold.PLP.Fitness>
41.7352

> <Gold.PLP.PLP>
-41.3097

> <Gold.PLP.part.hbond>
-1.0000

> <Gold.PLP.part.metal>
0.0000

> <Gold.PLP.part.buried>
-6.4858

> <Gold.PLP.part.nonpolar>
-36.7597

> <Gold.PLP.part.repulsive>
2.4415

> <Gold.PLP.ligand.clash>
0.0000

> <Gold.PLP.ligand.torsion>
1.3074

> <Gold.PLP.Chemscore.Hbond>
1.0000

> <Gold.PLP.Chemscore.CHOScore>
0.0000

> <Gold.PLP.Chemscore.Metal>
0.0000

> <Gold.Chemscore.Hbonds>
donor molecule, donor type, donor heavy atom, donor atom, acceptor molecule, acceptor atom, score
      P1  H  7997  8010       L1    11  1.00

> <Gold.PLP.Chemscore.Internal.Correction>
0.0403

> <Gold.Rescore>
     Score         DG    S(hbond)    S(metal)    S(lipo)     H(rot)  DE(clash)    DE(int)     intcor
     16.05     -17.22       1.00        0.00     103.89       1.46       0.03       1.14       ----

> <Gold.Chemscore.Fitness>
16.0534

> <Gold.Chemscore.DG>
-17.2241

> <Gold.Chemscore.ZeroCoef>
-5.4800

> <Gold.Chemscore.Hbond>
0.9982

> <Gold.Chemscore.Metal>
0.0000

> <Gold.Chemscore.Lipo>
103.8851

> <Gold.Chemscore.Internal_Hbond>
0.0000

> <Gold.Chemscore.DEClash>
0.0274

> <Gold.Chemscore.DEInternal>
1.1433

> <Gold.Chemscore.Rot>
1.4627

> <Gold.Chemscore.Internal.Correction>
   9.000000E+99

> <Gold.Chemscore.Hbonds>
donor molecule, donor type, donor heavy atom, donor atom, acceptor molecule, acceptor atom, score
      P1  H  7997  8010       L1    11  0.97

> <Gold.Chemscore.Hbond.Weighted>
-3.3340

> <Gold.Chemscore.Metal.Weighted>
-0.0000

> <Gold.Chemscore.Lipo.Weighted>
-12.1546

> <Gold.Chemscore.Internal_Hbond.Weighted>
0.0000

> <Gold.Chemscore.DEClash.Weighted>
0.0274

> <Gold.Chemscore.DEInternal.Weighted>
1.1433

> <Gold.Chemscore.Rot.Weighted>
3.7445

> <Gold.Chemscore.Internal.Correction.Weighted>
   9.000000E+99

> <Gold.Protein.RotatedTorsions>
[ 6907 6896 6895 6894 ] final -137.80 input  -60.11 | X-H torsion
[ 7974 7965 7964 7962 ] final -122.76 input  175.53 | X-H torsion
[ 8008 7997 7996 7995 ] final   74.89 input   59.86 | X-H torsion
[ 10167 10162 10161 10158 ] final -169.00 input  -65.29 | X-H torsion
[ 10718 10713 10712 10709 ] final  157.72 input   66.30 | X-H torsion
[ 10763 10752 10751 10750 ] final  -46.46 input  -60.55 | X-H torsion
[ 11005 11000 10999 10996 ] final  -16.63 input  -57.11 | X-H torsion

> <Gold.Protein.ActiveResidues>
 VAL166  LYS551  ARG553  GLY616  TRP617  ASP618  TYR619  PRO620  LYS621  CYS622 
 ASP623  PHE694  ASN695  SER759  ASP760  ASP761  ALA762  ILE779  LEU786  VAL792 
 PHE793  MET794  SER795  GLU796  ALA797  LYS798  CYS799  TRP800  GLU811  SER814 

> <Gold.Protein.RotatedAtoms>
  151.0270  133.5825  159.2664 H   0  0  0  0  0  0  0  0  0  0  0  0  # atno 6907 bound_to 6896
  151.2920  135.0744  159.9217 H   0  0  0  0  0  0  0  0  0  0  0  0  # atno 6908 bound_to 6896
  152.5336  133.9966  159.7930 H   0  0  0  0  0  0  0  0  0  0  0  0  # atno 6909 bound_to 6896
  145.0259  140.8027  143.4352 H   0  0  0  0  0  0  0  0  0  0  0  0  # atno 7974 bound_to 7965
  155.8049  140.3475  155.5424 H   0  0  0  0  0  0  0  0  0  0  0  0  # atno 8008 bound_to 7997
  155.8500  140.0955  157.1701 H   0  0  0  0  0  0  0  0  0  0  0  0  # atno 8009 bound_to 7997
  154.4007  140.1378  156.3820 H   0  0  0  0  0  0  0  0  0  0  0  0  # atno 8010 bound_to 7997
  139.5950  144.1132  152.1678 H   0  0  0  0  0  0  0  0  0  0  0  0  # atno 10167 bound_to 10162
  157.1876  131.0647  151.2097 H   0  0  0  0  0  0  0  0  0  0  0  0  # atno 10718 bound_to 10713
  154.0453  135.6638  153.4794 H   0  0  0  0  0  0  0  0  0  0  0  0  # atno 10763 bound_to 10752
  153.0485  135.5099  154.7803 H   0  0  0  0  0  0  0  0  0  0  0  0  # atno 10764 bound_to 10752
  154.6792  135.3042  154.9602 H   0  0  0  0  0  0  0  0  0  0  0  0  # atno 10765 bound_to 10752
  140.8087  133.8157  155.9542 H   0  0  0  0  0  0  0  0  0  0  0  0  # atno 11005 bound_to 11000
  145.1834  139.2340  143.5281 LP  0  0  0  0  0  0  0  0  0  0  0  0  # atno 17320 bound_to 7965
  146.3492  140.1613  142.8591 LP  0  0  0  0  0  0  0  0  0  0  0  0  # atno 17321 bound_to 7965
  140.0715  144.5775  150.7188 LP  0  0  0  0  0  0  0  0  0  0  0  0  # atno 17342 bound_to 10162
  140.7204  143.2583  151.4297 LP  0  0  0  0  0  0  0  0  0  0  0  0  # atno 17343 bound_to 10162
  157.3892  130.7273  149.6685 LP  0  0  0  0  0  0  0  0  0  0  0  0  # atno 17370 bound_to 10713
  155.9716  130.4151  150.4165 LP  0  0  0  0  0  0  0  0  0  0  0  0  # atno 17371 bound_to 10713
  140.9220  134.2130  157.4920 LP  0  0  0  0  0  0  0  0  0  0  0  0  # atno 17394 bound_to 11000
  139.8715  134.9796  156.5043 LP  0  0  0  0  0  0  0  0  0  0  0  0  # atno 17395 bound_to 11000

$$$$
