AV-unprocessed.smi:1694|AV-procd|sdf|6787|dock1
  -GOLD-   22720 7543D 1   1.00000     0.00000
 Structure written by MMmdl.
 34 35  0  0  0  0  0  0  0  0  1 V2000
  151.0512  144.7926  158.3759 C   0  0  0  0  0  0  0  0  0  0  0  0
  151.7387  143.4976  158.7780 C   0  0  0  0  0  0  0  0  0  0  0  0
  152.7654  143.5356  159.7452 C   0  0  0  0  0  0  0  0  0  0  0  0
  153.4029  142.3399  160.1166 C   0  0  0  0  0  0  0  0  0  0  0  0
  152.9840  141.1493  159.5002 C   0  0  0  0  0  0  0  0  0  0  0  0
  152.0028  141.1042  158.5762 N   0  0  0  0  0  0  0  0  0  0  0  0
  151.3713  142.2486  158.2079 C   0  0  0  0  0  0  0  0  0  0  0  0
  150.3346  142.2930  157.2253 N   0  0  0  0  0  0  0  0  0  0  0  0
  150.1395  141.5811  156.0947 C   0  0  0  0  0  0  0  0  0  0  0  0
  150.9417  140.7181  155.7419 O   0  0  0  0  0  0  0  0  0  0  0  0
  149.0394  141.8827  155.3860 N   0  0  0  0  0  0  0  0  0  0  0  0
  148.6356  141.2542  154.1335 C   0  0  2  0  0  0  0  0  0  0  0  0
  147.1470  141.5200  153.8797 C   0  0  0  0  0  0  0  0  0  0  0  0
  146.6913  140.8860  152.5562 C   0  0  0  0  0  0  0  0  0  0  0  0
  147.1767  139.4404  152.3738 C   0  0  0  0  0  0  0  0  0  0  0  0
  146.6268  138.7189  151.5450 O   0  0  0  0  0  0  0  0  0  0  0  0
  148.2196  139.0049  153.1025 N   0  0  0  0  0  0  0  0  0  0  0  0
  148.8959  139.7352  154.1743 C   0  0  0  0  0  0  0  0  0  0  0  0
  151.4670  145.6468  158.9110 H   0  0  0  0  0  0  0  0  0  0  0  0
  149.9853  144.7435  158.6000 H   0  0  0  0  0  0  0  0  0  0  0  0
  151.1734  144.9752  157.3078 H   0  0  0  0  0  0  0  0  0  0  0  0
  153.0639  144.4694  160.1989 H   0  0  0  0  0  0  0  0  0  0  0  0
  154.1928  142.3361  160.8532 H   0  0  0  0  0  0  0  0  0  0  0  0
  153.4482  140.2077  159.7539 H   0  0  0  0  0  0  0  0  0  0  0  0
  149.6361  143.0020  157.3943 H   0  0  0  0  0  0  0  0  0  0  0  0
  148.4324  142.6040  155.7500 H   0  0  0  0  0  0  0  0  0  0  0  0
  149.2040  141.6938  153.3114 H   0  0  0  0  0  0  0  0  0  0  0  0
  146.5510  141.1200  154.7017 H   0  0  0  0  0  0  0  0  0  0  0  0
  146.9555  142.5936  153.8540 H   0  0  0  0  0  0  0  0  0  0  0  0
  145.6038  140.9180  152.4817 H   0  0  0  0  0  0  0  0  0  0  0  0
  147.0781  141.4714  151.7215 H   0  0  0  0  0  0  0  0  0  0  0  0
  148.5364  138.0607  152.9362 H   0  0  0  0  0  0  0  0  0  0  0  0
  149.9658  139.5308  154.1226 H   0  0  0  0  0  0  0  0  0  0  0  0
  148.5441  139.3213  155.1202 H   0  0  0  0  0  0  0  0  0  0  0  0
  1  2  1  0  0  0  0
  1 19  1  0  0  0  0
  1 20  1  0  0  0  0
  1 21  1  0  0  0  0
  2  7  1  0  0  0  0
  2  3  2  0  0  0  0
  3  4  1  0  0  0  0
  3 22  1  0  0  0  0
  4  5  2  0  0  0  0
  4 23  1  0  0  0  0
  5  6  1  0  0  0  0
  5 24  1  0  0  0  0
  6  7  2  0  0  0  0
  7  8  1  0  0  0  0
  8  9  1  0  0  0  0
  8 25  1  0  0  0  0
  9 10  2  0  0  0  0
  9 11  1  0  0  0  0
 11 12  1  0  0  0  0
 11 26  1  0  0  0  0
 12 18  1  0  0  0  0
 12 13  1  0  0  0  0
 12 27  1  0  0  0  0
 13 14  1  0  0  0  0
 13 28  1  0  0  0  0
 13 29  1  0  0  0  0
 14 15  1  0  0  0  0
 14 30  1  0  0  0  0
 14 31  1  0  0  0  0
 15 16  2  0  0  0  0
 15 17  1  0  0  0  0
 17 18  1  0  0  0  0
 17 32  1  0  0  0  0
 18 33  1  0  0  0  0
 18 34  1  0  0  0  0
M  END
> <s_m_source_file>
AV-unprocessed.smi

> <i_m_source_file_index>
1694

> <i_lp_mmshare_version>
43012

> <i_f3d_flags>
0

> <s_epik_input>
W0NIM11jMVtjSF1bY0hdW2NIXW5jMVtOSF1DKD1PKVtOSF1bQ0BASF0yW0NIMl1bQ0gyXUMoPU8pW05IXVtDSDJdMg==

> <s_epik_cmdline>
J2VwaWtfcHl0aG9uJywgJy1waCcsICc3LjAnLCAnLXRuJywgJzgnLCAnLW1hJywgJzIwMCcsICctbWV0YWxfYmluZGluZycsICctaW1hZScsICc8aW5maWxlLm1hZT4nLCAnLW9tYWUnLCAnPG91dGZpbGUubWFlPic=

> <r_lp_tautomer_probability>
1

> <r_epik_Ionization_Penalty>
5.3746e-05

> <r_epik_Ionization_Penalty_Charging>
0

> <r_epik_Ionization_Penalty_Neutral>
5.3746e-05

> <r_epik_State_Penalty>
-0

> <r_epik_Charging_Adjusted_Penalty>
0

> <i_epik_Tot_Q>
0

> <i_epik_Tot_abs_Q>
0

> <r_epik_Metal_State_Penalty>
-0

> <b_epik_Metal_Only>
0

> <s_lp_Force_Field>
OPLS_2005

> <r_lp_Energy>
12.9813

> <b_lp_Chiralities_Consistent>
1

> <s_lp_Variant>
AV-unprocessed.smi:1694-1

> <Gold.Version>
5.8.1

> <Gold.Id.Protein>
6NUR|6NUR_protein|mol2

> <Gold.PLP.Fitness>
42.8516

> <Gold.PLP.PLP>
-36.2554

> <Gold.PLP.part.hbond>
-4.6467

> <Gold.PLP.part.metal>
0.0000

> <Gold.PLP.part.buried>
2.0395

> <Gold.PLP.part.nonpolar>
-33.6981

> <Gold.PLP.part.repulsive>
1.3572

> <Gold.PLP.ligand.clash>
0.0000

> <Gold.PLP.ligand.torsion>
0.5134

> <Gold.PLP.Chemscore.Hbond>
2.5396

> <Gold.PLP.Chemscore.CHOScore>
0.0000

> <Gold.PLP.Chemscore.Metal>
0.0000

> <Gold.Chemscore.Hbonds>
donor molecule, donor type, donor heavy atom, donor atom, acceptor molecule, acceptor atom, score
      L1  H    11    26       P1  8028  0.34
      L1  H    17    32       P1  7948  0.73
      P1  H  7954  7966       L1    16  0.06
      P1  H  7989  7998       L1    10  0.17

> <Gold.PLP.Chemscore.Internal.Correction>
0.0043

> <Gold.Rescore>
     Score         DG    S(hbond)    S(metal)    S(lipo)     H(rot)  DE(clash)    DE(int)     intcor
     16.41     -21.59       2.45        0.00      89.56       1.00       3.41       1.77       ----

> <Gold.Chemscore.Fitness>
16.4055

> <Gold.Chemscore.DG>
-21.5931

> <Gold.Chemscore.ZeroCoef>
-5.4800

> <Gold.Chemscore.Hbond>
2.4533

> <Gold.Chemscore.Metal>
0.0000

> <Gold.Chemscore.Lipo>
89.5642

> <Gold.Chemscore.Internal_Hbond>
0.0000

> <Gold.Chemscore.DEClash>
3.4129

> <Gold.Chemscore.DEInternal>
1.7747

> <Gold.Chemscore.Rot>
1.0000

> <Gold.Chemscore.Internal.Correction>
   9.000000E+99

> <Gold.Chemscore.Hbonds>
donor molecule, donor type, donor heavy atom, donor atom, acceptor molecule, acceptor atom, score
      L1  H    11    26       P1  8028  0.33
      L1  H    17    32       P1  7948  0.72
      P1  H  7954  7966       L1    16  0.08
      P1  H  7989  7998       L1    10  0.17

> <Gold.Chemscore.Hbond.Weighted>
-8.1941

> <Gold.Chemscore.Metal.Weighted>
-0.0000

> <Gold.Chemscore.Lipo.Weighted>
-10.4790

> <Gold.Chemscore.Internal_Hbond.Weighted>
0.0000

> <Gold.Chemscore.DEClash.Weighted>
3.4129

> <Gold.Chemscore.DEInternal.Weighted>
1.7747

> <Gold.Chemscore.Rot.Weighted>
2.5600

> <Gold.Chemscore.Internal.Correction.Weighted>
   9.000000E+99

> <Gold.Protein.RotatedTorsions>
[ 6907 6896 6895 6894 ] final  169.01 input  -60.11 | X-H torsion
[ 7974 7965 7964 7962 ] final  -28.70 input  175.53 | X-H torsion
[ 8008 7997 7996 7995 ] final -171.72 input   59.86 | X-H torsion
[ 10167 10162 10161 10158 ] final   89.90 input  -65.29 | X-H torsion
[ 10718 10713 10712 10709 ] final  -69.49 input   66.30 | X-H torsion
[ 10763 10752 10751 10750 ] final  122.16 input  -60.55 | X-H torsion
[ 11005 11000 10999 10996 ] final -174.63 input  -57.11 | X-H torsion

> <Gold.Protein.ActiveResidues>
 VAL166  LYS551  ARG553  GLY616  TRP617  ASP618  TYR619  PRO620  LYS621  CYS622 
 ASP623  PHE694  ASN695  SER759  ASP760  ASP761  ALA762  ILE779  LEU786  VAL792 
 PHE793  MET794  SER795  GLU796  ALA797  LYS798  CYS799  TRP800  GLU811  SER814 

> <Gold.Protein.RotatedAtoms>
  151.8386  133.3420  159.3635 H   0  0  0  0  0  0  0  0  0  0  0  0  # atno 6907 bound_to 6896
  150.7242  134.5413  159.5758 H   0  0  0  0  0  0  0  0  0  0  0  0  # atno 6908 bound_to 6896
  152.2882  134.7753  160.0434 H   0  0  0  0  0  0  0  0  0  0  0  0  # atno 6909 bound_to 6896
  146.1269  140.5317  142.8710 H   0  0  0  0  0  0  0  0  0  0  0  0  # atno 7974 bound_to 7965
  155.9352  140.1098  157.1100 H   0  0  0  0  0  0  0  0  0  0  0  0  # atno 8008 bound_to 7997
  154.4078  140.1230  156.4920 H   0  0  0  0  0  0  0  0  0  0  0  0  # atno 8009 bound_to 7997
  155.7030  140.3471  155.4943 H   0  0  0  0  0  0  0  0  0  0  0  0  # atno 8010 bound_to 7997
  139.8526  144.6585  150.9151 H   0  0  0  0  0  0  0  0  0  0  0  0  # atno 10167 bound_to 10162
  156.0453  130.4313  150.2156 H   0  0  0  0  0  0  0  0  0  0  0  0  # atno 10718 bound_to 10713
  153.6254  135.3405  155.3024 H   0  0  0  0  0  0  0  0  0  0  0  0  # atno 10763 bound_to 10752
  154.8591  135.4283  154.2162 H   0  0  0  0  0  0  0  0  0  0  0  0  # atno 10764 bound_to 10752
  153.3045  135.7027  153.7245 H   0  0  0  0  0  0  0  0  0  0  0  0  # atno 10765 bound_to 10752
  140.4723  134.6153  157.4887 H   0  0  0  0  0  0  0  0  0  0  0  0  # atno 11005 bound_to 11000
  144.7651  140.5512  143.6708 LP  0  0  0  0  0  0  0  0  0  0  0  0  # atno 17320 bound_to 7965
  145.5345  139.1475  143.3481 LP  0  0  0  0  0  0  0  0  0  0  0  0  # atno 17321 bound_to 7965
  140.7785  143.3813  151.1471 LP  0  0  0  0  0  0  0  0  0  0  0  0  # atno 17342 bound_to 10162
  139.7450  143.8865  152.3061 LP  0  0  0  0  0  0  0  0  0  0  0  0  # atno 17343 bound_to 10162
  157.0246  130.9989  151.3330 LP  0  0  0  0  0  0  0  0  0  0  0  0  # atno 17370 bound_to 10713
  157.5320  130.8064  149.7928 LP  0  0  0  0  0  0  0  0  0  0  0  0  # atno 17371 bound_to 10713
  139.9877  134.7034  155.9744 LP  0  0  0  0  0  0  0  0  0  0  0  0  # atno 17394 bound_to 11000
  141.1571  133.6542  156.4196 LP  0  0  0  0  0  0  0  0  0  0  0  0  # atno 17395 bound_to 11000

$$$$
