AV-unprocessed.smi:2709|AV-procd|sdf|10462|dock10
  -GOLD-   2272014503D 1   1.00000     0.00000
 Structure written by MMmdl.
 40 42  0  0  0  0  0  0  0  0  1 V2000
  146.6104  132.2101  152.2334 C   0  0  0  0  0  0  0  0  0  0  0  0
  146.5904  133.5499  152.6965 O   0  0  0  0  0  0  0  0  0  0  0  0
  145.4573  133.8585  153.5040 C   0  0  2  0  0  0  0  0  0  0  0  0
  144.2144  133.5273  152.6758 C   0  0  0  0  0  0  0  0  0  0  0  0
  144.0114  134.7563  151.7937 C   0  0  0  0  0  0  0  0  0  0  0  0
  144.4101  135.9399  152.6794 C   0  0  0  0  0  0  0  0  0  0  0  0
  145.3611  135.3811  153.7561 C   0  0  2  0  0  0  0  0  0  0  0  0
  146.6594  136.0513  153.7130 N   0  0  0  0  0  0  0  0  0  0  0  0
  147.1003  136.9259  154.6272 C   0  0  0  0  0  0  0  0  0  0  0  0
  146.4433  137.2668  155.6104 O   0  0  0  0  0  0  0  0  0  0  0  0
  148.3299  137.3712  154.3184 N   0  0  0  0  0  0  0  0  0  0  0  0
  149.1331  138.3132  155.0160 C   0  0  0  0  0  0  0  0  0  0  0  0
  150.1393  139.0042  154.3089 C   0  0  0  0  0  0  0  0  0  0  0  0
  150.9425  139.9103  154.9065 N   0  0  0  0  0  0  0  0  0  0  0  0
  150.7540  140.1138  156.2131 C   0  0  0  0  0  0  0  0  0  0  0  0
  151.6080  141.1593  156.8614 C   0  0  0  0  0  0  0  0  0  0  0  0
  151.4945  141.4478  158.3443 C   0  0  0  0  0  0  0  0  0  0  0  0
  151.0063  142.4621  157.3478 C   0  0  0  0  0  0  0  0  0  0  0  0
  149.8406  139.5213  156.9868 N   0  0  0  0  0  0  0  0  0  0  0  0
  149.0315  138.6145  156.3970 C   0  0  0  0  0  0  0  0  0  0  0  0
  147.5077  132.0408  151.6384 H   0  0  0  0  0  0  0  0  0  0  0  0
  145.7433  132.0000  151.6059 H   0  0  0  0  0  0  0  0  0  0  0  0
  146.6208  131.5056  153.0661 H   0  0  0  0  0  0  0  0  0  0  0  0
  145.4609  133.3019  154.4436 H   0  0  0  0  0  0  0  0  0  0  0  0
  144.3187  132.6062  152.1012 H   0  0  0  0  0  0  0  0  0  0  0  0
  143.3549  133.4089  153.3370 H   0  0  0  0  0  0  0  0  0  0  0  0
  144.6781  134.7010  150.9321 H   0  0  0  0  0  0  0  0  0  0  0  0
  142.9911  134.8387  151.4181 H   0  0  0  0  0  0  0  0  0  0  0  0
  144.8568  136.7399  152.0875 H   0  0  0  0  0  0  0  0  0  0  0  0
  143.5237  136.3565  153.1596 H   0  0  0  0  0  0  0  0  0  0  0  0
  144.8969  135.5514  154.7296 H   0  0  0  0  0  0  0  0  0  0  0  0
  147.2654  135.8209  152.9395 H   0  0  0  0  0  0  0  0  0  0  0  0
  148.7169  137.0333  153.4493 H   0  0  0  0  0  0  0  0  0  0  0  0
  150.2988  138.8356  153.2537 H   0  0  0  0  0  0  0  0  0  0  0  0
  152.5985  141.1938  156.4117 H   0  0  0  0  0  0  0  0  0  0  0  0
  150.7426  140.9039  158.9130 H   0  0  0  0  0  0  0  0  0  0  0  0
  152.4136  141.6719  158.8819 H   0  0  0  0  0  0  0  0  0  0  0  0
  151.5980  143.3660  157.2178 H   0  0  0  0  0  0  0  0  0  0  0  0
  149.9299  142.5924  157.2539 H   0  0  0  0  0  0  0  0  0  0  0  0
  148.3216  138.1350  157.0519 H   0  0  0  0  0  0  0  0  0  0  0  0
  1  2  1  0  0  0  0
  1 21  1  0  0  0  0
  1 22  1  0  0  0  0
  1 23  1  0  0  0  0
  2  3  1  0  0  0  0
  3  7  1  0  0  0  0
  3  4  1  0  0  0  0
  3 24  1  0  0  0  0
  4  5  1  0  0  0  0
  4 25  1  0  0  0  0
  4 26  1  0  0  0  0
  5  6  1  0  0  0  0
  5 27  1  0  0  0  0
  5 28  1  0  0  0  0
  6  7  1  0  0  0  0
  6 29  1  0  0  0  0
  6 30  1  0  0  0  0
  7  8  1  0  0  0  0
  7 31  1  0  0  0  0
  8  9  1  0  0  0  0
  8 32  1  0  0  0  0
  9 10  2  0  0  0  0
  9 11  1  0  0  0  0
 11 12  1  0  0  0  0
 11 33  1  0  0  0  0
 12 20  1  0  0  0  0
 12 13  2  0  0  0  0
 13 14  1  0  0  0  0
 13 34  1  0  0  0  0
 14 15  2  0  0  0  0
 15 16  1  0  0  0  0
 15 19  1  0  0  0  0
 16 18  1  0  0  0  0
 16 17  1  0  0  0  0
 16 35  1  0  0  0  0
 17 18  1  0  0  0  0
 17 36  1  0  0  0  0
 17 37  1  0  0  0  0
 18 38  1  0  0  0  0
 18 39  1  0  0  0  0
 19 20  2  0  0  0  0
 20 40  1  0  0  0  0
M  END
> <s_m_source_file>
AV-unprocessed.smi

> <i_m_source_file_index>
2709

> <i_lp_mmshare_version>
43012

> <i_f3d_flags>
0

> <s_epik_input>
W0NIM11PW0NAQEhdMVtDSDJdW0NIMl1bQ0gyXVtDQEhdMVtOSF1DKD1PKVtOSF1jMltjSF1uYyhuW2NIXTIpW0NIXTNbQ0gyXVtDSDJdMw==

> <s_epik_cmdline>
J2VwaWtfcHl0aG9uJywgJy1waCcsICc3LjAnLCAnLXRuJywgJzgnLCAnLW1hJywgJzIwMCcsICctbWV0YWxfYmluZGluZycsICctaW1hZScsICc8aW5maWxlLm1hZT4nLCAnLW9tYWUnLCAnPG91dGZpbGUubWFlPic=

> <r_lp_tautomer_probability>
1

> <r_epik_Ionization_Penalty>
2.49969e-05

> <r_epik_Ionization_Penalty_Charging>
0

> <r_epik_Ionization_Penalty_Neutral>
2.49969e-05

> <r_epik_State_Penalty>
-0

> <r_epik_Charging_Adjusted_Penalty>
0

> <i_epik_Tot_Q>
0

> <i_epik_Tot_abs_Q>
0

> <r_epik_Metal_State_Penalty>
-0

> <b_epik_Metal_Only>
0

> <s_lp_Force_Field>
OPLS_2005

> <r_lp_Energy>
20.8159

> <b_lp_Chiralities_Consistent>
1

> <s_lp_Variant>
AV-unprocessed.smi:2709-3

> <Gold.Version>
5.8.1

> <Gold.Id.Protein>
6NUR|6NUR_protein|mol2

> <Gold.PLP.Fitness>
37.2786

> <Gold.PLP.PLP>
-26.0575

> <Gold.PLP.part.hbond>
-3.0000

> <Gold.PLP.part.metal>
0.0000

> <Gold.PLP.part.buried>
-3.3857

> <Gold.PLP.part.nonpolar>
-19.3171

> <Gold.PLP.part.repulsive>
0.2376

> <Gold.PLP.ligand.clash>
0.0000

> <Gold.PLP.ligand.torsion>
0.3573

> <Gold.PLP.Chemscore.Hbond>
2.9600

> <Gold.PLP.Chemscore.CHOScore>
0.9743

> <Gold.PLP.Chemscore.Metal>
0.0000

> <Gold.Chemscore.Hbonds>
donor molecule, donor type, donor heavy atom, donor atom, acceptor molecule, acceptor atom, score
      L1  H     8    32       P1  7948  0.98
      L1  H    11    33       P1  7948  1.00
      P1  H  7989  7998       L1    14  1.00
      L1  C    13    34       P1  7957  1.00

> <Gold.PLP.Chemscore.Internal.Correction>
0.1328

> <Gold.Rescore>
     Score         DG    S(hbond)    S(metal)    S(lipo)     H(rot)  DE(clash)    DE(int)     intcor
     15.99     -17.47       2.53        0.00      61.04       1.41       0.36       1.12       ----

> <Gold.Chemscore.Fitness>
15.9909

> <Gold.Chemscore.DG>
-17.4736

> <Gold.Chemscore.ZeroCoef>
-5.4800

> <Gold.Chemscore.Hbond>
2.5343

> <Gold.Chemscore.Metal>
0.0000

> <Gold.Chemscore.Lipo>
61.0450

> <Gold.Chemscore.Internal_Hbond>
0.0000

> <Gold.Chemscore.DEClash>
0.3590

> <Gold.Chemscore.DEInternal>
1.1237

> <Gold.Chemscore.Rot>
1.4114

> <Gold.Chemscore.Internal.Correction>
   9.000000E+99

> <Gold.Chemscore.Hbonds>
donor molecule, donor type, donor heavy atom, donor atom, acceptor molecule, acceptor atom, score
      L1  H     8    32       P1  7948  0.87
      L1  H    11    33       P1  7948  1.00
      P1  H  7989  7998       L1    14  0.45

> <Gold.Chemscore.Hbond.Weighted>
-8.4646

> <Gold.Chemscore.Metal.Weighted>
-0.0000

> <Gold.Chemscore.Lipo.Weighted>
-7.1423

> <Gold.Chemscore.Internal_Hbond.Weighted>
0.0000

> <Gold.Chemscore.DEClash.Weighted>
0.3590

> <Gold.Chemscore.DEInternal.Weighted>
1.1237

> <Gold.Chemscore.Rot.Weighted>
3.6133

> <Gold.Chemscore.Internal.Correction.Weighted>
   9.000000E+99

> <Gold.Protein.RotatedTorsions>
[ 6907 6896 6895 6894 ] final  -12.88 input  -60.11 | X-H torsion
[ 7974 7965 7964 7962 ] final  166.16 input  175.53 | X-H torsion
[ 8008 7997 7996 7995 ] final   14.04 input   59.86 | X-H torsion
[ 10167 10162 10161 10158 ] final   -4.98 input  -65.29 | X-H torsion
[ 10718 10713 10712 10709 ] final  151.55 input   66.30 | X-H torsion
[ 10763 10752 10751 10750 ] final -115.76 input  -60.55 | X-H torsion
[ 11005 11000 10999 10996 ] final -146.67 input  -57.11 | X-H torsion

> <Gold.Protein.ActiveResidues>
 VAL166  LYS551  ARG553  GLY616  TRP617  ASP618  TYR619  PRO620  LYS621  CYS622 
 ASP623  PHE694  ASN695  SER759  ASP760  ASP761  ALA762  ILE779  LEU786  VAL792 
 PHE793  MET794  SER795  GLU796  ALA797  LYS798  CYS799  TRP800  GLU811  SER814 

> <Gold.Protein.RotatedAtoms>
  151.3636  135.0909  159.9442 H   0  0  0  0  0  0  0  0  0  0  0  0  # atno 6907 bound_to 6896
  152.5155  133.9233  159.7555 H   0  0  0  0  0  0  0  0  0  0  0  0  # atno 6908 bound_to 6896
  150.9633  133.6367  159.2780 H   0  0  0  0  0  0  0  0  0  0  0  0  # atno 6909 bound_to 6896
  144.7473  139.8575  143.6378 H   0  0  0  0  0  0  0  0  0  0  0  0  # atno 7974 bound_to 7965
  154.8428  140.2917  155.5648 H   0  0  0  0  0  0  0  0  0  0  0  0  # atno 8008 bound_to 7997
  156.3012  140.2510  156.3306 H   0  0  0  0  0  0  0  0  0  0  0  0  # atno 8009 bound_to 7997
  154.9106  140.0388  157.1933 H   0  0  0  0  0  0  0  0  0  0  0  0  # atno 8010 bound_to 7997
  140.6947  143.6361  150.8478 H   0  0  0  0  0  0  0  0  0  0  0  0  # atno 10167 bound_to 10162
  157.2693  131.0814  151.1611 H   0  0  0  0  0  0  0  0  0  0  0  0  # atno 10718 bound_to 10713
  154.8493  135.4370  154.1713 H   0  0  0  0  0  0  0  0  0  0  0  0  # atno 10763 bound_to 10752
  153.2826  135.6955  153.7376 H   0  0  0  0  0  0  0  0  0  0  0  0  # atno 10764 bound_to 10752
  153.6575  135.3441  155.3092 H   0  0  0  0  0  0  0  0  0  0  0  0  # atno 10765 bound_to 10752
  140.7796  134.3094  157.5049 H   0  0  0  0  0  0  0  0  0  0  0  0  # atno 11005 bound_to 11000
  146.1372  139.4421  143.0131 LP  0  0  0  0  0  0  0  0  0  0  0  0  # atno 17320 bound_to 7965
  145.7073  141.0117  143.1472 LP  0  0  0  0  0  0  0  0  0  0  0  0  # atno 17321 bound_to 7965
  140.0078  143.5675  152.2851 LP  0  0  0  0  0  0  0  0  0  0  0  0  # atno 17342 bound_to 10162
  139.6388  144.7652  151.2382 LP  0  0  0  0  0  0  0  0  0  0  0  0  # atno 17343 bound_to 10162
  157.3089  130.6880  149.6205 LP  0  0  0  0  0  0  0  0  0  0  0  0  # atno 17370 bound_to 10713
  155.9663  130.4369  150.5155 LP  0  0  0  0  0  0  0  0  0  0  0  0  # atno 17371 bound_to 10713
  139.8744  134.9310  156.3518 LP  0  0  0  0  0  0  0  0  0  0  0  0  # atno 17394 bound_to 11000
  140.9495  133.7460  156.0253 LP  0  0  0  0  0  0  0  0  0  0  0  0  # atno 17395 bound_to 11000

$$$$
