AV-unprocessed.smi:2078|AV-procd|sdf|8471|dock9
  -GOLD-   2272011173D 1   1.00000     0.00000
 Structure written by MMmdl.
 41 42  0  0  0  0  0  0  0  0  3 V2000
  149.4428  141.5581  154.4941 C   0  0  0  0  0  0  0  0  0  0  0  0
  149.8960  140.1409  154.5758 C   0  0  0  0  0  0  0  0  0  0  0  0
  149.2348  138.9474  154.5011 C   0  0  0  0  0  0  0  0  0  0  0  0
  150.2751  137.9933  154.6588 C   0  0  0  0  0  0  0  0  0  0  0  0
  149.9894  136.6025  154.6374 N   0  0  0  0  0  0  0  0  0  0  0  0
  149.9930  135.7243  155.6569 C   0  0  0  0  0  0  0  0  0  0  0  0
  150.2639  136.0997  156.8039 O   0  0  0  0  0  0  0  0  0  0  0  0
  149.6752  134.4645  155.2504 N   0  5  0  0  0  0  0  0  0  0  0  0
  148.5287  134.1297  154.4098 C   0  0  0  0  0  0  0  0  0  0  0  0
  149.0216  133.5316  153.0784 C   0  0  0  0  0  0  0  0  0  0  0  0
  147.9322  132.8362  152.3416 N   0  3  1  0  0  0  0  0  0  0  0  0
  147.2920  131.7622  153.1453 C   0  0  0  0  0  0  0  0  0  0  0  0
  146.2858  130.9639  152.3007 C   0  0  0  0  0  0  0  0  0  0  0  0
  145.2297  131.8878  151.6802 C   0  0  0  0  0  0  0  0  0  0  0  0
  145.9081  133.0100  150.8767 C   0  0  1  0  0  0  0  0  0  0  0  0
  144.8758  133.9657  150.2624 C   0  0  0  0  0  0  0  0  0  0  0  0
  146.9167  133.7634  151.7664 C   0  0  0  0  0  0  0  0  0  0  0  0
  151.4647  138.5554  154.8144 N   0  0  0  0  0  0  0  0  0  0  0  0
  151.2276  139.9341  154.7622 O   0  0  0  0  0  0  0  0  0  0  0  0
  148.3628  141.6142  154.3577 H   0  0  0  0  0  0  0  0  0  0  0  0
  149.9169  142.0671  153.6549 H   0  0  0  0  0  0  0  0  0  0  0  0
  149.6971  142.0980  155.4063 H   0  0  0  0  0  0  0  0  0  0  0  0
  148.1771  138.7847  154.3575 H   0  0  0  0  0  0  0  0  0  0  0  0
  149.7506  136.2215  153.7341 H   0  0  0  0  0  0  0  0  0  0  0  0
  147.8655  133.4120  154.8942 H   0  0  0  0  0  0  0  0  0  0  0  0
  147.9155  135.0063  154.1974 H   0  0  0  0  0  0  0  0  0  0  0  0
  149.4153  134.3480  152.4704 H   0  0  0  0  0  0  0  0  0  0  0  0
  149.8574  132.8488  153.2403 H   0  0  0  0  0  0  0  0  0  0  0  0
  148.0545  131.0810  153.5254 H   0  0  0  0  0  0  0  0  0  0  0  0
  146.7958  132.2013  154.0123 H   0  0  0  0  0  0  0  0  0  0  0  0
  146.8145  130.4286  151.5110 H   0  0  0  0  0  0  0  0  0  0  0  0
  145.8010  130.2061  152.9169 H   0  0  0  0  0  0  0  0  0  0  0  0
  144.5636  131.3108  151.0379 H   0  0  0  0  0  0  0  0  0  0  0  0
  144.6094  132.3163  152.4687 H   0  0  0  0  0  0  0  0  0  0  0  0
  146.4610  132.5523  150.0546 H   0  0  0  0  0  0  0  0  0  0  0  0
  144.2796  134.4552  151.0329 H   0  0  0  0  0  0  0  0  0  0  0  0
  144.1923  133.4327  149.6008 H   0  0  0  0  0  0  0  0  0  0  0  0
  145.3622  134.7443  149.6742 H   0  0  0  0  0  0  0  0  0  0  0  0
  146.3961  134.2780  152.5760 H   0  0  0  0  0  0  0  0  0  0  0  0
  147.4102  134.5342  151.1734 H   0  0  0  0  0  0  0  0  0  0  0  0
  148.3821  132.3730  151.5650 H   0  0  0  0  0  0  0  0  0  0  0  0
  1  2  1  0  0  0  0
  1 20  1  0  0  0  0
  1 21  1  0  0  0  0
  1 22  1  0  0  0  0
  2 19  1  0  0  0  0
  2  3  2  0  0  0  0
  3  4  1  0  0  0  0
  3 23  1  0  0  0  0
  4  5  1  0  0  0  0
  4 18  2  0  0  0  0
  5  6  1  0  0  0  0
  5 24  1  0  0  0  0
  6  7  2  0  0  0  0
  6  8  1  0  0  0  0
  8  9  1  0  0  0  0
  9 10  1  0  0  0  0
  9 25  1  0  0  0  0
  9 26  1  0  0  0  0
 10 11  1  0  0  0  0
 10 27  1  0  0  0  0
 10 28  1  0  0  0  0
 11 17  1  0  0  0  0
 11 12  1  0  0  0  0
 11 41  1  0  0  0  0
 12 13  1  0  0  0  0
 12 29  1  0  0  0  0
 12 30  1  0  0  0  0
 13 14  1  0  0  0  0
 13 31  1  0  0  0  0
 13 32  1  0  0  0  0
 14 15  1  0  0  0  0
 14 33  1  0  0  0  0
 14 34  1  0  0  0  0
 15 16  1  0  0  0  0
 15 17  1  0  0  0  0
 15 35  1  0  0  0  0
 16 36  1  0  0  0  0
 16 37  1  0  0  0  0
 16 38  1  0  0  0  0
 17 39  1  0  0  0  0
 17 40  1  0  0  0  0
 18 19  1  0  0  0  0
M  CHG  1   8  -1
M  CHG  1  11   1
M  END
> <s_m_source_file>
AV-unprocessed.smi

> <i_m_source_file_index>
2078

> <i_lp_mmshare_version>
43012

> <i_f3d_flags>
0

> <s_epik_input>
W0NIM11jMVtjSF1jKG5vMSlbTkhdQyg9TylbTkhdW0NIMl1bQ0gyXU4yW0NIMl1bQ0gyXVtDSDJdW0NAQEhdKFtDSDNdKVtDSDJdMg==

> <s_epik_cmdline>
J2VwaWtfcHl0aG9uJywgJy1waCcsICc3LjAnLCAnLXRuJywgJzgnLCAnLW1hJywgJzIwMCcsICctbWV0YWxfYmluZGluZycsICctaW1hZScsICc8aW5maWxlLm1hZT4nLCAnLW9tYWUnLCAnPG91dGZpbGUubWFlPic=

> <r_epik_Ionization_Penalty>
6.76934

> <r_epik_Ionization_Penalty_Charging>
6.76934

> <r_epik_Ionization_Penalty_Neutral>
5.77849e-06

> <r_epik_State_Penalty>
6.79457

> <r_epik_Charging_Adjusted_Penalty>
13.5639

> <i_epik_Tot_Q>
0

> <i_epik_Tot_abs_Q>
2

> <r_epik_Metal_State_Penalty>
2.72837

> <b_epik_Metal_Only>
1

> <s_lp_Force_Field>
OPLS_2005

> <r_lp_Energy>
13.3019

> <b_lp_Chiralities_Consistent>
1

> <s_lp_Variant>
AV-unprocessed.smi:2078-9

> <Gold.Version>
5.8.1

> <Gold.Id.Protein>
6NUR|6NUR_protein|mol2

> <Gold.PLP.Fitness>
40.8660

> <Gold.PLP.PLP>
-34.2644

> <Gold.PLP.part.hbond>
-3.0000

> <Gold.PLP.part.metal>
0.0000

> <Gold.PLP.part.buried>
-5.1276

> <Gold.PLP.part.nonpolar>
-25.8024

> <Gold.PLP.part.repulsive>
0.3244

> <Gold.PLP.ligand.clash>
0.0000

> <Gold.PLP.ligand.torsion>
1.2011

> <Gold.PLP.Chemscore.Hbond>
2.9920

> <Gold.PLP.Chemscore.CHOScore>
0.0000

> <Gold.PLP.Chemscore.Metal>
0.0000

> <Gold.Chemscore.Hbonds>
donor molecule, donor type, donor heavy atom, donor atom, acceptor molecule, acceptor atom, score
      L1  H     5    24       P1  7948  1.00
      L1  H    11    41       P1 10747  0.91
      P1  H  7989  7998       L1    19  0.65

> <Gold.PLP.Chemscore.Internal.Correction>
0.0278

> <Gold.Rescore>
     Score         DG    S(hbond)    S(metal)    S(lipo)     H(rot)  DE(clash)    DE(int)     intcor
     17.05     -18.08       2.45        0.00      71.43       1.54       0.00       1.03       ----

> <Gold.Chemscore.Fitness>
17.0481

> <Gold.Chemscore.DG>
-18.0797

> <Gold.Chemscore.ZeroCoef>
-5.4800

> <Gold.Chemscore.Hbond>
2.4511

> <Gold.Chemscore.Metal>
0.0000

> <Gold.Chemscore.Lipo>
71.4319

> <Gold.Chemscore.Internal_Hbond>
0.0000

> <Gold.Chemscore.DEClash>
0.0009

> <Gold.Chemscore.DEInternal>
1.0307

> <Gold.Chemscore.Rot>
1.5409

> <Gold.Chemscore.Internal.Correction>
   9.000000E+99

> <Gold.Chemscore.Hbonds>
donor molecule, donor type, donor heavy atom, donor atom, acceptor molecule, acceptor atom, score
      L1  H     5    24       P1  7948  0.33
      L1  H    11    41       P1 10747  0.88
      P1  H  7989  7998       L1    19  0.06

> <Gold.Chemscore.Hbond.Weighted>
-8.1868

> <Gold.Chemscore.Metal.Weighted>
-0.0000

> <Gold.Chemscore.Lipo.Weighted>
-8.3575

> <Gold.Chemscore.Internal_Hbond.Weighted>
0.0000

> <Gold.Chemscore.DEClash.Weighted>
0.0009

> <Gold.Chemscore.DEInternal.Weighted>
1.0307

> <Gold.Chemscore.Rot.Weighted>
3.9446

> <Gold.Chemscore.Internal.Correction.Weighted>
   9.000000E+99

> <Gold.Protein.RotatedTorsions>
[ 6907 6896 6895 6894 ] final   43.07 input  -60.11 | X-H torsion
[ 7974 7965 7964 7962 ] final   28.73 input  175.53 | X-H torsion
[ 8008 7997 7996 7995 ] final   66.71 input   59.86 | X-H torsion
[ 10167 10162 10161 10158 ] final   54.02 input  -65.29 | X-H torsion
[ 10718 10713 10712 10709 ] final   48.20 input   66.30 | X-H torsion
[ 10763 10752 10751 10750 ] final  133.65 input  -60.55 | X-H torsion
[ 11005 11000 10999 10996 ] final -129.01 input  -57.11 | X-H torsion

> <Gold.Protein.ActiveResidues>
 VAL166  LYS551  ARG553  GLY616  TRP617  ASP618  TYR619  PRO620  LYS621  CYS622 
 ASP623  PHE694  ASN695  SER759  ASP760  ASP761  ALA762  ILE779  LEU786  VAL792 
 PHE793  MET794  SER795  GLU796  ALA797  LYS798  CYS799  TRP800  GLU811  SER814 

> <Gold.Protein.RotatedAtoms>
  152.2158  134.8459  160.0491 H   0  0  0  0  0  0  0  0  0  0  0  0  # atno 6907 bound_to 6896
  151.9261  133.3593  159.3922 H   0  0  0  0  0  0  0  0  0  0  0  0  # atno 6908 bound_to 6896
  150.6987  134.4510  159.5380 H   0  0  0  0  0  0  0  0  0  0  0  0  # atno 6909 bound_to 6896
  146.1712  139.7017  142.8966 H   0  0  0  0  0  0  0  0  0  0  0  0  # atno 7974 bound_to 7965
  155.6816  140.3496  155.4858 H   0  0  0  0  0  0  0  0  0  0  0  0  # atno 8008 bound_to 7997
  155.9601  140.1136  157.0925 H   0  0  0  0  0  0  0  0  0  0  0  0  # atno 8009 bound_to 7997
  154.4141  140.1177  156.5154 H   0  0  0  0  0  0  0  0  0  0  0  0  # atno 8010 bound_to 7997
  140.2346  144.3650  150.6402 H   0  0  0  0  0  0  0  0  0  0  0  0  # atno 10167 bound_to 10162
  157.4663  130.8227  149.7939 H   0  0  0  0  0  0  0  0  0  0  0  0  # atno 10718 bound_to 10713
  153.8106  135.3129  155.3400 H   0  0  0  0  0  0  0  0  0  0  0  0  # atno 10763 bound_to 10752
  154.8053  135.4702  154.0379 H   0  0  0  0  0  0  0  0  0  0  0  0  # atno 10764 bound_to 10752
  153.1756  135.6885  153.8636 H   0  0  0  0  0  0  0  0  0  0  0  0  # atno 10765 bound_to 10752
  140.9468  134.1119  157.4100 H   0  0  0  0  0  0  0  0  0  0  0  0  # atno 11005 bound_to 11000
  145.4334  141.0417  143.2898 LP  0  0  0  0  0  0  0  0  0  0  0  0  # atno 17320 bound_to 7965
  144.8166  139.5865  143.7005 LP  0  0  0  0  0  0  0  0  0  0  0  0  # atno 17321 bound_to 7965
  140.6159  143.2172  151.6792 LP  0  0  0  0  0  0  0  0  0  0  0  0  # atno 17342 bound_to 10162
  139.5098  144.3564  152.0604 LP  0  0  0  0  0  0  0  0  0  0  0  0  # atno 17343 bound_to 10162
  156.0052  130.3859  150.2458 LP  0  0  0  0  0  0  0  0  0  0  0  0  # atno 17370 bound_to 10713
  157.0639  131.0097  151.3213 LP  0  0  0  0  0  0  0  0  0  0  0  0  # atno 17371 bound_to 10713
  139.8836  135.0054  156.6309 LP  0  0  0  0  0  0  0  0  0  0  0  0  # atno 17394 bound_to 11000
  140.7658  133.8779  155.8453 LP  0  0  0  0  0  0  0  0  0  0  0  0  # atno 17395 bound_to 11000

$$$$
