AV-unprocessed.smi:1252|AV-procd|sdf|5265|dock1
  -GOLD-   22720 4373D 1   1.00000     0.00000
 Structure written by MMmdl.
 43 44  0  0  0  0  0  0  0  0  1 V2000
  147.5368  133.9955  161.7965 C   0  0  0  0  0  0  0  0  0  0  0  0
  147.6988  135.4872  161.4382 C   0  0  1  0  0  0  0  0  0  0  0  0
  148.4412  135.7119  160.1093 C   0  0  0  0  0  0  0  0  0  0  0  0
  148.7324  134.7666  159.3758 O   0  0  0  0  0  0  0  0  0  0  0  0
  148.7429  136.9842  159.8127 N   0  0  0  0  0  0  0  0  0  0  0  0
  149.3885  137.4353  158.5853 C   0  0  0  0  0  0  0  0  0  0  0  0
  148.3746  137.5424  157.4104 C   0  0  0  0  0  0  0  0  0  0  0  0
  147.8900  136.1083  157.0883 C   0  0  0  0  0  0  0  0  0  0  0  0
  147.1566  138.3289  157.9608 C   0  0  0  0  0  0  0  0  0  0  0  0
  148.9712  138.2355  156.2336 N   0  0  0  0  0  0  0  0  0  0  0  0
  149.3084  139.6467  156.4551 C   0  0  0  0  0  0  0  0  0  0  0  0
  149.7983  140.3325  155.1687 C   0  0  0  0  0  0  0  0  0  0  0  0
  150.9202  139.6291  154.6497 O   0  0  0  0  0  0  0  0  0  0  0  0
  150.6220  138.2678  154.3647 C   0  0  0  0  0  0  0  0  0  0  0  0
  150.1338  137.5634  155.6421 C   0  0  0  0  0  0  0  0  0  0  0  0
  146.4202  136.1898  161.4291 N   0  0  0  0  0  0  0  0  0  0  0  0
  145.1923  135.7385  161.6955 C   0  0  0  0  0  0  0  0  0  0  0  0
  144.2531  136.6729  161.6515 N   0  0  0  0  0  0  0  0  0  0  0  0
  145.0244  137.7562  161.3392 C   0  0  0  0  0  0  0  0  0  0  0  0
  146.3300  137.5247  161.2050 N   0  0  0  0  0  0  0  0  0  0  0  0
  148.5065  133.5059  161.8916 H   0  0  0  0  0  0  0  0  0  0  0  0
  146.9652  133.4536  161.0419 H   0  0  0  0  0  0  0  0  0  0  0  0
  147.0192  133.8787  162.7490 H   0  0  0  0  0  0  0  0  0  0  0  0
  148.3076  135.9442  162.2201 H   0  0  0  0  0  0  0  0  0  0  0  0
  148.4800  137.7025  160.4717 H   0  0  0  0  0  0  0  0  0  0  0  0
  149.8868  138.3863  158.7750 H   0  0  0  0  0  0  0  0  0  0  0  0
  150.1877  136.7388  158.3242 H   0  0  0  0  0  0  0  0  0  0  0  0
  147.4483  135.6387  157.9680 H   0  0  0  0  0  0  0  0  0  0  0  0
  148.7054  135.4616  156.7652 H   0  0  0  0  0  0  0  0  0  0  0  0
  147.1275  136.0954  156.3101 H   0  0  0  0  0  0  0  0  0  0  0  0
  146.8200  137.9281  158.9177 H   0  0  0  0  0  0  0  0  0  0  0  0
  146.2964  138.2784  157.2933 H   0  0  0  0  0  0  0  0  0  0  0  0
  147.3918  139.3827  158.1162 H   0  0  0  0  0  0  0  0  0  0  0  0
  148.4456  140.2018  156.8177 H   0  0  0  0  0  0  0  0  0  0  0  0
  150.0843  139.7343  157.2157 H   0  0  0  0  0  0  0  0  0  0  0  0
  149.0024  140.3671  154.4228 H   0  0  0  0  0  0  0  0  0  0  0  0
  150.0884  141.3624  155.3757 H   0  0  0  0  0  0  0  0  0  0  0  0
  149.8666  138.2100  153.5795 H   0  0  0  0  0  0  0  0  0  0  0  0
  151.5185  137.7796  153.9824 H   0  0  0  0  0  0  0  0  0  0  0  0
  150.9543  137.5276  156.3587 H   0  0  0  0  0  0  0  0  0  0  0  0
  149.8966  136.5340  155.3794 H   0  0  0  0  0  0  0  0  0  0  0  0
  144.9827  134.7065  161.9359 H   0  0  0  0  0  0  0  0  0  0  0  0
  144.6123  138.7467  161.2139 H   0  0  0  0  0  0  0  0  0  0  0  0
  1  2  1  0  0  0  0
  1 21  1  0  0  0  0
  1 22  1  0  0  0  0
  1 23  1  0  0  0  0
  2  3  1  0  0  0  0
  2 16  1  0  0  0  0
  2 24  1  0  0  0  0
  3  4  2  0  0  0  0
  3  5  1  0  0  0  0
  5  6  1  0  0  0  0
  5 25  1  0  0  0  0
  6  7  1  0  0  0  0
  6 26  1  0  0  0  0
  6 27  1  0  0  0  0
  7  8  1  0  0  0  0
  7  9  1  0  0  0  0
  7 10  1  0  0  0  0
  8 28  1  0  0  0  0
  8 29  1  0  0  0  0
  8 30  1  0  0  0  0
  9 31  1  0  0  0  0
  9 32  1  0  0  0  0
  9 33  1  0  0  0  0
 10 15  1  0  0  0  0
 10 11  1  0  0  0  0
 11 12  1  0  0  0  0
 11 34  1  0  0  0  0
 11 35  1  0  0  0  0
 12 13  1  0  0  0  0
 12 36  1  0  0  0  0
 12 37  1  0  0  0  0
 13 14  1  0  0  0  0
 14 15  1  0  0  0  0
 14 38  1  0  0  0  0
 14 39  1  0  0  0  0
 15 40  1  0  0  0  0
 15 41  1  0  0  0  0
 16 20  1  0  0  0  0
 16 17  1  0  0  0  0
 17 18  2  0  0  0  0
 17 42  1  0  0  0  0
 18 19  1  0  0  0  0
 19 20  2  0  0  0  0
 19 43  1  0  0  0  0
M  END
> <s_m_source_file>
AV-unprocessed.smi

> <i_m_source_file_index>
1252

> <i_lp_mmshare_version>
43012

> <i_f3d_flags>
0

> <s_epik_input>
bjFbY0hdbltjSF1uMVtDQEhdKFtDSDNdKUMoPU8pW05IXVtDSDJdQyhbQ0gzXSkoW0NIM10pTjJbQ0gyXVtDSDJdT1tDSDJdW0NIMl0y

> <s_epik_cmdline>
J2VwaWtfcHl0aG9uJywgJy1waCcsICc3LjAnLCAnLXRuJywgJzgnLCAnLW1hJywgJzIwMCcsICctbWV0YWxfYmluZGluZycsICctaW1hZScsICc8aW5maWxlLm1hZT4nLCAnLW9tYWUnLCAnPG91dGZpbGUubWFlPic=

> <r_lp_tautomer_probability>
1

> <r_epik_Ionization_Penalty>
0.211373

> <r_epik_Ionization_Penalty_Charging>
0

> <r_epik_Ionization_Penalty_Neutral>
0.211373

> <r_epik_State_Penalty>
0.201459

> <r_epik_Charging_Adjusted_Penalty>
0.201459

> <i_epik_Tot_Q>
0

> <i_epik_Tot_abs_Q>
0

> <r_epik_Metal_State_Penalty>
0.201458

> <b_epik_Metal_Only>
0

> <s_lp_Force_Field>
OPLS_2005

> <r_lp_Energy>
47.0271

> <b_lp_Chiralities_Consistent>
1

> <s_lp_Variant>
AV-unprocessed.smi:1252-2

> <Gold.Version>
5.8.1

> <Gold.Id.Protein>
6NUR|6NUR_protein|mol2

> <Gold.PLP.Fitness>
32.9254

> <Gold.PLP.PLP>
-24.4323

> <Gold.PLP.part.hbond>
-3.0000

> <Gold.PLP.part.metal>
0.0000

> <Gold.PLP.part.buried>
-5.0337

> <Gold.PLP.part.nonpolar>
-17.5632

> <Gold.PLP.part.repulsive>
0.5343

> <Gold.PLP.ligand.clash>
0.0000

> <Gold.PLP.ligand.torsion>
0.3376

> <Gold.PLP.Chemscore.Hbond>
3.0000

> <Gold.PLP.Chemscore.CHOScore>
0.0000

> <Gold.PLP.Chemscore.Metal>
0.0000

> <Gold.Chemscore.Hbonds>
donor molecule, donor type, donor heavy atom, donor atom, acceptor molecule, acceptor atom, score
      P1  H  6896  6909       L1     4  1.00
      P1  H  6934  6947       L1    20  1.00
      P1  H  7989  7998       L1    13  1.00

> <Gold.PLP.Chemscore.Internal.Correction>
0.1683

> <Gold.Rescore>
     Score         DG    S(hbond)    S(metal)    S(lipo)     H(rot)  DE(clash)    DE(int)     intcor
     10.61     -13.61       2.89        0.00      42.11       2.52       0.01       2.99       ----

> <Gold.Chemscore.Fitness>
10.6073

> <Gold.Chemscore.DG>
-13.6149

> <Gold.Chemscore.ZeroCoef>
-5.4800

> <Gold.Chemscore.Hbond>
2.8883

> <Gold.Chemscore.Metal>
0.0000

> <Gold.Chemscore.Lipo>
42.1112

> <Gold.Chemscore.Internal_Hbond>
0.0000

> <Gold.Chemscore.DEClash>
0.0127

> <Gold.Chemscore.DEInternal>
2.9950

> <Gold.Chemscore.Rot>
2.5153

> <Gold.Chemscore.Internal.Correction>
   9.000000E+99

> <Gold.Chemscore.Hbonds>
donor molecule, donor type, donor heavy atom, donor atom, acceptor molecule, acceptor atom, score
      P1  H  6896  6909       L1     4  0.81
      P1  H  6934  6947       L1    20  0.70
      P1  H  7989  7998       L1    13  0.35

> <Gold.Chemscore.Hbond.Weighted>
-9.6471

> <Gold.Chemscore.Metal.Weighted>
-0.0000

> <Gold.Chemscore.Lipo.Weighted>
-4.9270

> <Gold.Chemscore.Internal_Hbond.Weighted>
0.0000

> <Gold.Chemscore.DEClash.Weighted>
0.0127

> <Gold.Chemscore.DEInternal.Weighted>
2.9950

> <Gold.Chemscore.Rot.Weighted>
6.4392

> <Gold.Chemscore.Internal.Correction.Weighted>
   9.000000E+99

> <Gold.Protein.RotatedTorsions>
[ 6907 6896 6895 6894 ] final   30.87 input  -60.11 | X-H torsion
[ 7974 7965 7964 7962 ] final  -92.25 input  175.53 | X-H torsion
[ 8008 7997 7996 7995 ] final  -93.40 input   59.86 | X-H torsion
[ 10167 10162 10161 10158 ] final  -75.56 input  -65.29 | X-H torsion
[ 10718 10713 10712 10709 ] final   43.97 input   66.30 | X-H torsion
[ 10763 10752 10751 10750 ] final  171.03 input  -60.55 | X-H torsion
[ 11005 11000 10999 10996 ] final -165.34 input  -57.11 | X-H torsion

> <Gold.Protein.ActiveResidues>
 VAL166  LYS551  ARG553  GLY616  TRP617  ASP618  TYR619  PRO620  LYS621  CYS622 
 ASP623  PHE694  ASN695  SER759  ASP760  ASP761  ALA762  ILE779  LEU786  VAL792 
 PHE793  MET794  SER795  GLU796  ALA797  LYS798  CYS799  TRP800  GLU811  SER814 

> <Gold.Protein.RotatedAtoms>
  152.0522  134.9646  160.0574 H   0  0  0  0  0  0  0  0  0  0  0  0  # atno 6907 bound_to 6896
  152.1042  133.4261  159.4609 H   0  0  0  0  0  0  0  0  0  0  0  0  # atno 6908 bound_to 6896
  150.6840  134.2643  159.4605 H   0  0  0  0  0  0  0  0  0  0  0  0  # atno 6909 bound_to 6896
  145.4023  140.9538  143.2280 H   0  0  0  0  0  0  0  0  0  0  0  0  # atno 7974 bound_to 7965
  154.7352  140.0499  157.0762 H   0  0  0  0  0  0  0  0  0  0  0  0  # atno 8008 bound_to 7997
  155.0250  140.3151  155.4760 H   0  0  0  0  0  0  0  0  0  0  0  0  # atno 8009 bound_to 7997
  156.2851  140.2160  156.5369 H   0  0  0  0  0  0  0  0  0  0  0  0  # atno 8010 bound_to 7997
  140.4932  143.2376  151.7873 H   0  0  0  0  0  0  0  0  0  0  0  0  # atno 10167 bound_to 10162
  157.4218  130.7973  149.7522 H   0  0  0  0  0  0  0  0  0  0  0  0  # atno 10718 bound_to 10713
  154.4061  135.2755  155.2066 H   0  0  0  0  0  0  0  0  0  0  0  0  # atno 10763 bound_to 10752
  154.4071  135.6031  153.5934 H   0  0  0  0  0  0  0  0  0  0  0  0  # atno 10764 bound_to 10752
  152.9831  135.5940  154.4336 H   0  0  0  0  0  0  0  0  0  0  0  0  # atno 10765 bound_to 10752
  140.5767  134.5182  157.5171 H   0  0  0  0  0  0  0  0  0  0  0  0  # atno 11005 bound_to 11000
  144.8365  139.5541  143.6919 LP  0  0  0  0  0  0  0  0  0  0  0  0  # atno 17320 bound_to 7965
  146.2746  139.6720  142.9272 LP  0  0  0  0  0  0  0  0  0  0  0  0  # atno 17321 bound_to 7965
  139.4855  144.4622  151.9528 LP  0  0  0  0  0  0  0  0  0  0  0  0  # atno 17342 bound_to 10162
  140.3709  144.2857  150.5920 LP  0  0  0  0  0  0  0  0  0  0  0  0  # atno 17343 bound_to 10162
  155.9883  130.3960  150.3125 LP  0  0  0  0  0  0  0  0  0  0  0  0  # atno 17370 bound_to 10713
  157.1273  131.0262  151.2984 LP  0  0  0  0  0  0  0  0  0  0  0  0  # atno 17371 bound_to 10713
  139.9336  134.7917  156.0863 LP  0  0  0  0  0  0  0  0  0  0  0  0  # atno 17394 bound_to 11000
  141.1022  133.6673  156.2780 LP  0  0  0  0  0  0  0  0  0  0  0  0  # atno 17395 bound_to 11000

$$$$
