#       Name:                AV-unprocessed.smi:1120
#       Creating user name   scv26
#       Creation time:       Fri Mar 27 03:37:52 2020


#       File generated by GOLD software.
#

@<TRIPOS>MOLECULE
AV-unprocessed.smi:1120
    51    52     1
SMALL
NO_CHARGES


@<TRIPOS>ATOM
      1 ****        -2.6414   5.6312  -1.4189 C.3            1 S1                 0.0000
      2 ****        -2.1281   4.7234  -0.2925 C.3            1 S1                 0.0000
      3 ****        -0.6669   4.3029  -0.5312 C.3            1 S1                 0.0000
      4 ****        -0.1350   3.4110   0.6033 C.3            1 S1                 0.0000
      5 ****        -1.0390   2.1920   0.8723 C.3            1 S1                 0.0000
      6 ****        -0.8669   1.1735  -0.1687 N.pl3          1 S1                 0.0000
      7 ****        -0.0572  -0.3159   0.1514 S.o2           1 S1                 0.0000
      8 ****        -0.6451  -0.8965   1.3686 O.2            1 S1                 0.0000
      9 ****        -0.0517  -1.0870  -1.1013 O.2            1 S1                 0.0000
     10 ****         1.6718   0.2180   0.5184 C.3            1 S1                 0.0000
     11 ****         2.5174  -0.9932   0.9053 C.2            1 S1                 0.0000
     12 ****         2.8551  -1.1579   2.0768 O.2            1 S1                 0.0000
     13 ****         2.8518  -1.8354  -0.0844 N.am           1 S1                 0.0000
     14 ****         3.6505  -3.0470   0.0754 C.3            1 S1                 0.0000
     15 ****         2.8978  -4.1955   0.7793 C.3            1 S1                 0.0000
     16 ****         1.5423  -4.5095   0.1694 C.ar           1 S1                 0.0000
     17 ****         1.4000  -5.3887  -0.9257 C.ar           1 S1                 0.0000
     18 ****         0.1151  -5.6236  -1.4585 C.ar           1 S1                 0.0000
     19 ****        -0.9993  -4.9756  -0.8863 C.ar           1 S1                 0.0000
     20 ****        -0.8002  -4.1089   0.2072 C.ar           1 S1                 0.0000
     21 ****         0.4464  -3.9088   0.6879 N.pl3          1 S1                 1.0000
     22 ****        -2.5247   2.5726   1.0167 C.3            1 S1                 0.0000
     23 ****        -3.0173   3.4782  -0.1247 C.3            1 S1                 0.0000
     24 ****        -2.6272   5.1174  -2.3805 H              1 S1                 0.0000
     25 ****        -2.0278   6.5276  -1.5115 H              1 S1                 0.0000
     26 ****        -3.6659   5.9524  -1.2280 H              1 S1                 0.0000
     27 ****        -2.1686   5.2961   0.6353 H              1 S1                 0.0000
     28 ****        -0.5871   3.7708  -1.4802 H              1 S1                 0.0000
     29 ****        -0.0350   5.1871  -0.6222 H              1 S1                 0.0000
     30 ****         0.8848   3.0942   0.3833 H              1 S1                 0.0000
     31 ****        -0.0740   4.0080   1.5140 H              1 S1                 0.0000
     32 ****        -0.7256   1.7477   1.8176 H              1 S1                 0.0000
     33 ****        -0.7526   1.5288  -1.1179 H              1 S1                 0.0000
     34 ****         2.0850   0.7179  -0.3579 H              1 S1                 0.0000
     35 ****         1.6507   0.9334   1.3405 H              1 S1                 0.0000
     36 ****         2.5308  -1.6220  -1.0183 H              1 S1                 0.0000
     37 ****         3.9464  -3.3709  -0.9228 H              1 S1                 0.0000
     38 ****         4.5742  -2.8173   0.6089 H              1 S1                 0.0000
     39 ****         3.5105  -5.0977   0.7606 H              1 S1                 0.0000
     40 ****         2.7597  -3.9531   1.8338 H              1 S1                 0.0000
     41 ****         2.2640  -5.8746  -1.3552 H              1 S1                 0.0000
     42 ****        -0.0140  -6.2913  -2.2978 H              1 S1                 0.0000
     43 ****        -1.9914  -5.1397  -1.2808 H              1 S1                 0.0000
     44 ****        -1.5922  -3.5683   0.7046 H              1 S1                 0.0000
     45 ****        -3.1429   1.6763   1.0817 H              1 S1                 0.0000
     46 ****        -2.6608   3.1005   1.9613 H              1 S1                 0.0000
     47 ****        -4.0470   3.7791   0.0715 H              1 S1                 0.0000
     48 ****        -3.0363   2.9110  -1.0563 H              1 S1                 0.0000
     49 ****         0.5668  -3.2715   1.4760 H              1 S1                 0.0000
     50 ****         2.5758  -0.4988   2.7751 LP             1 S1                 0.0000
     51 ****         3.4089  -1.9509   2.3308 LP             1 S1                 0.0000
@<TRIPOS>BOND
    1    1    2 1     
    2    1   24 1     
    3    1   25 1     
    4    1   26 1     
    5    2   23 1     
    6    2    3 1     
    7    2   27 1     
    8    3    4 1     
    9    3   28 1     
   10    3   29 1     
   11    4    5 1     
   12    4   30 1     
   13    4   31 1     
   14    5    6 1     
   15    5   22 1     
   16    5   32 1     
   17    6    7 1     
   18    6   33 1     
   19    7    8 2     
   20    7    9 2     
   21    7   10 1     
   22   10   11 1     
   23   10   34 1     
   24   10   35 1     
   25   11   12 2     
   26   11   13 am    
   27   13   14 1     
   28   13   36 1     
   29   14   15 1     
   30   14   37 1     
   31   14   38 1     
   32   15   16 1     
   33   15   39 1     
   34   15   40 1     
   35   16   21 ar    
   36   16   17 ar    
   37   17   18 ar    
   38   17   41 1     
   39   18   19 ar    
   40   18   42 1     
   41   19   20 ar    
   42   19   43 1     
   43   20   21 ar    
   44   20   44 1     
   45   21   49 1     
   46   22   23 1     
   47   22   45 1     
   48   22   46 1     
   49   23   47 1     
   50   23   48 1     
   51   12   50 1     
   52   12   51 1     
@<TRIPOS>SUBSTRUCTURE
      1 S1             1
@<TRIPOS>SET
LONE_PAIRS      STATIC     ATOMS    <user>   **** ""
4 8 9 50 51
DONOR_HYDROGENS      STATIC     ATOMS    <user>   **** ""
3 33 36 49
ATOM$BLUE        STATIC     ATOMS    COLORGROUP SYSTEM
4 8 9 50 51
ATOM$RED        STATIC     ATOMS    COLORGROUP SYSTEM
3 33 36 49
