AV-unprocessed.smi:1464|AV-procd|sdf|5935|dock4
  -GOLD-   22720 6 13D 1   1.00000     0.00000
 Structure written by MMmdl.
 40 41  0  0  0  0  0  0  0  0  2 V2000
  150.6411  144.9916  160.3059 C   0  0  0  0  0  0  0  0  0  0  0  0
  151.5791  143.7765  160.4192 C   0  0  2  0  0  0  0  0  0  0  0  0
  152.4232  143.8873  161.7057 C   0  0  0  0  0  0  0  0  0  0  0  0
  153.3725  142.6944  161.8833 C   0  0  0  0  0  0  0  0  0  0  0  0
  154.2774  142.5201  160.6541 C   0  0  0  0  0  0  0  0  0  0  0  0
  153.4617  142.3926  159.3543 C   0  0  1  0  0  0  0  0  0  0  0  0
  152.7479  141.1142  159.3488 N   0  0  0  0  0  0  0  0  0  0  0  0
  153.1164  139.9981  158.7011 C   0  0  0  0  0  0  0  0  0  0  0  0
  154.1494  139.9067  158.0370 O   0  0  0  0  0  0  0  0  0  0  0  0
  152.1698  138.7981  158.8376 C   0  0  0  0  0  0  0  0  0  0  0  0
  151.7410  138.2616  157.5385 N   0  0  0  0  0  0  0  0  0  0  0  0
  151.5801  139.2760  156.5008 N   0  5  0  0  0  0  0  0  0  0  0  0
  151.1653  138.8968  155.2629 C   0  0  0  0  0  0  0  0  0  0  0  0
  150.9859  139.6954  154.3464 O   0  0  0  0  0  0  0  0  0  0  0  0
  150.9315  137.4824  155.0227 C   0  0  0  0  0  0  0  0  0  0  0  0
  151.1135  136.5646  155.9923 C   0  0  0  0  0  0  0  0  0  0  0  0
  151.5480  136.9264  157.3358 C   0  0  0  0  0  0  0  0  0  0  0  0
  151.7274  136.0913  158.2231 O   0  0  0  0  0  0  0  0  0  0  0  0
  152.4989  143.5997  159.1787 C   0  0  1  0  0  0  0  0  0  0  0  0
  151.7175  143.5264  157.8512 C   0  0  0  0  0  0  0  0  0  0  0  0
  151.2015  145.9109  160.1341 H   0  0  0  0  0  0  0  0  0  0  0  0
  150.0597  145.1236  161.2186 H   0  0  0  0  0  0  0  0  0  0  0  0
  149.9260  144.8750  159.4920 H   0  0  0  0  0  0  0  0  0  0  0  0
  150.9491  142.8902  160.5081 H   0  0  0  0  0  0  0  0  0  0  0  0
  153.0054  144.8096  161.6829 H   0  0  0  0  0  0  0  0  0  0  0  0
  151.7694  143.9593  162.5756 H   0  0  0  0  0  0  0  0  0  0  0  0
  153.9839  142.8379  162.7746 H   0  0  0  0  0  0  0  0  0  0  0  0
  152.7936  141.7858  162.0524 H   0  0  0  0  0  0  0  0  0  0  0  0
  154.9440  143.3799  160.5760 H   0  0  0  0  0  0  0  0  0  0  0  0
  154.9210  141.6490  160.7843 H   0  0  0  0  0  0  0  0  0  0  0  0
  154.1756  142.4015  158.5286 H   0  0  0  0  0  0  0  0  0  0  0  0
  151.8821  141.0833  159.8671 H   0  0  0  0  0  0  0  0  0  0  0  0
  152.6820  138.0317  159.4219 H   0  0  0  0  0  0  0  0  0  0  0  0
  151.2911  139.0750  159.4234 H   0  0  0  0  0  0  0  0  0  0  0  0
  150.6078  137.1600  154.0440 H   0  0  0  0  0  0  0  0  0  0  0  0
  150.9300  135.5240  155.7692 H   0  0  0  0  0  0  0  0  0  0  0  0
  153.1267  144.4899  159.1135 H   0  0  0  0  0  0  0  0  0  0  0  0
  150.9540  142.7489  157.8747 H   0  0  0  0  0  0  0  0  0  0  0  0
  152.3852  143.3116  157.0165 H   0  0  0  0  0  0  0  0  0  0  0  0
  151.2226  144.4699  157.6235 H   0  0  0  0  0  0  0  0  0  0  0  0
  1  2  1  0  0  0  0
  1 21  1  0  0  0  0
  1 22  1  0  0  0  0
  1 23  1  0  0  0  0
  2 19  1  0  0  0  0
  2  3  1  0  0  0  0
  2 24  1  0  0  0  0
  3  4  1  0  0  0  0
  3 25  1  0  0  0  0
  3 26  1  0  0  0  0
  4  5  1  0  0  0  0
  4 27  1  0  0  0  0
  4 28  1  0  0  0  0
  5  6  1  0  0  0  0
  5 29  1  0  0  0  0
  5 30  1  0  0  0  0
  6  7  1  0  0  0  0
  6 19  1  0  0  0  0
  6 31  1  0  0  0  0
  7  8  1  0  0  0  0
  7 32  1  0  0  0  0
  8  9  2  0  0  0  0
  8 10  1  0  0  0  0
 10 33  1  0  0  0  0
 10 34  1  0  0  0  0
 10 11  1  0  0  0  0
 11 12  1  0  0  0  0
 11 17  1  0  0  0  0
 12 13  1  0  0  0  0
 13 14  2  0  0  0  0
 13 15  1  0  0  0  0
 15 35  1  0  0  0  0
 15 16  2  0  0  0  0
 16 36  1  0  0  0  0
 16 17  1  0  0  0  0
 17 18  2  0  0  0  0
 19 20  1  0  0  0  0
 19 37  1  0  0  0  0
 20 38  1  0  0  0  0
 20 39  1  0  0  0  0
 20 40  1  0  0  0  0
M  CHG  1  12  -1
M  END
> <s_m_source_file>
AV-unprocessed.smi

> <i_m_source_file_index>
1464

> <i_lp_mmshare_version>
43012

> <i_f3d_flags>
0

> <s_epik_input>
W0NIM11bQ0BASF0xW0NIMl1bQ0gyXVtDSDJdW0NASF0oW0NASF0xW0NIM10pW05IXUMoPU8pW0NIMl1uMltuSF1jKD1PKVtjSF1bY0hdYzI9Tw==

> <s_epik_cmdline>
J2VwaWtfcHl0aG9uJywgJy1waCcsICc3LjAnLCAnLXRuJywgJzgnLCAnLW1hJywgJzIwMCcsICctbWV0YWxfYmluZGluZycsICctaW1hZScsICc8aW5maWxlLm1hZT4nLCAnLW9tYWUnLCAnPG91dGZpbGUubWFlPic=

> <r_lp_tautomer_probability>
1

> <r_epik_Ionization_Penalty>
0.101366

> <r_epik_Ionization_Penalty_Charging>
0.101366

> <r_epik_Ionization_Penalty_Neutral>
1.90469e-08

> <r_epik_State_Penalty>
0.035861

> <r_epik_Charging_Adjusted_Penalty>
0.137227

> <i_epik_Tot_Q>
-1

> <i_epik_Tot_abs_Q>
1

> <r_epik_Metal_State_Penalty>
0.035861

> <b_epik_Metal_Only>
0

> <s_lp_Force_Field>
OPLS_2005

> <r_lp_Energy>
26.1624

> <b_lp_Chiralities_Consistent>
1

> <s_lp_Variant>
AV-unprocessed.smi:1464-1

> <Gold.Version>
5.8.1

> <Gold.Id.Protein>
6NUR|6NUR_protein|mol2

> <Gold.PLP.Fitness>
48.2440

> <Gold.PLP.PLP>
-40.5277

> <Gold.PLP.part.hbond>
-3.0000

> <Gold.PLP.part.metal>
0.0000

> <Gold.PLP.part.buried>
-6.7261

> <Gold.PLP.part.nonpolar>
-31.4202

> <Gold.PLP.part.repulsive>
0.2905

> <Gold.PLP.ligand.clash>
0.0000

> <Gold.PLP.ligand.torsion>
0.6215

> <Gold.PLP.Chemscore.Hbond>
2.9833

> <Gold.PLP.Chemscore.CHOScore>
0.0000

> <Gold.PLP.Chemscore.Metal>
0.0000

> <Gold.Chemscore.Hbonds>
donor molecule, donor type, donor heavy atom, donor atom, acceptor molecule, acceptor atom, score
      P1  H  6896  6908       L1    18  0.17
      P1  H  7989  7998       L1    14  1.00

> <Gold.PLP.Chemscore.Internal.Correction>
0.0093

> <Gold.Rescore>
     Score         DG    S(hbond)    S(metal)    S(lipo)     H(rot)  DE(clash)    DE(int)     intcor
     22.35     -23.04       2.92        0.00     102.71       1.64       0.02       0.67       ----

> <Gold.Chemscore.Fitness>
22.3466

> <Gold.Chemscore.DG>
-23.0371

> <Gold.Chemscore.ZeroCoef>
-5.4800

> <Gold.Chemscore.Hbond>
2.9187

> <Gold.Chemscore.Metal>
0.0000

> <Gold.Chemscore.Lipo>
102.7063

> <Gold.Chemscore.Internal_Hbond>
0.0000

> <Gold.Chemscore.DEClash>
0.0202

> <Gold.Chemscore.DEInternal>
0.6703

> <Gold.Chemscore.Rot>
1.6438

> <Gold.Chemscore.Internal.Correction>
   9.000000E+99

> <Gold.Chemscore.Hbonds>
donor molecule, donor type, donor heavy atom, donor atom, acceptor molecule, acceptor atom, score
      P1  H  6896  6908       L1    18  0.16
      P1  H  7989  7998       L1    14  0.98
      P1  H  7997  8009       L1     9  0.03

> <Gold.Chemscore.Hbond.Weighted>
-9.7485

> <Gold.Chemscore.Metal.Weighted>
-0.0000

> <Gold.Chemscore.Lipo.Weighted>
-12.0166

> <Gold.Chemscore.Internal_Hbond.Weighted>
0.0000

> <Gold.Chemscore.DEClash.Weighted>
0.0202

> <Gold.Chemscore.DEInternal.Weighted>
0.6703

> <Gold.Chemscore.Rot.Weighted>
4.2080

> <Gold.Chemscore.Internal.Correction.Weighted>
   9.000000E+99

> <Gold.Protein.RotatedTorsions>
[ 6907 6896 6895 6894 ] final -170.25 input  -60.11 | X-H torsion
[ 7974 7965 7964 7962 ] final  162.39 input  175.53 | X-H torsion
[ 8008 7997 7996 7995 ] final  153.35 input   59.86 | X-H torsion
[ 10167 10162 10161 10158 ] final  -69.84 input  -65.29 | X-H torsion
[ 10718 10713 10712 10709 ] final -159.98 input   66.30 | X-H torsion
[ 10763 10752 10751 10750 ] final  173.47 input  -60.55 | X-H torsion
[ 11005 11000 10999 10996 ] final -120.76 input  -57.11 | X-H torsion

> <Gold.Protein.ActiveResidues>
 VAL166  LYS551  ARG553  GLY616  TRP617  ASP618  TYR619  PRO620  LYS621  CYS622 
 ASP623  PHE694  ASN695  SER759  ASP760  ASP761  ALA762  ILE779  LEU786  VAL792 
 PHE793  MET794  SER795  GLU796  ALA797  LYS798  CYS799  TRP800  GLU811  SER814 

> <Gold.Protein.RotatedAtoms>
  151.5047  133.3497  159.2874 H   0  0  0  0  0  0  0  0  0  0  0  0  # atno 6907 bound_to 6896
  150.8750  134.8133  159.7194 H   0  0  0  0  0  0  0  0  0  0  0  0  # atno 6908 bound_to 6896
  152.4724  134.4937  159.9755 H   0  0  0  0  0  0  0  0  0  0  0  0  # atno 6909 bound_to 6896
  144.7639  139.8033  143.6322 H   0  0  0  0  0  0  0  0  0  0  0  0  # atno 7974 bound_to 7965
  156.2586  140.1996  156.6476 H   0  0  0  0  0  0  0  0  0  0  0  0  # atno 8008 bound_to 7997
  154.6561  140.0566  157.0035 H   0  0  0  0  0  0  0  0  0  0  0  0  # atno 8009 bound_to 7997
  155.1345  140.3237  155.4469 H   0  0  0  0  0  0  0  0  0  0  0  0  # atno 8010 bound_to 7997
  140.5399  143.2315  151.7108 H   0  0  0  0  0  0  0  0  0  0  0  0  # atno 10167 bound_to 10162
  156.5757  130.8708  151.2850 H   0  0  0  0  0  0  0  0  0  0  0  0  # atno 10718 bound_to 10713
  154.4405  135.2762  155.1851 H   0  0  0  0  0  0  0  0  0  0  0  0  # atno 10763 bound_to 10752
  154.3720  135.6106  153.5748 H   0  0  0  0  0  0  0  0  0  0  0  0  # atno 10764 bound_to 10752
  152.9840  135.5859  154.4731 H   0  0  0  0  0  0  0  0  0  0  0  0  # atno 10765 bound_to 10752
  141.0120  134.0251  157.3401 H   0  0  0  0  0  0  0  0  0  0  0  0  # atno 11005 bound_to 11000
  146.1728  139.4886  142.9916 LP  0  0  0  0  0  0  0  0  0  0  0  0  # atno 17320 bound_to 7965
  145.6531  141.0258  143.1749 LP  0  0  0  0  0  0  0  0  0  0  0  0  # atno 17321 bound_to 7965
  139.4985  144.3984  152.0207 LP  0  0  0  0  0  0  0  0  0  0  0  0  # atno 17342 bound_to 10162
  140.3092  144.3557  150.6038 LP  0  0  0  0  0  0  0  0  0  0  0  0  # atno 17343 bound_to 10162
  157.7338  130.9736  150.1996 LP  0  0  0  0  0  0  0  0  0  0  0  0  # atno 17370 bound_to 10713
  156.2675  130.3718  149.8066 LP  0  0  0  0  0  0  0  0  0  0  0  0  # atno 17371 bound_to 10713
  139.9095  135.0187  156.7631 LP  0  0  0  0  0  0  0  0  0  0  0  0  # atno 17394 bound_to 11000
  140.6718  133.9553  155.7861 LP  0  0  0  0  0  0  0  0  0  0  0  0  # atno 17395 bound_to 11000

$$$$
