AV-unprocessed.smi:2675|AV-procd|sdf|10360|dock4
  -GOLD-   2272014383D 1   1.00000     0.00000
 Structure written by MMmdl.
 37 38  0  0  0  0  0  0  0  0  2 V2000
  151.7572  145.2869  159.0618 C   0  0  0  0  0  0  0  0  0  0  0  0
  151.6204  143.8997  158.5294 C   0  0  0  0  0  0  0  0  0  0  0  0
  150.8587  143.6248  157.4247 N   0  3  0  0  0  0  0  0  0  0  0  0
  150.8904  142.3215  157.1449 C   0  0  0  0  0  0  0  0  0  0  0  0
  151.6706  141.7468  158.0672 N   0  0  0  0  0  0  0  0  0  0  0  0
  151.9147  140.2974  158.0758 C   0  0  0  0  0  0  0  0  0  0  0  0
  151.6788  139.7017  156.6885 C   0  0  0  0  0  0  0  0  0  0  0  0
  152.5906  139.6995  155.8634 O   0  0  0  0  0  0  0  0  0  0  0  0
  150.4635  139.1701  156.4715 N   0  0  0  0  0  0  0  0  0  0  0  0
  149.9819  138.4452  155.2885 C   0  0  1  0  0  0  0  0  0  0  0  0
  150.0394  139.4465  154.1233 C   0  0  0  0  0  0  0  0  0  0  0  0
  150.8569  137.3063  154.9462 C   0  0  0  0  0  0  0  0  0  0  0  0
  151.5436  136.4149  154.6755 N   0  0  0  0  0  0  0  0  0  0  0  0
  148.5512  137.9129  155.4002 C   0  0  0  0  0  0  0  0  0  0  0  0
  147.6080  137.8776  154.2177 C   0  0  0  0  0  0  0  0  0  0  0  0
  147.3156  138.7869  155.3905 C   0  0  0  0  0  0  0  0  0  0  0  0
  152.1444  142.6964  158.9461 C   0  0  0  0  0  0  0  0  0  0  0  0
  153.0426  142.3651  160.0945 C   0  0  0  0  0  0  0  0  0  0  0  0
  152.3719  145.2993  159.9615 H   0  0  0  0  0  0  0  0  0  0  0  0
  150.7764  145.6933  159.3099 H   0  0  0  0  0  0  0  0  0  0  0  0
  152.2234  145.9314  158.3163 H   0  0  0  0  0  0  0  0  0  0  0  0
  150.3792  141.8296  156.3364 H   0  0  0  0  0  0  0  0  0  0  0  0
  152.9378  140.1158  158.4094 H   0  0  0  0  0  0  0  0  0  0  0  0
  151.2521  139.8306  158.8050 H   0  0  0  0  0  0  0  0  0  0  0  0
  149.7969  139.2489  157.2256 H   0  0  0  0  0  0  0  0  0  0  0  0
  149.7197  138.9852  153.1880 H   0  0  0  0  0  0  0  0  0  0  0  0
  151.0528  139.8204  153.9706 H   0  0  0  0  0  0  0  0  0  0  0  0
  149.3923  140.3062  154.3030 H   0  0  0  0  0  0  0  0  0  0  0  0
  148.4823  137.0567  156.0696 H   0  0  0  0  0  0  0  0  0  0  0  0
  147.9241  138.3473  153.2888 H   0  0  0  0  0  0  0  0  0  0  0  0
  146.9867  136.9921  154.1005 H   0  0  0  0  0  0  0  0  0  0  0  0
  146.5001  138.5023  156.0522 H   0  0  0  0  0  0  0  0  0  0  0  0
  147.4191  139.8554  155.2258 H   0  0  0  0  0  0  0  0  0  0  0  0
  153.3283  143.2665  160.6357 H   0  0  0  0  0  0  0  0  0  0  0  0
  153.9514  141.8805  159.7381 H   0  0  0  0  0  0  0  0  0  0  0  0
  152.5369  141.6950  160.7898 H   0  0  0  0  0  0  0  0  0  0  0  0
  150.3406  144.3133  156.8935 H   0  0  0  0  0  0  0  0  0  0  0  0
  1  2  1  0  0  0  0
  1 19  1  0  0  0  0
  1 20  1  0  0  0  0
  1 21  1  0  0  0  0
  2 17  2  0  0  0  0
  2  3  1  0  0  0  0
  3  4  2  0  0  0  0
  3 37  1  0  0  0  0
  4  5  1  0  0  0  0
  4 22  1  0  0  0  0
  5  6  1  0  0  0  0
  5 17  1  0  0  0  0
  6  7  1  0  0  0  0
  6 23  1  0  0  0  0
  6 24  1  0  0  0  0
  7  8  2  0  0  0  0
  7  9  1  0  0  0  0
  9 10  1  0  0  0  0
  9 25  1  0  0  0  0
 10 11  1  0  0  0  0
 10 12  1  0  0  0  0
 10 14  1  0  0  0  0
 11 26  1  0  0  0  0
 11 27  1  0  0  0  0
 11 28  1  0  0  0  0
 12 13  3  0  0  0  0
 14 16  1  0  0  0  0
 14 15  1  0  0  0  0
 14 29  1  0  0  0  0
 15 16  1  0  0  0  0
 15 30  1  0  0  0  0
 15 31  1  0  0  0  0
 16 32  1  0  0  0  0
 16 33  1  0  0  0  0
 17 18  1  0  0  0  0
 18 34  1  0  0  0  0
 18 35  1  0  0  0  0
 18 36  1  0  0  0  0
M  CHG  1   3   1
M  END
> <s_m_source_file>
AV-unprocessed.smi

> <i_m_source_file_index>
2675

> <i_lp_mmshare_version>
43012

> <i_f3d_flags>
0

> <s_epik_input>
W0NIM11jMW5bY0hdbihjMVtDSDNdKVtDSDJdQyg9TylbTkhdW0NAQF0oW0NIM10pKEMjTilbQ0hdMltDSDJdW0NIMl0y

> <s_epik_cmdline>
J2VwaWtfcHl0aG9uJywgJy1waCcsICc3LjAnLCAnLXRuJywgJzgnLCAnLW1hJywgJzIwMCcsICctbWV0YWxfYmluZGluZycsICctaW1hZScsICc8aW5maWxlLm1hZT4nLCAnLW9tYWUnLCAnPG91dGZpbGUubWFlPic=

> <r_lp_tautomer_probability>
1

> <r_epik_Ionization_Penalty>
0.153253

> <r_epik_Ionization_Penalty_Charging>
0

> <r_epik_Ionization_Penalty_Neutral>
0.153253

> <r_epik_State_Penalty>
0.14254

> <r_epik_Charging_Adjusted_Penalty>
0.14254

> <i_epik_Tot_Q>
1

> <i_epik_Tot_abs_Q>
1

> <r_epik_Metal_State_Penalty>
0.466899

> <b_epik_Metal_Only>
0

> <s_lp_Force_Field>
OPLS_2005

> <r_lp_Energy>
18.2007

> <b_lp_Chiralities_Consistent>
1

> <s_lp_Variant>
AV-unprocessed.smi:2675-1

> <Gold.Version>
5.8.1

> <Gold.Id.Protein>
6NUR|6NUR_protein|mol2

> <Gold.PLP.Fitness>
44.4021

> <Gold.PLP.PLP>
-33.8631

> <Gold.PLP.part.hbond>
-3.0000

> <Gold.PLP.part.metal>
0.0000

> <Gold.PLP.part.buried>
-4.2437

> <Gold.PLP.part.nonpolar>
-27.5163

> <Gold.PLP.part.repulsive>
0.1746

> <Gold.PLP.ligand.clash>
0.0000

> <Gold.PLP.ligand.torsion>
1.4952

> <Gold.PLP.Chemscore.Hbond>
4.0000

> <Gold.PLP.Chemscore.CHOScore>
0.0000

> <Gold.PLP.Chemscore.Metal>
0.0000

> <Gold.Chemscore.Hbonds>
donor molecule, donor type, donor heavy atom, donor atom, acceptor molecule, acceptor atom, score
      L1  H     3    37       P1  8028  2.00
      P1  H  7997  8008       L1     8  1.00
      P1  H 10752 10763       L1    13  1.00

> <Gold.PLP.Chemscore.Internal.Correction>
1.5294

> <Gold.Rescore>
     Score         DG    S(hbond)    S(metal)    S(lipo)     H(rot)  DE(clash)    DE(int)     intcor
     16.80     -18.89       2.90        0.00      71.10       1.80       0.11       1.99       ----

> <Gold.Chemscore.Fitness>
16.7968

> <Gold.Chemscore.DG>
-18.8947

> <Gold.Chemscore.ZeroCoef>
-5.4800

> <Gold.Chemscore.Hbond>
2.9019

> <Gold.Chemscore.Metal>
0.0000

> <Gold.Chemscore.Lipo>
71.1004

> <Gold.Chemscore.Internal_Hbond>
0.0000

> <Gold.Chemscore.DEClash>
0.1067

> <Gold.Chemscore.DEInternal>
1.9912

> <Gold.Chemscore.Rot>
1.7955

> <Gold.Chemscore.Internal.Correction>
   9.000000E+99

> <Gold.Chemscore.Hbonds>
donor molecule, donor type, donor heavy atom, donor atom, acceptor molecule, acceptor atom, score
      L1  H     3    37       P1  8028  0.89
      P1  H  7997  8008       L1     8  1.00
      P1  H 10752 10763       L1    13  0.99

> <Gold.Chemscore.Hbond.Weighted>
-9.6924

> <Gold.Chemscore.Metal.Weighted>
-0.0000

> <Gold.Chemscore.Lipo.Weighted>
-8.3187

> <Gold.Chemscore.Internal_Hbond.Weighted>
0.0000

> <Gold.Chemscore.DEClash.Weighted>
0.1067

> <Gold.Chemscore.DEInternal.Weighted>
1.9912

> <Gold.Chemscore.Rot.Weighted>
4.5965

> <Gold.Chemscore.Internal.Correction.Weighted>
   9.000000E+99

> <Gold.Protein.RotatedTorsions>
[ 6907 6896 6895 6894 ] final  -97.89 input  -60.11 | X-H torsion
[ 7974 7965 7964 7962 ] final   -8.00 input  175.53 | X-H torsion
[ 8008 7997 7996 7995 ] final  -36.68 input   59.86 | X-H torsion
[ 10167 10162 10161 10158 ] final   91.45 input  -65.29 | X-H torsion
[ 10718 10713 10712 10709 ] final  126.53 input   66.30 | X-H torsion
[ 10763 10752 10751 10750 ] final   40.19 input  -60.55 | X-H torsion
[ 11005 11000 10999 10996 ] final  155.74 input  -57.11 | X-H torsion

> <Gold.Protein.ActiveResidues>
 VAL166  LYS551  ARG553  GLY616  TRP617  ASP618  TYR619  PRO620  LYS621  CYS622 
 ASP623  PHE694  ASN695  SER759  ASP760  ASP761  ALA762  ILE779  LEU786  VAL792 
 PHE793  MET794  SER795  GLU796  ALA797  LYS798  CYS799  TRP800  GLU811  SER814 

> <Gold.Protein.RotatedAtoms>
  150.7030  134.1278  159.4058 H   0  0  0  0  0  0  0  0  0  0  0  0  # atno 6907 bound_to 6896
  151.9264  135.0273  160.0535 H   0  0  0  0  0  0  0  0  0  0  0  0  # atno 6908 bound_to 6896
  152.2213  133.4950  159.5200 H   0  0  0  0  0  0  0  0  0  0  0  0  # atno 6909 bound_to 6896
  146.2292  140.2402  142.8343 H   0  0  0  0  0  0  0  0  0  0  0  0  # atno 7974 bound_to 7965
  154.4068  140.1624  156.2413 H   0  0  0  0  0  0  0  0  0  0  0  0  # atno 8008 bound_to 7997
  155.9198  140.3422  155.6141 H   0  0  0  0  0  0  0  0  0  0  0  0  # atno 8009 bound_to 7997
  155.7235  140.0771  157.2311 H   0  0  0  0  0  0  0  0  0  0  0  0  # atno 8010 bound_to 7997
  139.8373  144.6658  150.9326 H   0  0  0  0  0  0  0  0  0  0  0  0  # atno 10167 bound_to 10162
  157.5411  131.1097  150.8856 H   0  0  0  0  0  0  0  0  0  0  0  0  # atno 10718 bound_to 10713
  152.9944  135.6198  154.2587 H   0  0  0  0  0  0  0  0  0  0  0  0  # atno 10763 bound_to 10752
  154.2323  135.2791  155.2887 H   0  0  0  0  0  0  0  0  0  0  0  0  # atno 10764 bound_to 10752
  154.5439  135.5753  153.6921 H   0  0  0  0  0  0  0  0  0  0  0  0  # atno 10765 bound_to 10752
  140.1609  134.8610  157.2573 H   0  0  0  0  0  0  0  0  0  0  0  0  # atno 11005 bound_to 11000
  144.9490  140.8158  143.5583 LP  0  0  0  0  0  0  0  0  0  0  0  0  # atno 17320 bound_to 7965
  145.2361  139.2093  143.5017 LP  0  0  0  0  0  0  0  0  0  0  0  0  # atno 17321 bound_to 7965
  140.7801  143.3945  151.1253 LP  0  0  0  0  0  0  0  0  0  0  0  0  # atno 17342 bound_to 10162
  139.7594  143.8658  152.3096 LP  0  0  0  0  0  0  0  0  0  0  0  0  # atno 17343 bound_to 10162
  156.9409  130.5384  149.5280 LP  0  0  0  0  0  0  0  0  0  0  0  0  # atno 17370 bound_to 10713
  156.0498  130.5569  150.8963 LP  0  0  0  0  0  0  0  0  0  0  0  0  # atno 17371 bound_to 10713
  140.2491  134.3705  155.7449 LP  0  0  0  0  0  0  0  0  0  0  0  0  # atno 17394 bound_to 11000
  141.2209  133.7306  156.8907 LP  0  0  0  0  0  0  0  0  0  0  0  0  # atno 17395 bound_to 11000

$$$$
