#       Name:                AV-unprocessed.smi:35
#       Creating user name   scv26
#       Creation time:       Thu Mar 26 16:01:12 2020


#       File generated by GOLD software.
#

@<TRIPOS>MOLECULE
AV-unprocessed.smi:35
    41    42     1
SMALL
NO_CHARGES


@<TRIPOS>ATOM
      1 ****        -4.1475   2.8912   1.7836 O.2            1 S1                 0.0000
      2 ****        -3.1878   2.3420   1.2471 C.2            1 S1                 0.0000
      3 ****        -3.0962   2.2841  -0.1467 N.am           1 S1                 0.0000
      4 ****        -2.0566   1.6920  -0.8666 C.2            1 S1                 0.0000
      5 ****        -2.0845   1.6842  -2.0966 O.2            1 S1                 0.0000
      6 ****        -1.0051   1.1101  -0.1244 N.am           1 S1                 0.0000
      7 ****         0.1378   0.4575  -0.8779 C.3            1 S1                 0.0000
      8 ****         1.2745   0.4255  -0.0610 O.3            1 S1                 0.0000
      9 ****         1.6078  -0.9235   0.2455 C.3            1 S1                 0.0000
     10 ****         3.0933  -1.0451   0.6291 C.3            1 S1                 0.0000
     11 ****         3.9436  -0.9202  -0.4921 O.3            1 S1                 0.0000
     12 ****         1.1342  -1.7065  -0.9796 C.3            1 S1                 0.0000
     13 ****         0.9853  -3.0931  -0.7361 O.3            1 S1                 0.0000
     14 ****        -0.1746  -0.9971  -1.3124 C.3            1 S1                 0.0000
     15 ****        -1.2820  -1.5642  -0.6268 O.3            1 S1                 0.0000
     16 ****        -1.0589   1.1325   1.2641 C.2            1 S1                 0.0000
     17 ****        -2.0764   1.7076   1.9472 C.2            1 S1                 0.0000
     18 ****        -1.9698   1.6308   3.9238 Br             1 S1                 0.0000
     19 ****        -3.8465   2.7028  -0.6768 H              1 S1                 0.0000
     20 ****         0.3677   1.1180  -1.7162 H              1 S1                 0.0000
     21 ****         1.0046  -1.2125   1.1080 H              1 S1                 0.0000
     22 ****         3.3583  -0.2962   1.3758 H              1 S1                 0.0000
     23 ****         3.2770  -2.0214   1.0777 H              1 S1                 0.0000
     24 ****         4.8394  -0.9969  -0.2004 H              1 S1                 0.0000
     25 ****         1.8248  -1.5673  -1.8118 H              1 S1                 0.0000
     26 ****         1.8345  -3.4551  -0.5344 H              1 S1                 0.0000
     27 ****        -0.3850  -1.0225  -2.3821 H              1 S1                 0.0000
     28 ****        -2.0432  -1.0318  -0.7999 H              1 S1                 0.0000
     29 ****        -0.2701   0.6739   1.8400 H              1 S1                 0.0000
     30 ****        -4.2093   2.9278   2.7810 LP             1 S1                 0.0000
     31 ****        -4.8665   3.3016   1.2227 LP             1 S1                 0.0000
     32 ****        -2.8523   2.1023  -2.5820 LP             1 S1                 0.0000
     33 ****        -1.3392   1.2598  -2.6110 LP             1 S1                 0.0000
     34 ****         1.0888   0.9227   0.7865 LP             1 S1                 0.0000
     35 ****         2.0397   0.8564  -0.5393 LP             1 S1                 0.0000
     36 ****         3.8046  -0.0285  -0.9229 LP             1 S1                 0.0000
     37 ****         3.7407  -1.6441  -1.1514 LP             1 S1                 0.0000
     38 ****         0.6126  -3.5402  -1.5492 LP             1 S1                 0.0000
     39 ****         0.3660  -3.2353   0.0360 LP             1 S1                 0.0000
     40 ****        -1.0981  -1.5816   0.3560 LP             1 S1                 0.0000
     41 ****        -1.4401  -2.4962  -0.9529 LP             1 S1                 0.0000
@<TRIPOS>BOND
    1    1    2 2     
    2    2   17 1     
    3    2    3 1     
    4    3   19 1     
    5    3    4 1     
    6    4    5 2     
    7    4    6 1     
    8    6    7 1     
    9    6   16 1     
   10    7   14 1     
   11    7    8 1     
   12    7   20 1     
   13    8    9 1     
   14    9   10 1     
   15    9   12 1     
   16    9   21 1     
   17   10   11 1     
   18   10   22 1     
   19   10   23 1     
   20   11   24 1     
   21   12   13 1     
   22   12   14 1     
   23   12   25 1     
   24   13   26 1     
   25   14   15 1     
   26   14   27 1     
   27   15   28 1     
   28   16   17 2     
   29   16   29 1     
   30   17   18 1     
   31    1   30 1     
   32    1   31 1     
   33    5   32 1     
   34    5   33 1     
   35    8   34 1     
   36    8   35 1     
   37   11   36 1     
   38   11   37 1     
   39   13   38 1     
   40   13   39 1     
   41   15   40 1     
   42   15   41 1     
@<TRIPOS>SUBSTRUCTURE
      1 S1             1
@<TRIPOS>SET
LONE_PAIRS      STATIC     ATOMS    <user>   **** ""
12 30 31 32 33 34 35 36 37 38 39 40 41
DONOR_HYDROGENS      STATIC     ATOMS    <user>   **** ""
4 19 24 26 28
ATOM$BLUE        STATIC     ATOMS    COLORGROUP SYSTEM
12 30 31 32 33 34 35 36 37 38 39 40 41
ATOM$RED        STATIC     ATOMS    COLORGROUP SYSTEM
4 19 24 26 28
