AV-unprocessed.smi:951|AV-procd|sdf|4251|dock9
  -GOLD-   22720 2153D 1   1.00000     0.00000
 Structure written by MMmdl.
 51 53  0  0  0  0  0  0  0  0  1 V2000
  149.9589  135.7723  156.5900 O   0  0  0  0  0  0  0  0  0  0  0  0
  149.9013  136.9994  156.5160 C   0  0  0  0  0  0  0  0  0  0  0  0
  149.6755  137.7772  157.5875 N   0  0  0  0  0  0  0  0  0  0  0  0
  149.4634  137.2931  158.9426 C   0  0  0  0  0  0  0  0  0  0  0  0
  148.1225  136.5524  159.0384 C   0  0  0  0  0  0  0  0  0  0  0  0
  147.8269  136.0786  160.4485 C   0  0  0  0  0  0  0  0  0  0  0  0
  147.7065  134.7022  160.7370 C   0  0  0  0  0  0  0  0  0  0  0  0
  147.4393  134.3160  162.0647 C   0  0  0  0  0  0  0  0  0  0  0  0
  147.3039  135.3153  163.0476 C   0  0  0  0  0  0  0  0  0  0  0  0
  147.4431  136.6624  162.6576 C   0  0  0  0  0  0  0  0  0  0  0  0
  147.6987  137.0434  161.3873 N   0  0  0  0  0  0  0  0  0  0  0  0
  150.0797  137.6832  155.1404 C   0  0  2  0  0  0  0  0  0  0  0  0
  151.5078  137.4749  154.6144 C   0  0  0  0  0  0  0  0  0  0  0  0
  152.2711  138.6883  155.1203 C   0  0  0  0  0  0  0  0  0  0  0  0
  151.2304  139.8088  155.1054 C   0  0  0  0  0  0  0  0  0  0  0  0
  149.9226  139.1484  155.1761 N   0  0  0  0  0  0  0  0  0  0  0  0
  148.7218  139.7724  155.2439 C   0  0  0  0  0  0  0  0  0  0  0  0
  147.6695  139.1334  155.2448 O   0  0  0  0  0  0  0  0  0  0  0  0
  148.6763  141.3156  155.3468 C   0  0  0  0  0  0  0  0  0  0  0  0
  148.0588  141.7738  156.6894 C   0  0  0  0  0  0  0  0  0  0  0  0
  146.5281  141.6254  156.7291 C   0  0  0  0  0  0  0  0  0  0  0  0
  145.8752  142.3950  155.5720 C   0  0  0  0  0  0  0  0  0  0  0  0
  146.4163  141.9216  154.2151 C   0  0  0  0  0  0  0  0  0  0  0  0
  147.9564  141.9999  154.1555 C   0  0  0  0  0  0  0  0  0  0  0  0
  149.6389  138.7765  157.4476 H   0  0  0  0  0  0  0  0  0  0  0  0
  150.2798  136.6260  159.2242 H   0  0  0  0  0  0  0  0  0  0  0  0
  149.4807  138.1383  159.6324 H   0  0  0  0  0  0  0  0  0  0  0  0
  147.3112  137.2026  158.7073 H   0  0  0  0  0  0  0  0  0  0  0  0
  148.1213  135.6947  158.3640 H   0  0  0  0  0  0  0  0  0  0  0  0
  147.8186  133.9589  159.9613 H   0  0  0  0  0  0  0  0  0  0  0  0
  147.3411  133.2725  162.3250 H   0  0  0  0  0  0  0  0  0  0  0  0
  147.0993  135.0563  164.0758 H   0  0  0  0  0  0  0  0  0  0  0  0
  147.3467  137.4550  163.3849 H   0  0  0  0  0  0  0  0  0  0  0  0
  149.3673  137.2377  154.4435 H   0  0  0  0  0  0  0  0  0  0  0  0
  151.9644  136.5342  154.9263 H   0  0  0  0  0  0  0  0  0  0  0  0
  151.4967  137.4819  153.5236 H   0  0  0  0  0  0  0  0  0  0  0  0
  152.6042  138.5095  156.1436 H   0  0  0  0  0  0  0  0  0  0  0  0
  153.1509  138.9190  154.5190 H   0  0  0  0  0  0  0  0  0  0  0  0
  151.3893  140.5028  155.9313 H   0  0  0  0  0  0  0  0  0  0  0  0
  151.3002  140.3653  154.1699 H   0  0  0  0  0  0  0  0  0  0  0  0
  149.7014  141.6812  155.3110 H   0  0  0  0  0  0  0  0  0  0  0  0
  148.4955  141.2196  157.5212 H   0  0  0  0  0  0  0  0  0  0  0  0
  148.3195  142.8188  156.8614 H   0  0  0  0  0  0  0  0  0  0  0  0
  146.2500  140.5719  156.6781 H   0  0  0  0  0  0  0  0  0  0  0  0
  146.1467  141.9965  157.6806 H   0  0  0  0  0  0  0  0  0  0  0  0
  144.7926  142.2692  155.6045 H   0  0  0  0  0  0  0  0  0  0  0  0
  146.0663  143.4625  155.6894 H   0  0  0  0  0  0  0  0  0  0  0  0
  146.0761  140.9046  154.0239 H   0  0  0  0  0  0  0  0  0  0  0  0
  145.9892  142.5308  153.4180 H   0  0  0  0  0  0  0  0  0  0  0  0
  148.2465  143.0510  154.1361 H   0  0  0  0  0  0  0  0  0  0  0  0
  148.3080  141.5815  153.2114 H   0  0  0  0  0  0  0  0  0  0  0  0
  1  2  2  0  0  0  0
  2  3  1  0  0  0  0
  2 12  1  0  0  0  0
  3  4  1  0  0  0  0
  3 25  1  0  0  0  0
  4  5  1  0  0  0  0
  4 26  1  0  0  0  0
  4 27  1  0  0  0  0
  5  6  1  0  0  0  0
  5 28  1  0  0  0  0
  5 29  1  0  0  0  0
  6 11  1  0  0  0  0
  6  7  2  0  0  0  0
  7  8  1  0  0  0  0
  7 30  1  0  0  0  0
  8  9  2  0  0  0  0
  8 31  1  0  0  0  0
  9 10  1  0  0  0  0
  9 32  1  0  0  0  0
 10 11  2  0  0  0  0
 10 33  1  0  0  0  0
 12 16  1  0  0  0  0
 12 13  1  0  0  0  0
 12 34  1  0  0  0  0
 13 14  1  0  0  0  0
 13 35  1  0  0  0  0
 13 36  1  0  0  0  0
 14 15  1  0  0  0  0
 14 37  1  0  0  0  0
 14 38  1  0  0  0  0
 15 16  1  0  0  0  0
 15 39  1  0  0  0  0
 15 40  1  0  0  0  0
 16 17  1  0  0  0  0
 17 18  2  0  0  0  0
 17 19  1  0  0  0  0
 19 24  1  0  0  0  0
 19 20  1  0  0  0  0
 19 41  1  0  0  0  0
 20 21  1  0  0  0  0
 20 42  1  0  0  0  0
 20 43  1  0  0  0  0
 21 22  1  0  0  0  0
 21 44  1  0  0  0  0
 21 45  1  0  0  0  0
 22 23  1  0  0  0  0
 22 46  1  0  0  0  0
 22 47  1  0  0  0  0
 23 24  1  0  0  0  0
 23 48  1  0  0  0  0
 23 49  1  0  0  0  0
 24 50  1  0  0  0  0
 24 51  1  0  0  0  0
M  END
> <s_m_source_file>
AV-unprocessed.smi

> <i_m_source_file_index>
951

> <i_lp_mmshare_version>
43012

> <i_f3d_flags>
0

> <s_epik_input>
bjFbY0hdW2NIXVtjSF1bY0hdYzFbQ0gyXVtDSDJdW05IXUMoPU8pW0NAQEhdMltDSDJdW0NIMl1bQ0gyXU4yQyg9TylbQ0hdM1tDSDJdW0NIMl1bQ0gyXVtDSDJdW0NIMl0z

> <s_epik_cmdline>
J2VwaWtfcHl0aG9uJywgJy1waCcsICc3LjAnLCAnLXRuJywgJzgnLCAnLW1hJywgJzIwMCcsICctbWV0YWxfYmluZGluZycsICctaW1hZScsICc8aW5maWxlLm1hZT4nLCAnLW9tYWUnLCAnPG91dGZpbGUubWFlPic=

> <r_epik_Ionization_Penalty>
0.0265505

> <r_epik_Ionization_Penalty_Charging>
0

> <r_epik_Ionization_Penalty_Neutral>
0.0265505

> <r_epik_State_Penalty>
0.02168

> <r_epik_Charging_Adjusted_Penalty>
0.02168

> <i_epik_Tot_Q>
0

> <i_epik_Tot_abs_Q>
0

> <r_epik_Metal_State_Penalty>
0.020746

> <b_epik_Metal_Only>
0

> <s_lp_Force_Field>
OPLS_2005

> <r_lp_Energy>
18.972

> <b_lp_Chiralities_Consistent>
1

> <s_lp_Variant>
AV-unprocessed.smi:951-1

> <Gold.Version>
5.8.1

> <Gold.Id.Protein>
6NUR|6NUR_protein|mol2

> <Gold.PLP.Fitness>
48.2075

> <Gold.PLP.PLP>
-43.9597

> <Gold.PLP.part.hbond>
-2.0000

> <Gold.PLP.part.metal>
0.0000

> <Gold.PLP.part.buried>
-1.4633

> <Gold.PLP.part.nonpolar>
-40.0624

> <Gold.PLP.part.repulsive>
0.0898

> <Gold.PLP.ligand.clash>
0.0000

> <Gold.PLP.ligand.torsion>
0.1060

> <Gold.PLP.Chemscore.Hbond>
1.4660

> <Gold.PLP.Chemscore.CHOScore>
0.0000

> <Gold.PLP.Chemscore.Metal>
0.0000

> <Gold.Chemscore.Hbonds>
donor molecule, donor type, donor heavy atom, donor atom, acceptor molecule, acceptor atom, score
      P1  H  6931  6943       L1    11  0.65
      P1  H  6934  6947       L1    11  0.70

> <Gold.PLP.Chemscore.Internal.Correction>
0.0618

> <Gold.Rescore>
     Score         DG    S(hbond)    S(metal)    S(lipo)     H(rot)  DE(clash)    DE(int)     intcor
     16.61     -16.75       1.01        0.00     101.39       1.55       0.04       0.11       ----

> <Gold.Chemscore.Fitness>
16.6055

> <Gold.Chemscore.DG>
-16.7537

> <Gold.Chemscore.ZeroCoef>
-5.4800

> <Gold.Chemscore.Hbond>
1.0122

> <Gold.Chemscore.Metal>
0.0000

> <Gold.Chemscore.Lipo>
101.3896

> <Gold.Chemscore.Internal_Hbond>
0.0000

> <Gold.Chemscore.DEClash>
0.0385

> <Gold.Chemscore.DEInternal>
0.1098

> <Gold.Chemscore.Rot>
1.5506

> <Gold.Chemscore.Internal.Correction>
   9.000000E+99

> <Gold.Chemscore.Hbonds>
donor molecule, donor type, donor heavy atom, donor atom, acceptor molecule, acceptor atom, score
      P1  H  6931  6943       L1    11  0.05
      P1  H  6934  6947       L1    11  0.60

> <Gold.Chemscore.Hbond.Weighted>
-3.3806

> <Gold.Chemscore.Metal.Weighted>
-0.0000

> <Gold.Chemscore.Lipo.Weighted>
-11.8626

> <Gold.Chemscore.Internal_Hbond.Weighted>
0.0000

> <Gold.Chemscore.DEClash.Weighted>
0.0385

> <Gold.Chemscore.DEInternal.Weighted>
0.1098

> <Gold.Chemscore.Rot.Weighted>
3.9695

> <Gold.Chemscore.Internal.Correction.Weighted>
   9.000000E+99

> <Gold.Protein.RotatedTorsions>
[ 6907 6896 6895 6894 ] final   52.80 input  -60.11 | X-H torsion
[ 7974 7965 7964 7962 ] final   65.69 input  175.53 | X-H torsion
[ 8008 7997 7996 7995 ] final  -52.42 input   59.86 | X-H torsion
[ 10167 10162 10161 10158 ] final  126.01 input  -65.29 | X-H torsion
[ 10718 10713 10712 10709 ] final  136.84 input   66.30 | X-H torsion
[ 10763 10752 10751 10750 ] final -155.80 input  -60.55 | X-H torsion
[ 11005 11000 10999 10996 ] final  107.96 input  -57.11 | X-H torsion

> <Gold.Protein.ActiveResidues>
 VAL166  LYS551  ARG553  GLY616  TRP617  ASP618  TYR619  PRO620  LYS621  CYS622 
 ASP623  PHE694  ASN695  SER759  ASP760  ASP761  ALA762  ILE779  LEU786  VAL792 
 PHE793  MET794  SER795  GLU796  ALA797  LYS798  CYS799  TRP800  GLU811  SER814 

> <Gold.Protein.RotatedAtoms>
  152.3271  134.7307  160.0298 H   0  0  0  0  0  0  0  0  0  0  0  0  # atno 6907 bound_to 6896
  151.7736  133.3338  159.3459 H   0  0  0  0  0  0  0  0  0  0  0  0  # atno 6908 bound_to 6896
  150.7402  134.5927  159.6040 H   0  0  0  0  0  0  0  0  0  0  0  0  # atno 6909 bound_to 6896
  145.8355  139.3164  143.0962 H   0  0  0  0  0  0  0  0  0  0  0  0  # atno 7974 bound_to 7965
  154.4106  140.1224  156.4988 H   0  0  0  0  0  0  0  0  0  0  0  0  # atno 8008 bound_to 7997
  155.6915  140.3495  155.4876 H   0  0  0  0  0  0  0  0  0  0  0  0  # atno 8009 bound_to 7997
  155.9464  140.1096  157.1003 H   0  0  0  0  0  0  0  0  0  0  0  0  # atno 8010 bound_to 7997
  139.5654  144.6908  151.3924 H   0  0  0  0  0  0  0  0  0  0  0  0  # atno 10167 bound_to 10162
  157.4424  131.1059  151.0128 H   0  0  0  0  0  0  0  0  0  0  0  0  # atno 10718 bound_to 10713
  154.7760  135.3159  154.8091 H   0  0  0  0  0  0  0  0  0  0  0  0  # atno 10763 bound_to 10752
  153.8814  135.6834  153.4771 H   0  0  0  0  0  0  0  0  0  0  0  0  # atno 10764 bound_to 10752
  153.1384  135.4750  154.9394 H   0  0  0  0  0  0  0  0  0  0  0  0  # atno 10765 bound_to 10752
  139.8836  134.9416  156.5899 H   0  0  0  0  0  0  0  0  0  0  0  0  # atno 11005 bound_to 11000
  145.9524  140.8899  143.0252 LP  0  0  0  0  0  0  0  0  0  0  0  0  # atno 17320 bound_to 7965
  144.6737  140.1698  143.7415 LP  0  0  0  0  0  0  0  0  0  0  0  0  # atno 17321 bound_to 7965
  140.6937  143.7800  150.7294 LP  0  0  0  0  0  0  0  0  0  0  0  0  # atno 17342 bound_to 10162
  140.1290  143.4543  152.2266 LP  0  0  0  0  0  0  0  0  0  0  0  0  # atno 17343 bound_to 10162
  157.0986  130.5972  149.5455 LP  0  0  0  0  0  0  0  0  0  0  0  0  # atno 17370 bound_to 10713
  155.9954  130.5020  150.7457 LP  0  0  0  0  0  0  0  0  0  0  0  0  # atno 17371 bound_to 10713
  140.7963  133.8541  155.8688 LP  0  0  0  0  0  0  0  0  0  0  0  0  # atno 17394 bound_to 11000
  140.9632  134.1628  157.4637 LP  0  0  0  0  0  0  0  0  0  0  0  0  # atno 17395 bound_to 11000

$$$$
