AV-unprocessed.smi:831|AV-procd|sdf|3874|dock8
  -GOLD-   22720 1323D 1   1.00000     0.00000
 Structure written by MMmdl.
 50 51  0  0  0  0  0  0  0  0  1 V2000
  157.3183  124.7988  148.3365 C   0  0  0  0  0  0  0  0  0  0  0  0
  158.3463  125.8103  148.8631 C   0  0  0  0  0  0  0  0  0  0  0  0
  158.1283  126.0814  150.3601 C   0  0  0  0  0  0  0  0  0  0  0  0
  158.3095  127.1120  148.0467 C   0  0  0  0  0  0  0  0  0  0  0  0
  159.2701  128.0192  148.5759 O   0  0  0  0  0  0  0  0  0  0  0  0
  158.9191  129.3964  148.4860 C   0  0  2  0  0  0  0  0  0  0  0  0
  158.8075  129.7385  146.9933 C   0  0  0  0  0  0  0  0  0  0  0  0
  160.0065  130.2563  149.1643 C   0  0  0  0  0  0  0  0  0  0  0  0
  161.1390  130.2785  148.6854 O   0  0  0  0  0  0  0  0  0  0  0  0
  159.7231  130.9506  150.2786 N   0  0  0  0  0  0  0  0  0  0  0  0
  160.6249  131.8064  151.0418 C   0  0  0  0  0  0  0  0  0  0  0  0
  159.9465  133.0054  151.6888 C   0  0  0  0  0  0  0  0  0  0  0  0
  160.3135  134.3375  151.3990 C   0  0  0  0  0  0  0  0  0  0  0  0
  159.6273  135.3900  152.0336 C   0  0  0  0  0  0  0  0  0  0  0  0
  158.5865  135.0884  152.9433 C   0  0  0  0  0  0  0  0  0  0  0  0
  157.8888  136.1299  153.5924 N   0  0  0  0  0  0  0  0  0  0  0  0
  158.1215  136.3275  155.0218 C   0  0  0  0  0  0  0  0  0  0  0  0
  157.0743  137.2910  155.6055 C   0  0  0  0  0  0  0  0  0  0  0  0
  157.0858  138.5119  154.8733 O   0  0  0  0  0  0  0  0  0  0  0  0
  156.7488  138.3114  153.5048 C   0  0  0  0  0  0  0  0  0  0  0  0
  157.7803  137.3802  152.8448 C   0  0  0  0  0  0  0  0  0  0  0  0
  158.2272  133.8083  153.2090 N   0  0  0  0  0  0  0  0  0  0  0  0
  158.8897  132.8028  152.5992 C   0  0  0  0  0  0  0  0  0  0  0  0
  156.3017  125.1829  148.4268 H   0  0  0  0  0  0  0  0  0  0  0  0
  157.3707  123.8612  148.8904 H   0  0  0  0  0  0  0  0  0  0  0  0
  157.4953  124.5684  147.2856 H   0  0  0  0  0  0  0  0  0  0  0  0
  159.3349  125.3657  148.7417 H   0  0  0  0  0  0  0  0  0  0  0  0
  157.1544  126.5366  150.5426 H   0  0  0  0  0  0  0  0  0  0  0  0
  158.8879  126.7560  150.7559 H   0  0  0  0  0  0  0  0  0  0  0  0
  158.1776  125.1586  150.9383 H   0  0  0  0  0  0  0  0  0  0  0  0
  158.5517  126.9082  147.0026 H   0  0  0  0  0  0  0  0  0  0  0  0
  157.3034  127.5325  148.0689 H   0  0  0  0  0  0  0  0  0  0  0  0
  157.9372  129.5357  148.9364 H   0  0  0  0  0  0  0  0  0  0  0  0
  158.5388  130.7851  146.8466 H   0  0  0  0  0  0  0  0  0  0  0  0
  158.0382  129.1316  146.5150 H   0  0  0  0  0  0  0  0  0  0  0  0
  159.7450  129.5550  146.4667 H   0  0  0  0  0  0  0  0  0  0  0  0
  158.7865  130.8586  150.6438 H   0  0  0  0  0  0  0  0  0  0  0  0
  161.0959  131.2239  151.8348 H   0  0  0  0  0  0  0  0  0  0  0  0
  161.4178  132.1648  150.3834 H   0  0  0  0  0  0  0  0  0  0  0  0
  161.1021  134.5656  150.6973 H   0  0  0  0  0  0  0  0  0  0  0  0
  159.8952  136.4105  151.8037 H   0  0  0  0  0  0  0  0  0  0  0  0
  158.0684  135.3739  155.5488 H   0  0  0  0  0  0  0  0  0  0  0  0
  159.1241  136.7298  155.1731 H   0  0  0  0  0  0  0  0  0  0  0  0
  156.0782  136.8461  155.5767 H   0  0  0  0  0  0  0  0  0  0  0  0
  157.2986  137.5017  156.6512 H   0  0  0  0  0  0  0  0  0  0  0  0
  155.7426  137.8969  153.4235 H   0  0  0  0  0  0  0  0  0  0  0  0
  156.7362  139.2765  152.9979 H   0  0  0  0  0  0  0  0  0  0  0  0
  158.7583  137.8630  152.8253 H   0  0  0  0  0  0  0  0  0  0  0  0
  157.4914  137.2091  151.8090 H   0  0  0  0  0  0  0  0  0  0  0  0
  158.5629  131.8032  152.8457 H   0  0  0  0  0  0  0  0  0  0  0  0
  1  2  1  0  0  0  0
  1 24  1  0  0  0  0
  1 25  1  0  0  0  0
  1 26  1  0  0  0  0
  2  3  1  0  0  0  0
  2  4  1  0  0  0  0
  2 27  1  0  0  0  0
  3 28  1  0  0  0  0
  3 29  1  0  0  0  0
  3 30  1  0  0  0  0
  4  5  1  0  0  0  0
  4 31  1  0  0  0  0
  4 32  1  0  0  0  0
  5  6  1  0  0  0  0
  6  7  1  0  0  0  0
  6  8  1  0  0  0  0
  6 33  1  0  0  0  0
  7 34  1  0  0  0  0
  7 35  1  0  0  0  0
  7 36  1  0  0  0  0
  8  9  2  0  0  0  0
  8 10  1  0  0  0  0
 10 11  1  0  0  0  0
 10 37  1  0  0  0  0
 11 12  1  0  0  0  0
 11 38  1  0  0  0  0
 11 39  1  0  0  0  0
 12 23  1  0  0  0  0
 12 13  2  0  0  0  0
 13 14  1  0  0  0  0
 13 40  1  0  0  0  0
 14 15  2  0  0  0  0
 14 41  1  0  0  0  0
 15 16  1  0  0  0  0
 15 22  1  0  0  0  0
 16 21  1  0  0  0  0
 16 17  1  0  0  0  0
 17 18  1  0  0  0  0
 17 42  1  0  0  0  0
 17 43  1  0  0  0  0
 18 19  1  0  0  0  0
 18 44  1  0  0  0  0
 18 45  1  0  0  0  0
 19 20  1  0  0  0  0
 20 21  1  0  0  0  0
 20 46  1  0  0  0  0
 20 47  1  0  0  0  0
 21 48  1  0  0  0  0
 21 49  1  0  0  0  0
 22 23  2  0  0  0  0
 23 50  1  0  0  0  0
M  END
> <s_m_source_file>
AV-unprocessed.smi

> <i_m_source_file_index>
831

> <i_lp_mmshare_version>
43012

> <i_f3d_flags>
0

> <s_epik_input>
W0NIM11bQ0hdKFtDSDNdKVtDSDJdT1tDQEhdKFtDSDNdKUMoPU8pW05IXVtDSDJdYzFbY0hdW2NIXWMobltjSF0xKU4yW0NIMl1bQ0gyXU9bQ0gyXVtDSDJdMg==

> <s_epik_cmdline>
J2VwaWtfcHl0aG9uJywgJy1waCcsICc3LjAnLCAnLXRuJywgJzgnLCAnLW1hJywgJzIwMCcsICctbWV0YWxfYmluZGluZycsICctaW1hZScsICc8aW5maWxlLm1hZT4nLCAnLW9tYWUnLCAnPG91dGZpbGUubWFlPic=

> <r_lp_tautomer_probability>
1

> <r_epik_Ionization_Penalty>
0.00456501

> <r_epik_Ionization_Penalty_Charging>
0

> <r_epik_Ionization_Penalty_Neutral>
0.00456501

> <r_epik_State_Penalty>
0.00329791

> <r_epik_Charging_Adjusted_Penalty>
0.00329791

> <i_epik_Tot_Q>
0

> <i_epik_Tot_abs_Q>
0

> <r_epik_Metal_State_Penalty>
-0

> <b_epik_Metal_Only>
0

> <s_lp_Force_Field>
OPLS_2005

> <r_lp_Energy>
23.9744

> <b_lp_Chiralities_Consistent>
1

> <s_lp_Variant>
AV-unprocessed.smi:831-1

> <Gold.Version>
5.8.1

> <Gold.Id.Protein>
6NUR|6NUR_protein|mol2

> <Gold.PLP.Fitness>
49.4139

> <Gold.PLP.PLP>
-46.0868

> <Gold.PLP.part.hbond>
-3.0000

> <Gold.PLP.part.metal>
0.0000

> <Gold.PLP.part.buried>
-5.4157

> <Gold.PLP.part.nonpolar>
-37.8923

> <Gold.PLP.part.repulsive>
0.2497

> <Gold.PLP.ligand.clash>
0.0000

> <Gold.PLP.ligand.torsion>
0.9840

> <Gold.PLP.Chemscore.Hbond>
1.3931

> <Gold.PLP.Chemscore.CHOScore>
0.2335

> <Gold.PLP.Chemscore.Metal>
0.0000

> <Gold.Chemscore.Hbonds>
donor molecule, donor type, donor heavy atom, donor atom, acceptor molecule, acceptor atom, score
      L1  H    10    37       P1 10713  0.99
      P1  H  7997  8008       L1    19  0.34

> <Gold.PLP.Chemscore.Internal.Correction>
0.4153

> <Gold.Rescore>
     Score         DG    S(hbond)    S(metal)    S(lipo)     H(rot)  DE(clash)    DE(int)     intcor
     17.07     -18.10       1.02        0.00     120.58       1.92       0.01       1.01       ----

> <Gold.Chemscore.Fitness>
17.0749

> <Gold.Chemscore.DG>
-18.0987

> <Gold.Chemscore.ZeroCoef>
-5.4800

> <Gold.Chemscore.Hbond>
1.0225

> <Gold.Chemscore.Metal>
0.0000

> <Gold.Chemscore.Lipo>
120.5843

> <Gold.Chemscore.Internal_Hbond>
0.0000

> <Gold.Chemscore.DEClash>
0.0121

> <Gold.Chemscore.DEInternal>
1.0117

> <Gold.Chemscore.Rot>
1.9159

> <Gold.Chemscore.Internal.Correction>
   9.000000E+99

> <Gold.Chemscore.Hbonds>
donor molecule, donor type, donor heavy atom, donor atom, acceptor molecule, acceptor atom, score
      L1  H    10    37       P1 10713  0.80
      P1  H  7997  8008       L1    19  0.28

> <Gold.Chemscore.Hbond.Weighted>
-3.4151

> <Gold.Chemscore.Metal.Weighted>
-0.0000

> <Gold.Chemscore.Lipo.Weighted>
-14.1084

> <Gold.Chemscore.Internal_Hbond.Weighted>
0.0000

> <Gold.Chemscore.DEClash.Weighted>
0.0121

> <Gold.Chemscore.DEInternal.Weighted>
1.0117

> <Gold.Chemscore.Rot.Weighted>
4.9047

> <Gold.Chemscore.Internal.Correction.Weighted>
   9.000000E+99

> <Gold.Protein.RotatedTorsions>
[ 6907 6896 6895 6894 ] final  -20.03 input  -60.11 | X-H torsion
[ 7974 7965 7964 7962 ] final -163.28 input  175.53 | X-H torsion
[ 8008 7997 7996 7995 ] final  117.41 input   59.86 | X-H torsion
[ 10167 10162 10161 10158 ] final   48.29 input  -65.29 | X-H torsion
[ 10718 10713 10712 10709 ] final  -39.63 input   66.30 | X-H torsion
[ 10763 10752 10751 10750 ] final  155.89 input  -60.55 | X-H torsion
[ 11005 11000 10999 10996 ] final   95.97 input  -57.11 | X-H torsion

> <Gold.Protein.ActiveResidues>
 VAL166  LYS551  ARG553  GLY616  TRP617  ASP618  TYR619  PRO620  LYS621  CYS622 
 ASP623  PHE694  ASN695  SER759  ASP760  ASP761  ALA762  ILE779  LEU786  VAL792 
 PHE793  MET794  SER795  GLU796  ALA797  LYS798  CYS799  TRP800  GLU811  SER814 

> <Gold.Protein.RotatedAtoms>
  151.2543  135.0632  159.9073 H   0  0  0  0  0  0  0  0  0  0  0  0  # atno 6907 bound_to 6896
  152.5375  134.0299  159.8030 H   0  0  0  0  0  0  0  0  0  0  0  0  # atno 6908 bound_to 6896
  151.0512  133.5573  159.2673 H   0  0  0  0  0  0  0  0  0  0  0  0  # atno 6909 bound_to 6896
  144.7331  140.3130  143.6184 H   0  0  0  0  0  0  0  0  0  0  0  0  # atno 7974 bound_to 7965
  156.2493  140.2897  156.0675 H   0  0  0  0  0  0  0  0  0  0  0  0  # atno 8008 bound_to 7997
  155.1708  140.0402  157.2879 H   0  0  0  0  0  0  0  0  0  0  0  0  # atno 8009 bound_to 7997
  154.6327  140.2503  155.7421 H   0  0  0  0  0  0  0  0  0  0  0  0  # atno 8010 bound_to 7997
  140.2948  144.3003  150.6232 H   0  0  0  0  0  0  0  0  0  0  0  0  # atno 10167 bound_to 10162
  156.2903  130.4227  149.8245 H   0  0  0  0  0  0  0  0  0  0  0  0  # atno 10718 bound_to 10713
  154.1756  135.2802  155.3068 H   0  0  0  0  0  0  0  0  0  0  0  0  # atno 10763 bound_to 10752
  154.6042  135.5520  153.7409 H   0  0  0  0  0  0  0  0  0  0  0  0  # atno 10764 bound_to 10752
  153.0152  135.6399  154.1895 H   0  0  0  0  0  0  0  0  0  0  0  0  # atno 10765 bound_to 10752
  139.8785  134.8926  156.4089 H   0  0  0  0  0  0  0  0  0  0  0  0  # atno 11005 bound_to 11000
  145.7646  139.1836  143.2247 LP  0  0  0  0  0  0  0  0  0  0  0  0  # atno 17320 bound_to 7965
  146.0959  140.7601  142.9572 LP  0  0  0  0  0  0  0  0  0  0  0  0  # atno 17321 bound_to 7965
  140.5701  143.2182  151.7614 LP  0  0  0  0  0  0  0  0  0  0  0  0  # atno 17342 bound_to 10162
  139.4929  144.4228  151.9958 LP  0  0  0  0  0  0  0  0  0  0  0  0  # atno 17343 bound_to 10162
  156.5661  130.8404  151.3343 LP  0  0  0  0  0  0  0  0  0  0  0  0  # atno 17370 bound_to 10713
  157.7340  130.9740  150.2009 LP  0  0  0  0  0  0  0  0  0  0  0  0  # atno 17371 bound_to 10713
  140.9214  133.7642  155.9911 LP  0  0  0  0  0  0  0  0  0  0  0  0  # atno 17394 bound_to 11000
  140.8435  134.3039  157.5304 LP  0  0  0  0  0  0  0  0  0  0  0  0  # atno 17395 bound_to 11000

$$$$
