#       Name:                AV-unprocessed.smi:3066
#       Creating user name   scv26
#       Creation time:       Fri Mar 27 17:09:43 2020


#       File generated by GOLD software.
#

@<TRIPOS>MOLECULE
AV-unprocessed.smi:3066
    40    41     1
SMALL
NO_CHARGES


@<TRIPOS>ATOM
      1 ****        -5.4721   2.7741  -2.3899 N.1            1 S1                 0.0000
      2 ****        -4.9542   1.7480  -2.2541 C.1            1 S1                 0.0000
      3 ****        -4.3035   0.4602  -2.0835 C.2            1 S1                 0.0000
      4 ****        -4.9470  -0.5924  -1.4998 N.2            1 S1                 0.0000
      5 ****        -3.9745  -1.4932  -1.5704 C.2            1 S1                 0.0000
      6 ****        -2.8527  -1.0383  -2.1390 N.pl3          1 S1                 0.0000
      7 ****        -1.5840  -1.7004  -2.3828 C.3            1 S1                 0.0000
      8 ****        -0.7253  -1.7236  -1.1179 C.2            1 S1                 0.0000
      9 ****        -0.5461  -2.7820  -0.5158 O.2            1 S1                 0.0000
     10 ****        -0.2033  -0.5491  -0.7295 N.am           1 S1                 0.0000
     11 ****         0.6159  -0.3311   0.4598 C.3            1 S1                 0.0000
     12 ****         0.3226   1.0859   0.9878 C.3            1 S1                 0.0000
     13 ****         1.1214   1.4997   2.2358 C.3            1 S1                 0.0000
     14 ****         2.5900   1.8265   1.9205 C.3            1 S1                 0.0000
     15 ****         3.5496   0.6238   1.9191 C.3            1 S1                 0.0000
     16 ****         2.9919  -0.7028   1.3740 C.3            1 S1                 0.0000
     17 ****         2.1022  -0.5874   0.1248 C.3            1 S1                 0.0000
     18 ****        -3.0511   0.2569  -2.4872 N.2            1 S1                 0.0000
     19 ****        -4.0787  -2.5014  -1.1965 H              1 S1                 0.0000
     20 ****        -1.7805  -2.7185  -2.7214 H              1 S1                 0.0000
     21 ****        -1.0524  -1.1893  -3.1873 H              1 S1                 0.0000
     22 ****        -0.4062   0.2638  -1.2937 H              1 S1                 0.0000
     23 ****         0.3026  -1.0416   1.2273 H              1 S1                 0.0000
     24 ****         0.4822   1.8193   0.1958 H              1 S1                 0.0000
     25 ****        -0.7394   1.1458   1.2308 H              1 S1                 0.0000
     26 ****         0.6580   2.4012   2.6383 H              1 S1                 0.0000
     27 ****         1.0436   0.7491   3.0234 H              1 S1                 0.0000
     28 ****         2.6479   2.3397   0.9599 H              1 S1                 0.0000
     29 ****         2.9582   2.5473   2.6513 H              1 S1                 0.0000
     30 ****         4.4377   0.8995   1.3495 H              1 S1                 0.0000
     31 ****         3.9000   0.4478   2.9367 H              1 S1                 0.0000
     32 ****         3.8399  -1.3489   1.1440 H              1 S1                 0.0000
     33 ****         2.4452  -1.2222   2.1619 H              1 S1                 0.0000
     34 ****         2.1744  -1.5348  -0.4112 H              1 S1                 0.0000
     35 ****         2.4882   0.1694  -0.5594 H              1 S1                 0.0000
     36 ****        -5.9196   3.6606  -2.5073 LP             1 S1                 0.0000
     37 ****        -5.8733  -0.6637  -1.1299 LP             1 S1                 0.0000
     38 ****        -0.9620  -3.6262  -0.8540 LP             1 S1                 0.0000
     39 ****         0.0154  -2.7978   0.3115 LP             1 S1                 0.0000
     40 ****        -2.4210   0.8937  -2.9315 LP             1 S1                 0.0000
@<TRIPOS>BOND
    1    1    2 3     
    2    2    3 1     
    3    3   18 2     
    4    3    4 1     
    5    4    5 2     
    6    5    6 1     
    7    5   19 1     
    8    6    7 1     
    9    6   18 1     
   10    7    8 1     
   11    7   20 1     
   12    7   21 1     
   13    8    9 2     
   14    8   10 am    
   15   10   11 1     
   16   10   22 1     
   17   11   17 1     
   18   11   12 1     
   19   11   23 1     
   20   12   13 1     
   21   12   24 1     
   22   12   25 1     
   23   13   14 1     
   24   13   26 1     
   25   13   27 1     
   26   14   15 1     
   27   14   28 1     
   28   14   29 1     
   29   15   16 1     
   30   15   30 1     
   31   15   31 1     
   32   16   17 1     
   33   16   32 1     
   34   16   33 1     
   35   17   34 1     
   36   17   35 1     
   37    1   36 1     
   38    4   37 1     
   39    9   38 1     
   40    9   39 1     
   41   18   40 1     
@<TRIPOS>SUBSTRUCTURE
      1 S1             1
@<TRIPOS>SET
LONE_PAIRS      STATIC     ATOMS    <user>   **** ""
5 36 37 38 39 40
DONOR_HYDROGENS      STATIC     ATOMS    <user>   **** ""
1 22
ATOM$BLUE        STATIC     ATOMS    COLORGROUP SYSTEM
5 36 37 38 39 40
ATOM$RED        STATIC     ATOMS    COLORGROUP SYSTEM
1 22
