#       Name:                AV-unprocessed.smi:689
#       Creating user name   scv26
#       Creation time:       Fri Mar 27 00:33:41 2020


#       File generated by GOLD software.
#

@<TRIPOS>MOLECULE
AV-unprocessed.smi:689
    39    40     1
SMALL
NO_CHARGES


@<TRIPOS>ATOM
      1 ****        -2.5265   0.8020   1.1580 C.3            1 S1                 0.0000
      2 ****        -2.7057   1.1792  -0.2847 C.2            1 S1                 0.0000
      3 ****        -3.1597   2.3830  -0.5919 N.2            1 S1                 0.0000
      4 ****        -3.2031   2.4311  -1.9886 O.3            1 S1                 0.0000
      5 ****        -2.7671   1.2406  -2.4731 C.2            1 S1                 0.0000
      6 ****        -2.7322   1.0951  -3.9565 C.3            1 S1                 0.0000
      7 ****        -2.4405   0.3980  -1.4464 C.2            1 S1                 0.0000
      8 ****        -1.9174  -1.0147  -1.5196 C.3            1 S1                 0.0000
      9 ****        -0.3860  -1.0004  -1.5521 C.2            1 S1                 0.0000
     10 ****         0.1905  -0.9618  -2.6392 O.2            1 S1                 0.0000
     11 ****         0.1452  -1.0185  -0.3089 N.pl3          1 S1                -1.0000
     12 ****         1.7426  -0.9627  -0.0707 S.o2           1 S1                 0.0000
     13 ****         2.4190  -2.2014  -0.4864 O.2            1 S1                 0.0000
     14 ****         2.3342   0.3104  -0.5107 O.2            1 S1                 0.0000
     15 ****         1.8090  -0.9450   1.7717 C.3            1 S1                 0.0000
     16 ****         3.2362  -0.9794   2.2822 C.3            1 S1                 0.0000
     17 ****         3.6309  -0.2457   3.5435 C.3            1 S1                 0.0000
     18 ****         4.1136   0.2498   2.2034 C.3            1 S1                 0.0000
     19 ****        -2.8370  -0.2275   1.3360 H              1 S1                 0.0000
     20 ****        -3.1136   1.4413   1.8180 H              1 S1                 0.0000
     21 ****        -1.4810   0.8886   1.4547 H              1 S1                 0.0000
     22 ****        -1.9639   0.3839  -4.2598 H              1 S1                 0.0000
     23 ****        -2.5139   2.0492  -4.4366 H              1 S1                 0.0000
     24 ****        -3.6912   0.7377  -4.3310 H              1 S1                 0.0000
     25 ****        -2.2748  -1.6183  -0.6835 H              1 S1                 0.0000
     26 ****        -2.2775  -1.5190  -2.4169 H              1 S1                 0.0000
     27 ****         1.3013  -0.0461   2.1220 H              1 S1                 0.0000
     28 ****         1.2659  -1.8113   2.1487 H              1 S1                 0.0000
     29 ****         3.7417  -1.9250   2.0951 H              1 S1                 0.0000
     30 ****         2.8683   0.3427   4.0501 H              1 S1                 0.0000
     31 ****         4.3592  -0.7245   4.1949 H              1 S1                 0.0000
     32 ****         5.1630   0.1010   1.9575 H              1 S1                 0.0000
     33 ****         3.6711   1.1674   1.8208 H              1 S1                 0.0000
     34 ****        -3.4188   3.1097   0.0443 LP             1 S1                 0.0000
     35 ****        -2.6123   3.1670  -2.3195 LP             1 S1                 0.0000
     36 ****        -4.1418   2.5955  -2.2917 LP             1 S1                 0.0000
     37 ****        -0.3405  -0.9402  -3.4863 LP             1 S1                 0.0000
     38 ****         1.1898  -0.9520  -2.6751 LP             1 S1                 0.0000
     39 ****        -0.4649  -1.0676   0.4819 LP             1 S1                 0.0000
@<TRIPOS>BOND
    1    1    2 1     
    2    1   19 1     
    3    1   20 1     
    4    1   21 1     
    5    2    7 1     
    6    2    3 2     
    7    3    4 1     
    8    4    5 1     
    9    5    6 1     
   10    5    7 2     
   11    6   22 1     
   12    6   23 1     
   13    6   24 1     
   14    7    8 1     
   15    8    9 1     
   16    8   25 1     
   17    8   26 1     
   18    9   10 2     
   19    9   11 1     
   20   11   12 1     
   21   12   13 2     
   22   12   14 2     
   23   12   15 1     
   24   15   16 1     
   25   15   27 1     
   26   15   28 1     
   27   16   18 1     
   28   16   17 1     
   29   16   29 1     
   30   17   18 1     
   31   17   30 1     
   32   17   31 1     
   33   18   32 1     
   34   18   33 1     
   35    3   34 1     
   36    4   35 1     
   37    4   36 1     
   38   10   37 1     
   39   10   38 1     
   40   11   39 1     
@<TRIPOS>SUBSTRUCTURE
      1 S1             1
@<TRIPOS>SET
LONE_PAIRS      STATIC     ATOMS    <user>   **** ""
8 34 35 36 37 38 39 13 14
ATOM$BLUE        STATIC     ATOMS    COLORGROUP SYSTEM
8 34 35 36 37 38 39 13 14
