AV-unprocessed.smi:144|AV-procd|sdf|1195|dock2
  -GOLD-   2262018353D 1   1.00000     0.00000
 Structure written by MMmdl.
 46 48  0  0  0  0  0  0  0  0  1 V2000
  153.5978  137.7926  156.7734 O   0  0  0  0  0  0  0  0  0  0  0  0
  152.6035  138.3864  156.3593 C   0  0  0  0  0  0  0  0  0  0  0  0
  151.9572  137.9059  155.0461 C   0  0  0  0  0  0  0  0  0  0  0  0
  150.4760  137.9485  155.0244 N   0  0  0  0  0  0  0  0  0  0  0  0
  149.7541  136.8657  155.5854 C   0  0  0  0  0  0  0  0  0  0  0  0
  150.3353  135.9001  156.0821 O   0  0  0  0  0  0  0  0  0  0  0  0
  148.3011  136.9882  155.5437 C   0  0  0  0  0  0  0  0  0  0  0  0
  147.5363  136.0027  156.0430 F   0  0  0  0  0  0  0  0  0  0  0  0
  147.7099  138.0801  155.0166 C   0  0  0  0  0  0  0  0  0  0  0  0
  148.4279  139.1382  154.4887 N   0  0  0  0  0  0  0  0  0  0  0  0
  147.7497  140.3680  153.9236 C   0  0  2  0  0  0  0  0  0  0  0  0
  148.1429  141.6192  154.7307 C   0  0  0  0  0  0  0  0  0  0  0  0
  146.8010  142.2601  155.0224 C   0  0  0  0  0  0  0  0  0  0  0  0
  145.8832  141.0485  155.0849 C   0  0  0  0  0  0  0  0  0  0  0  0
  146.3604  140.2328  154.0226 O   0  0  0  0  0  0  0  0  0  0  0  0
  149.8382  139.0875  154.4772 C   0  0  0  0  0  0  0  0  0  0  0  0
  150.4964  140.0231  154.0169 O   0  0  0  0  0  0  0  0  0  0  0  0
  152.0479  139.4509  156.9717 N   0  0  0  0  0  0  0  0  0  0  0  0
  152.4574  140.1221  158.1537 C   0  0  0  0  0  0  0  0  0  0  0  0
  151.9631  141.4273  158.3486 C   0  0  0  0  0  0  0  0  0  0  0  0
  152.3147  142.1670  159.4975 C   0  0  0  0  0  0  0  0  0  0  0  0
  151.7874  143.5787  159.7050 C   0  0  0  0  0  0  0  0  0  0  0  0
  152.3318  144.3873  158.7968 F   0  0  0  0  0  0  0  0  0  0  0  0
  150.4620  143.6026  159.5633 F   0  0  0  0  0  0  0  0  0  0  0  0
  152.0853  144.0385  160.9210 F   0  0  0  0  0  0  0  0  0  0  0  0
  153.1509  141.5794  160.4693 C   0  0  0  0  0  0  0  0  0  0  0  0
  153.6327  140.2635  160.3023 C   0  0  0  0  0  0  0  0  0  0  0  0
  154.5306  139.6264  161.3529 C   0  0  0  0  0  0  0  0  0  0  0  0
  154.1517  138.3702  161.5895 F   0  0  0  0  0  0  0  0  0  0  0  0
  155.7870  139.6201  160.9097 F   0  0  0  0  0  0  0  0  0  0  0  0
  154.4861  140.2983  162.5039 F   0  0  0  0  0  0  0  0  0  0  0  0
  153.2855  139.5393  159.1420 C   0  0  0  0  0  0  0  0  0  0  0  0
  152.3665  138.5035  154.2299 H   0  0  0  0  0  0  0  0  0  0  0  0
  152.3253  136.9001  154.8385 H   0  0  0  0  0  0  0  0  0  0  0  0
  146.6312  138.1092  155.0179 H   0  0  0  0  0  0  0  0  0  0  0  0
  148.0315  140.4080  152.8698 H   0  0  0  0  0  0  0  0  0  0  0  0
  148.6356  141.3296  155.6604 H   0  0  0  0  0  0  0  0  0  0  0  0
  148.8133  142.2608  154.1585 H   0  0  0  0  0  0  0  0  0  0  0  0
  146.7974  142.8473  155.9410 H   0  0  0  0  0  0  0  0  0  0  0  0
  146.5068  142.9100  154.1972 H   0  0  0  0  0  0  0  0  0  0  0  0
  145.9930  140.5285  156.0375 H   0  0  0  0  0  0  0  0  0  0  0  0
  144.8324  141.3065  154.9514 H   0  0  0  0  0  0  0  0  0  0  0  0
  151.2820  139.8831  156.4758 H   0  0  0  0  0  0  0  0  0  0  0  0
  151.3143  141.8645  157.6034 H   0  0  0  0  0  0  0  0  0  0  0  0
  153.4165  142.1447  161.3504 H   0  0  0  0  0  0  0  0  0  0  0  0
  153.6540  138.5309  159.0355 H   0  0  0  0  0  0  0  0  0  0  0  0
  1  2  2  0  0  0  0
  2  3  1  0  0  0  0
  2 18  1  0  0  0  0
  3  4  1  0  0  0  0
  3 33  1  0  0  0  0
  3 34  1  0  0  0  0
  4 16  1  0  0  0  0
  4  5  1  0  0  0  0
  5  6  2  0  0  0  0
  5  7  1  0  0  0  0
  7  8  1  0  0  0  0
  7  9  2  0  0  0  0
  9 10  1  0  0  0  0
  9 35  1  0  0  0  0
 10 11  1  0  0  0  0
 10 16  1  0  0  0  0
 11 15  1  0  0  0  0
 11 12  1  0  0  0  0
 11 36  1  0  0  0  0
 12 13  1  0  0  0  0
 12 37  1  0  0  0  0
 12 38  1  0  0  0  0
 13 14  1  0  0  0  0
 13 39  1  0  0  0  0
 13 40  1  0  0  0  0
 14 15  1  0  0  0  0
 14 41  1  0  0  0  0
 14 42  1  0  0  0  0
 16 17  2  0  0  0  0
 18 19  1  0  0  0  0
 18 43  1  0  0  0  0
 19 32  1  0  0  0  0
 19 20  2  0  0  0  0
 20 21  1  0  0  0  0
 20 44  1  0  0  0  0
 21 22  1  0  0  0  0
 21 26  2  0  0  0  0
 22 23  1  0  0  0  0
 22 24  1  0  0  0  0
 22 25  1  0  0  0  0
 26 27  1  0  0  0  0
 26 45  1  0  0  0  0
 27 28  1  0  0  0  0
 27 32  2  0  0  0  0
 28 29  1  0  0  0  0
 28 30  1  0  0  0  0
 28 31  1  0  0  0  0
 32 46  1  0  0  0  0
M  END
> <s_m_source_file>
AV-unprocessed.smi

> <i_m_source_file_index>
144

> <i_lp_mmshare_version>
43012

> <i_f3d_flags>
0

> <s_epik_input>
RkMoRikoRiljKFtjSF0xKVtjSF1jKEMoRikoRilGKVtjSF1jMVtOSF1DKD1PKVtDSDJdbjJjKD1PKWMoRilbY0hdbihjMj1PKVtDQEBIXTNbQ0gyXVtDSDJdW0NIMl1PMw==

> <s_epik_cmdline>
J2VwaWtfcHl0aG9uJywgJy1waCcsICc3LjAnLCAnLXRuJywgJzgnLCAnLW1hJywgJzIwMCcsICctbWV0YWxfYmluZGluZycsICctaW1hZScsICc8aW5maWxlLm1hZT4nLCAnLW9tYWUnLCAnPG91dGZpbGUubWFlPic=

> <r_lp_tautomer_probability>
1

> <r_epik_Ionization_Penalty>
3.68082e-06

> <r_epik_Ionization_Penalty_Charging>
3.88729e-08

> <r_epik_Ionization_Penalty_Neutral>
3.64194e-06

> <r_epik_State_Penalty>
-0

> <r_epik_Charging_Adjusted_Penalty>
3.88729e-08

> <i_epik_Tot_Q>
0

> <i_epik_Tot_abs_Q>
0

> <r_epik_Metal_State_Penalty>
-0

> <b_epik_Metal_Only>
0

> <s_epik_Chemistry_Notes>
This compound contains an acetal/aminal-like group ( X-CH(R)-Y where X, Y are N, S, or O) that may be acid/base labile, releasing an aldehyde.

> <s_lp_Force_Field>
OPLS_2005

> <r_lp_Energy>
34.4133

> <b_lp_Chiralities_Consistent>
1

> <s_lp_Variant>
AV-unprocessed.smi:144-1

> <Gold.Version>
5.8.1

> <Gold.Id.Protein>
6NUR|6NUR_protein|mol2

> <Gold.PLP.Fitness>
54.5829

> <Gold.PLP.PLP>
-54.3123

> <Gold.PLP.part.hbond>
-1.7812

> <Gold.PLP.part.metal>
0.0000

> <Gold.PLP.part.buried>
-4.5936

> <Gold.PLP.part.nonpolar>
-50.3079

> <Gold.PLP.part.repulsive>
2.3923

> <Gold.PLP.ligand.clash>
1.1638

> <Gold.PLP.ligand.torsion>
1.5298

> <Gold.PLP.Chemscore.Hbond>
1.0000

> <Gold.PLP.Chemscore.CHOScore>
0.0000

> <Gold.PLP.Chemscore.Metal>
0.0000

> <Gold.Chemscore.Hbonds>
donor molecule, donor type, donor heavy atom, donor atom, acceptor molecule, acceptor atom, score
      P1  H  7989  7998       L1    17  0.93

> <Gold.PLP.Chemscore.Internal.Correction>
1.4939

> <Gold.Rescore>
     Score         DG    S(hbond)    S(metal)    S(lipo)     H(rot)  DE(clash)    DE(int)     intcor
     11.74     -15.48       1.00        0.00      97.12       1.83       0.12       3.62       ----

> <Gold.Chemscore.Fitness>
11.7449

> <Gold.Chemscore.DG>
-15.4848

> <Gold.Chemscore.ZeroCoef>
-5.4800

> <Gold.Chemscore.Hbond>
0.9978

> <Gold.Chemscore.Metal>
0.0000

> <Gold.Chemscore.Lipo>
97.1210

> <Gold.Chemscore.Internal_Hbond>
0.0000

> <Gold.Chemscore.DEClash>
0.1202

> <Gold.Chemscore.DEInternal>
3.6197

> <Gold.Chemscore.Rot>
1.8325

> <Gold.Chemscore.Internal.Correction>
   9.000000E+99

> <Gold.Chemscore.Hbonds>
donor molecule, donor type, donor heavy atom, donor atom, acceptor molecule, acceptor atom, score
      P1  H  7989  7998       L1    17  0.86

> <Gold.Chemscore.Hbond.Weighted>
-3.3327

> <Gold.Chemscore.Metal.Weighted>
-0.0000

> <Gold.Chemscore.Lipo.Weighted>
-11.3632

> <Gold.Chemscore.Internal_Hbond.Weighted>
0.0000

> <Gold.Chemscore.DEClash.Weighted>
0.1202

> <Gold.Chemscore.DEInternal.Weighted>
3.6197

> <Gold.Chemscore.Rot.Weighted>
4.6911

> <Gold.Chemscore.Internal.Correction.Weighted>
   9.000000E+99

> <Gold.Protein.RotatedTorsions>
[ 6907 6896 6895 6894 ] final  174.26 input  -60.11 | X-H torsion
[ 7974 7965 7964 7962 ] final  -73.12 input  175.53 | X-H torsion
[ 8008 7997 7996 7995 ] final -137.14 input   59.86 | X-H torsion
[ 10167 10162 10161 10158 ] final  119.08 input  -65.29 | X-H torsion
[ 10718 10713 10712 10709 ] final   14.22 input   66.30 | X-H torsion
[ 10763 10752 10751 10750 ] final  177.31 input  -60.55 | X-H torsion
[ 11005 11000 10999 10996 ] final -146.14 input  -57.11 | X-H torsion

> <Gold.Protein.ActiveResidues>
 VAL166  LYS551  ARG553  GLY616  TRP617  ASP618  TYR619  PRO620  LYS621  CYS622 
 ASP623  PHE694  ASN695  SER759  ASP760  ASP761  ALA762  ILE779  LEU786  VAL792 
 PHE793  MET794  SER795  GLU796  ALA797  LYS798  CYS799  TRP800  GLU811  SER814 

> <Gold.Protein.RotatedAtoms>
  151.7551  133.3330  159.3402 H   0  0  0  0  0  0  0  0  0  0  0  0  # atno 6907 bound_to 6896
  150.7520  134.6157  159.6119 H   0  0  0  0  0  0  0  0  0  0  0  0  # atno 6908 bound_to 6896
  152.3442  134.7095  160.0306 H   0  0  0  0  0  0  0  0  0  0  0  0  # atno 6909 bound_to 6896
  145.6563  140.9267  143.0957 H   0  0  0  0  0  0  0  0  0  0  0  0  # atno 7974 bound_to 7965
  155.4069  140.0509  157.3034 H   0  0  0  0  0  0  0  0  0  0  0  0  # atno 8008 bound_to 7997
  154.4964  140.2140  155.9397 H   0  0  0  0  0  0  0  0  0  0  0  0  # atno 8009 bound_to 7997
  156.1411  140.3154  155.8502 H   0  0  0  0  0  0  0  0  0  0  0  0  # atno 8010 bound_to 7997
  139.6069  144.7072  151.2932 H   0  0  0  0  0  0  0  0  0  0  0  0  # atno 10167 bound_to 10162
  157.0359  130.6211  149.5743 H   0  0  0  0  0  0  0  0  0  0  0  0  # atno 10718 bound_to 10713
  154.4928  135.2780  155.1483 H   0  0  0  0  0  0  0  0  0  0  0  0  # atno 10763 bound_to 10752
  154.3148  135.6221  153.5485 H   0  0  0  0  0  0  0  0  0  0  0  0  # atno 10764 bound_to 10752
  152.9890  135.5728  154.5353 H   0  0  0  0  0  0  0  0  0  0  0  0  # atno 10765 bound_to 10752
  140.7850  134.3035  157.5033 H   0  0  0  0  0  0  0  0  0  0  0  0  # atno 11005 bound_to 11000
  144.7104  139.8392  143.7416 LP  0  0  0  0  0  0  0  0  0  0  0  0  # atno 17320 bound_to 7965
  146.1162  139.4173  143.0257 LP  0  0  0  0  0  0  0  0  0  0  0  0  # atno 17321 bound_to 7965
  140.7291  143.6916  150.7917 LP  0  0  0  0  0  0  0  0  0  0  0  0  # atno 17342 bound_to 10162
  140.0503  143.5256  152.2677 LP  0  0  0  0  0  0  0  0  0  0  0  0  # atno 17343 bound_to 10162
  156.0054  130.5140  150.7811 LP  0  0  0  0  0  0  0  0  0  0  0  0  # atno 17370 bound_to 10713
  157.5142  131.0927  151.0160 LP  0  0  0  0  0  0  0  0  0  0  0  0  # atno 17371 bound_to 10713
  139.8738  134.9341  156.3598 LP  0  0  0  0  0  0  0  0  0  0  0  0  # atno 17394 bound_to 11000
  140.9445  133.7492  156.0190 LP  0  0  0  0  0  0  0  0  0  0  0  0  # atno 17395 bound_to 11000

$$$$
