AV-unprocessed.smi:2344|AV-procd|sdf|9359|dock9
  -GOLD-   2272012583D 1   1.00000     0.00000
 Structure written by MMmdl.
 35 36  0  0  0  0  0  0  0  0  1 V2000
  149.0927  123.3389  151.8926 C   0  0  0  0  0  0  0  0  0  0  0  0
  148.6917  124.7923  151.7525 C   0  0  0  0  0  0  0  0  0  0  0  0
  148.9498  125.5018  150.5647 C   0  0  0  0  0  0  0  0  0  0  0  0
  148.5609  126.8527  150.4829 C   0  0  0  0  0  0  0  0  0  0  0  0
  147.9254  127.4622  151.5881 C   0  0  0  0  0  0  0  0  0  0  0  0
  147.5733  128.8255  151.4013 N   0  0  0  0  0  0  0  0  0  0  0  0
  146.4683  129.4650  151.8233 C   0  0  0  0  0  0  0  0  0  0  0  0
  145.5523  128.9561  152.4701 O   0  0  0  0  0  0  0  0  0  0  0  0
  146.4809  130.7526  151.4496 N   0  0  0  0  0  0  0  0  0  0  0  0
  145.4327  131.7192  151.7566 C   0  0  2  0  0  0  0  0  0  0  0  0
  144.2508  131.5243  150.8474 C   0  0  0  0  0  0  0  0  0  0  0  0
  143.9748  132.6067  150.1236 C   0  0  0  0  0  0  0  0  0  0  0  0
  144.9307  133.7423  150.3787 C   0  0  1  0  0  0  0  0  0  0  0  0
  144.1992  135.0348  150.7764 C   0  0  0  0  0  0  0  0  0  0  0  0
  145.1158  136.1044  150.8708 O   0  0  0  0  0  0  0  0  0  0  0  0
  145.8664  133.1831  151.4824 C   0  0  0  0  0  0  0  0  0  0  0  0
  147.6822  126.7704  152.7290 N   0  0  0  0  0  0  0  0  0  0  0  0
  148.0554  125.4758  152.8070 C   0  0  0  0  0  0  0  0  0  0  0  0
  145.0991  131.5994  152.7890 H   0  0  0  0  0  0  0  0  0  0  0  0
  145.4949  133.9057  149.4594 H   0  0  0  0  0  0  0  0  0  0  0  0
  148.9192  122.8004  150.9605 H   0  0  0  0  0  0  0  0  0  0  0  0
  148.5175  122.8491  152.6789 H   0  0  0  0  0  0  0  0  0  0  0  0
  150.1511  123.2635  152.1427 H   0  0  0  0  0  0  0  0  0  0  0  0
  149.4375  125.0219  149.7289 H   0  0  0  0  0  0  0  0  0  0  0  0
  148.7510  127.4113  149.5778 H   0  0  0  0  0  0  0  0  0  0  0  0
  148.2399  129.3780  150.8830 H   0  0  0  0  0  0  0  0  0  0  0  0
  147.2718  131.0903  150.9211 H   0  0  0  0  0  0  0  0  0  0  0  0
  143.6958  130.5982  150.8157 H   0  0  0  0  0  0  0  0  0  0  0  0
  143.1685  132.6848  149.4092 H   0  0  0  0  0  0  0  0  0  0  0  0
  143.4470  135.2912  150.0298 H   0  0  0  0  0  0  0  0  0  0  0  0
  143.6823  134.9147  151.7294 H   0  0  0  0  0  0  0  0  0  0  0  0
  144.7488  136.8547  150.4289 H   0  0  0  0  0  0  0  0  0  0  0  0
  145.7835  133.7656  152.4010 H   0  0  0  0  0  0  0  0  0  0  0  0
  146.9086  133.2515  151.1671 H   0  0  0  0  0  0  0  0  0  0  0  0
  147.8393  124.9740  153.7388 H   0  0  0  0  0  0  0  0  0  0  0  0
  1  2  1  0  0  0  0
  1 21  1  0  0  0  0
  1 22  1  0  0  0  0
  1 23  1  0  0  0  0
  2 18  1  0  0  0  0
  2  3  2  0  0  0  0
  3  4  1  0  0  0  0
  3 24  1  0  0  0  0
  4  5  2  0  0  0  0
  4 25  1  0  0  0  0
  5  6  1  0  0  0  0
  5 17  1  0  0  0  0
  6  7  1  0  0  0  0
  6 26  1  0  0  0  0
  7  8  2  0  0  0  0
  7  9  1  0  0  0  0
  9 10  1  0  0  0  0
  9 27  1  0  0  0  0
 10 19  1  0  0  0  0
 10 16  1  0  0  0  0
 10 11  1  0  0  0  0
 11 12  2  0  0  0  0
 11 28  1  0  0  0  0
 12 13  1  0  0  0  0
 12 29  1  0  0  0  0
 13 20  1  0  0  0  0
 13 14  1  0  0  0  0
 13 16  1  0  0  0  0
 14 15  1  0  0  0  0
 14 30  1  0  0  0  0
 14 31  1  0  0  0  0
 15 32  1  0  0  0  0
 16 33  1  0  0  0  0
 16 34  1  0  0  0  0
 17 18  2  0  0  0  0
 18 35  1  0  0  0  0
M  END
> <s_m_source_file>
AV-unprocessed.smi

> <i_m_source_file_index>
2344

> <i_lp_mmshare_version>
43012

> <i_f3d_flags>
0

> <s_epik_input>
W0NIM11jMVtjSF1bY0hdYyhuW2NIXTEpW05IXUMoPU8pW05IXVtDQEBIXTJbQ0hdPVtDSF1bQ0BASF0oW0NIMl0yKVtDSDJdW09IXQ==

> <s_epik_cmdline>
J2VwaWtfcHl0aG9uJywgJy1waCcsICc3LjAnLCAnLXRuJywgJzgnLCAnLW1hJywgJzIwMCcsICctbWV0YWxfYmluZGluZycsICctaW1hZScsICc8aW5maWxlLm1hZT4nLCAnLW9tYWUnLCAnPG91dGZpbGUubWFlPic=

> <r_lp_tautomer_probability>
1

> <r_epik_Ionization_Penalty>
5.7643e-05

> <r_epik_Ionization_Penalty_Charging>
0

> <r_epik_Ionization_Penalty_Neutral>
5.7643e-05

> <r_epik_State_Penalty>
-0

> <r_epik_Charging_Adjusted_Penalty>
0

> <i_epik_Tot_Q>
0

> <i_epik_Tot_abs_Q>
0

> <r_epik_Metal_State_Penalty>
-0

> <b_epik_Metal_Only>
0

> <s_lp_Force_Field>
OPLS_2005

> <r_lp_Energy>
17.7036

> <b_lp_Chiralities_Consistent>
1

> <s_lp_Variant>
AV-unprocessed.smi:2344-3

> <Gold.Version>
5.8.1

> <Gold.Id.Protein>
6NUR|6NUR_protein|mol2

> <Gold.PLP.Fitness>
45.1564

> <Gold.PLP.PLP>
-37.2392

> <Gold.PLP.part.hbond>
-3.0000

> <Gold.PLP.part.metal>
0.0000

> <Gold.PLP.part.buried>
-6.1187

> <Gold.PLP.part.nonpolar>
-28.5844

> <Gold.PLP.part.repulsive>
0.2973

> <Gold.PLP.ligand.clash>
0.0000

> <Gold.PLP.ligand.torsion>
0.5120

> <Gold.PLP.Chemscore.Hbond>
2.9760

> <Gold.PLP.Chemscore.CHOScore>
0.0000

> <Gold.PLP.Chemscore.Metal>
0.0000

> <Gold.Chemscore.Hbonds>
donor molecule, donor type, donor heavy atom, donor atom, acceptor molecule, acceptor atom, score
      L1  H     6    26       P1 10747  1.00
      L1  H     9    27       P1 10747  0.99
      L1  H    15    32       P1 10171  1.00

> <Gold.PLP.Chemscore.Internal.Correction>
0.0133

> <Gold.Rescore>
     Score         DG    S(hbond)    S(metal)    S(lipo)     H(rot)  DE(clash)    DE(int)     intcor
     16.25     -17.42       2.30        0.00      76.31       1.82       0.02       1.15       ----

> <Gold.Chemscore.Fitness>
16.2497

> <Gold.Chemscore.DG>
-17.4208

> <Gold.Chemscore.ZeroCoef>
-5.4800

> <Gold.Chemscore.Hbond>
2.2957

> <Gold.Chemscore.Metal>
0.0000

> <Gold.Chemscore.Lipo>
76.3089

> <Gold.Chemscore.Internal_Hbond>
0.0000

> <Gold.Chemscore.DEClash>
0.0231

> <Gold.Chemscore.DEInternal>
1.1480

> <Gold.Chemscore.Rot>
1.8184

> <Gold.Chemscore.Internal.Correction>
   9.000000E+99

> <Gold.Chemscore.Hbonds>
donor molecule, donor type, donor heavy atom, donor atom, acceptor molecule, acceptor atom, score
      L1  H     6    26       P1 10747  0.25
      L1  H     9    27       P1 10747  0.94
      L1  H    15    32       P1 10171  0.93

> <Gold.Chemscore.Hbond.Weighted>
-7.6677

> <Gold.Chemscore.Metal.Weighted>
-0.0000

> <Gold.Chemscore.Lipo.Weighted>
-8.9281

> <Gold.Chemscore.Internal_Hbond.Weighted>
0.0000

> <Gold.Chemscore.DEClash.Weighted>
0.0231

> <Gold.Chemscore.DEInternal.Weighted>
1.1480

> <Gold.Chemscore.Rot.Weighted>
4.6551

> <Gold.Chemscore.Internal.Correction.Weighted>
   9.000000E+99

> <Gold.Protein.RotatedTorsions>
[ 6907 6896 6895 6894 ] final  -89.99 input  -60.11 | X-H torsion
[ 7974 7965 7964 7962 ] final -126.86 input  175.53 | X-H torsion
[ 8008 7997 7996 7995 ] final  158.04 input   59.86 | X-H torsion
[ 10167 10162 10161 10158 ] final  139.61 input  -65.29 | X-H torsion
[ 10718 10713 10712 10709 ] final   25.80 input   66.30 | X-H torsion
[ 10763 10752 10751 10750 ] final   31.31 input  -60.55 | X-H torsion
[ 11005 11000 10999 10996 ] final   54.19 input  -57.11 | X-H torsion

> <Gold.Protein.ActiveResidues>
 VAL166  LYS551  ARG553  GLY616  TRP617  ASP618  TYR619  PRO620  LYS621  CYS622 
 ASP623  PHE694  ASN695  SER759  ASP760  ASP761  ALA762  ILE779  LEU786  VAL792 
 PHE793  MET794  SER795  GLU796  ALA797  LYS798  CYS799  TRP800  GLU811  SER814 

> <Gold.Protein.RotatedAtoms>
  150.6878  134.2501  159.4507 H   0  0  0  0  0  0  0  0  0  0  0  0  # atno 6907 bound_to 6896
  152.0439  134.9692  160.0583 H   0  0  0  0  0  0  0  0  0  0  0  0  # atno 6908 bound_to 6896
  152.1183  133.4304  159.4700 H   0  0  0  0  0  0  0  0  0  0  0  0  # atno 6909 bound_to 6896
  144.9829  140.7658  143.4601 H   0  0  0  0  0  0  0  0  0  0  0  0  # atno 7974 bound_to 7965
  156.2327  140.1869  156.7200 H   0  0  0  0  0  0  0  0  0  0  0  0  # atno 8008 bound_to 7997
  154.6051  140.0630  156.9448 H   0  0  0  0  0  0  0  0  0  0  0  0  # atno 8009 bound_to 7997
  155.2109  140.3300  155.4331 H   0  0  0  0  0  0  0  0  0  0  0  0  # atno 8010 bound_to 7997
  139.5074  144.6284  151.5878 H   0  0  0  0  0  0  0  0  0  0  0  0  # atno 10167 bound_to 10162
  157.1983  130.6878  149.6178 H   0  0  0  0  0  0  0  0  0  0  0  0  # atno 10718 bound_to 10713
  153.0323  135.6442  154.1179 H   0  0  0  0  0  0  0  0  0  0  0  0  # atno 10763 bound_to 10752
  154.0900  135.2867  155.3275 H   0  0  0  0  0  0  0  0  0  0  0  0  # atno 10764 bound_to 10752
  154.6471  135.5439  153.7921 H   0  0  0  0  0  0  0  0  0  0  0  0  # atno 10765 bound_to 10752
  140.0707  134.5474  155.9050 H   0  0  0  0  0  0  0  0  0  0  0  0  # atno 11005 bound_to 11000
  145.2394  139.2079  143.5000 LP  0  0  0  0  0  0  0  0  0  0  0  0  # atno 17320 bound_to 7965
  146.3413  140.2287  142.8593 LP  0  0  0  0  0  0  0  0  0  0  0  0  # atno 17321 bound_to 7965
  140.6009  143.9611  150.6386 LP  0  0  0  0  0  0  0  0  0  0  0  0  # atno 17342 bound_to 10162
  140.2823  143.3381  152.1140 LP  0  0  0  0  0  0  0  0  0  0  0  0  # atno 17343 bound_to 10162
  155.9703  130.4591  150.6025 LP  0  0  0  0  0  0  0  0  0  0  0  0  # atno 17370 bound_to 10713
  157.3792  131.0778  151.1491 LP  0  0  0  0  0  0  0  0  0  0  0  0  # atno 17371 bound_to 10713
  141.2010  133.6616  156.5929 LP  0  0  0  0  0  0  0  0  0  0  0  0  # atno 17394 bound_to 11000
  140.3632  134.7669  157.4548 LP  0  0  0  0  0  0  0  0  0  0  0  0  # atno 17395 bound_to 11000

$$$$
