#       Name:                AV-unprocessed.smi:135
#       Creating user name   scv26
#       Creation time:       Thu Mar 26 18:31:20 2020


#       File generated by GOLD software.
#

@<TRIPOS>MOLECULE
AV-unprocessed.smi:135
    61    64     1
SMALL
NO_CHARGES


@<TRIPOS>ATOM
      1 ****        -1.6957   0.2054  -0.3866 O.2            1 S1                 0.0000
      2 ****        -0.9719  -0.7714  -0.5843 C.2            1 S1                 0.0000
      3 ****         0.4897  -0.5862  -1.0195 C.3            1 S1                 0.0000
      4 ****         1.0409   0.7431  -0.6784 N.am           1 S1                 0.0000
      5 ****         1.6228   0.9246   0.6004 C.2            1 S1                 0.0000
      6 ****         1.6795   0.0007   1.4132 O.2            1 S1                 0.0000
      7 ****         2.1306   2.2635   0.8765 C.2            1 S1                 0.0000
      8 ****         2.6946   2.5280   2.0672 F              1 S1                 0.0000
      9 ****         2.0414   3.2453  -0.0443 C.2            1 S1                 0.0000
     10 ****         1.4758   3.0527  -1.2928 N.am           1 S1                 0.0000
     11 ****         1.3537   4.1751  -2.3041 C.3            1 S1                 0.0000
     12 ****         2.2671   3.9205  -3.5209 C.3            1 S1                 0.0000
     13 ****         3.0882   5.1927  -3.6023 C.3            1 S1                 0.0000
     14 ****         3.1040   5.6540  -2.1533 C.3            1 S1                 0.0000
     15 ****         1.7753   5.3801  -1.7310 O.3            1 S1                 0.0000
     16 ****         0.9420   1.7886  -1.6269 C.2            1 S1                 0.0000
     17 ****         0.3999   1.6060  -2.7191 O.2            1 S1                 0.0000
     18 ****        -1.3688  -2.0479  -0.4448 N.am           1 S1                 0.0000
     19 ****        -2.6384  -2.5242  -0.0233 C.ar           1 S1                 0.0000
     20 ****        -3.8442  -1.8814  -0.3926 C.ar           1 S1                 0.0000
     21 ****        -5.0843  -2.4109   0.0118 C.ar           1 S1                 0.0000
     22 ****        -5.1316  -3.5918   0.7752 C.ar           1 S1                 0.0000
     23 ****        -3.9372  -4.2438   1.1340 C.ar           1 S1                 0.0000
     24 ****        -2.6905  -3.7136   0.7429 C.ar           1 S1                 0.0000
     25 ****        -1.5431  -4.3725   1.1091 O.3            1 S1                 0.0000
     26 ****        -0.8283  -3.8533   2.1597 C.ar           1 S1                 0.0000
     27 ****        -1.4075  -3.7097   3.4400 C.ar           1 S1                 0.0000
     28 ****        -0.6543  -3.1718   4.5017 C.ar           1 S1                 0.0000
     29 ****         0.6816  -2.7799   4.2905 C.ar           1 S1                 0.0000
     30 ****         1.2660  -2.9312   3.0184 C.ar           1 S1                 0.0000
     31 ****         0.5133  -3.4700   1.9571 C.ar           1 S1                 0.0000
     32 ****         1.0977  -1.3769  -0.5759 H              1 S1                 0.0000
     33 ****         0.5515  -0.7781  -2.0917 H              1 S1                 0.0000
     34 ****         2.4311   4.2141   0.2280 H              1 S1                 0.0000
     35 ****         0.2908   4.2325  -2.5454 H              1 S1                 0.0000
     36 ****         2.9140   3.0608  -3.3397 H              1 S1                 0.0000
     37 ****         1.6767   3.7364  -4.4187 H              1 S1                 0.0000
     38 ****         4.0861   5.0325  -4.0110 H              1 S1                 0.0000
     39 ****         2.5771   5.9302  -4.2227 H              1 S1                 0.0000
     40 ****         3.8153   5.0709  -1.5667 H              1 S1                 0.0000
     41 ****         3.3509   6.7103  -2.0475 H              1 S1                 0.0000
     42 ****        -0.6489  -2.7498  -0.5361 H              1 S1                 0.0000
     43 ****        -3.8353  -0.9890  -1.0002 H              1 S1                 0.0000
     44 ****        -6.0006  -1.9149  -0.2726 H              1 S1                 0.0000
     45 ****        -6.0835  -4.0003   1.0808 H              1 S1                 0.0000
     46 ****        -3.9761  -5.1524   1.7166 H              1 S1                 0.0000
     47 ****        -2.4308  -4.0090   3.6111 H              1 S1                 0.0000
     48 ****        -1.1017  -3.0595   5.4782 H              1 S1                 0.0000
     49 ****         1.2582  -2.3653   5.1042 H              1 S1                 0.0000
     50 ****         2.2907  -2.6316   2.8557 H              1 S1                 0.0000
     51 ****         0.9649  -3.5813   0.9824 H              1 S1                 0.0000
     52 ****        -1.3332   1.1293  -0.5092 LP             1 S1                 0.0000
     53 ****        -2.6458   0.0745  -0.1036 LP             1 S1                 0.0000
     54 ****         1.3107  -0.8979   1.1753 LP             1 S1                 0.0000
     55 ****         2.0944   0.1492   2.3108 LP             1 S1                 0.0000
     56 ****         1.7493   5.3043  -0.7343 LP             1 S1                 0.0000
     57 ****         1.1709   6.1206  -2.0249 LP             1 S1                 0.0000
     58 ****         0.0219   0.7084  -2.9459 LP             1 S1                 0.0000
     59 ****         0.3383   2.3555  -3.3783 LP             1 S1                 0.0000
     60 ****        -0.9384  -4.3884   0.3127 LP             1 S1                 0.0000
     61 ****        -1.7984  -5.3082   1.3524 LP             1 S1                 0.0000
@<TRIPOS>BOND
    1    1    2 2     
    2    2    3 1     
    3    2   18 am    
    4    3    4 1     
    5    3   32 1     
    6    3   33 1     
    7    4   16 am    
    8    4    5 am    
    9    5    6 2     
   10    5    7 1     
   11    7    8 1     
   12    7    9 2     
   13    9   10 1     
   14    9   34 1     
   15   10   11 1     
   16   10   16 am    
   17   11   15 1     
   18   11   12 1     
   19   11   35 1     
   20   12   13 1     
   21   12   36 1     
   22   12   37 1     
   23   13   14 1     
   24   13   38 1     
   25   13   39 1     
   26   14   15 1     
   27   14   40 1     
   28   14   41 1     
   29   16   17 2     
   30   18   19 1     
   31   18   42 1     
   32   19   24 ar    
   33   19   20 ar    
   34   20   21 ar    
   35   20   43 1     
   36   21   22 ar    
   37   21   44 1     
   38   22   23 ar    
   39   22   45 1     
   40   23   24 ar    
   41   23   46 1     
   42   24   25 1     
   43   25   26 1     
   44   26   31 ar    
   45   26   27 ar    
   46   27   28 ar    
   47   27   47 1     
   48   28   29 ar    
   49   28   48 1     
   50   29   30 ar    
   51   29   49 1     
   52   30   31 ar    
   53   30   50 1     
   54   31   51 1     
   55    1   52 1     
   56    1   53 1     
   57    6   54 1     
   58    6   55 1     
   59   15   56 1     
   60   15   57 1     
   61   17   58 1     
   62   17   59 1     
   63   25   60 1     
   64   25   61 1     
@<TRIPOS>SUBSTRUCTURE
      1 S1             1
@<TRIPOS>SET
LONE_PAIRS      STATIC     ATOMS    <user>   **** ""
10 52 53 54 55 56 57 58 59 60 61
DONOR_HYDROGENS      STATIC     ATOMS    <user>   **** ""
1 42
ATOM$BLUE        STATIC     ATOMS    COLORGROUP SYSTEM
10 52 53 54 55 56 57 58 59 60 61
ATOM$RED        STATIC     ATOMS    COLORGROUP SYSTEM
1 42
