AV-unprocessed.smi:3125|AV-procd|sdf|11906|dock4
  -GOLD-   2272017293D 1   1.00000     0.00000
 Structure written by MMmdl.
 29 30  0  0  0  0  0  0  0  0  3 V2000
  152.5388  141.6389  159.8220 C   0  0  0  0  0  0  0  0  0  0  0  0
  152.0809  142.7755  159.0203 N   0  0  0  0  0  0  0  0  0  0  0  0
  152.2918  144.1009  159.3028 C   0  0  0  0  0  0  0  0  0  0  0  0
  151.7008  144.8168  158.2957 C   0  0  0  0  0  0  0  0  0  0  0  0
  151.1525  143.8999  157.4413 N   0  3  0  0  0  0  0  0  0  0  0  0
  151.3799  142.6542  157.8786 C   0  0  0  0  0  0  0  0  0  0  0  0
  150.9214  141.3951  157.1946 C   0  0  2  0  0  0  0  0  0  0  0  0
  152.0669  140.3761  157.0440 C   0  0  0  0  0  0  0  0  0  0  0  0
  151.5679  139.1092  156.3317 C   0  0  0  0  0  0  0  0  0  0  0  0
  150.9124  139.4566  154.9848 C   0  0  0  0  0  0  0  0  0  0  0  0
  149.8220  140.4384  155.1720 N   0  3  0  0  0  0  0  0  0  0  0  0
  150.2732  141.6879  155.8248 C   0  0  0  0  0  0  0  0  0  0  0  0
  153.0872  142.0026  160.6918 H   0  0  0  0  0  0  0  0  0  0  0  0
  153.1972  141.0130  159.2188 H   0  0  0  0  0  0  0  0  0  0  0  0
  151.6766  141.0609  160.1560 H   0  0  0  0  0  0  0  0  0  0  0  0
  152.8347  144.4298  160.1776 H   0  0  0  0  0  0  0  0  0  0  0  0
  151.6319  145.8818  158.1272 H   0  0  0  0  0  0  0  0  0  0  0  0
  150.1609  140.9494  157.8354 H   0  0  0  0  0  0  0  0  0  0  0  0
  152.8874  140.8132  156.4734 H   0  0  0  0  0  0  0  0  0  0  0  0
  152.4717  140.1157  158.0230 H   0  0  0  0  0  0  0  0  0  0  0  0
  152.3965  138.4173  156.1766 H   0  0  0  0  0  0  0  0  0  0  0  0
  150.8477  138.5912  156.9667 H   0  0  0  0  0  0  0  0  0  0  0  0
  151.6524  139.8675  154.2965 H   0  0  0  0  0  0  0  0  0  0  0  0
  150.5070  138.5586  154.5179 H   0  0  0  0  0  0  0  0  0  0  0  0
  149.4258  140.6628  154.2699 H   0  0  0  0  0  0  0  0  0  0  0  0
  149.4149  142.3498  155.9449 H   0  0  0  0  0  0  0  0  0  0  0  0
  150.9781  142.1963  155.1652 H   0  0  0  0  0  0  0  0  0  0  0  0
  149.1053  140.0147  155.7443 H   0  0  0  0  0  0  0  0  0  0  0  0
  150.6481  144.1309  156.5945 H   0  0  0  0  0  0  0  0  0  0  0  0
  1  2  1  0  0  0  0
  1 13  1  0  0  0  0
  1 14  1  0  0  0  0
  1 15  1  0  0  0  0
  2  6  1  0  0  0  0
  2  3  1  0  0  0  0
  3  4  2  0  0  0  0
  3 16  1  0  0  0  0
  4  5  1  0  0  0  0
  4 17  1  0  0  0  0
  5  6  2  0  0  0  0
  5 29  1  0  0  0  0
  6  7  1  0  0  0  0
  7 12  1  0  0  0  0
  7  8  1  0  0  0  0
  7 18  1  0  0  0  0
  8  9  1  0  0  0  0
  8 19  1  0  0  0  0
  8 20  1  0  0  0  0
  9 10  1  0  0  0  0
  9 21  1  0  0  0  0
  9 22  1  0  0  0  0
 10 11  1  0  0  0  0
 10 23  1  0  0  0  0
 10 24  1  0  0  0  0
 11 12  1  0  0  0  0
 11 25  1  0  0  0  0
 11 28  1  0  0  0  0
 12 26  1  0  0  0  0
 12 27  1  0  0  0  0
M  CHG  1   5   1
M  CHG  1  11   1
M  END
> <s_m_source_file>
AV-unprocessed.smi

> <i_m_source_file_index>
3125

> <i_lp_mmshare_version>
43012

> <i_f3d_flags>
0

> <s_epik_input>
W0NIM11uMVtjSF1bY0hdbmMxW0NAQEhdMltDSDJdW0NIMl1bQ0gyXVtOSF1bQ0gyXTI=

> <s_epik_cmdline>
J2VwaWtfcHl0aG9uJywgJy1waCcsICc3LjAnLCAnLXRuJywgJzgnLCAnLW1hJywgJzIwMCcsICctbWV0YWxfYmluZGluZycsICctaW1hZScsICc8aW5maWxlLm1hZT4nLCAnLW9tYWUnLCAnPG91dGZpbGUubWFlPic=

> <r_lp_tautomer_probability>
1

> <r_epik_Ionization_Penalty>
0.803551

> <r_epik_Ionization_Penalty_Charging>
0.000747377

> <r_epik_Ionization_Penalty_Neutral>
0.802804

> <r_epik_State_Penalty>
0.360941

> <r_epik_Charging_Adjusted_Penalty>
0.361688

> <i_epik_Tot_Q>
2

> <i_epik_Tot_abs_Q>
2

> <r_epik_Metal_State_Penalty>
3.98724

> <b_epik_Metal_Only>
0

> <s_lp_Force_Field>
OPLS_2005

> <r_lp_Energy>
24.5109

> <b_lp_Chiralities_Consistent>
1

> <s_lp_Variant>
AV-unprocessed.smi:3125-1

> <Gold.Version>
5.8.1

> <Gold.Id.Protein>
6NUR|6NUR_protein|mol2

> <Gold.PLP.Fitness>
34.4472

> <Gold.PLP.PLP>
-28.7157

> <Gold.PLP.part.hbond>
-1.0000

> <Gold.PLP.part.metal>
0.0000

> <Gold.PLP.part.buried>
-3.0283

> <Gold.PLP.part.nonpolar>
-25.2741

> <Gold.PLP.part.repulsive>
0.1338

> <Gold.PLP.ligand.clash>
0.0000

> <Gold.PLP.ligand.torsion>
0.1453

> <Gold.PLP.Chemscore.Hbond>
2.0000

> <Gold.PLP.Chemscore.CHOScore>
0.0000

> <Gold.PLP.Chemscore.Metal>
0.0000

> <Gold.Chemscore.Hbonds>
donor molecule, donor type, donor heavy atom, donor atom, acceptor molecule, acceptor atom, score
      L1  H     5    29       P1  8028  1.87

> <Gold.PLP.Chemscore.Internal.Correction>
0.0220

> <Gold.Rescore>
     Score         DG    S(hbond)    S(metal)    S(lipo)     H(rot)  DE(clash)    DE(int)     intcor
     14.27     -14.33       0.99        0.00      69.12       1.00       0.00       0.05       ----

> <Gold.Chemscore.Fitness>
14.2750

> <Gold.Chemscore.DG>
-14.3268

> <Gold.Chemscore.ZeroCoef>
-5.4800

> <Gold.Chemscore.Hbond>
0.9941

> <Gold.Chemscore.Metal>
0.0000

> <Gold.Chemscore.Lipo>
69.1151

> <Gold.Chemscore.Internal_Hbond>
0.0000

> <Gold.Chemscore.DEClash>
0.0033

> <Gold.Chemscore.DEInternal>
0.0485

> <Gold.Chemscore.Rot>
1.0000

> <Gold.Chemscore.Internal.Correction>
   9.000000E+99

> <Gold.Chemscore.Hbonds>
donor molecule, donor type, donor heavy atom, donor atom, acceptor molecule, acceptor atom, score
      L1  H     5    29       P1  8028  0.85

> <Gold.Chemscore.Hbond.Weighted>
-3.3203

> <Gold.Chemscore.Metal.Weighted>
-0.0000

> <Gold.Chemscore.Lipo.Weighted>
-8.0865

> <Gold.Chemscore.Internal_Hbond.Weighted>
0.0000

> <Gold.Chemscore.DEClash.Weighted>
0.0033

> <Gold.Chemscore.DEInternal.Weighted>
0.0485

> <Gold.Chemscore.Rot.Weighted>
2.5600

> <Gold.Chemscore.Internal.Correction.Weighted>
   9.000000E+99

> <Gold.Protein.RotatedTorsions>
[ 6907 6896 6895 6894 ] final -110.80 input  -60.11 | X-H torsion
[ 7974 7965 7964 7962 ] final  133.94 input  175.53 | X-H torsion
[ 8008 7997 7996 7995 ] final   92.63 input   59.86 | X-H torsion
[ 10167 10162 10161 10158 ] final -142.97 input  -65.29 | X-H torsion
[ 10718 10713 10712 10709 ] final   16.45 input   66.30 | X-H torsion
[ 10763 10752 10751 10750 ] final  -47.47 input  -60.55 | X-H torsion
[ 11005 11000 10999 10996 ] final  -51.30 input  -57.11 | X-H torsion

> <Gold.Protein.ActiveResidues>
 VAL166  LYS551  ARG553  GLY616  TRP617  ASP618  TYR619  PRO620  LYS621  CYS622 
 ASP623  PHE694  ASN695  SER759  ASP760  ASP761  ALA762  ILE779  LEU786  VAL792 
 PHE793  MET794  SER795  GLU796  ALA797  LYS798  CYS799  TRP800  GLU811  SER814 

> <Gold.Protein.RotatedAtoms>
  150.7648  133.9329  159.3432 H   0  0  0  0  0  0  0  0  0  0  0  0  # atno 6907 bound_to 6896
  151.7229  135.0888  160.0296 H   0  0  0  0  0  0  0  0  0  0  0  0  # atno 6908 bound_to 6896
  152.3638  133.6293  159.6071 H   0  0  0  0  0  0  0  0  0  0  0  0  # atno 6909 bound_to 6896
  144.9814  139.4501  143.5384 H   0  0  0  0  0  0  0  0  0  0  0  0  # atno 7974 bound_to 7965
  156.0376  140.3323  155.7208 H   0  0  0  0  0  0  0  0  0  0  0  0  # atno 8008 bound_to 7997
  155.5793  140.0635  157.2805 H   0  0  0  0  0  0  0  0  0  0  0  0  # atno 8009 bound_to 7997
  154.4379  140.1847  156.0948 H   0  0  0  0  0  0  0  0  0  0  0  0  # atno 8010 bound_to 7997
  139.8038  143.7797  152.2660 H   0  0  0  0  0  0  0  0  0  0  0  0  # atno 10167 bound_to 10162
  157.0680  130.6336  149.5799 H   0  0  0  0  0  0  0  0  0  0  0  0  # atno 10718 bound_to 10713
  154.0619  135.6617  153.4813 H   0  0  0  0  0  0  0  0  0  0  0  0  # atno 10763 bound_to 10752
  153.0424  135.5136  154.7651 H   0  0  0  0  0  0  0  0  0  0  0  0  # atno 10764 bound_to 10752
  154.6690  135.3026  154.9734 H   0  0  0  0  0  0  0  0  0  0  0  0  # atno 10765 bound_to 10752
  141.0863  133.6642  156.3857 H   0  0  0  0  0  0  0  0  0  0  0  0  # atno 11005 bound_to 11000
  146.3409  139.9089  142.8783 LP  0  0  0  0  0  0  0  0  0  0  0  0  # atno 17320 bound_to 7965
  145.2416  141.0011  143.3933 LP  0  0  0  0  0  0  0  0  0  0  0  0  # atno 17321 bound_to 7965
  139.7925  144.7405  150.9935 LP  0  0  0  0  0  0  0  0  0  0  0  0  # atno 17342 bound_to 10162
  140.7819  143.4427  151.0527 LP  0  0  0  0  0  0  0  0  0  0  0  0  # atno 17343 bound_to 10162
  155.9959  130.5027  150.7475 LP  0  0  0  0  0  0  0  0  0  0  0  0  # atno 17370 bound_to 10713
  157.4901  131.0910  151.0436 LP  0  0  0  0  0  0  0  0  0  0  0  0  # atno 17371 bound_to 10713
  140.5354  134.6172  157.5363 LP  0  0  0  0  0  0  0  0  0  0  0  0  # atno 17394 bound_to 11000
  139.9682  134.7337  156.0095 LP  0  0  0  0  0  0  0  0  0  0  0  0  # atno 17395 bound_to 11000

$$$$
