AV-unprocessed.smi:3045|AV-procd|sdf|11611|dock8
  -GOLD-   2272016593D 1   1.00000     0.00000
 Structure written by MMmdl.
 36 37  0  0  0  0  0  0  0  0  2 V2000
  151.8127  139.3974  155.9855 C   0  0  0  0  0  0  0  0  0  0  0  0
  150.6760  139.9142  155.2357 N   0  0  0  0  0  0  0  0  0  0  0  0
  150.1105  139.1713  154.1229 C   0  0  0  0  0  0  0  0  0  0  0  0
  148.8384  139.9448  153.7114 C   0  0  1  0  0  0  0  0  0  0  0  0
  147.5536  139.1684  154.0408 C   0  0  0  0  0  0  0  0  0  0  0  0
  146.7314  139.6341  154.8309 O   0  0  0  0  0  0  0  0  0  0  0  0
  147.3949  137.9836  153.4306 N   0  0  0  0  0  0  0  0  0  0  0  0
  146.2436  137.1054  153.6005 C   0  0  0  0  0  0  0  0  0  0  0  0
  145.3468  137.0900  152.3508 C   0  0  0  0  0  0  0  0  0  0  0  0
  144.8356  135.6986  152.0320 C   0  0  0  0  0  0  0  0  0  0  0  0
  145.0802  135.1196  150.7670 C   0  0  0  0  0  0  0  0  0  0  0  0
  144.5990  133.8219  150.4952 C   0  0  0  0  0  0  0  0  0  0  0  0
  143.8821  133.1329  151.4948 C   0  0  0  0  0  0  0  0  0  0  0  0
  143.6664  133.7194  152.6928 N   0  3  0  0  0  0  0  0  0  0  0  0
  144.1116  134.9596  152.9926 C   0  0  0  0  0  0  0  0  0  0  0  0
  148.9109  141.2794  154.4824 C   0  0  0  0  0  0  0  0  0  0  0  0
  150.0699  141.0858  155.4461 C   0  0  0  0  0  0  0  0  0  0  0  0
  150.3747  141.9166  156.3002 O   0  0  0  0  0  0  0  0  0  0  0  0
  152.6607  140.0794  155.9151 H   0  0  0  0  0  0  0  0  0  0  0  0
  152.1273  138.4260  155.6031 H   0  0  0  0  0  0  0  0  0  0  0  0
  151.5529  139.2789  157.0381 H   0  0  0  0  0  0  0  0  0  0  0  0
  150.8300  139.1451  153.3033 H   0  0  0  0  0  0  0  0  0  0  0  0
  149.9078  138.1399  154.4164 H   0  0  0  0  0  0  0  0  0  0  0  0
  148.8673  140.1428  152.6383 H   0  0  0  0  0  0  0  0  0  0  0  0
  148.1176  137.6754  152.7957 H   0  0  0  0  0  0  0  0  0  0  0  0
  146.5842  136.0969  153.8420 H   0  0  0  0  0  0  0  0  0  0  0  0
  145.6742  137.4555  154.4618 H   0  0  0  0  0  0  0  0  0  0  0  0
  144.4999  137.7633  152.4900 H   0  0  0  0  0  0  0  0  0  0  0  0
  145.8941  137.4619  151.4838 H   0  0  0  0  0  0  0  0  0  0  0  0
  145.6334  135.6624  150.0140 H   0  0  0  0  0  0  0  0  0  0  0  0
  144.7782  133.3621  149.5341 H   0  0  0  0  0  0  0  0  0  0  0  0
  143.4785  132.1381  151.3735 H   0  0  0  0  0  0  0  0  0  0  0  0
  143.8773  135.3184  153.9843 H   0  0  0  0  0  0  0  0  0  0  0  0
  149.1317  142.1102  153.8117 H   0  0  0  0  0  0  0  0  0  0  0  0
  147.9981  141.5223  155.0291 H   0  0  0  0  0  0  0  0  0  0  0  0
  143.1450  133.2034  153.4022 H   0  0  0  0  0  0  0  0  0  0  0  0
  1  2  1  0  0  0  0
  1 19  1  0  0  0  0
  1 20  1  0  0  0  0
  1 21  1  0  0  0  0
  2 17  1  0  0  0  0
  2  3  1  0  0  0  0
  3  4  1  0  0  0  0
  3 22  1  0  0  0  0
  3 23  1  0  0  0  0
  4  5  1  0  0  0  0
  4 16  1  0  0  0  0
  4 24  1  0  0  0  0
  5  6  2  0  0  0  0
  5  7  1  0  0  0  0
  7  8  1  0  0  0  0
  7 25  1  0  0  0  0
  8  9  1  0  0  0  0
  8 26  1  0  0  0  0
  8 27  1  0  0  0  0
  9 10  1  0  0  0  0
  9 28  1  0  0  0  0
  9 29  1  0  0  0  0
 10 15  1  0  0  0  0
 10 11  2  0  0  0  0
 11 12  1  0  0  0  0
 11 30  1  0  0  0  0
 12 13  2  0  0  0  0
 12 31  1  0  0  0  0
 13 14  1  0  0  0  0
 13 32  1  0  0  0  0
 14 15  2  0  0  0  0
 14 36  1  0  0  0  0
 15 33  1  0  0  0  0
 16 17  1  0  0  0  0
 16 34  1  0  0  0  0
 16 35  1  0  0  0  0
 17 18  2  0  0  0  0
M  CHG  1  14   1
M  END
> <s_m_source_file>
AV-unprocessed.smi

> <i_m_source_file_index>
3045

> <i_lp_mmshare_version>
43012

> <i_f3d_flags>
0

> <s_epik_input>
W0NIM11OMVtDSDJdW0NASF0oW0NIMl1DMT1PKUMoPU8pW05IXVtDSDJdW0NIMl1jMltjSF1bY0hdW2NIXW5bY0hdMg==

> <s_epik_cmdline>
J2VwaWtfcHl0aG9uJywgJy1waCcsICc3LjAnLCAnLXRuJywgJzgnLCAnLW1hJywgJzIwMCcsICctbWV0YWxfYmluZGluZycsICctaW1hZScsICc8aW5maWxlLm1hZT4nLCAnLW9tYWUnLCAnPG91dGZpbGUubWFlPic=

> <r_epik_Ionization_Penalty>
2.26523

> <r_epik_Ionization_Penalty_Charging>
2.26523

> <r_epik_Ionization_Penalty_Neutral>
2.92809e-08

> <r_epik_State_Penalty>
2.41338

> <r_epik_Charging_Adjusted_Penalty>
4.67861

> <i_epik_Tot_Q>
1

> <i_epik_Tot_abs_Q>
1

> <r_epik_Metal_State_Penalty>
2.42626

> <b_epik_Metal_Only>
0

> <s_lp_Force_Field>
OPLS_2005

> <r_lp_Energy>
17.4677

> <b_lp_Chiralities_Consistent>
1

> <s_lp_Variant>
AV-unprocessed.smi:3045-3

> <Gold.Version>
5.8.1

> <Gold.Id.Protein>
6NUR|6NUR_protein|mol2

> <Gold.PLP.Fitness>
39.0974

> <Gold.PLP.PLP>
-30.8230

> <Gold.PLP.part.hbond>
-2.0000

> <Gold.PLP.part.metal>
0.0000

> <Gold.PLP.part.buried>
0.8193

> <Gold.PLP.part.nonpolar>
-29.3579

> <Gold.PLP.part.repulsive>
0.1898

> <Gold.PLP.ligand.clash>
0.0000

> <Gold.PLP.ligand.torsion>
0.3673

> <Gold.PLP.Chemscore.Hbond>
3.0000

> <Gold.PLP.Chemscore.CHOScore>
0.0000

> <Gold.PLP.Chemscore.Metal>
0.0000

> <Gold.Chemscore.Hbonds>
donor molecule, donor type, donor heavy atom, donor atom, acceptor molecule, acceptor atom, score
      L1  H     7    25       P1  7948  0.99
      L1  H    14    36       P1 10957  1.92

> <Gold.PLP.Chemscore.Internal.Correction>
0.0090

> <Gold.Rescore>
     Score         DG    S(hbond)    S(metal)    S(lipo)     H(rot)  DE(clash)    DE(int)     intcor
     13.42     -15.10       1.91        0.00      64.98       1.71       1.34       0.33       ----

> <Gold.Chemscore.Fitness>
13.4243

> <Gold.Chemscore.DG>
-15.0985

> <Gold.Chemscore.ZeroCoef>
-5.4800

> <Gold.Chemscore.Hbond>
1.9145

> <Gold.Chemscore.Metal>
0.0000

> <Gold.Chemscore.Lipo>
64.9814

> <Gold.Chemscore.Internal_Hbond>
0.0000

> <Gold.Chemscore.DEClash>
1.3396

> <Gold.Chemscore.DEInternal>
0.3346

> <Gold.Chemscore.Rot>
1.7105

> <Gold.Chemscore.Internal.Correction>
   9.000000E+99

> <Gold.Chemscore.Hbonds>
donor molecule, donor type, donor heavy atom, donor atom, acceptor molecule, acceptor atom, score
      L1  H     7    25       P1  7948  0.93
      L1  H    14    36       P1 10957  0.86

> <Gold.Chemscore.Hbond.Weighted>
-6.3946

> <Gold.Chemscore.Metal.Weighted>
-0.0000

> <Gold.Chemscore.Lipo.Weighted>
-7.6028

> <Gold.Chemscore.Internal_Hbond.Weighted>
0.0000

> <Gold.Chemscore.DEClash.Weighted>
1.3396

> <Gold.Chemscore.DEInternal.Weighted>
0.3346

> <Gold.Chemscore.Rot.Weighted>
4.3789

> <Gold.Chemscore.Internal.Correction.Weighted>
   9.000000E+99

> <Gold.Protein.RotatedTorsions>
[ 6907 6896 6895 6894 ] final -116.66 input  -60.11 | X-H torsion
[ 7974 7965 7964 7962 ] final -159.47 input  175.53 | X-H torsion
[ 8008 7997 7996 7995 ] final  -86.62 input   59.86 | X-H torsion
[ 10167 10162 10161 10158 ] final -130.56 input  -65.29 | X-H torsion
[ 10718 10713 10712 10709 ] final  174.24 input   66.30 | X-H torsion
[ 10763 10752 10751 10750 ] final   32.83 input  -60.55 | X-H torsion
[ 11005 11000 10999 10996 ] final  -22.10 input  -57.11 | X-H torsion

> <Gold.Protein.ActiveResidues>
 VAL166  LYS551  ARG553  GLY616  TRP617  ASP618  TYR619  PRO620  LYS621  CYS622 
 ASP623  PHE694  ASN695  SER759  ASP760  ASP761  ALA762  ILE779  LEU786  VAL792 
 PHE793  MET794  SER795  GLU796  ALA797  LYS798  CYS799  TRP800  GLU811  SER814 

> <Gold.Protein.RotatedAtoms>
  150.8074  133.8486  159.3198 H   0  0  0  0  0  0  0  0  0  0  0  0  # atno 6907 bound_to 6896
  151.6281  135.1024  160.0125 H   0  0  0  0  0  0  0  0  0  0  0  0  # atno 6908 bound_to 6896
  152.4164  133.7006  159.6478 H   0  0  0  0  0  0  0  0  0  0  0  0  # atno 6909 bound_to 6896
  144.7464  140.3681  143.6082 H   0  0  0  0  0  0  0  0  0  0  0  0  # atno 7974 bound_to 7965
  154.6540  140.0576  156.9987 H   0  0  0  0  0  0  0  0  0  0  0  0  # atno 8008 bound_to 7997
  155.1328  140.3258  155.4451 H   0  0  0  0  0  0  0  0  0  0  0  0  # atno 8009 bound_to 7997
  156.2589  140.1977  156.6447 H   0  0  0  0  0  0  0  0  0  0  0  0  # atno 8010 bound_to 7997
  139.9280  143.6305  152.2537 H   0  0  0  0  0  0  0  0  0  0  0  0  # atno 10167 bound_to 10162
  156.9525  131.0035  151.2945 H   0  0  0  0  0  0  0  0  0  0  0  0  # atno 10718 bound_to 10713
  153.0242  135.6403  154.1417 H   0  0  0  0  0  0  0  0  0  0  0  0  # atno 10763 bound_to 10752
  154.1148  135.2850  155.3224 H   0  0  0  0  0  0  0  0  0  0  0  0  # atno 10764 bound_to 10752
  154.6306  135.5494  153.7738 H   0  0  0  0  0  0  0  0  0  0  0  0  # atno 10765 bound_to 10752
  140.8624  133.7778  156.0090 H   0  0  0  0  0  0  0  0  0  0  0  0  # atno 11005 bound_to 11000
  145.7107  139.1684  143.2540 LP  0  0  0  0  0  0  0  0  0  0  0  0  # atno 17320 bound_to 7965
  146.1349  140.7136  142.9394 LP  0  0  0  0  0  0  0  0  0  0  0  0  # atno 17321 bound_to 7965
  139.6806  144.7656  151.1616 LP  0  0  0  0  0  0  0  0  0  0  0  0  # atno 17342 bound_to 10162
  140.7645  143.5731  150.8974 LP  0  0  0  0  0  0  0  0  0  0  0  0  # atno 17343 bound_to 10162
  157.5712  130.8312  149.8394 LP  0  0  0  0  0  0  0  0  0  0  0  0  # atno 17370 bound_to 10713
  156.0357  130.3752  150.1568 LP  0  0  0  0  0  0  0  0  0  0  0  0  # atno 17371 bound_to 10713
  140.8667  134.2775  157.5209 LP  0  0  0  0  0  0  0  0  0  0  0  0  # atno 17394 bound_to 11000
  139.8707  134.9546  156.4181 LP  0  0  0  0  0  0  0  0  0  0  0  0  # atno 17395 bound_to 11000

$$$$
