#       Name:                AV-unprocessed.smi:415
#       Creating user name   scv26
#       Creation time:       Thu Mar 26 22:48:09 2020


#       File generated by GOLD software.
#

@<TRIPOS>MOLECULE
AV-unprocessed.smi:415
    61    62     1
SMALL
NO_CHARGES


@<TRIPOS>ATOM
      1 ****        -5.4014  -2.0534  -4.5162 C.3            1 S1                 0.0000
      2 ****        -5.2445  -1.4398  -3.2493 O.3            1 S1                 0.0000
      3 ****        -4.3486  -2.1483  -2.4091 C.3            1 S1                 0.0000
      4 ****        -4.2183  -1.4143  -1.0640 C.3            1 S1                 0.0000
      5 ****        -3.5771  -0.1177  -1.1806 N.am           1 S1                 0.0000
      6 ****        -4.2784   1.0810  -1.2820 C.2            1 S1                 0.0000
      7 ****        -5.6615   1.0673  -1.2966 N.pl3          1 S1                 0.0000
      8 ****        -3.6362   2.2662  -1.3803 C.2            1 S1                 0.0000
      9 ****        -2.1826   2.3559  -1.3926 C.2            1 S1                 0.0000
     10 ****        -1.5802   3.4277  -1.4595 O.2            1 S1                 0.0000
     11 ****        -1.4913   1.1250  -1.3181 N.am           1 S1                 0.0000
     12 ****        -0.0117   1.1318  -1.3177 C.3            1 S1                 0.0000
     13 ****         0.5879   1.0784   0.0949 C.2            1 S1                 0.0000
     14 ****        -0.0176   1.5556   1.0555 O.2            1 S1                 0.0000
     15 ****         1.7928   0.4980   0.1993 N.am           1 S1                 0.0000
     16 ****         2.5473   0.3275   1.4392 C.3            1 S1                 0.0000
     17 ****         2.0298  -0.9162   2.1929 C.3            1 S1                 0.0000
     18 ****         2.8394  -1.1925   3.4671 C.3            1 S1                 0.0000
     19 ****         4.3388  -1.3172   3.1552 C.3            1 S1                 0.0000
     20 ****         4.8868  -0.0748   2.4238 C.3            1 S1                 0.0000
     21 ****         5.0059   1.1366   3.3715 C.3            1 S1                 0.0000
     22 ****         4.0635   0.2026   1.1372 C.3            1 S1                 0.0000
     23 ****         4.6181   1.3932   0.3302 C.3            1 S1                 0.0000
     24 ****        -2.1593  -0.1165  -1.2148 C.2            1 S1                 0.0000
     25 ****        -1.5139  -1.1673  -1.1534 O.2            1 S1                 0.0000
     26 ****        -6.0990  -1.4728  -5.1194 H              1 S1                 0.0000
     27 ****        -5.8002  -3.0640  -4.4190 H              1 S1                 0.0000
     28 ****        -4.4523  -2.1010  -5.0520 H              1 S1                 0.0000
     29 ****        -4.7312  -3.1552  -2.2366 H              1 S1                 0.0000
     30 ****        -3.3750  -2.2516  -2.8908 H              1 S1                 0.0000
     31 ****        -5.1912  -1.2614  -0.5986 H              1 S1                 0.0000
     32 ****        -3.6491  -1.9969  -0.3375 H              1 S1                 0.0000
     33 ****        -6.1834   0.2049  -1.2353 H              1 S1                 0.0000
     34 ****        -6.1964   1.9183  -1.1970 H              1 S1                 0.0000
     35 ****        -4.2093   3.1796  -1.4535 H              1 S1                 0.0000
     36 ****         0.3699   0.2953  -1.9064 H              1 S1                 0.0000
     37 ****         0.3904   2.0120  -1.8207 H              1 S1                 0.0000
     38 ****         2.2181   0.1385  -0.6428 H              1 S1                 0.0000
     39 ****         2.3910   1.2088   2.0634 H              1 S1                 0.0000
     40 ****         0.9782  -0.7900   2.4533 H              1 S1                 0.0000
     41 ****         2.0806  -1.7886   1.5396 H              1 S1                 0.0000
     42 ****         2.6717  -0.3938   4.1901 H              1 S1                 0.0000
     43 ****         2.4833  -2.1088   3.9384 H              1 S1                 0.0000
     44 ****         4.8978  -1.4936   4.0745 H              1 S1                 0.0000
     45 ****         4.4988  -2.1987   2.5330 H              1 S1                 0.0000
     46 ****         5.9037  -0.3182   2.1129 H              1 S1                 0.0000
     47 ****         4.0332   1.4982   3.7033 H              1 S1                 0.0000
     48 ****         5.5228   1.9691   2.8946 H              1 S1                 0.0000
     49 ****         5.5791   0.8777   4.2620 H              1 S1                 0.0000
     50 ****         4.1882  -0.6753   0.5007 H              1 S1                 0.0000
     51 ****         4.4295   2.3419   0.8326 H              1 S1                 0.0000
     52 ****         4.1631   1.4524  -0.6587 H              1 S1                 0.0000
     53 ****         5.6942   1.2995   0.1827 H              1 S1                 0.0000
     54 ****        -6.1375  -1.3964  -2.8014 LP             1 S1                 0.0000
     55 ****        -4.8933  -0.5131  -3.3833 LP             1 S1                 0.0000
     56 ****        -2.0908   4.2861  -1.5084 LP             1 S1                 0.0000
     57 ****        -0.5802   3.4397  -1.4650 LP             1 S1                 0.0000
     58 ****        -0.9108   1.9844   0.9205 LP             1 S1                 0.0000
     59 ****         0.3841   1.5142   1.9703 LP             1 S1                 0.0000
     60 ****        -1.9905  -2.0432  -1.0778 LP             1 S1                 0.0000
     61 ****        -0.5145  -1.1425  -1.1793 LP             1 S1                 0.0000
@<TRIPOS>BOND
    1    1    2 1     
    2    1   26 1     
    3    1   27 1     
    4    1   28 1     
    5    2    3 1     
    6    3    4 1     
    7    3   29 1     
    8    3   30 1     
    9    4    5 1     
   10    4   31 1     
   11    4   32 1     
   12    5   24 am    
   13    5    6 1     
   14    6    7 1     
   15    6    8 2     
   16    7   33 1     
   17    7   34 1     
   18    8    9 1     
   19    8   35 1     
   20    9   10 2     
   21    9   11 am    
   22   11   12 1     
   23   11   24 am    
   24   12   13 1     
   25   12   36 1     
   26   12   37 1     
   27   13   14 2     
   28   13   15 am    
   29   15   16 1     
   30   15   38 1     
   31   16   22 1     
   32   16   17 1     
   33   16   39 1     
   34   17   18 1     
   35   17   40 1     
   36   17   41 1     
   37   18   19 1     
   38   18   42 1     
   39   18   43 1     
   40   19   20 1     
   41   19   44 1     
   42   19   45 1     
   43   20   21 1     
   44   20   22 1     
   45   20   46 1     
   46   21   47 1     
   47   21   48 1     
   48   21   49 1     
   49   22   23 1     
   50   22   50 1     
   51   23   51 1     
   52   23   52 1     
   53   23   53 1     
   54   24   25 2     
   55    2   54 1     
   56    2   55 1     
   57   10   56 1     
   58   10   57 1     
   59   14   58 1     
   60   14   59 1     
   61   25   60 1     
   62   25   61 1     
@<TRIPOS>SUBSTRUCTURE
      1 S1             1
@<TRIPOS>SET
LONE_PAIRS      STATIC     ATOMS    <user>   **** ""
8 54 55 56 57 58 59 60 61
DONOR_HYDROGENS      STATIC     ATOMS    <user>   **** ""
3 33 34 38
ATOM$BLUE        STATIC     ATOMS    COLORGROUP SYSTEM
8 54 55 56 57 58 59 60 61
ATOM$RED        STATIC     ATOMS    COLORGROUP SYSTEM
3 33 34 38
