#       Name:                AV-unprocessed.smi:3307
#       Creating user name   scv26
#       Creation time:       Fri Mar 27 19:04:07 2020


#       File generated by GOLD software.
#

@<TRIPOS>MOLECULE
AV-unprocessed.smi:3307
    32    33     1
SMALL
NO_CHARGES


@<TRIPOS>ATOM
      1 ****        -3.7165   1.6561   1.1797 C.3            1 S1                 0.0000
      2 ****        -2.6612   0.5926   1.1030 C.2            1 S1                 0.0000
      3 ****        -2.8343  -0.8163   1.0055 C.2            1 S1                 0.0000
      4 ****        -1.5613  -1.3113   0.9681 C.2            1 S1                 0.0000
      5 ****        -1.0800  -2.7216   0.8705 C.3            1 S1                 0.0000
      6 ****        -0.7069  -0.2256   1.0392 N.pl3          1 S1                 0.0000
      7 ****         0.7468  -0.1993   1.0284 C.3            1 S1                 0.0000
      8 ****         1.3244  -0.2037  -0.3993 C.3            1 S1                 0.0000
      9 ****         0.8459   0.9385  -1.3018 C.3            1 S1                 0.0000
     10 ****         1.9547   1.0329  -2.3426 C.3            1 S1                 0.0000
     11 ****         3.2200   0.7267  -1.5381 C.3            1 S1                 0.0000
     12 ****         2.7980  -0.1111  -0.3970 N.4            1 S1                 1.0000
     13 ****        -1.3849   0.9392   1.1233 N.2            1 S1                 0.0000
     14 ****        -4.7159   1.2207   1.1784 H              1 S1                 0.0000
     15 ****        -3.6508   2.3368   0.3307 H              1 S1                 0.0000
     16 ****        -3.6140   2.2464   2.0906 H              1 S1                 0.0000
     17 ****        -3.7556  -1.3789   0.9693 H              1 S1                 0.0000
     18 ****        -1.9191  -3.4162   0.8279 H              1 S1                 0.0000
     19 ****        -0.4723  -2.9863   1.7359 H              1 S1                 0.0000
     20 ****        -0.4793  -2.8681  -0.0267 H              1 S1                 0.0000
     21 ****         1.0832   0.6872   1.5688 H              1 S1                 0.0000
     22 ****         1.1154  -1.0584   1.5897 H              1 S1                 0.0000
     23 ****         1.0716  -1.1464  -0.8866 H              1 S1                 0.0000
     24 ****        -0.1340   0.7496  -1.7419 H              1 S1                 0.0000
     25 ****         0.7889   1.8711  -0.7382 H              1 S1                 0.0000
     26 ****         1.8076   0.2693  -3.1076 H              1 S1                 0.0000
     27 ****         1.9914   2.0034  -2.8383 H              1 S1                 0.0000
     28 ****         3.9806   0.2274  -2.1387 H              1 S1                 0.0000
     29 ****         3.6514   1.6482  -1.1460 H              1 S1                 0.0000
     30 ****         3.1054   0.3322   0.4568 H              1 S1                 0.0000
     31 ****         3.2009  -1.0349  -0.4635 H              1 S1                 0.0000
     32 ****        -1.0051   1.8621   1.1870 LP             1 S1                 0.0000
@<TRIPOS>BOND
    1    1    2 1     
    2    1   14 1     
    3    1   15 1     
    4    1   16 1     
    5    2   13 2     
    6    2    3 1     
    7    3    4 2     
    8    3   17 1     
    9    4    5 1     
   10    4    6 1     
   11    5   18 1     
   12    5   19 1     
   13    5   20 1     
   14    6    7 1     
   15    6   13 1     
   16    7    8 1     
   17    7   21 1     
   18    7   22 1     
   19    8   12 1     
   20    8    9 1     
   21    8   23 1     
   22    9   10 1     
   23    9   24 1     
   24    9   25 1     
   25   10   11 1     
   26   10   26 1     
   27   10   27 1     
   28   11   12 1     
   29   11   28 1     
   30   11   29 1     
   31   12   30 1     
   32   12   31 1     
   33   13   32 1     
@<TRIPOS>SUBSTRUCTURE
      1 S1             1
@<TRIPOS>SET
LONE_PAIRS      STATIC     ATOMS    <user>   **** ""
1 32
DONOR_HYDROGENS      STATIC     ATOMS    <user>   **** ""
2 30 31
ATOM$BLUE        STATIC     ATOMS    COLORGROUP SYSTEM
1 32
ATOM$RED        STATIC     ATOMS    COLORGROUP SYSTEM
2 30 31
