AV-unprocessed.smi:2291|AV-procd|sdf|9212|dock8
  -GOLD-   2272012433D 1   1.00000     0.00000
 Structure written by MMmdl.
 44 46  0  0  0  0  0  0  0  0  1 V2000
  148.7714  135.2943  156.5902 O   0  0  0  0  0  0  0  0  0  0  0  0
  148.7570  135.5702  155.3899 C   0  0  0  0  0  0  0  0  0  0  0  0
  149.0850  136.7633  154.8641 N   0  0  0  0  0  0  0  0  0  0  0  0
  149.4808  137.9442  155.5468 C   0  0  0  0  0  0  0  0  0  0  0  0
  149.4751  139.1193  154.7616 C   0  0  0  0  0  0  0  0  0  0  0  0
  149.8471  140.3456  155.3459 C   0  0  0  0  0  0  0  0  0  0  0  0
  150.2172  140.3632  156.7025 C   0  0  0  0  0  0  0  0  0  0  0  0
  150.6810  141.8349  157.4740 Cl  0  0  0  0  0  0  0  0  0  0  0  0
  150.1986  139.1490  157.4136 C   0  0  0  0  0  0  0  0  0  0  0  0
  149.8418  137.9732  156.8545 N   0  0  0  0  0  0  0  0  0  0  0  0
  148.3984  134.7002  154.4293 N   0  0  0  0  0  0  0  0  0  0  0  0
  147.9321  133.3179  154.6072 C   0  0  0  0  0  0  0  0  0  0  0  0
  147.3159  132.8076  153.2756 C   0  0  0  0  0  0  0  0  0  0  0  0
  146.9285  131.6405  153.1983 O   0  0  0  0  0  0  0  0  0  0  0  0
  147.2563  133.6496  152.2312 N   0  0  0  0  0  0  0  0  0  0  0  0
  146.7357  133.3160  150.9124 C   0  0  0  0  0  0  0  0  0  0  0  0
  145.2389  133.0772  150.8572 C   0  0  0  0  0  0  0  0  0  0  0  0
  144.6612  131.6896  151.0173 C   0  0  0  0  0  0  0  0  0  0  0  0
  144.6227  132.3719  149.6716 C   0  0  0  0  0  0  0  0  0  0  0  0
  149.1549  132.4317  154.9922 C   0  0  0  0  0  0  0  0  0  0  0  0
  148.8786  131.8315  156.3751 C   0  0  0  0  0  0  0  0  0  0  0  0
  147.3659  131.8918  156.5334 C   0  0  0  0  0  0  0  0  0  0  0  0
  146.9963  133.2033  155.8485 C   0  0  0  0  0  0  0  0  0  0  0  0
  149.0251  136.8422  153.8598 H   0  0  0  0  0  0  0  0  0  0  0  0
  149.1863  139.0872  153.7209 H   0  0  0  0  0  0  0  0  0  0  0  0
  149.8469  141.2542  154.7621 H   0  0  0  0  0  0  0  0  0  0  0  0
  150.4762  139.1189  158.4569 H   0  0  0  0  0  0  0  0  0  0  0  0
  148.4212  135.0325  153.4767 H   0  0  0  0  0  0  0  0  0  0  0  0
  147.6116  134.5863  152.3585 H   0  0  0  0  0  0  0  0  0  0  0  0
  146.9712  134.1474  150.2479 H   0  0  0  0  0  0  0  0  0  0  0  0
  147.2630  132.4479  150.5128 H   0  0  0  0  0  0  0  0  0  0  0  0
  144.6503  133.8952  151.2686 H   0  0  0  0  0  0  0  0  0  0  0  0
  145.3561  130.8610  151.1407 H   0  0  0  0  0  0  0  0  0  0  0  0
  143.7257  131.5979  151.5651 H   0  0  0  0  0  0  0  0  0  0  0  0
  143.6587  132.7319  149.3179 H   0  0  0  0  0  0  0  0  0  0  0  0
  145.2922  131.9965  148.8999 H   0  0  0  0  0  0  0  0  0  0  0  0
  149.3064  131.6113  154.2885 H   0  0  0  0  0  0  0  0  0  0  0  0
  150.0922  132.9902  155.0042 H   0  0  0  0  0  0  0  0  0  0  0  0
  149.2703  130.8191  156.4794 H   0  0  0  0  0  0  0  0  0  0  0  0
  149.3493  132.4483  157.1419 H   0  0  0  0  0  0  0  0  0  0  0  0
  146.8999  131.0540  156.0128 H   0  0  0  0  0  0  0  0  0  0  0  0
  147.0512  131.8587  157.5768 H   0  0  0  0  0  0  0  0  0  0  0  0
  147.2041  134.0164  156.5464 H   0  0  0  0  0  0  0  0  0  0  0  0
  145.9290  133.2654  155.6373 H   0  0  0  0  0  0  0  0  0  0  0  0
  1  2  2  0  0  0  0
  2  3  1  0  0  0  0
  2 11  1  0  0  0  0
  3  4  1  0  0  0  0
  3 24  1  0  0  0  0
  4 10  1  0  0  0  0
  4  5  2  0  0  0  0
  5  6  1  0  0  0  0
  5 25  1  0  0  0  0
  6  7  2  0  0  0  0
  6 26  1  0  0  0  0
  7  8  1  0  0  0  0
  7  9  1  0  0  0  0
  9 10  2  0  0  0  0
  9 27  1  0  0  0  0
 11 12  1  0  0  0  0
 11 28  1  0  0  0  0
 12 23  1  0  0  0  0
 12 13  1  0  0  0  0
 12 20  1  0  0  0  0
 13 14  2  0  0  0  0
 13 15  1  0  0  0  0
 15 16  1  0  0  0  0
 15 29  1  0  0  0  0
 16 17  1  0  0  0  0
 16 30  1  0  0  0  0
 16 31  1  0  0  0  0
 17 19  1  0  0  0  0
 17 18  1  0  0  0  0
 17 32  1  0  0  0  0
 18 19  1  0  0  0  0
 18 33  1  0  0  0  0
 18 34  1  0  0  0  0
 19 35  1  0  0  0  0
 19 36  1  0  0  0  0
 20 21  1  0  0  0  0
 20 37  1  0  0  0  0
 20 38  1  0  0  0  0
 21 22  1  0  0  0  0
 21 39  1  0  0  0  0
 21 40  1  0  0  0  0
 22 23  1  0  0  0  0
 22 41  1  0  0  0  0
 22 42  1  0  0  0  0
 23 43  1  0  0  0  0
 23 44  1  0  0  0  0
M  END
> <s_m_source_file>
AV-unprocessed.smi

> <i_m_source_file_index>
2291

> <i_lp_mmshare_version>
43012

> <i_f3d_flags>
0

> <s_epik_input>
bjFbY0hdYyhDbClbY0hdW2NIXWMxW05IXUMoPU8pW05IXUMyKFtDSDJdW0NIMl1bQ0gyXVtDSDJdMilDKD1PKVtOSF1bQ0gyXVtDSF0zW0NIMl1bQ0gyXTM=

> <s_epik_cmdline>
J2VwaWtfcHl0aG9uJywgJy1waCcsICc3LjAnLCAnLXRuJywgJzgnLCAnLW1hJywgJzIwMCcsICctbWV0YWxfYmluZGluZycsICctaW1hZScsICc8aW5maWxlLm1hZT4nLCAnLW9tYWUnLCAnPG91dGZpbGUubWFlPic=

> <r_lp_tautomer_probability>
1

> <r_epik_Ionization_Penalty>
3.27384e-05

> <r_epik_Ionization_Penalty_Charging>
0

> <r_epik_Ionization_Penalty_Neutral>
3.27384e-05

> <r_epik_State_Penalty>
-0

> <r_epik_Charging_Adjusted_Penalty>
0

> <i_epik_Tot_Q>
0

> <i_epik_Tot_abs_Q>
0

> <r_epik_Metal_State_Penalty>
-0

> <b_epik_Metal_Only>
0

> <s_lp_Force_Field>
OPLS_2005

> <r_lp_Energy>
31.8647

> <b_lp_Chiralities_Consistent>
1

> <s_lp_Variant>
AV-unprocessed.smi:2291-1

> <Gold.Version>
5.8.1

> <Gold.Id.Protein>
6NUR|6NUR_protein|mol2

> <Gold.PLP.Fitness>
44.0163

> <Gold.PLP.PLP>
-35.7302

> <Gold.PLP.part.hbond>
-3.0000

> <Gold.PLP.part.metal>
0.0000

> <Gold.PLP.part.buried>
-3.5750

> <Gold.PLP.part.nonpolar>
-27.8420

> <Gold.PLP.part.repulsive>
0.1806

> <Gold.PLP.ligand.clash>
0.0000

> <Gold.PLP.ligand.torsion>
0.6803

> <Gold.PLP.Chemscore.Hbond>
3.0000

> <Gold.PLP.Chemscore.CHOScore>
0.0000

> <Gold.PLP.Chemscore.Metal>
0.0000

> <Gold.Chemscore.Hbonds>
donor molecule, donor type, donor heavy atom, donor atom, acceptor molecule, acceptor atom, score
      L1  H     3    24       P1  7948  0.89
      L1  H    11    28       P1  7948  0.94
      L1  H    15    29       P1  7948  0.73

> <Gold.PLP.Chemscore.Internal.Correction>
0.6467

> <Gold.Rescore>
     Score         DG    S(hbond)    S(metal)    S(lipo)     H(rot)  DE(clash)    DE(int)     intcor
     15.48     -18.60       2.40        0.00      80.92       1.71       0.06       3.06       ----

> <Gold.Chemscore.Fitness>
15.4762

> <Gold.Chemscore.DG>
-18.5992

> <Gold.Chemscore.ZeroCoef>
-5.4800

> <Gold.Chemscore.Hbond>
2.4008

> <Gold.Chemscore.Metal>
0.0000

> <Gold.Chemscore.Lipo>
80.9190

> <Gold.Chemscore.Internal_Hbond>
0.0000

> <Gold.Chemscore.DEClash>
0.0630

> <Gold.Chemscore.DEInternal>
3.0601

> <Gold.Chemscore.Rot>
1.7059

> <Gold.Chemscore.Internal.Correction>
   9.000000E+99

> <Gold.Chemscore.Hbonds>
donor molecule, donor type, donor heavy atom, donor atom, acceptor molecule, acceptor atom, score
      L1  H     3    24       P1  7948  0.85
      L1  H    11    28       P1  7948  0.79
      L1  H    15    29       P1  7948  0.52

> <Gold.Chemscore.Hbond.Weighted>
-8.0188

> <Gold.Chemscore.Metal.Weighted>
-0.0000

> <Gold.Chemscore.Lipo.Weighted>
-9.4675

> <Gold.Chemscore.Internal_Hbond.Weighted>
0.0000

> <Gold.Chemscore.DEClash.Weighted>
0.0630

> <Gold.Chemscore.DEInternal.Weighted>
3.0601

> <Gold.Chemscore.Rot.Weighted>
4.3671

> <Gold.Chemscore.Internal.Correction.Weighted>
   9.000000E+99

> <Gold.Protein.RotatedTorsions>
[ 6907 6896 6895 6894 ] final   -0.24 input  -60.11 | X-H torsion
[ 7974 7965 7964 7962 ] final   72.77 input  175.53 | X-H torsion
[ 8008 7997 7996 7995 ] final   10.50 input   59.86 | X-H torsion
[ 10167 10162 10161 10158 ] final  -57.48 input  -65.29 | X-H torsion
[ 10718 10713 10712 10709 ] final  165.98 input   66.30 | X-H torsion
[ 10763 10752 10751 10750 ] final  -11.22 input  -60.55 | X-H torsion
[ 11005 11000 10999 10996 ] final   41.82 input  -57.11 | X-H torsion

> <Gold.Protein.ActiveResidues>
 VAL166  LYS551  ARG553  GLY616  TRP617  ASP618  TYR619  PRO620  LYS621  CYS622 
 ASP623  PHE694  ASN695  SER759  ASP760  ASP761  ALA762  ILE779  LEU786  VAL792 
 PHE793  MET794  SER795  GLU796  ALA797  LYS798  CYS799  TRP800  GLU811  SER814 

> <Gold.Protein.RotatedAtoms>
  151.5654  135.1064  159.9982 H   0  0  0  0  0  0  0  0  0  0  0  0  # atno 6907 bound_to 6896
  152.4426  133.7473  159.6685 H   0  0  0  0  0  0  0  0  0  0  0  0  # atno 6908 bound_to 6896
  150.8335  133.7983  159.3112 H   0  0  0  0  0  0  0  0  0  0  0  0  # atno 6909 bound_to 6896
  145.7492  139.2753  143.1441 H   0  0  0  0  0  0  0  0  0  0  0  0  # atno 7974 bound_to 7965
  154.7942  140.2841  155.5969 H   0  0  0  0  0  0  0  0  0  0  0  0  # atno 8008 bound_to 7997
  156.2968  140.2599  156.2725 H   0  0  0  0  0  0  0  0  0  0  0  0  # atno 8009 bound_to 7997
  154.9634  140.0377  157.2190 H   0  0  0  0  0  0  0  0  0  0  0  0  # atno 8010 bound_to 7997
  140.6255  143.2437  151.5373 H   0  0  0  0  0  0  0  0  0  0  0  0  # atno 10167 bound_to 10162
  157.0724  131.0370  151.2606 H   0  0  0  0  0  0  0  0  0  0  0  0  # atno 10718 bound_to 10713
  153.4806  135.7017  153.5940 H   0  0  0  0  0  0  0  0  0  0  0  0  # atno 10763 bound_to 10752
  153.4155  135.3838  155.2078 H   0  0  0  0  0  0  0  0  0  0  0  0  # atno 10764 bound_to 10752
  154.8722  135.3915  154.4255 H   0  0  0  0  0  0  0  0  0  0  0  0  # atno 10765 bound_to 10752
  140.1797  134.4118  155.8207 H   0  0  0  0  0  0  0  0  0  0  0  0  # atno 11005 bound_to 11000
  146.0373  140.8200  142.9846 LP  0  0  0  0  0  0  0  0  0  0  0  0  # atno 17320 bound_to 7965
  144.6853  140.2857  143.7285 LP  0  0  0  0  0  0  0  0  0  0  0  0  # atno 17321 bound_to 7965
  139.5476  144.2479  152.1472 LP  0  0  0  0  0  0  0  0  0  0  0  0  # atno 17342 bound_to 10162
  140.1709  144.4936  150.6580 LP  0  0  0  0  0  0  0  0  0  0  0  0  # atno 17343 bound_to 10162
  157.4867  130.7797  149.7467 LP  0  0  0  0  0  0  0  0  0  0  0  0  # atno 17370 bound_to 10713
  155.9946  130.3917  150.2850 LP  0  0  0  0  0  0  0  0  0  0  0  0  # atno 17371 bound_to 10713
  141.2222  133.6995  156.7910 LP  0  0  0  0  0  0  0  0  0  0  0  0  # atno 17394 bound_to 11000
  140.2281  134.8706  157.3448 LP  0  0  0  0  0  0  0  0  0  0  0  0  # atno 17395 bound_to 11000

$$$$
