AV-unprocessed.smi:1644|AV-procd|sdf|6595|dock2
  -GOLD-   22720 7293D 1   1.00000     0.00000
 Structure written by MMmdl.
 48 50  0  0  0  0  0  0  0  0  2 V2000
  147.2606  134.4471  160.3830 C   0  0  0  0  0  0  0  0  0  0  0  0
  148.1210  135.2309  159.3864 C   0  0  0  0  0  0  0  0  0  0  0  0
  148.7895  136.4649  160.0301 C   0  0  0  0  0  0  0  0  0  0  0  0
  149.6813  137.3220  159.0986 C   0  0  1  0  0  0  0  0  0  0  0  0
  150.7545  136.5436  158.5166 N   0  5  0  0  0  0  0  0  0  0  0  0
  150.6673  136.6367  157.1687 C   0  0  0  0  0  0  0  0  0  0  0  0
  151.4071  136.0983  156.3454 O   0  0  0  0  0  0  0  0  0  0  0  0
  149.6270  137.4105  156.8008 N   0  0  0  0  0  0  0  0  0  0  0  0
  149.2269  137.6839  155.4169 C   0  0  0  0  0  0  0  0  0  0  0  0
  150.3395  138.4121  154.6348 C   0  0  1  0  0  0  0  0  0  0  0  0
  149.9886  138.4480  153.2644 O   0  0  0  0  0  0  0  0  0  0  0  0
  150.5263  139.8596  155.1272 C   0  0  0  0  0  0  0  0  0  0  0  0
  151.3936  139.9429  156.2884 N   0  0  0  0  0  0  0  0  0  0  0  0
  152.3741  139.0883  156.6382 C   0  0  0  0  0  0  0  0  0  0  0  0
  153.0535  139.3628  157.7486 N   0  0  0  0  0  0  0  0  0  0  0  0
  152.4402  140.5308  158.1687 C   0  0  0  0  0  0  0  0  0  0  0  0
  152.6907  141.3443  159.2957 C   0  0  0  0  0  0  0  0  0  0  0  0
  151.9282  142.5108  159.5313 C   0  0  0  0  0  0  0  0  0  0  0  0
  152.2307  143.3561  160.7561 C   0  0  0  0  0  0  0  0  0  0  0  0
  150.8965  142.8797  158.6307 C   0  0  0  0  0  0  0  0  0  0  0  0
  150.0622  144.1268  158.8636 C   0  0  0  0  0  0  0  0  0  0  0  0
  150.6342  142.0789  157.4995 C   0  0  0  0  0  0  0  0  0  0  0  0
  151.3991  140.9206  157.2766 C   0  0  0  0  0  0  0  0  0  0  0  0
  148.9684  137.8583  157.8737 C   0  0  0  0  0  0  0  0  0  0  0  0
  147.9626  138.5685  157.9027 O   0  0  0  0  0  0  0  0  0  0  0  0
  146.8014  133.5829  159.9026 H   0  0  0  0  0  0  0  0  0  0  0  0
  146.4605  135.0685  160.7861 H   0  0  0  0  0  0  0  0  0  0  0  0
  147.8585  134.0843  161.2193 H   0  0  0  0  0  0  0  0  0  0  0  0
  148.8827  134.5661  158.9780 H   0  0  0  0  0  0  0  0  0  0  0  0
  147.4947  135.5334  158.5468 H   0  0  0  0  0  0  0  0  0  0  0  0
  148.0119  137.1041  160.4503 H   0  0  0  0  0  0  0  0  0  0  0  0
  149.3890  136.1389  160.8811 H   0  0  0  0  0  0  0  0  0  0  0  0
  150.0671  138.1716  159.6635 H   0  0  0  0  0  0  0  0  0  0  0  0
  148.9206  136.7709  154.9030 H   0  0  0  0  0  0  0  0  0  0  0  0
  148.3310  138.3065  155.4454 H   0  0  0  0  0  0  0  0  0  0  0  0
  151.2851  137.8783  154.7392 H   0  0  0  0  0  0  0  0  0  0  0  0
  150.1943  139.3049  152.9241 H   0  0  0  0  0  0  0  0  0  0  0  0
  150.9357  140.4866  154.3335 H   0  0  0  0  0  0  0  0  0  0  0  0
  149.5621  140.2906  155.3998 H   0  0  0  0  0  0  0  0  0  0  0  0
  152.6011  138.2145  156.0450 H   0  0  0  0  0  0  0  0  0  0  0  0
  153.4764  141.0624  159.9812 H   0  0  0  0  0  0  0  0  0  0  0  0
  152.5440  144.3574  160.4600 H   0  0  0  0  0  0  0  0  0  0  0  0
  153.0300  142.9187  161.3549 H   0  0  0  0  0  0  0  0  0  0  0  0
  151.3477  143.4423  161.3896 H   0  0  0  0  0  0  0  0  0  0  0  0
  149.3329  144.2723  158.0660 H   0  0  0  0  0  0  0  0  0  0  0  0
  150.6977  145.0118  158.9005 H   0  0  0  0  0  0  0  0  0  0  0  0
  149.5174  144.0508  159.8048 H   0  0  0  0  0  0  0  0  0  0  0  0
  149.8495  142.3455  156.8064 H   0  0  0  0  0  0  0  0  0  0  0  0
  1  2  1  0  0  0  0
  1 26  1  0  0  0  0
  1 27  1  0  0  0  0
  1 28  1  0  0  0  0
  2  3  1  0  0  0  0
  2 29  1  0  0  0  0
  2 30  1  0  0  0  0
  3  4  1  0  0  0  0
  3 31  1  0  0  0  0
  3 32  1  0  0  0  0
  4 24  1  0  0  0  0
  4  5  1  0  0  0  0
  4 33  1  0  0  0  0
  5  6  1  0  0  0  0
  6  7  2  0  0  0  0
  6  8  1  0  0  0  0
  8  9  1  0  0  0  0
  8 24  1  0  0  0  0
  9 10  1  0  0  0  0
  9 34  1  0  0  0  0
  9 35  1  0  0  0  0
 10 11  1  0  0  0  0
 10 12  1  0  0  0  0
 10 36  1  0  0  0  0
 11 37  1  0  0  0  0
 12 13  1  0  0  0  0
 12 38  1  0  0  0  0
 12 39  1  0  0  0  0
 13 23  1  0  0  0  0
 13 14  1  0  0  0  0
 14 15  2  0  0  0  0
 14 40  1  0  0  0  0
 15 16  1  0  0  0  0
 16 23  2  0  0  0  0
 16 17  1  0  0  0  0
 17 18  2  0  0  0  0
 17 41  1  0  0  0  0
 18 19  1  0  0  0  0
 18 20  1  0  0  0  0
 19 42  1  0  0  0  0
 19 43  1  0  0  0  0
 19 44  1  0  0  0  0
 20 21  1  0  0  0  0
 20 22  2  0  0  0  0
 21 45  1  0  0  0  0
 21 46  1  0  0  0  0
 21 47  1  0  0  0  0
 22 23  1  0  0  0  0
 22 48  1  0  0  0  0
 24 25  2  0  0  0  0
M  CHG  1   5  -1
M  END
> <s_m_source_file>
AV-unprocessed.smi

> <i_m_source_file_index>
1644

> <i_lp_mmshare_version>
43012

> <i_f3d_flags>
0

> <s_epik_input>
W0NIM11bQ0gyXVtDSDJdW0NAQEhdMVtOSF1DKD1PKU4oQzE9TylbQ0gyXVtDQEhdKFtPSF0pW0NIMl1uKFtjSF1uMiljKGMyMylbY0hdYyhbQ0gzXSljKFtjSF0zKVtDSDNd

> <s_epik_cmdline>
J2VwaWtfcHl0aG9uJywgJy1waCcsICc3LjAnLCAnLXRuJywgJzgnLCAnLW1hJywgJzIwMCcsICctbWV0YWxfYmluZGluZycsICctaW1hZScsICc8aW5maWxlLm1hZT4nLCAnLW9tYWUnLCAnPG91dGZpbGUubWFlPic=

> <r_lp_tautomer_probability>
1

> <r_epik_Ionization_Penalty>
5.95212

> <r_epik_Ionization_Penalty_Charging>
5.84419

> <r_epik_Ionization_Penalty_Neutral>
0.107924

> <r_epik_State_Penalty>
5.94088

> <r_epik_Charging_Adjusted_Penalty>
11.7851

> <i_epik_Tot_Q>
-1

> <i_epik_Tot_abs_Q>
1

> <r_epik_Metal_State_Penalty>
1.99095

> <b_epik_Metal_Only>
1

> <s_lp_Force_Field>
OPLS_2005

> <r_lp_Energy>
19.6047

> <b_lp_Chiralities_Consistent>
1

> <s_lp_Variant>
AV-unprocessed.smi:1644-12

> <Gold.Version>
5.8.1

> <Gold.Id.Protein>
6NUR|6NUR_protein|mol2

> <Gold.PLP.Fitness>
50.2120

> <Gold.PLP.PLP>
-39.7425

> <Gold.PLP.part.hbond>
-4.5854

> <Gold.PLP.part.metal>
0.0000

> <Gold.PLP.part.buried>
-3.0103

> <Gold.PLP.part.nonpolar>
-31.7508

> <Gold.PLP.part.repulsive>
0.0089

> <Gold.PLP.ligand.clash>
0.0000

> <Gold.PLP.ligand.torsion>
0.6731

> <Gold.PLP.Chemscore.Hbond>
3.8738

> <Gold.PLP.Chemscore.CHOScore>
0.0000

> <Gold.PLP.Chemscore.Metal>
0.0000

> <Gold.Chemscore.Hbonds>
donor molecule, donor type, donor heavy atom, donor atom, acceptor molecule, acceptor atom, score
      L1  H    11    37       P1  7957  0.51
      P1  H  6896  6908       L1     5  1.79
      P1  H  7997  8009       L1    15  1.00
      P1  H 10752 10763       L1     7  0.47

> <Gold.PLP.Chemscore.Internal.Correction>
0.1945

> <Gold.Rescore>
     Score         DG    S(hbond)    S(metal)    S(lipo)     H(rot)  DE(clash)    DE(int)     intcor
     16.75     -17.78       2.27        0.00      98.34       2.65       0.20       0.83       ----

> <Gold.Chemscore.Fitness>
16.7485

> <Gold.Chemscore.DG>
-17.7790

> <Gold.Chemscore.ZeroCoef>
-5.4800

> <Gold.Chemscore.Hbond>
2.2674

> <Gold.Chemscore.Metal>
0.0000

> <Gold.Chemscore.Lipo>
98.3439

> <Gold.Chemscore.Internal_Hbond>
0.0000

> <Gold.Chemscore.DEClash>
0.2042

> <Gold.Chemscore.DEInternal>
0.8263

> <Gold.Chemscore.Rot>
2.6486

> <Gold.Chemscore.Internal.Correction>
   9.000000E+99

> <Gold.Chemscore.Hbonds>
donor molecule, donor type, donor heavy atom, donor atom, acceptor molecule, acceptor atom, score
      L1  H    11    37       P1  7957  0.45
      P1  H  6896  6908       L1     5  0.47
      P1  H  7997  8009       L1    15  0.12
      P1  H 10752 10763       L1     7  0.46

> <Gold.Chemscore.Hbond.Weighted>
-7.5732

> <Gold.Chemscore.Metal.Weighted>
-0.0000

> <Gold.Chemscore.Lipo.Weighted>
-11.5062

> <Gold.Chemscore.Internal_Hbond.Weighted>
0.0000

> <Gold.Chemscore.DEClash.Weighted>
0.2042

> <Gold.Chemscore.DEInternal.Weighted>
0.8263

> <Gold.Chemscore.Rot.Weighted>
6.7804

> <Gold.Chemscore.Internal.Correction.Weighted>
   9.000000E+99

> <Gold.Protein.RotatedTorsions>
[ 6907 6896 6895 6894 ] final -150.86 input  -60.11 | X-H torsion
[ 7974 7965 7964 7962 ] final   64.90 input  175.53 | X-H torsion
[ 8008 7997 7996 7995 ] final  147.92 input   59.86 | X-H torsion
[ 10167 10162 10161 10158 ] final  -59.78 input  -65.29 | X-H torsion
[ 10718 10713 10712 10709 ] final -153.74 input   66.30 | X-H torsion
[ 10763 10752 10751 10750 ] final   84.22 input  -60.55 | X-H torsion
[ 11005 11000 10999 10996 ] final  147.84 input  -57.11 | X-H torsion

> <Gold.Protein.ActiveResidues>
 VAL166  LYS551  ARG553  GLY616  TRP617  ASP618  TYR619  PRO620  LYS621  CYS622 
 ASP623  PHE694  ASN695  SER759  ASP760  ASP761  ALA762  ILE779  LEU786  VAL792 
 PHE793  MET794  SER795  GLU796  ALA797  LYS798  CYS799  TRP800  GLU811  SER814 

> <Gold.Protein.RotatedAtoms>
  151.2047  133.4590  159.2596 H   0  0  0  0  0  0  0  0  0  0  0  0  # atno 6907 bound_to 6896
  151.1034  134.9985  159.8470 H   0  0  0  0  0  0  0  0  0  0  0  0  # atno 6908 bound_to 6896
  152.5445  134.1972  159.8750 H   0  0  0  0  0  0  0  0  0  0  0  0  # atno 6909 bound_to 6896
  145.8448  139.3218  143.0910 H   0  0  0  0  0  0  0  0  0  0  0  0  # atno 7974 bound_to 7965
  156.2809  140.2142  156.5615 H   0  0  0  0  0  0  0  0  0  0  0  0  # atno 8008 bound_to 7997
  154.7209  140.0503  157.0661 H   0  0  0  0  0  0  0  0  0  0  0  0  # atno 8009 bound_to 7997
  155.0480  140.3153  155.4705 H   0  0  0  0  0  0  0  0  0  0  0  0  # atno 8010 bound_to 7997
  140.6113  143.2388  151.5702 H   0  0  0  0  0  0  0  0  0  0  0  0  # atno 10167 bound_to 10162
  156.4899  130.8342  151.2566 H   0  0  0  0  0  0  0  0  0  0  0  0  # atno 10718 bound_to 10713
  153.1362  135.4662  154.9425 H   0  0  0  0  0  0  0  0  0  0  0  0  # atno 10763 bound_to 10752
  154.7707  135.3158  154.8197 H   0  0  0  0  0  0  0  0  0  0  0  0  # atno 10764 bound_to 10752
  153.8729  135.6902  153.4827 H   0  0  0  0  0  0  0  0  0  0  0  0  # atno 10765 bound_to 10752
  140.0909  134.9041  157.1650 H   0  0  0  0  0  0  0  0  0  0  0  0  # atno 11005 bound_to 11000
  145.9424  140.8970  143.0301 LP  0  0  0  0  0  0  0  0  0  0  0  0  # atno 17320 bound_to 7965
  144.6731  140.1567  143.7425 LP  0  0  0  0  0  0  0  0  0  0  0  0  # atno 17321 bound_to 7965
  139.5364  144.2770  152.1259 LP  0  0  0  0  0  0  0  0  0  0  0  0  # atno 17342 bound_to 10162
  140.1970  144.4695  150.6450 LP  0  0  0  0  0  0  0  0  0  0  0  0  # atno 17343 bound_to 10162
  157.7475  131.0017  150.2973 LP  0  0  0  0  0  0  0  0  0  0  0  0  # atno 17370 bound_to 10713
  156.3437  130.3819  149.7387 LP  0  0  0  0  0  0  0  0  0  0  0  0  # atno 17371 bound_to 10713
  140.3353  134.2764  155.7221 LP  0  0  0  0  0  0  0  0  0  0  0  0  # atno 17394 bound_to 11000
  141.2077  133.7797  157.0100 LP  0  0  0  0  0  0  0  0  0  0  0  0  # atno 17395 bound_to 11000

$$$$
