AV-unprocessed.smi:2393|AV-procd|sdf|9489|dock4
  -GOLD-   2272013113D 1   1.00000     0.00000
 Structure written by MMmdl.
 43 44  0  0  0  0  0  0  0  0  1 V2000
  147.5649  130.1790  152.6427 C   0  0  0  0  0  0  0  0  0  0  0  0
  148.8181  130.9092  153.0779 C   0  0  0  0  0  0  0  0  0  0  0  0
  150.0032  130.2047  153.3646 C   0  0  0  0  0  0  0  0  0  0  0  0
  151.1338  130.9420  153.7677 C   0  0  0  0  0  0  0  0  0  0  0  0
  152.4414  130.2495  154.0906 C   0  0  0  0  0  0  0  0  0  0  0  0
  151.1297  132.2863  153.8938 N   0  0  0  0  0  0  0  0  0  0  0  0
  149.9939  132.9752  153.6210 C   0  0  0  0  0  0  0  0  0  0  0  0
  149.8889  134.3885  153.7136 N   0  0  0  0  0  0  0  0  0  0  0  0
  150.4990  135.2101  154.5861 C   0  0  0  0  0  0  0  0  0  0  0  0
  151.2223  134.8510  155.5158 O   0  0  0  0  0  0  0  0  0  0  0  0
  150.2121  136.4944  154.3266 N   0  0  0  0  0  0  0  0  0  0  0  0
  150.7103  137.6354  155.0899 C   0  0  1  0  0  0  0  0  0  0  0  0
  151.9481  138.2250  154.4042 C   0  0  0  0  0  0  0  0  0  0  0  0
  152.4162  139.4892  155.1382 C   0  0  0  0  0  0  0  0  0  0  0  0
  151.3591  140.4441  155.2108 O   0  0  0  0  0  0  0  0  0  0  0  0
  150.1635  140.0182  155.8738 C   0  0  0  0  0  0  0  0  0  0  0  0
  150.4089  139.8383  157.3877 C   0  0  0  0  0  0  0  0  0  0  0  0
  149.1599  141.1638  155.6635 C   0  0  0  0  0  0  0  0  0  0  0  0
  149.6312  138.7266  155.2067 C   0  0  0  0  0  0  0  0  0  0  0  0
  148.8169  132.3127  153.2060 C   0  0  0  0  0  0  0  0  0  0  0  0
  147.7580  129.1169  152.4883 H   0  0  0  0  0  0  0  0  0  0  0  0
  147.1879  130.5956  151.7084 H   0  0  0  0  0  0  0  0  0  0  0  0
  146.7889  130.2791  153.4019 H   0  0  0  0  0  0  0  0  0  0  0  0
  150.0448  129.1285  153.2779 H   0  0  0  0  0  0  0  0  0  0  0  0
  152.4067  129.1938  153.8201 H   0  0  0  0  0  0  0  0  0  0  0  0
  152.6531  130.3222  155.1576 H   0  0  0  0  0  0  0  0  0  0  0  0
  153.2641  130.7121  153.5445 H   0  0  0  0  0  0  0  0  0  0  0  0
  149.2911  134.8250  153.0278 H   0  0  0  0  0  0  0  0  0  0  0  0
  149.6081  136.6996  153.5442 H   0  0  0  0  0  0  0  0  0  0  0  0
  150.9995  137.2969  156.0861 H   0  0  0  0  0  0  0  0  0  0  0  0
  152.7536  137.4903  154.3771 H   0  0  0  0  0  0  0  0  0  0  0  0
  151.7174  138.4758  153.3677 H   0  0  0  0  0  0  0  0  0  0  0  0
  152.7899  139.2474  156.1331 H   0  0  0  0  0  0  0  0  0  0  0  0
  153.2497  139.9407  154.6002 H   0  0  0  0  0  0  0  0  0  0  0  0
  149.4782  139.6102  157.9083 H   0  0  0  0  0  0  0  0  0  0  0  0
  150.8172  140.7481  157.8289 H   0  0  0  0  0  0  0  0  0  0  0  0
  151.1025  139.0289  157.6107 H   0  0  0  0  0  0  0  0  0  0  0  0
  148.1956  140.9355  156.1187 H   0  0  0  0  0  0  0  0  0  0  0  0
  148.9889  141.3521  154.6031 H   0  0  0  0  0  0  0  0  0  0  0  0
  149.5229  142.0927  156.1048 H   0  0  0  0  0  0  0  0  0  0  0  0
  149.2697  138.9656  154.2052 H   0  0  0  0  0  0  0  0  0  0  0  0
  148.7681  138.3491  155.7568 H   0  0  0  0  0  0  0  0  0  0  0  0
  147.9187  132.8734  152.9903 H   0  0  0  0  0  0  0  0  0  0  0  0
  1  2  1  0  0  0  0
  1 21  1  0  0  0  0
  1 22  1  0  0  0  0
  1 23  1  0  0  0  0
  2 20  1  0  0  0  0
  2  3  2  0  0  0  0
  3  4  1  0  0  0  0
  3 24  1  0  0  0  0
  4  5  1  0  0  0  0
  4  6  2  0  0  0  0
  5 25  1  0  0  0  0
  5 26  1  0  0  0  0
  5 27  1  0  0  0  0
  6  7  1  0  0  0  0
  7  8  1  0  0  0  0
  7 20  2  0  0  0  0
  8  9  1  0  0  0  0
  8 28  1  0  0  0  0
  9 10  2  0  0  0  0
  9 11  1  0  0  0  0
 11 12  1  0  0  0  0
 11 29  1  0  0  0  0
 12 19  1  0  0  0  0
 12 13  1  0  0  0  0
 12 30  1  0  0  0  0
 13 14  1  0  0  0  0
 13 31  1  0  0  0  0
 13 32  1  0  0  0  0
 14 15  1  0  0  0  0
 14 33  1  0  0  0  0
 14 34  1  0  0  0  0
 15 16  1  0  0  0  0
 16 17  1  0  0  0  0
 16 18  1  0  0  0  0
 16 19  1  0  0  0  0
 17 35  1  0  0  0  0
 17 36  1  0  0  0  0
 17 37  1  0  0  0  0
 18 38  1  0  0  0  0
 18 39  1  0  0  0  0
 18 40  1  0  0  0  0
 19 41  1  0  0  0  0
 19 42  1  0  0  0  0
 20 43  1  0  0  0  0
M  END
> <s_m_source_file>
AV-unprocessed.smi

> <i_m_source_file_index>
2393

> <i_lp_mmshare_version>
43012

> <i_f3d_flags>
0

> <s_epik_input>
W0NIM11jMVtjSF1jKFtDSDNdKW5jKFtjSF0xKVtOSF1DKD1PKVtOSF1bQ0BASF0oW0NIMl0yKVtDSDJdW0NIMl1PQzIoW0NIM10pW0NIM10=

> <s_epik_cmdline>
J2VwaWtfcHl0aG9uJywgJy1waCcsICc3LjAnLCAnLXRuJywgJzgnLCAnLW1hJywgJzIwMCcsICctbWV0YWxfYmluZGluZycsICctaW1hZScsICc8aW5maWxlLm1hZT4nLCAnLW9tYWUnLCAnPG91dGZpbGUubWFlPic=

> <r_lp_tautomer_probability>
1

> <r_epik_Ionization_Penalty>
0.000261351

> <r_epik_Ionization_Penalty_Charging>
0

> <r_epik_Ionization_Penalty_Neutral>
0.000261351

> <r_epik_State_Penalty>
-0

> <r_epik_Charging_Adjusted_Penalty>
0

> <i_epik_Tot_Q>
0

> <i_epik_Tot_abs_Q>
0

> <r_epik_Metal_State_Penalty>
-0

> <b_epik_Metal_Only>
0

> <s_lp_Force_Field>
OPLS_2005

> <r_lp_Energy>
12.7135

> <b_lp_Chiralities_Consistent>
1

> <s_lp_Variant>
AV-unprocessed.smi:2393-2

> <Gold.Version>
5.8.1

> <Gold.Id.Protein>
6NUR|6NUR_protein|mol2

> <Gold.PLP.Fitness>
43.3240

> <Gold.PLP.PLP>
-35.9355

> <Gold.PLP.part.hbond>
-3.4307

> <Gold.PLP.part.metal>
0.0000

> <Gold.PLP.part.buried>
-2.4916

> <Gold.PLP.part.nonpolar>
-31.0751

> <Gold.PLP.part.repulsive>
0.1696

> <Gold.PLP.ligand.clash>
0.0000

> <Gold.PLP.ligand.torsion>
0.5635

> <Gold.PLP.Chemscore.Hbond>
2.8384

> <Gold.PLP.Chemscore.CHOScore>
0.0000

> <Gold.PLP.Chemscore.Metal>
0.0000

> <Gold.Chemscore.Hbonds>
donor molecule, donor type, donor heavy atom, donor atom, acceptor molecule, acceptor atom, score
      L1  H     8    28       P1  7948  0.34
      L1  H    11    29       P1  7948  0.96
      P1  H  7989  7998       L1    15  0.46
      P1  H 10752 10764       L1    10  0.11

> <Gold.PLP.Chemscore.Internal.Correction>
0.0003

> <Gold.Rescore>
     Score         DG    S(hbond)    S(metal)    S(lipo)     H(rot)  DE(clash)    DE(int)     intcor
     16.72     -18.02       1.99        0.00      72.30       1.00       0.02       1.29       ----

> <Gold.Chemscore.Fitness>
16.7183

> <Gold.Chemscore.DG>
-18.0215

> <Gold.Chemscore.ZeroCoef>
-5.4800

> <Gold.Chemscore.Hbond>
1.9886

> <Gold.Chemscore.Metal>
0.0000

> <Gold.Chemscore.Lipo>
72.3048

> <Gold.Chemscore.Internal_Hbond>
0.0000

> <Gold.Chemscore.DEClash>
0.0158

> <Gold.Chemscore.DEInternal>
1.2874

> <Gold.Chemscore.Rot>
1.0000

> <Gold.Chemscore.Internal.Correction>
   9.000000E+99

> <Gold.Chemscore.Hbonds>
donor molecule, donor type, donor heavy atom, donor atom, acceptor molecule, acceptor atom, score
      L1  H     8    28       P1  7948  0.01
      L1  H    11    29       P1  7948  0.60
      P1  H  7989  7998       L1    15  0.02
      P1  H 10752 10764       L1    10  0.10

> <Gold.Chemscore.Hbond.Weighted>
-6.6418

> <Gold.Chemscore.Metal.Weighted>
-0.0000

> <Gold.Chemscore.Lipo.Weighted>
-8.4597

> <Gold.Chemscore.Internal_Hbond.Weighted>
0.0000

> <Gold.Chemscore.DEClash.Weighted>
0.0158

> <Gold.Chemscore.DEInternal.Weighted>
1.2874

> <Gold.Chemscore.Rot.Weighted>
2.5600

> <Gold.Chemscore.Internal.Correction.Weighted>
   9.000000E+99

> <Gold.Protein.RotatedTorsions>
[ 6907 6896 6895 6894 ] final  -58.23 input  -60.11 | X-H torsion
[ 7974 7965 7964 7962 ] final  172.09 input  175.53 | X-H torsion
[ 8008 7997 7996 7995 ] final -134.52 input   59.86 | X-H torsion
[ 10167 10162 10161 10158 ] final   96.46 input  -65.29 | X-H torsion
[ 10718 10713 10712 10709 ] final  -80.40 input   66.30 | X-H torsion
[ 10763 10752 10751 10750 ] final   -4.56 input  -60.55 | X-H torsion
[ 11005 11000 10999 10996 ] final   34.19 input  -57.11 | X-H torsion

> <Gold.Protein.ActiveResidues>
 VAL166  LYS551  ARG553  GLY616  TRP617  ASP618  TYR619  PRO620  LYS621  CYS622 
 ASP623  PHE694  ASN695  SER759  ASP760  ASP761  ALA762  ILE779  LEU786  VAL792 
 PHE793  MET794  SER795  GLU796  ALA797  LYS798  CYS799  TRP800  GLU811  SER814 

> <Gold.Protein.RotatedAtoms>
  150.8023  134.7125  159.6611 H   0  0  0  0  0  0  0  0  0  0  0  0  # atno 6907 bound_to 6896
  152.4141  134.6069  160.0025 H   0  0  0  0  0  0  0  0  0  0  0  0  # atno 6908 bound_to 6896
  151.6304  133.3295  159.3143 H   0  0  0  0  0  0  0  0  0  0  0  0  # atno 6909 bound_to 6896
  144.7277  139.9447  143.6430 H   0  0  0  0  0  0  0  0  0  0  0  0  # atno 7974 bound_to 7965
  155.3635  140.0484  157.3046 H   0  0  0  0  0  0  0  0  0  0  0  0  # atno 8008 bound_to 7997
  154.5166  140.2210  155.9018 H   0  0  0  0  0  0  0  0  0  0  0  0  # atno 8009 bound_to 7997
  156.1643  140.3109  155.8867 H   0  0  0  0  0  0  0  0  0  0  0  0  # atno 8010 bound_to 7997
  139.7892  144.6858  150.9915 H   0  0  0  0  0  0  0  0  0  0  0  0  # atno 10167 bound_to 10162
  156.0071  130.4573  150.3794 H   0  0  0  0  0  0  0  0  0  0  0  0  # atno 10718 bound_to 10713
  153.3866  135.7000  153.6526 H   0  0  0  0  0  0  0  0  0  0  0  0  # atno 10763 bound_to 10752
  153.5115  135.3631  155.2589 H   0  0  0  0  0  0  0  0  0  0  0  0  # atno 10764 bound_to 10752
  154.8698  135.4136  154.3174 H   0  0  0  0  0  0  0  0  0  0  0  0  # atno 10765 bound_to 10752
  140.2554  134.3254  155.7876 H   0  0  0  0  0  0  0  0  0  0  0  0  # atno 11005 bound_to 11000
  146.0758  139.3746  143.0495 LP  0  0  0  0  0  0  0  0  0  0  0  0  # atno 17320 bound_to 7965
  145.7907  140.9815  143.1050 LP  0  0  0  0  0  0  0  0  0  0  0  0  # atno 17321 bound_to 7965
  140.7820  143.4399  151.0567 LP  0  0  0  0  0  0  0  0  0  0  0  0  # atno 17342 bound_to 10162
  139.8076  143.7996  152.3168 LP  0  0  0  0  0  0  0  0  0  0  0  0  # atno 17343 bound_to 10162
  157.1875  131.0407  151.2717 LP  0  0  0  0  0  0  0  0  0  0  0  0  # atno 17370 bound_to 10713
  157.4091  130.7375  149.6825 LP  0  0  0  0  0  0  0  0  0  0  0  0  # atno 17371 bound_to 10713
  141.2196  133.7378  156.9103 LP  0  0  0  0  0  0  0  0  0  0  0  0  # atno 17394 bound_to 11000
  140.1517  134.9226  157.2601 LP  0  0  0  0  0  0  0  0  0  0  0  0  # atno 17395 bound_to 11000

$$$$
