AV-unprocessed.smi:1697|AV-procd|sdf|6808|dock7
  -GOLD-   22720 7583D 1   1.00000     0.00000
 Structure written by MMmdl.
 55 57  0  0  0  0  0  0  0  0  3 V2000
  145.0590  132.6877  151.0824 C   0  0  0  0  0  0  0  0  0  0  0  0
  145.5720  134.0530  151.5598 C   0  0  0  0  0  0  0  0  0  0  0  0
  144.4932  134.9069  151.9200 O   0  0  0  0  0  0  0  0  0  0  0  0
  144.8673  136.1258  152.5501 C   0  0  2  0  0  0  0  0  0  0  0  0
  145.7133  136.9311  151.5546 C   0  0  0  0  0  0  0  0  0  0  0  0
  146.2500  138.2189  152.2005 C   0  0  0  0  0  0  0  0  0  0  0  0
  147.0430  137.9184  153.4210 N   0  3  1  0  0  0  0  0  0  0  0  0
  147.6762  139.1370  153.9886 C   0  0  0  0  0  0  0  0  0  0  0  0
  149.0030  138.8443  154.7252 C   0  0  1  0  0  0  0  0  0  0  0  0
  149.9369  138.3149  153.8065 O   0  0  0  0  0  0  0  0  0  0  0  0
  149.6413  140.1022  155.3502 C   0  0  0  0  0  0  0  0  0  0  0  0
  150.4674  139.8097  156.5289 N   0  0  0  0  0  0  0  0  0  0  0  0
  150.8092  138.6160  157.0866 C   0  0  0  0  0  0  0  0  0  0  0  0
  151.5924  138.8786  158.1695 N   0  3  0  0  0  0  0  0  0  0  0  0
  151.7414  140.2598  158.3131 C   0  0  0  0  0  0  0  0  0  0  0  0
  152.4361  141.0081  159.2559 C   0  0  0  0  0  0  0  0  0  0  0  0
  152.3834  142.4147  159.1287 C   0  0  0  0  0  0  0  0  0  0  0  0
  153.1285  143.2629  160.1453 C   0  0  0  0  0  0  0  0  0  0  0  0
  151.6484  143.0262  158.0800 C   0  0  0  0  0  0  0  0  0  0  0  0
  151.5935  144.5396  157.9572 C   0  0  0  0  0  0  0  0  0  0  0  0
  150.9515  142.2473  157.1289 C   0  0  0  0  0  0  0  0  0  0  0  0
  151.0162  140.8633  157.2677 C   0  0  0  0  0  0  0  0  0  0  0  0
  146.2429  137.1541  154.4161 C   0  0  0  0  0  0  0  0  0  0  0  0
  145.7023  135.8473  153.8120 C   0  0  0  0  0  0  0  0  0  0  0  0
  145.8851  132.0609  150.7461 H   0  0  0  0  0  0  0  0  0  0  0  0
  144.3679  132.8019  150.2469 H   0  0  0  0  0  0  0  0  0  0  0  0
  144.5400  132.1481  151.8740 H   0  0  0  0  0  0  0  0  0  0  0  0
  146.2872  133.9394  152.3748 H   0  0  0  0  0  0  0  0  0  0  0  0
  146.1106  134.5308  150.7412 H   0  0  0  0  0  0  0  0  0  0  0  0
  143.9868  136.7145  152.8107 H   0  0  0  0  0  0  0  0  0  0  0  0
  146.5487  136.3244  151.2020 H   0  0  0  0  0  0  0  0  0  0  0  0
  145.1174  137.1777  150.6749 H   0  0  0  0  0  0  0  0  0  0  0  0
  146.8721  138.7461  151.4763 H   0  0  0  0  0  0  0  0  0  0  0  0
  145.4245  138.8857  152.4552 H   0  0  0  0  0  0  0  0  0  0  0  0
  147.8797  139.8549  153.1921 H   0  0  0  0  0  0  0  0  0  0  0  0
  146.9575  139.6198  154.6518 H   0  0  0  0  0  0  0  0  0  0  0  0
  148.8528  138.1055  155.5107 H   0  0  0  0  0  0  0  0  0  0  0  0
  149.7734  138.6826  152.9514 H   0  0  0  0  0  0  0  0  0  0  0  0
  150.2603  140.6298  154.6228 H   0  0  0  0  0  0  0  0  0  0  0  0
  148.8666  140.8039  155.6633 H   0  0  0  0  0  0  0  0  0  0  0  0
  150.5167  137.6376  156.7331 H   0  0  0  0  0  0  0  0  0  0  0  0
  152.9902  140.5361  160.0543 H   0  0  0  0  0  0  0  0  0  0  0  0
  153.8397  143.9242  159.6497 H   0  0  0  0  0  0  0  0  0  0  0  0
  153.6856  142.6444  160.8498 H   0  0  0  0  0  0  0  0  0  0  0  0
  152.4288  143.8728  160.7175 H   0  0  0  0  0  0  0  0  0  0  0  0
  150.9671  144.8497  157.1204 H   0  0  0  0  0  0  0  0  0  0  0  0
  152.5918  144.9469  157.7953 H   0  0  0  0  0  0  0  0  0  0  0  0
  151.1804  144.9829  158.8638 H   0  0  0  0  0  0  0  0  0  0  0  0
  150.3894  142.7124  156.3324 H   0  0  0  0  0  0  0  0  0  0  0  0
  146.8486  136.9116  155.2883 H   0  0  0  0  0  0  0  0  0  0  0  0
  145.4151  137.7703  154.7707 H   0  0  0  0  0  0  0  0  0  0  0  0
  145.1064  135.3216  154.5579 H   0  0  0  0  0  0  0  0  0  0  0  0
  146.5355  135.1885  153.5634 H   0  0  0  0  0  0  0  0  0  0  0  0
  147.7969  137.3172  153.1205 H   0  0  0  0  0  0  0  0  0  0  0  0
  151.9884  138.1662  158.7697 H   0  0  0  0  0  0  0  0  0  0  0  0
  1  2  1  0  0  0  0
  1 25  1  0  0  0  0
  1 26  1  0  0  0  0
  1 27  1  0  0  0  0
  2  3  1  0  0  0  0
  2 28  1  0  0  0  0
  2 29  1  0  0  0  0
  3  4  1  0  0  0  0
  4 24  1  0  0  0  0
  4  5  1  0  0  0  0
  4 30  1  0  0  0  0
  5  6  1  0  0  0  0
  5 31  1  0  0  0  0
  5 32  1  0  0  0  0
  6  7  1  0  0  0  0
  6 33  1  0  0  0  0
  6 34  1  0  0  0  0
  7  8  1  0  0  0  0
  7 23  1  0  0  0  0
  7 54  1  0  0  0  0
  8  9  1  0  0  0  0
  8 35  1  0  0  0  0
  8 36  1  0  0  0  0
  9 10  1  0  0  0  0
  9 11  1  0  0  0  0
  9 37  1  0  0  0  0
 10 38  1  0  0  0  0
 11 12  1  0  0  0  0
 11 39  1  0  0  0  0
 11 40  1  0  0  0  0
 12 22  1  0  0  0  0
 12 13  1  0  0  0  0
 13 14  2  0  0  0  0
 13 41  1  0  0  0  0
 14 15  1  0  0  0  0
 14 55  1  0  0  0  0
 15 22  2  0  0  0  0
 15 16  1  0  0  0  0
 16 17  2  0  0  0  0
 16 42  1  0  0  0  0
 17 18  1  0  0  0  0
 17 19  1  0  0  0  0
 18 43  1  0  0  0  0
 18 44  1  0  0  0  0
 18 45  1  0  0  0  0
 19 20  1  0  0  0  0
 19 21  2  0  0  0  0
 20 46  1  0  0  0  0
 20 47  1  0  0  0  0
 20 48  1  0  0  0  0
 21 22  1  0  0  0  0
 21 49  1  0  0  0  0
 23 24  1  0  0  0  0
 23 50  1  0  0  0  0
 23 51  1  0  0  0  0
 24 52  1  0  0  0  0
 24 53  1  0  0  0  0
M  CHG  1   7   1
M  CHG  1  14   1
M  END
> <s_m_source_file>
AV-unprocessed.smi

> <i_m_source_file_index>
1697

> <i_lp_mmshare_version>
43012

> <i_f3d_flags>
0

> <s_epik_input>
W0NIM11bQ0gyXU9bQ0hdMVtDSDJdW0NIMl1OKFtDSDJdW0NIMl0xKVtDSDJdW0NASF0oW09IXSlbQ0gyXW4oW2NIXW4yKWMoYzIzKVtjSF1jKFtDSDNdKWMoW2NIXTMpW0NIM10=

> <s_epik_cmdline>
J2VwaWtfcHl0aG9uJywgJy1waCcsICc3LjAnLCAnLXRuJywgJzgnLCAnLW1hJywgJzIwMCcsICctbWV0YWxfYmluZGluZycsICctaW1hZScsICc8aW5maWxlLm1hZT4nLCAnLW9tYWUnLCAnPG91dGZpbGUubWFlPic=

> <r_epik_Ionization_Penalty>
1.20016

> <r_epik_Ionization_Penalty_Charging>
1.20016

> <r_epik_Ionization_Penalty_Neutral>
1.70998e-06

> <r_epik_State_Penalty>
1.27959

> <r_epik_Charging_Adjusted_Penalty>
2.47975

> <i_epik_Tot_Q>
2

> <i_epik_Tot_abs_Q>
2

> <r_epik_Metal_State_Penalty>
5.29682

> <b_epik_Metal_Only>
0

> <s_lp_Force_Field>
OPLS_2005

> <r_lp_Energy>
35.517

> <b_lp_Chiralities_Consistent>
1

> <s_lp_Variant>
AV-unprocessed.smi:1697-6

> <Gold.Version>
5.8.1

> <Gold.Id.Protein>
6NUR|6NUR_protein|mol2

> <Gold.PLP.Fitness>
53.2903

> <Gold.PLP.PLP>
-45.5095

> <Gold.PLP.part.hbond>
-3.0000

> <Gold.PLP.part.metal>
0.0000

> <Gold.PLP.part.buried>
-1.8649

> <Gold.PLP.part.nonpolar>
-41.8359

> <Gold.PLP.part.repulsive>
0.2889

> <Gold.PLP.ligand.clash>
0.0000

> <Gold.PLP.ligand.torsion>
0.6795

> <Gold.PLP.Chemscore.Hbond>
3.0000

> <Gold.PLP.Chemscore.CHOScore>
0.0000

> <Gold.PLP.Chemscore.Metal>
0.0000

> <Gold.Chemscore.Hbonds>
donor molecule, donor type, donor heavy atom, donor atom, acceptor molecule, acceptor atom, score
      L1  H     7    54       P1  7948  2.00
      L1  H    10    38       P1  7957  0.49

> <Gold.PLP.Chemscore.Internal.Correction>
0.1398

> <Gold.Rescore>
     Score         DG    S(hbond)    S(metal)    S(lipo)     H(rot)  DE(clash)    DE(int)     intcor
     20.35     -21.44       1.93        0.00     132.67       2.35       0.54       0.55       ----

> <Gold.Chemscore.Fitness>
20.3461

> <Gold.Chemscore.DG>
-21.4379

> <Gold.Chemscore.ZeroCoef>
-5.4800

> <Gold.Chemscore.Hbond>
1.9290

> <Gold.Chemscore.Metal>
0.0000

> <Gold.Chemscore.Lipo>
132.6733

> <Gold.Chemscore.Internal_Hbond>
0.0000

> <Gold.Chemscore.DEClash>
0.5448

> <Gold.Chemscore.DEInternal>
0.5469

> <Gold.Chemscore.Rot>
2.3468

> <Gold.Chemscore.Internal.Correction>
   9.000000E+99

> <Gold.Chemscore.Hbonds>
donor molecule, donor type, donor heavy atom, donor atom, acceptor molecule, acceptor atom, score
      L1  H     7    54       P1  7948  0.94
      L1  H    10    38       P1  7957  0.37

> <Gold.Chemscore.Hbond.Weighted>
-6.4428

> <Gold.Chemscore.Metal.Weighted>
-0.0000

> <Gold.Chemscore.Lipo.Weighted>
-15.5228

> <Gold.Chemscore.Internal_Hbond.Weighted>
0.0000

> <Gold.Chemscore.DEClash.Weighted>
0.5448

> <Gold.Chemscore.DEInternal.Weighted>
0.5469

> <Gold.Chemscore.Rot.Weighted>
6.0077

> <Gold.Chemscore.Internal.Correction.Weighted>
   9.000000E+99

> <Gold.Protein.RotatedTorsions>
[ 6907 6896 6895 6894 ] final -113.59 input  -60.11 | X-H torsion
[ 7974 7965 7964 7962 ] final   57.01 input  175.53 | X-H torsion
[ 8008 7997 7996 7995 ] final  -60.37 input   59.86 | X-H torsion
[ 10167 10162 10161 10158 ] final   -0.92 input  -65.29 | X-H torsion
[ 10718 10713 10712 10709 ] final -115.22 input   66.30 | X-H torsion
[ 10763 10752 10751 10750 ] final  148.83 input  -60.55 | X-H torsion
[ 11005 11000 10999 10996 ] final   89.90 input  -57.11 | X-H torsion

> <Gold.Protein.ActiveResidues>
 VAL166  LYS551  ARG553  GLY616  TRP617  ASP618  TYR619  PRO620  LYS621  CYS622 
 ASP623  PHE694  ASN695  SER759  ASP760  ASP761  ALA762  ILE779  LEU786  VAL792 
 PHE793  MET794  SER795  GLU796  ALA797  LYS798  CYS799  TRP800  GLU811  SER814 

> <Gold.Protein.RotatedAtoms>
  150.7840  133.8922  159.3316 H   0  0  0  0  0  0  0  0  0  0  0  0  # atno 6907 bound_to 6896
  151.6778  135.0964  160.0219 H   0  0  0  0  0  0  0  0  0  0  0  0  # atno 6908 bound_to 6896
  152.3899  133.6626  159.6265 H   0  0  0  0  0  0  0  0  0  0  0  0  # atno 6909 bound_to 6896
  145.9337  139.3829  143.0405 H   0  0  0  0  0  0  0  0  0  0  0  0  # atno 7974 bound_to 7965
  154.4395  140.1041  156.6263 H   0  0  0  0  0  0  0  0  0  0  0  0  # atno 8008 bound_to 7997
  155.5653  140.3488  155.4483 H   0  0  0  0  0  0  0  0  0  0  0  0  # atno 8009 bound_to 7997
  156.0429  140.1286  157.0125 H   0  0  0  0  0  0  0  0  0  0  0  0  # atno 8010 bound_to 7997
  140.6788  143.6837  150.8085 H   0  0  0  0  0  0  0  0  0  0  0  0  # atno 10167 bound_to 10162
  156.0881  130.6069  150.8877 H   0  0  0  0  0  0  0  0  0  0  0  0  # atno 10718 bound_to 10713
  154.0612  135.2874  155.3324 H   0  0  0  0  0  0  0  0  0  0  0  0  # atno 10763 bound_to 10752
  154.6807  135.5264  153.8262 H   0  0  0  0  0  0  0  0  0  0  0  0  # atno 10764 bound_to 10752
  153.0522  135.6581  154.0800 H   0  0  0  0  0  0  0  0  0  0  0  0  # atno 10765 bound_to 10752
  139.8866  134.8580  156.3208 H   0  0  0  0  0  0  0  0  0  0  0  0  # atno 11005 bound_to 11000
  145.8392  140.9589  143.0808 LP  0  0  0  0  0  0  0  0  0  0  0  0  # atno 17320 bound_to 7965
  144.6768  140.0262  143.7483 LP  0  0  0  0  0  0  0  0  0  0  0  0  # atno 17321 bound_to 7965
  140.0534  143.5227  152.2663 LP  0  0  0  0  0  0  0  0  0  0  0  0  # atno 17342 bound_to 10162
  139.6097  144.7605  151.2980 LP  0  0  0  0  0  0  0  0  0  0  0  0  # atno 17343 bound_to 10162
  157.6022  131.0940  150.8941 LP  0  0  0  0  0  0  0  0  0  0  0  0  # atno 17370 bound_to 10713
  156.9096  130.5276  149.5280 LP  0  0  0  0  0  0  0  0  0  0  0  0  # atno 17371 bound_to 10713
  140.9788  133.7280  156.0641 LP  0  0  0  0  0  0  0  0  0  0  0  0  # atno 17394 bound_to 11000
  140.7776  134.3761  157.5494 LP  0  0  0  0  0  0  0  0  0  0  0  0  # atno 17395 bound_to 11000

$$$$
