AV-unprocessed.smi:1423|AV-procd|sdf|5795|dock6
  -GOLD-   22720 5443D 1   1.00000     0.00000
 Structure written by MMmdl.
 44 45  0  0  0  0  0  0  0  0  2 V2000
  152.7757  142.7000  161.3419 C   0  0  0  0  0  0  0  0  0  0  0  0
  152.7853  143.5728  160.2176 O   0  0  0  0  0  0  0  0  0  0  0  0
  152.0299  143.2292  159.1152 C   0  0  0  0  0  0  0  0  0  0  0  0
  151.9890  144.1171  158.0221 C   0  0  0  0  0  0  0  0  0  0  0  0
  151.2160  143.7772  156.8955 C   0  0  0  0  0  0  0  0  0  0  0  0
  150.5108  142.5495  156.8940 C   0  0  0  0  0  0  0  0  0  0  0  0
  149.6779  142.0980  155.8338 N   0  0  0  0  0  0  0  0  0  0  0  0
  149.2672  140.8486  155.5560 C   0  0  0  0  0  0  0  0  0  0  0  0
  149.4973  139.8513  156.2393 O   0  0  0  0  0  0  0  0  0  0  0  0
  148.5462  140.8157  154.4257 N   0  0  0  0  0  0  0  0  0  0  0  0
  147.9558  139.6150  153.8406 C   0  0  2  0  0  0  0  0  0  0  0  0
  147.3526  139.9172  152.4556 C   0  0  0  0  0  0  0  0  0  0  0  0
  146.6324  138.6867  151.8794 C   0  0  0  0  0  0  0  0  0  0  0  0
  145.5841  138.1974  152.8103 N   0  3  1  0  0  0  0  0  0  0  0  0
  144.7668  137.1032  152.2261 C   0  0  0  0  0  0  0  0  0  0  0  0
  145.5692  136.2001  151.2839 C   0  0  0  0  0  0  0  0  0  0  0  0
  145.6075  136.5527  149.9971 N   0  0  0  0  0  0  0  0  0  0  0  0
  146.1338  135.1914  151.7040 O   0  0  0  0  0  0  0  0  0  0  0  0
  146.1542  137.8536  154.1403 C   0  0  0  0  0  0  0  0  0  0  0  0
  146.8607  139.0659  154.7694 C   0  0  0  0  0  0  0  0  0  0  0  0
  150.6124  141.7355  158.0415 C   0  0  0  0  0  0  0  0  0  0  0  0
  151.3504  142.0559  159.1250 N   0  0  0  0  0  0  0  0  0  0  0  0
  153.4168  143.1099  162.1221 H   0  0  0  0  0  0  0  0  0  0  0  0
  153.1588  141.7116  161.0844 H   0  0  0  0  0  0  0  0  0  0  0  0
  151.7726  142.5982  161.7586 H   0  0  0  0  0  0  0  0  0  0  0  0
  152.5363  145.0479  158.0493 H   0  0  0  0  0  0  0  0  0  0  0  0
  151.1719  144.4705  156.0707 H   0  0  0  0  0  0  0  0  0  0  0  0
  149.3367  142.8230  155.2198 H   0  0  0  0  0  0  0  0  0  0  0  0
  148.3981  141.6841  153.9326 H   0  0  0  0  0  0  0  0  0  0  0  0
  148.7299  138.8524  153.7349 H   0  0  0  0  0  0  0  0  0  0  0  0
  146.6470  140.7458  152.5312 H   0  0  0  0  0  0  0  0  0  0  0  0
  148.1326  140.2389  151.7644 H   0  0  0  0  0  0  0  0  0  0  0  0
  146.1812  138.9539  150.9232 H   0  0  0  0  0  0  0  0  0  0  0  0
  147.3483  137.8874  151.6815 H   0  0  0  0  0  0  0  0  0  0  0  0
  144.3868  136.4618  153.0225 H   0  0  0  0  0  0  0  0  0  0  0  0
  143.8960  137.5172  151.7149 H   0  0  0  0  0  0  0  0  0  0  0  0
  146.1243  135.9961  149.3315 H   0  0  0  0  0  0  0  0  0  0  0  0
  145.1188  137.3825  149.6919 H   0  0  0  0  0  0  0  0  0  0  0  0
  145.3651  137.5129  154.8111 H   0  0  0  0  0  0  0  0  0  0  0  0
  146.8559  137.0248  154.0335 H   0  0  0  0  0  0  0  0  0  0  0  0
  147.2925  138.7827  155.7303 H   0  0  0  0  0  0  0  0  0  0  0  0
  146.1245  139.8437  154.9784 H   0  0  0  0  0  0  0  0  0  0  0  0
  150.0845  140.7943  158.0939 H   0  0  0  0  0  0  0  0  0  0  0  0
  144.9493  138.9704  152.9533 H   0  0  0  0  0  0  0  0  0  0  0  0
  1  2  1  0  0  0  0
  1 23  1  0  0  0  0
  1 24  1  0  0  0  0
  1 25  1  0  0  0  0
  2  3  1  0  0  0  0
  3 22  1  0  0  0  0
  3  4  2  0  0  0  0
  4  5  1  0  0  0  0
  4 26  1  0  0  0  0
  5  6  2  0  0  0  0
  5 27  1  0  0  0  0
  6  7  1  0  0  0  0
  6 21  1  0  0  0  0
  7  8  1  0  0  0  0
  7 28  1  0  0  0  0
  8  9  2  0  0  0  0
  8 10  1  0  0  0  0
 10 11  1  0  0  0  0
 10 29  1  0  0  0  0
 11 20  1  0  0  0  0
 11 12  1  0  0  0  0
 11 30  1  0  0  0  0
 12 13  1  0  0  0  0
 12 31  1  0  0  0  0
 12 32  1  0  0  0  0
 13 14  1  0  0  0  0
 13 33  1  0  0  0  0
 13 34  1  0  0  0  0
 14 15  1  0  0  0  0
 14 19  1  0  0  0  0
 14 44  1  0  0  0  0
 15 16  1  0  0  0  0
 15 35  1  0  0  0  0
 15 36  1  0  0  0  0
 16 17  1  0  0  0  0
 16 18  2  0  0  0  0
 17 37  1  0  0  0  0
 17 38  1  0  0  0  0
 19 20  1  0  0  0  0
 19 39  1  0  0  0  0
 19 40  1  0  0  0  0
 20 41  1  0  0  0  0
 20 42  1  0  0  0  0
 21 22  2  0  0  0  0
 21 43  1  0  0  0  0
M  CHG  1  14   1
M  END
> <s_m_source_file>
AV-unprocessed.smi

> <i_m_source_file_index>
1423

> <i_lp_mmshare_version>
43012

> <i_f3d_flags>
0

> <s_epik_input>
W0NIM11PYzFbY0hdW2NIXWMoW2NIXW4xKVtOSF1DKD1PKVtOSF1bQ0hdMltDSDJdW0NIMl1OKFtDSDJdW0NIMl0yKVtDSDJdQyg9TylbTkgyXQ==

> <s_epik_cmdline>
J2VwaWtfcHl0aG9uJywgJy1waCcsICc3LjAnLCAnLXRuJywgJzgnLCAnLW1hJywgJzIwMCcsICctbWV0YWxfYmluZGluZycsICctaW1hZScsICc8aW5maWxlLm1hZT4nLCAnLW9tYWUnLCAnPG91dGZpbGUubWFlPic=

> <r_lp_tautomer_probability>
1

> <r_epik_Ionization_Penalty>
0.838963

> <r_epik_Ionization_Penalty_Charging>
0.838844

> <r_epik_Ionization_Penalty_Neutral>
0.0001192

> <r_epik_State_Penalty>
0.8734

> <r_epik_Charging_Adjusted_Penalty>
1.71224

> <i_epik_Tot_Q>
1

> <i_epik_Tot_abs_Q>
1

> <r_epik_Metal_State_Penalty>
0.890706

> <b_epik_Metal_Only>
0

> <s_lp_Force_Field>
OPLS_2005

> <r_lp_Energy>
16.4152

> <b_lp_Chiralities_Consistent>
1

> <s_lp_Variant>
AV-unprocessed.smi:1423-2

> <Gold.Version>
5.8.1

> <Gold.Id.Protein>
6NUR|6NUR_protein|mol2

> <Gold.PLP.Fitness>
45.9447

> <Gold.PLP.PLP>
-34.0290

> <Gold.PLP.part.hbond>
-4.0000

> <Gold.PLP.part.metal>
0.0000

> <Gold.PLP.part.buried>
3.6584

> <Gold.PLP.part.nonpolar>
-34.9712

> <Gold.PLP.part.repulsive>
1.4574

> <Gold.PLP.ligand.clash>
0.0000

> <Gold.PLP.ligand.torsion>
0.9026

> <Gold.PLP.Chemscore.Hbond>
4.5670

> <Gold.PLP.Chemscore.CHOScore>
0.0000

> <Gold.PLP.Chemscore.Metal>
0.0000

> <Gold.Chemscore.Hbonds>
donor molecule, donor type, donor heavy atom, donor atom, acceptor molecule, acceptor atom, score
      L1  H     7    28       P1  8028  0.59
      L1  H    14    44       P1 10175  2.00
      L1  H    17    37       P1  7921  0.97
      L1  H    17    38       P1 10171  1.00

> <Gold.PLP.Chemscore.Internal.Correction>
0.0199

> <Gold.Rescore>
     Score         DG    S(hbond)    S(metal)    S(lipo)     H(rot)  DE(clash)    DE(int)     intcor
     14.79     -21.12       3.47        0.00      85.46       2.33       4.12       2.21       ----

> <Gold.Chemscore.Fitness>
14.7919

> <Gold.Chemscore.DG>
-21.1193

> <Gold.Chemscore.ZeroCoef>
-5.4800

> <Gold.Chemscore.Hbond>
3.4725

> <Gold.Chemscore.Metal>
0.0000

> <Gold.Chemscore.Lipo>
85.4564

> <Gold.Chemscore.Internal_Hbond>
0.0000

> <Gold.Chemscore.DEClash>
4.1173

> <Gold.Chemscore.DEInternal>
2.2102

> <Gold.Chemscore.Rot>
2.3271

> <Gold.Chemscore.Internal.Correction>
   9.000000E+99

> <Gold.Chemscore.Hbonds>
donor molecule, donor type, donor heavy atom, donor atom, acceptor molecule, acceptor atom, score
      L1  H     7    28       P1  8028  0.56
      L1  H    14    44       P1 10175  0.94
      L1  H    17    37       P1  7921  0.82
      L1  H    17    38       P1 10171  0.98

> <Gold.Chemscore.Hbond.Weighted>
-11.5983

> <Gold.Chemscore.Metal.Weighted>
-0.0000

> <Gold.Chemscore.Lipo.Weighted>
-9.9984

> <Gold.Chemscore.Internal_Hbond.Weighted>
0.0000

> <Gold.Chemscore.DEClash.Weighted>
4.1173

> <Gold.Chemscore.DEInternal.Weighted>
2.2102

> <Gold.Chemscore.Rot.Weighted>
5.9573

> <Gold.Chemscore.Internal.Correction.Weighted>
   9.000000E+99

> <Gold.Protein.RotatedTorsions>
[ 6907 6896 6895 6894 ] final -144.63 input  -60.11 | X-H torsion
[ 7974 7965 7964 7962 ] final   63.94 input  175.53 | X-H torsion
[ 8008 7997 7996 7995 ] final  -42.08 input   59.86 | X-H torsion
[ 10167 10162 10161 10158 ] final -174.02 input  -65.29 | X-H torsion
[ 10718 10713 10712 10709 ] final -167.37 input   66.30 | X-H torsion
[ 10763 10752 10751 10750 ] final   53.84 input  -60.55 | X-H torsion
[ 11005 11000 10999 10996 ] final -139.01 input  -57.11 | X-H torsion

> <Gold.Protein.ActiveResidues>
 VAL166  LYS551  ARG553  GLY616  TRP617  ASP618  TYR619  PRO620  LYS621  CYS622 
 ASP623  PHE694  ASN695  SER759  ASP760  ASP761  ALA762  ILE779  LEU786  VAL792 
 PHE793  MET794  SER795  GLU796  ALA797  LYS798  CYS799  TRP800  GLU811  SER814 

> <Gold.Protein.RotatedAtoms>
  151.1167  133.5133  159.2603 H   0  0  0  0  0  0  0  0  0  0  0  0  # atno 6907 bound_to 6896
  151.1906  135.0400  159.8841 H   0  0  0  0  0  0  0  0  0  0  0  0  # atno 6908 bound_to 6896
  152.5453  134.1008  159.8370 H   0  0  0  0  0  0  0  0  0  0  0  0  # atno 6909 bound_to 6896
  145.8560  139.3284  143.0847 H   0  0  0  0  0  0  0  0  0  0  0  0  # atno 7974 bound_to 7965
  154.4000  140.1482  156.3297 H   0  0  0  0  0  0  0  0  0  0  0  0  # atno 8008 bound_to 7997
  155.8455  140.3460  155.5638 H   0  0  0  0  0  0  0  0  0  0  0  0  # atno 8009 bound_to 7997
  155.8041  140.0874  157.1931 H   0  0  0  0  0  0  0  0  0  0  0  0  # atno 8010 bound_to 7997
  139.5656  144.1763  152.1307 H   0  0  0  0  0  0  0  0  0  0  0  0  # atno 10167 bound_to 10162
  156.6814  130.9123  151.3057 H   0  0  0  0  0  0  0  0  0  0  0  0  # atno 10718 bound_to 10713
  152.9799  135.5765  154.4807 H   0  0  0  0  0  0  0  0  0  0  0  0  # atno 10763 bound_to 10752
  154.4356  135.2774  155.1885 H   0  0  0  0  0  0  0  0  0  0  0  0  # atno 10764 bound_to 10752
  154.3575  135.6196  153.5727 H   0  0  0  0  0  0  0  0  0  0  0  0  # atno 10765 bound_to 10752
  140.8561  134.2227  157.4734 H   0  0  0  0  0  0  0  0  0  0  0  0  # atno 11005 bound_to 11000
  145.9303  140.9053  143.0359 LP  0  0  0  0  0  0  0  0  0  0  0  0  # atno 17320 bound_to 7965
  144.6727  140.1410  143.7437 LP  0  0  0  0  0  0  0  0  0  0  0  0  # atno 17321 bound_to 7965
  140.1286  144.5309  150.6817 LP  0  0  0  0  0  0  0  0  0  0  0  0  # atno 17342 bound_to 10162
  140.6939  143.2392  151.5054 LP  0  0  0  0  0  0  0  0  0  0  0  0  # atno 17343 bound_to 10162
  157.7042  130.9366  150.0879 LP  0  0  0  0  0  0  0  0  0  0  0  0  # atno 17370 bound_to 10713
  156.1865  130.3652  149.8966 LP  0  0  0  0  0  0  0  0  0  0  0  0  # atno 17371 bound_to 10713
  139.8705  134.9707  156.4710 LP  0  0  0  0  0  0  0  0  0  0  0  0  # atno 17394 bound_to 11000
  140.8736  133.7970  155.9390 LP  0  0  0  0  0  0  0  0  0  0  0  0  # atno 17395 bound_to 11000

$$$$
