#       Name:                AV-unprocessed.smi:67
#       Creating user name   scv26
#       Creation time:       Thu Mar 26 16:53:21 2020


#       File generated by GOLD software.
#

@<TRIPOS>MOLECULE
AV-unprocessed.smi:67
    53    55     1
SMALL
NO_CHARGES


@<TRIPOS>ATOM
      1 ****        -1.8856   3.2080  -2.2032 O.3            1 S1                 0.0000
      2 ****        -2.6606   2.3541  -1.3806 C.3            1 S1                 0.0000
      3 ****        -1.9385   0.9836  -1.2691 C.3            1 S1                 0.0000
      4 ****        -0.4686   1.0585  -1.0274 N.4            1 S1                 1.0000
      5 ****         0.2076  -0.2077  -1.4174 C.3            1 S1                 0.0000
      6 ****         1.7363  -0.1014  -1.2948 C.3            1 S1                 0.0000
      7 ****         2.1579   0.2983   0.1313 C.3            1 S1                 0.0000
      8 ****         1.7891  -0.6988   1.0820 O.3            1 S1                 0.0000
      9 ****         2.5162  -1.8675   1.1770 C.ar           1 S1                 0.0000
     10 ****         3.7129  -2.1351   0.4661 C.ar           1 S1                 0.0000
     11 ****         4.3841  -3.3605   0.6393 C.ar           1 S1                 0.0000
     12 ****         3.8717  -4.3310   1.5195 C.ar           1 S1                 0.0000
     13 ****         2.6803  -4.0826   2.2320 C.ar           1 S1                 0.0000
     14 ****         2.1279  -5.1244   3.1934 C.3            1 S1                 0.0000
     15 ****         0.8017  -5.0254   3.2939 F              1 S1                 0.0000
     16 ****         2.4232  -6.3568   2.7782 F              1 S1                 0.0000
     17 ****         2.6650  -4.9366   4.3981 F              1 S1                 0.0000
     18 ****         2.0170  -2.8487   2.0582 C.ar           1 S1                 0.0000
     19 ****         1.4330   1.5952   0.5157 C.3            1 S1                 0.0000
     20 ****        -0.0927   1.4756   0.3505 C.3            1 S1                 0.0000
     21 ****        -2.9897   3.0163  -0.0233 C.3            1 S1                 0.0000
     22 ****        -4.4946   3.2794  -0.0515 C.3            1 S1                 0.0000
     23 ****        -5.0210   2.2949  -0.9772 N.3            1 S1                 0.0000
     24 ****        -4.0448   2.2048  -2.0489 C.3            1 S1                 0.0000
     25 ****        -1.8917   2.8666  -3.0845 H              1 S1                 0.0000
     26 ****        -2.4126   0.3518  -0.5164 H              1 S1                 0.0000
     27 ****        -2.0818   0.4658  -2.2186 H              1 S1                 0.0000
     28 ****        -0.1631  -1.0244  -0.7958 H              1 S1                 0.0000
     29 ****        -0.0435  -0.4587  -2.4487 H              1 S1                 0.0000
     30 ****         2.1935  -1.0457  -1.5887 H              1 S1                 0.0000
     31 ****         2.1033   0.6435  -2.0020 H              1 S1                 0.0000
     32 ****         3.2291   0.4948   0.1798 H              1 S1                 0.0000
     33 ****         4.1408  -1.4193  -0.2180 H              1 S1                 0.0000
     34 ****         5.2968  -3.5562   0.0958 H              1 S1                 0.0000
     35 ****         4.3987  -5.2652   1.6471 H              1 S1                 0.0000
     36 ****         1.1095  -2.6461   2.6078 H              1 S1                 0.0000
     37 ****         1.6753   1.8660   1.5439 H              1 S1                 0.0000
     38 ****         1.7984   2.4116  -0.1088 H              1 S1                 0.0000
     39 ****        -0.5193   2.4492   0.5788 H              1 S1                 0.0000
     40 ****        -0.4999   0.7670   1.0734 H              1 S1                 0.0000
     41 ****        -2.7827   2.3316   0.7996 H              1 S1                 0.0000
     42 ****        -2.4226   3.9301   0.1600 H              1 S1                 0.0000
     43 ****        -4.9543   3.2011   0.9341 H              1 S1                 0.0000
     44 ****        -4.6857   4.2837  -0.4319 H              1 S1                 0.0000
     45 ****        -5.9252   2.5858  -1.3364 H              1 S1                 0.0000
     46 ****        -4.2165   3.0246  -2.7489 H              1 S1                 0.0000
     47 ****        -4.1561   1.2789  -2.6140 H              1 S1                 0.0000
     48 ****        -0.1175   1.7712  -1.6515 H              1 S1                 0.0000
     49 ****        -0.9462   3.2424  -1.8620 LP             1 S1                 0.0000
     50 ****        -2.2768   4.1283  -2.1960 LP             1 S1                 0.0000
     51 ****         0.8471  -0.9616   0.8732 LP             1 S1                 0.0000
     52 ****         1.8223  -0.2648   1.9824 LP             1 S1                 0.0000
     53 ****        -5.1627   1.4101  -0.5332 LP             1 S1                 0.0000
@<TRIPOS>BOND
    1    1    2 1     
    2    1   25 1     
    3    2   24 1     
    4    2    3 1     
    5    2   21 1     
    6    3    4 1     
    7    3   26 1     
    8    3   27 1     
    9    4   20 1     
   10    4    5 1     
   11    4   48 1     
   12    5    6 1     
   13    5   28 1     
   14    5   29 1     
   15    6    7 1     
   16    6   30 1     
   17    6   31 1     
   18    7    8 1     
   19    7   19 1     
   20    7   32 1     
   21    8    9 1     
   22    9   18 ar    
   23    9   10 ar    
   24   10   11 ar    
   25   10   33 1     
   26   11   12 ar    
   27   11   34 1     
   28   12   13 ar    
   29   12   35 1     
   30   13   14 1     
   31   13   18 ar    
   32   14   15 1     
   33   14   16 1     
   34   14   17 1     
   35   18   36 1     
   36   19   20 1     
   37   19   37 1     
   38   19   38 1     
   39   20   39 1     
   40   20   40 1     
   41   21   22 1     
   42   21   41 1     
   43   21   42 1     
   44   22   23 1     
   45   22   43 1     
   46   22   44 1     
   47   23   24 1     
   48   23   45 1     
   49   24   46 1     
   50   24   47 1     
   51    1   49 1     
   52    1   50 1     
   53    8   51 1     
   54    8   52 1     
   55   23   53 1     
@<TRIPOS>SUBSTRUCTURE
      1 S1             1
@<TRIPOS>SET
LONE_PAIRS      STATIC     ATOMS    <user>   **** ""
5 49 50 51 52 53
DONOR_HYDROGENS      STATIC     ATOMS    <user>   **** ""
3 25 48 45
ATOM$BLUE        STATIC     ATOMS    COLORGROUP SYSTEM
5 49 50 51 52 53
ATOM$RED        STATIC     ATOMS    COLORGROUP SYSTEM
3 25 48 45
