AV-unprocessed.smi:1648|AV-procd|sdf|6628|dock1
  -GOLD-   22720 7323D 1   1.00000     0.00000
 Structure written by MMmdl.
 42 42  0  0  0  0  0  0  0  0  2 V2000
  157.5472  137.4255  159.3496 C   0  0  0  0  0  0  0  0  0  0  0  0
  156.9640  138.7153  159.9301 C   0  0  0  0  0  0  0  0  0  0  0  0
  156.7332  139.6631  159.1830 O   0  0  0  0  0  0  0  0  0  0  0  0
  156.7113  138.7899  161.2485 N   0  0  0  0  0  0  0  0  0  0  0  0
  156.1579  139.9274  161.9897 C   0  0  1  0  0  0  0  0  0  0  0  0
  154.7528  140.2408  161.4374 C   0  0  0  0  0  0  0  0  0  0  0  0
  153.8516  139.4036  161.5058 O   0  0  0  0  0  0  0  0  0  0  0  0
  154.5850  141.4589  160.8984 N   0  0  0  0  0  0  0  0  0  0  0  0
  153.3727  141.9517  160.2463 C   0  0  2  0  0  0  0  0  0  0  0  0
  152.7883  140.8205  159.3894 C   0  0  0  0  0  0  0  0  0  0  0  0
  153.6553  143.2075  159.3917 C   0  0  0  0  0  0  0  0  0  0  0  0
  152.4371  143.8819  158.9272 N   0  0  0  0  0  0  0  0  0  0  0  0
  151.7006  144.8236  159.6004 C   0  0  0  0  0  0  0  0  0  0  0  0
  150.6529  145.1595  158.7825 C   0  0  0  0  0  0  0  0  0  0  0  0
  150.7840  144.3979  157.6527 N   0  3  0  0  0  0  0  0  0  0  0  0
  151.8631  143.6144  157.7470 C   0  0  0  0  0  0  0  0  0  0  0  0
  156.0624  139.5480  163.4975 C   0  0  0  0  0  0  0  0  0  0  0  0
  155.1962  138.2963  163.7453 C   0  0  0  0  0  0  0  0  0  0  0  0
  155.5165  140.7070  164.3560 C   0  0  0  0  0  0  0  0  0  0  0  0
  158.5074  137.1904  159.8087 H   0  0  0  0  0  0  0  0  0  0  0  0
  157.7075  137.5280  158.2757 H   0  0  0  0  0  0  0  0  0  0  0  0
  156.8671  136.5884  159.5070 H   0  0  0  0  0  0  0  0  0  0  0  0
  156.9108  137.9646  161.7951 H   0  0  0  0  0  0  0  0  0  0  0  0
  156.8085  140.7970  161.8813 H   0  0  0  0  0  0  0  0  0  0  0  0
  155.3809  142.0808  160.8963 H   0  0  0  0  0  0  0  0  0  0  0  0
  152.6258  142.1934  161.0047 H   0  0  0  0  0  0  0  0  0  0  0  0
  151.8569  141.1286  158.9134 H   0  0  0  0  0  0  0  0  0  0  0  0
  152.5700  139.9403  159.9955 H   0  0  0  0  0  0  0  0  0  0  0  0
  153.4800  140.5194  158.6016 H   0  0  0  0  0  0  0  0  0  0  0  0
  154.2693  143.9220  159.9427 H   0  0  0  0  0  0  0  0  0  0  0  0
  154.2172  142.9340  158.4978 H   0  0  0  0  0  0  0  0  0  0  0  0
  151.9748  145.1828  160.5818 H   0  0  0  0  0  0  0  0  0  0  0  0
  149.8436  145.8622  158.9179 H   0  0  0  0  0  0  0  0  0  0  0  0
  152.2045  142.9095  157.0101 H   0  0  0  0  0  0  0  0  0  0  0  0
  157.0666  139.3266  163.8636 H   0  0  0  0  0  0  0  0  0  0  0  0
  154.1802  138.4418  163.3773 H   0  0  0  0  0  0  0  0  0  0  0  0
  155.1323  138.0683  164.8096 H   0  0  0  0  0  0  0  0  0  0  0  0
  155.6016  137.4116  163.2579 H   0  0  0  0  0  0  0  0  0  0  0  0
  154.5247  141.0128  164.0215 H   0  0  0  0  0  0  0  0  0  0  0  0
  156.1636  141.5833  164.3231 H   0  0  0  0  0  0  0  0  0  0  0  0
  155.4362  140.4154  165.4037 H   0  0  0  0  0  0  0  0  0  0  0  0
  150.1541  144.4202  156.8604 H   0  0  0  0  0  0  0  0  0  0  0  0
  1  2  1  0  0  0  0
  1 20  1  0  0  0  0
  1 21  1  0  0  0  0
  1 22  1  0  0  0  0
  2  3  2  0  0  0  0
  2  4  1  0  0  0  0
  4  5  1  0  0  0  0
  4 23  1  0  0  0  0
  5  6  1  0  0  0  0
  5 17  1  0  0  0  0
  5 24  1  0  0  0  0
  6  7  2  0  0  0  0
  6  8  1  0  0  0  0
  8  9  1  0  0  0  0
  8 25  1  0  0  0  0
  9 10  1  0  0  0  0
  9 11  1  0  0  0  0
  9 26  1  0  0  0  0
 10 27  1  0  0  0  0
 10 28  1  0  0  0  0
 10 29  1  0  0  0  0
 11 12  1  0  0  0  0
 11 30  1  0  0  0  0
 11 31  1  0  0  0  0
 12 16  1  0  0  0  0
 12 13  1  0  0  0  0
 13 14  2  0  0  0  0
 13 32  1  0  0  0  0
 14 15  1  0  0  0  0
 14 33  1  0  0  0  0
 15 16  2  0  0  0  0
 15 42  1  0  0  0  0
 16 34  1  0  0  0  0
 17 18  1  0  0  0  0
 17 19  1  0  0  0  0
 17 35  1  0  0  0  0
 18 36  1  0  0  0  0
 18 37  1  0  0  0  0
 18 38  1  0  0  0  0
 19 39  1  0  0  0  0
 19 40  1  0  0  0  0
 19 41  1  0  0  0  0
M  CHG  1  15   1
M  END
> <s_m_source_file>
AV-unprocessed.smi

> <i_m_source_file_index>
1648

> <i_lp_mmshare_version>
43012

> <i_f3d_flags>
0

> <s_epik_input>
W0NIM11DKD1PKVtOSF1bQ0BASF0oW0NIXShbQ0gzXSlbQ0gzXSlDKD1PKVtOSF1bQ0BIXShbQ0gzXSlbQ0gyXW4xW2NIXVtjSF1uW2NIXTE=

> <s_epik_cmdline>
J2VwaWtfcHl0aG9uJywgJy1waCcsICc3LjAnLCAnLXRuJywgJzgnLCAnLW1hJywgJzIwMCcsICctbWV0YWxfYmluZGluZycsICctaW1hZScsICc8aW5maWxlLm1hZT4nLCAnLW9tYWUnLCAnPG91dGZpbGUubWFlPic=

> <r_lp_tautomer_probability>
1

> <r_epik_Ionization_Penalty>
0.251562

> <r_epik_Ionization_Penalty_Charging>
0

> <r_epik_Ionization_Penalty_Neutral>
0.251562

> <r_epik_State_Penalty>
0.242926

> <r_epik_Charging_Adjusted_Penalty>
0.242926

> <i_epik_Tot_Q>
1

> <i_epik_Tot_abs_Q>
1

> <r_epik_Metal_State_Penalty>
0.53388

> <b_epik_Metal_Only>
0

> <s_lp_Force_Field>
OPLS_2005

> <r_lp_Energy>
11.0591

> <b_lp_Chiralities_Consistent>
1

> <s_lp_Variant>
AV-unprocessed.smi:1648-2

> <Gold.Version>
5.8.1

> <Gold.Id.Protein>
6NUR|6NUR_protein|mol2

> <Gold.PLP.Fitness>
43.5305

> <Gold.PLP.PLP>
-35.7811

> <Gold.PLP.part.hbond>
-3.2843

> <Gold.PLP.part.metal>
0.0000

> <Gold.PLP.part.buried>
-4.4835

> <Gold.PLP.part.nonpolar>
-27.7886

> <Gold.PLP.part.repulsive>
0.1966

> <Gold.PLP.ligand.clash>
0.0000

> <Gold.PLP.ligand.torsion>
0.6776

> <Gold.PLP.Chemscore.Hbond>
3.0000

> <Gold.PLP.Chemscore.CHOScore>
0.0000

> <Gold.PLP.Chemscore.Metal>
0.0000

> <Gold.Chemscore.Hbonds>
donor molecule, donor type, donor heavy atom, donor atom, acceptor molecule, acceptor atom, score
      L1  H    15    42       P1  8028  2.00
      P1  H  7997  8008       L1     3  0.60

> <Gold.PLP.Chemscore.Internal.Correction>
0.1047

> <Gold.Rescore>
     Score         DG    S(hbond)    S(metal)    S(lipo)     H(rot)  DE(clash)    DE(int)     intcor
     10.95     -14.51       1.97        0.00      78.05       2.61       0.25       3.31       ----

> <Gold.Chemscore.Fitness>
10.9455

> <Gold.Chemscore.DG>
-14.5092

> <Gold.Chemscore.ZeroCoef>
-5.4800

> <Gold.Chemscore.Hbond>
1.9725

> <Gold.Chemscore.Metal>
0.0000

> <Gold.Chemscore.Lipo>
78.0477

> <Gold.Chemscore.Internal_Hbond>
0.0000

> <Gold.Chemscore.DEClash>
0.2509

> <Gold.Chemscore.DEInternal>
3.3128

> <Gold.Chemscore.Rot>
2.6135

> <Gold.Chemscore.Internal.Correction>
   9.000000E+99

> <Gold.Chemscore.Hbonds>
donor molecule, donor type, donor heavy atom, donor atom, acceptor molecule, acceptor atom, score
      L1  H    15    42       P1  8028  0.85
      P1  H  7997  8008       L1     3  0.60

> <Gold.Chemscore.Hbond.Weighted>
-6.5883

> <Gold.Chemscore.Metal.Weighted>
-0.0000

> <Gold.Chemscore.Lipo.Weighted>
-9.1316

> <Gold.Chemscore.Internal_Hbond.Weighted>
0.0000

> <Gold.Chemscore.DEClash.Weighted>
0.2509

> <Gold.Chemscore.DEInternal.Weighted>
3.3128

> <Gold.Chemscore.Rot.Weighted>
6.6906

> <Gold.Chemscore.Internal.Correction.Weighted>
   9.000000E+99

> <Gold.Protein.RotatedTorsions>
[ 6907 6896 6895 6894 ] final -144.17 input  -60.11 | X-H torsion
[ 7974 7965 7964 7962 ] final  -14.82 input  175.53 | X-H torsion
[ 8008 7997 7996 7995 ] final -147.91 input   59.86 | X-H torsion
[ 10167 10162 10161 10158 ] final -144.68 input  -65.29 | X-H torsion
[ 10718 10713 10712 10709 ] final  -45.71 input   66.30 | X-H torsion
[ 10763 10752 10751 10750 ] final -167.05 input  -60.55 | X-H torsion
[ 11005 11000 10999 10996 ] final  -88.31 input  -57.11 | X-H torsion

> <Gold.Protein.ActiveResidues>
 VAL166  LYS551  ARG553  GLY616  TRP617  ASP618  TYR619  PRO620  LYS621  CYS622 
 ASP623  PHE694  ASN695  SER759  ASP760  ASP761  ALA762  ILE779  LEU786  VAL792 
 PHE793  MET794  SER795  GLU796  ALA797  LYS798  CYS799  TRP800  GLU811  SER814 

> <Gold.Protein.RotatedAtoms>
  151.1104  133.5177  159.2605 H   0  0  0  0  0  0  0  0  0  0  0  0  # atno 6907 bound_to 6896
  151.1974  135.0427  159.8868 H   0  0  0  0  0  0  0  0  0  0  0  0  # atno 6908 bound_to 6896
  152.5449  134.0936  159.8341 H   0  0  0  0  0  0  0  0  0  0  0  0  # atno 6909 bound_to 6896
  146.2058  140.3403  142.8407 H   0  0  0  0  0  0  0  0  0  0  0  0  # atno 7974 bound_to 7965
  155.5831  140.0645  157.2778 H   0  0  0  0  0  0  0  0  0  0  0  0  # atno 8008 bound_to 7997
  154.4327  140.1848  156.1043 H   0  0  0  0  0  0  0  0  0  0  0  0  # atno 8009 bound_to 7997
  156.0290  140.3308  155.7123 H   0  0  0  0  0  0  0  0  0  0  0  0  # atno 8010 bound_to 7997
  139.7876  143.8012  152.2646 H   0  0  0  0  0  0  0  0  0  0  0  0  # atno 10167 bound_to 10162
  156.2255  130.4169  149.8939 H   0  0  0  0  0  0  0  0  0  0  0  0  # atno 10718 bound_to 10713
  154.6771  135.2948  154.9664 H   0  0  0  0  0  0  0  0  0  0  0  0  # atno 10763 bound_to 10752
  154.0671  135.6623  153.4823 H   0  0  0  0  0  0  0  0  0  0  0  0  # atno 10764 bound_to 10752
  153.0523  135.5166  154.7795 H   0  0  0  0  0  0  0  0  0  0  0  0  # atno 10765 bound_to 10752
  141.1603  133.7562  156.9433 H   0  0  0  0  0  0  0  0  0  0  0  0  # atno 11005 bound_to 11000
  144.8790  140.7375  143.5999 LP  0  0  0  0  0  0  0  0  0  0  0  0  # atno 17320 bound_to 7965
  145.3323  139.1756  143.4530 LP  0  0  0  0  0  0  0  0  0  0  0  0  # atno 17321 bound_to 7965
  139.8093  144.7342  150.9718 LP  0  0  0  0  0  0  0  0  0  0  0  0  # atno 17342 bound_to 10162
  140.7820  143.4266  151.0758 LP  0  0  0  0  0  0  0  0  0  0  0  0  # atno 17343 bound_to 10162
  156.6571  130.8767  151.3541 LP  0  0  0  0  0  0  0  0  0  0  0  0  # atno 17370 bound_to 10713
  157.7108  130.9438  150.1084 LP  0  0  0  0  0  0  0  0  0  0  0  0  # atno 17371 bound_to 10713
  140.1306  134.9358  157.2332 LP  0  0  0  0  0  0  0  0  0  0  0  0  # atno 17394 bound_to 11000
  140.2957  134.3189  155.7303 LP  0  0  0  0  0  0  0  0  0  0  0  0  # atno 17395 bound_to 11000

$$$$
