AV-unprocessed.smi:3181|AV-procd|sdf|12141|dock3
  -GOLD-   2272017583D 1   1.00000     0.00000
 Structure written by MMmdl.
 42 43  0  0  0  0  0  0  0  0  2 V2000
  149.9834  140.0224  155.0236 C   0  0  0  0  0  0  0  0  0  0  0  0
  149.1510  141.2780  155.3335 C   0  0  2  0  0  0  0  0  0  0  0  0
  148.2591  141.7175  154.1489 C   0  0  0  0  0  0  0  0  0  0  0  0
  146.9825  142.2630  154.5722 N   0  0  0  0  0  0  0  0  0  0  0  0
  146.5069  142.5059  155.7947 C   0  0  0  0  0  0  0  0  0  0  0  0
  145.2822  143.0127  155.8010 N   0  0  0  0  0  0  0  0  0  0  0  0
  145.0487  143.0641  154.4557 C   0  0  0  0  0  0  0  0  0  0  0  0
  146.0374  142.6279  153.6746 N   0  0  0  0  0  0  0  0  0  0  0  0
  150.0590  142.3678  155.7613 N   0  3  0  0  0  0  0  0  0  0  0  0
  150.5548  142.2973  157.1547 C   0  0  1  0  0  0  0  0  0  0  0  0
  151.6430  141.2199  157.2709 C   0  0  0  0  0  0  0  0  0  0  0  0
  152.1848  141.1401  158.7048 C   0  0  0  0  0  0  0  0  0  0  0  0
  152.7375  142.4952  159.1925 C   0  0  2  0  0  0  0  0  0  0  0  0
  153.2650  142.3552  160.6316 C   0  0  0  0  0  0  0  0  0  0  0  0
  151.6682  143.6107  159.0457 C   0  0  1  0  0  0  0  0  0  0  0  0
  152.1940  144.9999  159.4489 C   0  0  0  0  0  0  0  0  0  0  0  0
  151.1216  143.6570  157.6034 C   0  0  0  0  0  0  0  0  0  0  0  0
  149.3501  139.1582  154.8217 H   0  0  0  0  0  0  0  0  0  0  0  0
  150.6230  139.7588  155.8667 H   0  0  0  0  0  0  0  0  0  0  0  0
  150.6248  140.1763  154.1553 H   0  0  0  0  0  0  0  0  0  0  0  0
  148.5087  141.0326  156.1807 H   0  0  0  0  0  0  0  0  0  0  0  0
  148.7585  142.4839  153.5561 H   0  0  0  0  0  0  0  0  0  0  0  0
  148.0754  140.8754  153.4792 H   0  0  0  0  0  0  0  0  0  0  0  0
  147.0657  142.3059  156.6971 H   0  0  0  0  0  0  0  0  0  0  0  0
  144.1225  143.4329  154.0399 H   0  0  0  0  0  0  0  0  0  0  0  0
  150.8700  142.3220  155.1611 H   0  0  0  0  0  0  0  0  0  0  0  0
  149.7345  142.0172  157.8181 H   0  0  0  0  0  0  0  0  0  0  0  0
  151.2415  140.2488  156.9780 H   0  0  0  0  0  0  0  0  0  0  0  0
  152.4618  141.4373  156.5833 H   0  0  0  0  0  0  0  0  0  0  0  0
  151.3912  140.8035  159.3734 H   0  0  0  0  0  0  0  0  0  0  0  0
  152.9666  140.3809  158.7520 H   0  0  0  0  0  0  0  0  0  0  0  0
  153.5857  142.7534  158.5563 H   0  0  0  0  0  0  0  0  0  0  0  0
  152.4538  142.1671  161.3357 H   0  0  0  0  0  0  0  0  0  0  0  0
  153.7935  143.2501  160.9588 H   0  0  0  0  0  0  0  0  0  0  0  0
  153.9695  141.5269  160.7107 H   0  0  0  0  0  0  0  0  0  0  0  0
  150.8342  143.3716  159.7076 H   0  0  0  0  0  0  0  0  0  0  0  0
  153.0782  145.2724  158.8717 H   0  0  0  0  0  0  0  0  0  0  0  0
  152.4562  145.0432  160.5056 H   0  0  0  0  0  0  0  0  0  0  0  0
  151.4395  145.7689  159.2805 H   0  0  0  0  0  0  0  0  0  0  0  0
  151.9174  143.9638  156.9227 H   0  0  0  0  0  0  0  0  0  0  0  0
  150.3511  144.4246  157.5323 H   0  0  0  0  0  0  0  0  0  0  0  0
  149.6093  143.2601  155.6126 H   0  0  0  0  0  0  0  0  0  0  0  0
  1  2  1  0  0  0  0
  1 18  1  0  0  0  0
  1 19  1  0  0  0  0
  1 20  1  0  0  0  0
  2  3  1  0  0  0  0
  2  9  1  0  0  0  0
  2 21  1  0  0  0  0
  3  4  1  0  0  0  0
  3 22  1  0  0  0  0
  3 23  1  0  0  0  0
  4  8  1  0  0  0  0
  4  5  1  0  0  0  0
  5  6  2  0  0  0  0
  5 24  1  0  0  0  0
  6  7  1  0  0  0  0
  7  8  2  0  0  0  0
  7 25  1  0  0  0  0
  9 10  1  0  0  0  0
  9 26  1  0  0  0  0
  9 42  1  0  0  0  0
 10 17  1  0  0  0  0
 10 11  1  0  0  0  0
 10 27  1  0  0  0  0
 11 12  1  0  0  0  0
 11 28  1  0  0  0  0
 11 29  1  0  0  0  0
 12 13  1  0  0  0  0
 12 30  1  0  0  0  0
 12 31  1  0  0  0  0
 13 14  1  0  0  0  0
 13 15  1  0  0  0  0
 13 32  1  0  0  0  0
 14 33  1  0  0  0  0
 14 34  1  0  0  0  0
 14 35  1  0  0  0  0
 15 16  1  0  0  0  0
 15 17  1  0  0  0  0
 15 36  1  0  0  0  0
 16 37  1  0  0  0  0
 16 38  1  0  0  0  0
 16 39  1  0  0  0  0
 17 40  1  0  0  0  0
 17 41  1  0  0  0  0
M  CHG  1   9   1
M  END
> <s_m_source_file>
AV-unprocessed.smi

> <i_m_source_file_index>
3181

> <i_lp_mmshare_version>
43012

> <i_f3d_flags>
0

> <s_epik_input>
bjFbY0hdbltjSF1uMVtDSDJdW0NAQEhdKFtDSDNdKVtOSF1bQ0BASF0yW0NIMl1bQ0gyXVtDQEBIXShbQ0gzXSlbQ0BASF0oW0NIM10pW0NIMl0y

> <s_epik_cmdline>
J2VwaWtfcHl0aG9uJywgJy1waCcsICc3LjAnLCAnLXRuJywgJzgnLCAnLW1hJywgJzIwMCcsICctbWV0YWxfYmluZGluZycsICctaW1hZScsICc8aW5maWxlLm1hZT4nLCAnLW9tYWUnLCAnPG91dGZpbGUubWFlPic=

> <r_lp_tautomer_probability>
1

> <r_epik_Ionization_Penalty>
0.000617007

> <r_epik_Ionization_Penalty_Charging>
0.000616215

> <r_epik_Ionization_Penalty_Neutral>
7.92544e-07

> <r_epik_State_Penalty>
0.000388807

> <r_epik_Charging_Adjusted_Penalty>
0.00100502

> <i_epik_Tot_Q>
1

> <i_epik_Tot_abs_Q>
1

> <r_epik_Metal_State_Penalty>
-0

> <b_epik_Metal_Only>
0

> <s_lp_Force_Field>
OPLS_2005

> <r_lp_Energy>
19.8131

> <b_lp_Chiralities_Consistent>
1

> <s_lp_Variant>
AV-unprocessed.smi:3181-7

> <Gold.Version>
5.8.1

> <Gold.Id.Protein>
6NUR|6NUR_protein|mol2

> <Gold.PLP.Fitness>
46.3920

> <Gold.PLP.PLP>
-38.9569

> <Gold.PLP.part.hbond>
-1.0000

> <Gold.PLP.part.metal>
0.0000

> <Gold.PLP.part.buried>
-1.8912

> <Gold.PLP.part.nonpolar>
-36.6406

> <Gold.PLP.part.repulsive>
0.5223

> <Gold.PLP.ligand.clash>
0.0000

> <Gold.PLP.ligand.torsion>
0.7981

> <Gold.PLP.Chemscore.Hbond>
2.0000

> <Gold.PLP.Chemscore.CHOScore>
0.9979

> <Gold.PLP.Chemscore.Metal>
0.0000

> <Gold.Chemscore.Hbonds>
donor molecule, donor type, donor heavy atom, donor atom, acceptor molecule, acceptor atom, score
      L1  H     9    42       P1  8028  2.00
      L1  C     7    25       P1 10174  0.89

> <Gold.PLP.Chemscore.Internal.Correction>
0.0376

> <Gold.Rescore>
     Score         DG    S(hbond)    S(metal)    S(lipo)     H(rot)  DE(clash)    DE(int)     intcor
     13.98     -14.89       1.00        0.00      98.13       2.11       0.02       0.88       ----

> <Gold.Chemscore.Fitness>
13.9845

> <Gold.Chemscore.DG>
-14.8927

> <Gold.Chemscore.ZeroCoef>
-5.4800

> <Gold.Chemscore.Hbond>
0.9976

> <Gold.Chemscore.Metal>
0.0000

> <Gold.Chemscore.Lipo>
98.1297

> <Gold.Chemscore.Internal_Hbond>
0.0000

> <Gold.Chemscore.DEClash>
0.0234

> <Gold.Chemscore.DEInternal>
0.8847

> <Gold.Chemscore.Rot>
2.1095

> <Gold.Chemscore.Internal.Correction>
   9.000000E+99

> <Gold.Chemscore.Hbonds>
donor molecule, donor type, donor heavy atom, donor atom, acceptor molecule, acceptor atom, score
      L1  H     9    42       P1  8028  0.99

> <Gold.Chemscore.Hbond.Weighted>
-3.3318

> <Gold.Chemscore.Metal.Weighted>
-0.0000

> <Gold.Chemscore.Lipo.Weighted>
-11.4812

> <Gold.Chemscore.Internal_Hbond.Weighted>
0.0000

> <Gold.Chemscore.DEClash.Weighted>
0.0234

> <Gold.Chemscore.DEInternal.Weighted>
0.8847

> <Gold.Chemscore.Rot.Weighted>
5.4003

> <Gold.Chemscore.Internal.Correction.Weighted>
   9.000000E+99

> <Gold.Protein.RotatedTorsions>
[ 6907 6896 6895 6894 ] final   64.56 input  -60.11 | X-H torsion
[ 7974 7965 7964 7962 ] final -104.23 input  175.53 | X-H torsion
[ 8008 7997 7996 7995 ] final   30.94 input   59.86 | X-H torsion
[ 10167 10162 10161 10158 ] final   17.04 input  -65.29 | X-H torsion
[ 10718 10713 10712 10709 ] final -133.14 input   66.30 | X-H torsion
[ 10763 10752 10751 10750 ] final  -74.66 input  -60.55 | X-H torsion
[ 11005 11000 10999 10996 ] final  106.53 input  -57.11 | X-H torsion

> <Gold.Protein.ActiveResidues>
 VAL166  LYS551  ARG553  GLY616  TRP617  ASP618  TYR619  PRO620  LYS621  CYS622 
 ASP623  PHE694  ASN695  SER759  ASP760  ASP761  ALA762  ILE779  LEU786  VAL792 
 PHE793  MET794  SER795  GLU796  ALA797  LYS798  CYS799  TRP800  GLU811  SER814 

> <Gold.Protein.RotatedAtoms>
  152.4341  134.5721  159.9923 H   0  0  0  0  0  0  0  0  0  0  0  0  # atno 6907 bound_to 6896
  151.5836  133.3369  159.3021 H   0  0  0  0  0  0  0  0  0  0  0  0  # atno 6908 bound_to 6896
  150.8237  134.7493  159.6859 H   0  0  0  0  0  0  0  0  0  0  0  0  # atno 6909 bound_to 6896
  145.2458  140.9221  143.3123 H   0  0  0  0  0  0  0  0  0  0  0  0  # atno 7974 bound_to 7965
  155.0984  140.3227  155.4554 H   0  0  0  0  0  0  0  0  0  0  0  0  # atno 8008 bound_to 7997
  156.2724  140.2065  156.6057 H   0  0  0  0  0  0  0  0  0  0  0  0  # atno 8009 bound_to 7997
  154.6848  140.0522  157.0290 H   0  0  0  0  0  0  0  0  0  0  0  0  # atno 8010 bound_to 7997
  140.5754  143.9081  150.6746 H   0  0  0  0  0  0  0  0  0  0  0  0  # atno 10167 bound_to 10162
  156.2419  130.7101  151.0965 H   0  0  0  0  0  0  0  0  0  0  0  0  # atno 10718 bound_to 10713
  154.4761  135.5857  153.6356 H   0  0  0  0  0  0  0  0  0  0  0  0  # atno 10763 bound_to 10752
  152.9841  135.6078  154.3305 H   0  0  0  0  0  0  0  0  0  0  0  0  # atno 10764 bound_to 10752
  154.3191  135.2844  155.2507 H   0  0  0  0  0  0  0  0  0  0  0  0  # atno 10765 bound_to 10752
  139.8815  134.9372  156.5681 H   0  0  0  0  0  0  0  0  0  0  0  0  # atno 11005 bound_to 11000
  144.9547  139.4044  143.6385 LP  0  0  0  0  0  0  0  0  0  0  0  0  # atno 17320 bound_to 7965
  146.3316  139.8571  142.8862 LP  0  0  0  0  0  0  0  0  0  0  0  0  # atno 17321 bound_to 7965
  140.2567  143.3553  152.1358 LP  0  0  0  0  0  0  0  0  0  0  0  0  # atno 17342 bound_to 10162
  139.5140  144.6941  151.5678 LP  0  0  0  0  0  0  0  0  0  0  0  0  # atno 17343 bound_to 10162
  157.7179  131.0699  150.6256 LP  0  0  0  0  0  0  0  0  0  0  0  0  # atno 17370 bound_to 10713
  156.6329  130.4437  149.5780 LP  0  0  0  0  0  0  0  0  0  0  0  0  # atno 17371 bound_to 10713
  140.8119  133.8423  155.8817 LP  0  0  0  0  0  0  0  0  0  0  0  0  # atno 17394 bound_to 11000
  140.9499  134.1793  157.4736 LP  0  0  0  0  0  0  0  0  0  0  0  0  # atno 17395 bound_to 11000

$$$$
