#       Name:                AV-unprocessed.smi:1712
#       Creating user name   scv26
#       Creation time:       Fri Mar 27 08:10:38 2020


#       File generated by GOLD software.
#

@<TRIPOS>MOLECULE
AV-unprocessed.smi:1712
    43    44     1
SMALL
NO_CHARGES


@<TRIPOS>ATOM
      1 ****        -1.4743   0.8012   0.2131 C.3            1 S1                 0.0000
      2 ****        -0.9610  -0.6599   0.2835 C.3            1 S1                 0.0000
      3 ****         0.5944  -0.6557   0.2602 C.3            1 S1                 0.0000
      4 ****         1.1508   0.0233  -0.9083 N.am           1 S1                 0.0000
      5 ****         1.8294   1.1799  -0.8907 C.2            1 S1                 0.0000
      6 ****         2.0587   1.8233   0.1336 O.2            1 S1                 0.0000
      7 ****         2.2137   1.5368  -2.1271 N.am           1 S1                 0.0000
      8 ****         2.9220   2.7055  -2.5048 C.2            1 S1                 0.0000
      9 ****         3.3025   3.0260  -3.8362 C.2            1 S1                 0.0000
     10 ****         3.9501   4.1812  -3.8894 N.2            1 S1                 0.0000
     11 ****         3.9858   4.6015  -2.6047 N.pl3          1 S1                 0.0000
     12 ****         3.3722   3.7352  -1.7270 C.2            1 S1                 0.0000
     13 ****        -1.5216  -1.4112   1.4322 N.3            1 S1                 0.0000
     14 ****        -2.9892  -1.4070   1.4515 C.3            1 S1                 0.0000
     15 ****        -3.5747  -2.2072   2.6278 C.3            1 S1                 0.0000
     16 ****        -3.0939  -3.5430   2.5841 O.3            1 S1                 0.0000
     17 ****        -1.6756  -3.6000   2.6440 C.3            1 S1                 0.0000
     18 ****        -1.0737  -2.8088   1.4699 C.3            1 S1                 0.0000
     19 ****         4.4272   5.4723  -2.3454 H              1 S1                 0.0000
     20 ****        -1.0515   1.3488  -0.6280 H              1 S1                 0.0000
     21 ****        -1.2255   1.3511   1.1214 H              1 S1                 0.0000
     22 ****        -2.5516   0.8588   0.0667 H              1 S1                 0.0000
     23 ****        -1.2908  -1.1538  -0.6320 H              1 S1                 0.0000
     24 ****         0.9809  -0.2336   1.1895 H              1 S1                 0.0000
     25 ****         0.9903  -1.6673   0.1980 H              1 S1                 0.0000
     26 ****         1.0103  -0.4281  -1.8001 H              1 S1                 0.0000
     27 ****         1.9661   0.9108  -2.8795 H              1 S1                 0.0000
     28 ****         3.1335   2.4705  -4.7470 H              1 S1                 0.0000
     29 ****         3.3162   3.9302  -0.6663 H              1 S1                 0.0000
     30 ****        -3.3693  -0.3912   1.5416 H              1 S1                 0.0000
     31 ****        -3.3733  -1.8088   0.5128 H              1 S1                 0.0000
     32 ****        -3.3074  -1.7461   3.5799 H              1 S1                 0.0000
     33 ****        -4.6632  -2.2195   2.5726 H              1 S1                 0.0000
     34 ****        -1.3266  -3.2012   3.5977 H              1 S1                 0.0000
     35 ****        -1.3598  -4.6424   2.5989 H              1 S1                 0.0000
     36 ****        -1.3291  -3.3045   0.5322 H              1 S1                 0.0000
     37 ****         0.0077  -2.8656   1.5754 H              1 S1                 0.0000
     38 ****         1.7325   1.4887   1.0177 LP             1 S1                 0.0000
     39 ****         2.5711   2.6804   0.0815 LP             1 S1                 0.0000
     40 ****         4.3264   4.6377  -4.6956 LP             1 S1                 0.0000
     41 ****        -1.1755  -0.9279   2.2363 LP             1 S1                 0.0000
     42 ****        -3.3984  -3.9681   1.7317 LP             1 S1                 0.0000
     43 ****        -3.4704  -4.0474   3.3612 LP             1 S1                 0.0000
@<TRIPOS>BOND
    1    1    2 1     
    2    1   20 1     
    3    1   21 1     
    4    1   22 1     
    5    2    3 1     
    6    2   13 1     
    7    2   23 1     
    8    3    4 1     
    9    3   24 1     
   10    3   25 1     
   11    4    5 am    
   12    4   26 1     
   13    5    6 2     
   14    5    7 am    
   15    7    8 1     
   16    7   27 1     
   17    8   12 2     
   18    8    9 1     
   19    9   10 2     
   20    9   28 1     
   21   10   11 1     
   22   11   19 1     
   23   11   12 1     
   24   12   29 1     
   25   13   18 1     
   26   13   14 1     
   27   14   15 1     
   28   14   30 1     
   29   14   31 1     
   30   15   16 1     
   31   15   32 1     
   32   15   33 1     
   33   16   17 1     
   34   17   18 1     
   35   17   34 1     
   36   17   35 1     
   37   18   36 1     
   38   18   37 1     
   39    6   38 1     
   40    6   39 1     
   41   10   40 1     
   42   13   41 1     
   43   16   42 1     
   44   16   43 1     
@<TRIPOS>SUBSTRUCTURE
      1 S1             1
@<TRIPOS>SET
LONE_PAIRS      STATIC     ATOMS    <user>   **** ""
6 38 39 40 41 42 43
DONOR_HYDROGENS      STATIC     ATOMS    <user>   **** ""
3 26 27 19
ATOM$BLUE        STATIC     ATOMS    COLORGROUP SYSTEM
6 38 39 40 41 42 43
ATOM$RED        STATIC     ATOMS    COLORGROUP SYSTEM
3 26 27 19
