#       Name:                AV-unprocessed.smi:2742
#       Creating user name   scv26
#       Creation time:       Fri Mar 27 15:01:51 2020


#       File generated by GOLD software.
#

@<TRIPOS>MOLECULE
AV-unprocessed.smi:2742
    40    41     1
SMALL
NO_CHARGES


@<TRIPOS>ATOM
      1 ****        -4.3982   2.4029  -2.7918 C.3            1 S1                 0.0000
      2 ****        -3.9518   1.0638  -1.6538 S.3            1 S1                 0.0000
      3 ****        -2.1738   0.9082  -1.9948 C.3            1 S1                 0.0000
      4 ****        -1.9186   0.1583  -3.3163 C.3            1 S1                 0.0000
      5 ****        -0.4146  -0.0074  -3.5861 C.3            1 S1                 0.0000
      6 ****         0.2892  -0.7083  -2.4138 C.3            1 S1                 0.0000
      7 ****         0.0463   0.0388  -1.0902 C.3            1 S1                 0.0000
      8 ****         0.6866  -0.6823   0.0061 N.am           1 S1                 0.0000
      9 ****         1.1218  -0.1291   1.1475 C.2            1 S1                 0.0000
     10 ****         1.0251   1.0721   1.3969 O.2            1 S1                 0.0000
     11 ****         1.6756  -1.0530   1.9519 N.am           1 S1                 0.0000
     12 ****         2.2695  -0.8902   3.2344 C.ar           1 S1                 0.0000
     13 ****         2.0927   0.2455   4.0623 C.ar           1 S1                 0.0000
     14 ****         2.7310   0.2715   5.3186 C.ar           1 S1                 0.0000
     15 ****         3.5014  -0.7343   5.7836 N.ar           1 S1                 0.0000
     16 ****         3.6584  -1.8201   4.9975 C.ar           1 S1                 0.0000
     17 ****         3.0648  -1.9473   3.7256 C.ar           1 S1                 0.0000
     18 ****         3.2608  -3.0683   2.9898 F              1 S1                 0.0000
     19 ****        -1.4645   0.2019  -0.8250 C.3            1 S1                 0.0000
     20 ****        -5.4551   2.6466  -2.6843 H              1 S1                 0.0000
     21 ****        -4.2188   2.1102  -3.8259 H              1 S1                 0.0000
     22 ****        -3.8149   3.2981  -2.5756 H              1 S1                 0.0000
     23 ****        -1.7685   1.9176  -2.0755 H              1 S1                 0.0000
     24 ****        -2.3914  -0.8241  -3.2793 H              1 S1                 0.0000
     25 ****        -2.3768   0.6893  -4.1502 H              1 S1                 0.0000
     26 ****        -0.2624  -0.5756  -4.5041 H              1 S1                 0.0000
     27 ****         0.0369   0.9718  -3.7503 H              1 S1                 0.0000
     28 ****        -0.0755  -1.7336  -2.3345 H              1 S1                 0.0000
     29 ****         1.3591  -0.7752  -2.6155 H              1 S1                 0.0000
     30 ****         0.4971   1.0295  -1.1757 H              1 S1                 0.0000
     31 ****         0.8095  -1.6768  -0.1168 H              1 S1                 0.0000
     32 ****         1.7273  -1.9884   1.5758 H              1 S1                 0.0000
     33 ****         1.4808   1.0851   3.7729 H              1 S1                 0.0000
     34 ****         2.6142   1.1242   5.9711 H              1 S1                 0.0000
     35 ****         4.2745  -2.6128   5.3950 H              1 S1                 0.0000
     36 ****        -1.6214   0.7699   0.0928 H              1 S1                 0.0000
     37 ****        -1.9169  -0.7776  -0.6623 H              1 S1                 0.0000
     38 ****         0.6046   1.6887   0.7313 LP             1 S1                 0.0000
     39 ****         1.3670   1.4316   2.2651 LP             1 S1                 0.0000
     40 ****         3.9409  -0.6770   6.6800 LP             1 S1                 0.0000
@<TRIPOS>BOND
    1    1    2 1     
    2    1   20 1     
    3    1   21 1     
    4    1   22 1     
    5    2    3 1     
    6    3   19 1     
    7    3    4 1     
    8    3   23 1     
    9    4    5 1     
   10    4   24 1     
   11    4   25 1     
   12    5    6 1     
   13    5   26 1     
   14    5   27 1     
   15    6    7 1     
   16    6   28 1     
   17    6   29 1     
   18    7    8 1     
   19    7   19 1     
   20    7   30 1     
   21    8    9 am    
   22    8   31 1     
   23    9   10 2     
   24    9   11 am    
   25   11   12 1     
   26   11   32 1     
   27   12   17 ar    
   28   12   13 ar    
   29   13   14 ar    
   30   13   33 1     
   31   14   15 ar    
   32   14   34 1     
   33   15   16 ar    
   34   16   17 ar    
   35   16   35 1     
   36   17   18 1     
   37   19   36 1     
   38   19   37 1     
   39   10   38 1     
   40   10   39 1     
   41   15   40 1     
@<TRIPOS>SUBSTRUCTURE
      1 S1             1
@<TRIPOS>SET
LONE_PAIRS      STATIC     ATOMS    <user>   **** ""
3 38 39 40
DONOR_HYDROGENS      STATIC     ATOMS    <user>   **** ""
2 31 32
ATOM$BLUE        STATIC     ATOMS    COLORGROUP SYSTEM
3 38 39 40
ATOM$RED        STATIC     ATOMS    COLORGROUP SYSTEM
2 31 32
