AV-unprocessed.smi:831|AV-procd|sdf|3874|dock7
  -GOLD-   22720 1323D 1   1.00000     0.00000
 Structure written by MMmdl.
 50 51  0  0  0  0  0  0  0  0  1 V2000
  147.6897  131.0649  153.6925 C   0  0  0  0  0  0  0  0  0  0  0  0
  148.1960  132.5139  153.7272 C   0  0  0  0  0  0  0  0  0  0  0  0
  148.0241  133.1856  152.3556 C   0  0  0  0  0  0  0  0  0  0  0  0
  149.6560  132.5782  154.2035 C   0  0  0  0  0  0  0  0  0  0  0  0
  150.1466  133.9015  154.0192 O   0  0  0  0  0  0  0  0  0  0  0  0
  149.9990  134.7659  155.1413 C   0  0  2  0  0  0  0  0  0  0  0  0
  148.5431  135.2536  155.1485 C   0  0  0  0  0  0  0  0  0  0  0  0
  150.9738  135.9556  155.0139 C   0  0  0  0  0  0  0  0  0  0  0  0
  151.8765  136.0824  155.8392 O   0  0  0  0  0  0  0  0  0  0  0  0
  150.8197  136.8542  154.0275 N   0  0  0  0  0  0  0  0  0  0  0  0
  151.6437  138.0288  153.7634 C   0  0  0  0  0  0  0  0  0  0  0  0
  151.6201  139.0683  154.8747 C   0  0  0  0  0  0  0  0  0  0  0  0
  150.5533  139.9768  155.0468 C   0  0  0  0  0  0  0  0  0  0  0  0
  150.6050  140.9003  156.1078 C   0  0  0  0  0  0  0  0  0  0  0  0
  151.7218  140.8945  156.9765 C   0  0  0  0  0  0  0  0  0  0  0  0
  151.7937  141.8149  158.0443 N   0  0  0  0  0  0  0  0  0  0  0  0
  152.8837  141.6680  159.0072 C   0  0  0  0  0  0  0  0  0  0  0  0
  152.6321  142.5547  160.2385 C   0  0  0  0  0  0  0  0  0  0  0  0
  152.4415  143.9040  159.8264 O   0  0  0  0  0  0  0  0  0  0  0  0
  151.3082  144.0426  158.9761 C   0  0  0  0  0  0  0  0  0  0  0  0
  151.5078  143.2056  157.7008 C   0  0  0  0  0  0  0  0  0  0  0  0
  152.7383  140.0115  156.8169 N   0  0  0  0  0  0  0  0  0  0  0  0
  152.6846  139.1295  155.7967 C   0  0  0  0  0  0  0  0  0  0  0  0
  148.2635  130.4610  152.9887 H   0  0  0  0  0  0  0  0  0  0  0  0
  146.6426  131.0220  153.3918 H   0  0  0  0  0  0  0  0  0  0  0  0
  147.7678  130.5969  154.6742 H   0  0  0  0  0  0  0  0  0  0  0  0
  147.5836  133.0576  154.4477 H   0  0  0  0  0  0  0  0  0  0  0  0
  148.6232  132.6876  151.5927 H   0  0  0  0  0  0  0  0  0  0  0  0
  148.3294  134.2318  152.3851 H   0  0  0  0  0  0  0  0  0  0  0  0
  146.9835  133.1579  152.0317 H   0  0  0  0  0  0  0  0  0  0  0  0
  149.7179  132.3211  155.2621 H   0  0  0  0  0  0  0  0  0  0  0  0
  150.2540  131.8474  153.6579 H   0  0  0  0  0  0  0  0  0  0  0  0
  150.1637  134.1882  156.0499 H   0  0  0  0  0  0  0  0  0  0  0  0
  148.3552  135.9247  155.9874 H   0  0  0  0  0  0  0  0  0  0  0  0
  147.8551  134.4128  155.2399 H   0  0  0  0  0  0  0  0  0  0  0  0
  148.2918  135.7853  154.2298 H   0  0  0  0  0  0  0  0  0  0  0  0
  150.0356  136.7159  153.4070 H   0  0  0  0  0  0  0  0  0  0  0  0
  152.6802  137.7214  153.6185 H   0  0  0  0  0  0  0  0  0  0  0  0
  151.3083  138.4978  152.8370 H   0  0  0  0  0  0  0  0  0  0  0  0
  149.6974  139.9734  154.3882 H   0  0  0  0  0  0  0  0  0  0  0  0
  149.7842  141.5871  156.2516 H   0  0  0  0  0  0  0  0  0  0  0  0
  152.9714  140.6276  159.3230 H   0  0  0  0  0  0  0  0  0  0  0  0
  153.8256  141.9466  158.5328 H   0  0  0  0  0  0  0  0  0  0  0  0
  151.7612  142.2067  160.7965 H   0  0  0  0  0  0  0  0  0  0  0  0
  153.4843  142.5072  160.9166 H   0  0  0  0  0  0  0  0  0  0  0  0
  150.4037  143.7367  159.5044 H   0  0  0  0  0  0  0  0  0  0  0  0
  151.1848  145.0948  158.7189 H   0  0  0  0  0  0  0  0  0  0  0  0
  152.3431  143.6027  157.1223 H   0  0  0  0  0  0  0  0  0  0  0  0
  150.6202  143.2944  157.0763 H   0  0  0  0  0  0  0  0  0  0  0  0
  153.5192  138.4486  155.7158 H   0  0  0  0  0  0  0  0  0  0  0  0
  1  2  1  0  0  0  0
  1 24  1  0  0  0  0
  1 25  1  0  0  0  0
  1 26  1  0  0  0  0
  2  3  1  0  0  0  0
  2  4  1  0  0  0  0
  2 27  1  0  0  0  0
  3 28  1  0  0  0  0
  3 29  1  0  0  0  0
  3 30  1  0  0  0  0
  4  5  1  0  0  0  0
  4 31  1  0  0  0  0
  4 32  1  0  0  0  0
  5  6  1  0  0  0  0
  6  7  1  0  0  0  0
  6  8  1  0  0  0  0
  6 33  1  0  0  0  0
  7 34  1  0  0  0  0
  7 35  1  0  0  0  0
  7 36  1  0  0  0  0
  8  9  2  0  0  0  0
  8 10  1  0  0  0  0
 10 11  1  0  0  0  0
 10 37  1  0  0  0  0
 11 12  1  0  0  0  0
 11 38  1  0  0  0  0
 11 39  1  0  0  0  0
 12 23  1  0  0  0  0
 12 13  2  0  0  0  0
 13 14  1  0  0  0  0
 13 40  1  0  0  0  0
 14 15  2  0  0  0  0
 14 41  1  0  0  0  0
 15 16  1  0  0  0  0
 15 22  1  0  0  0  0
 16 21  1  0  0  0  0
 16 17  1  0  0  0  0
 17 18  1  0  0  0  0
 17 42  1  0  0  0  0
 17 43  1  0  0  0  0
 18 19  1  0  0  0  0
 18 44  1  0  0  0  0
 18 45  1  0  0  0  0
 19 20  1  0  0  0  0
 20 21  1  0  0  0  0
 20 46  1  0  0  0  0
 20 47  1  0  0  0  0
 21 48  1  0  0  0  0
 21 49  1  0  0  0  0
 22 23  2  0  0  0  0
 23 50  1  0  0  0  0
M  END
> <s_m_source_file>
AV-unprocessed.smi

> <i_m_source_file_index>
831

> <i_lp_mmshare_version>
43012

> <i_f3d_flags>
0

> <s_epik_input>
W0NIM11bQ0hdKFtDSDNdKVtDSDJdT1tDQEhdKFtDSDNdKUMoPU8pW05IXVtDSDJdYzFbY0hdW2NIXWMobltjSF0xKU4yW0NIMl1bQ0gyXU9bQ0gyXVtDSDJdMg==

> <s_epik_cmdline>
J2VwaWtfcHl0aG9uJywgJy1waCcsICc3LjAnLCAnLXRuJywgJzgnLCAnLW1hJywgJzIwMCcsICctbWV0YWxfYmluZGluZycsICctaW1hZScsICc8aW5maWxlLm1hZT4nLCAnLW9tYWUnLCAnPG91dGZpbGUubWFlPic=

> <r_lp_tautomer_probability>
1

> <r_epik_Ionization_Penalty>
0.00456501

> <r_epik_Ionization_Penalty_Charging>
0

> <r_epik_Ionization_Penalty_Neutral>
0.00456501

> <r_epik_State_Penalty>
0.00329791

> <r_epik_Charging_Adjusted_Penalty>
0.00329791

> <i_epik_Tot_Q>
0

> <i_epik_Tot_abs_Q>
0

> <r_epik_Metal_State_Penalty>
-0

> <b_epik_Metal_Only>
0

> <s_lp_Force_Field>
OPLS_2005

> <r_lp_Energy>
23.9744

> <b_lp_Chiralities_Consistent>
1

> <s_lp_Variant>
AV-unprocessed.smi:831-1

> <Gold.Version>
5.8.1

> <Gold.Id.Protein>
6NUR|6NUR_protein|mol2

> <Gold.PLP.Fitness>
49.4538

> <Gold.PLP.PLP>
-42.9630

> <Gold.PLP.part.hbond>
-4.0000

> <Gold.PLP.part.metal>
0.0000

> <Gold.PLP.part.buried>
-0.9051

> <Gold.PLP.part.nonpolar>
-36.0520

> <Gold.PLP.part.repulsive>
0.2852

> <Gold.PLP.ligand.clash>
0.0000

> <Gold.PLP.ligand.torsion>
0.9883

> <Gold.PLP.Chemscore.Hbond>
2.6840

> <Gold.PLP.Chemscore.CHOScore>
0.0000

> <Gold.PLP.Chemscore.Metal>
0.0000

> <Gold.Chemscore.Hbonds>
donor molecule, donor type, donor heavy atom, donor atom, acceptor molecule, acceptor atom, score
      L1  H    10    37       P1  7948  0.80
      P1  H  7997  8010       L1    22  0.61
      P1  H 10752 10763       L1     9  1.00

> <Gold.PLP.Chemscore.Internal.Correction>
0.4153

> <Gold.Rescore>
     Score         DG    S(hbond)    S(metal)    S(lipo)     H(rot)  DE(clash)    DE(int)     intcor
     18.41     -19.67       2.10        0.00     103.16       1.92       0.21       1.05       ----

> <Gold.Chemscore.Fitness>
18.4084

> <Gold.Chemscore.DG>
-19.6680

> <Gold.Chemscore.ZeroCoef>
-5.4800

> <Gold.Chemscore.Hbond>
2.1026

> <Gold.Chemscore.Metal>
0.0000

> <Gold.Chemscore.Lipo>
103.1631

> <Gold.Chemscore.Internal_Hbond>
0.0000

> <Gold.Chemscore.DEClash>
0.2110

> <Gold.Chemscore.DEInternal>
1.0486

> <Gold.Chemscore.Rot>
1.9159

> <Gold.Chemscore.Internal.Correction>
   9.000000E+99

> <Gold.Chemscore.Hbonds>
donor molecule, donor type, donor heavy atom, donor atom, acceptor molecule, acceptor atom, score
      L1  H    10    37       P1  7948  0.12
      P1  H  7997  8010       L1    22  0.08
      P1  H 10752 10763       L1     9  0.58

> <Gold.Chemscore.Hbond.Weighted>
-7.0227

> <Gold.Chemscore.Metal.Weighted>
-0.0000

> <Gold.Chemscore.Lipo.Weighted>
-12.0701

> <Gold.Chemscore.Internal_Hbond.Weighted>
0.0000

> <Gold.Chemscore.DEClash.Weighted>
0.2110

> <Gold.Chemscore.DEInternal.Weighted>
1.0486

> <Gold.Chemscore.Rot.Weighted>
4.9047

> <Gold.Chemscore.Internal.Correction.Weighted>
   9.000000E+99

> <Gold.Protein.RotatedTorsions>
[ 6907 6896 6895 6894 ] final   54.68 input  -60.11 | X-H torsion
[ 7974 7965 7964 7962 ] final  -28.66 input  175.53 | X-H torsion
[ 8008 7997 7996 7995 ] final   43.46 input   59.86 | X-H torsion
[ 10167 10162 10161 10158 ] final  123.92 input  -65.29 | X-H torsion
[ 10718 10713 10712 10709 ] final -179.12 input   66.30 | X-H torsion
[ 10763 10752 10751 10750 ] final  100.53 input  -60.55 | X-H torsion
[ 11005 11000 10999 10996 ] final  -92.30 input  -57.11 | X-H torsion

> <Gold.Protein.ActiveResidues>
 VAL166  LYS551  ARG553  GLY616  TRP617  ASP618  TYR619  PRO620  LYS621  CYS622 
 ASP623  PHE694  ASN695  SER759  ASP760  ASP761  ALA762  ILE779  LEU786  VAL792 
 PHE793  MET794  SER795  GLU796  ALA797  LYS798  CYS799  TRP800  GLU811  SER814 

> <Gold.Protein.RotatedAtoms>
  152.3463  134.7067  160.0249 H   0  0  0  0  0  0  0  0  0  0  0  0  # atno 6907 bound_to 6896
  151.7436  133.3318  159.3380 H   0  0  0  0  0  0  0  0  0  0  0  0  # atno 6908 bound_to 6896
  150.7511  134.6189  159.6170 H   0  0  0  0  0  0  0  0  0  0  0  0  # atno 6909 bound_to 6896
  146.1272  140.5312  142.8709 H   0  0  0  0  0  0  0  0  0  0  0  0  # atno 7974 bound_to 7965
  155.3031  140.3386  155.4247 H   0  0  0  0  0  0  0  0  0  0  0  0  # atno 8008 bound_to 7997
  156.1991  140.1726  156.7975 H   0  0  0  0  0  0  0  0  0  0  0  0  # atno 8009 bound_to 7997
  154.5537  140.0700  156.8692 H   0  0  0  0  0  0  0  0  0  0  0  0  # atno 8010 bound_to 7997
  139.5771  144.6969  151.3623 H   0  0  0  0  0  0  0  0  0  0  0  0  # atno 10167 bound_to 10162
  156.8544  130.9730  151.3089 H   0  0  0  0  0  0  0  0  0  0  0  0  # atno 10718 bound_to 10713
  153.3151  135.4076  155.1369 H   0  0  0  0  0  0  0  0  0  0  0  0  # atno 10763 bound_to 10752
  154.8586  135.3574  154.5671 H   0  0  0  0  0  0  0  0  0  0  0  0  # atno 10764 bound_to 10752
  153.6102  135.7068  153.5408 H   0  0  0  0  0  0  0  0  0  0  0  0  # atno 10765 bound_to 10752
  141.1525  133.7812  157.0001 H   0  0  0  0  0  0  0  0  0  0  0  0  # atno 11005 bound_to 11000
  144.7654  140.5518  143.6707 LP  0  0  0  0  0  0  0  0  0  0  0  0  # atno 17320 bound_to 7965
  145.5340  139.1475  143.3484 LP  0  0  0  0  0  0  0  0  0  0  0  0  # atno 17321 bound_to 7965
  140.7053  143.7529  150.7472 LP  0  0  0  0  0  0  0  0  0  0  0  0  # atno 17342 bound_to 10162
  140.1052  143.4751  152.2402 LP  0  0  0  0  0  0  0  0  0  0  0  0  # atno 17343 bound_to 10162
  157.6285  130.8711  149.9232 LP  0  0  0  0  0  0  0  0  0  0  0  0  # atno 17370 bound_to 10713
  156.0811  130.3673  150.0580 LP  0  0  0  0  0  0  0  0  0  0  0  0  # atno 17371 bound_to 10713
  140.0946  134.9572  157.1829 LP  0  0  0  0  0  0  0  0  0  0  0  0  # atno 17394 bound_to 11000
  140.3400  134.2715  155.7213 LP  0  0  0  0  0  0  0  0  0  0  0  0  # atno 17395 bound_to 11000

$$$$
