AV-unprocessed.smi:1795|AV-procd|sdf|7248|dock10
  -GOLD-   22720 8503D 1   1.00000     0.00000
 Structure written by MMmdl.
 48 49  0  0  0  0  0  0  0  0  2 V2000
  147.0989  139.0364  151.7448 C   0  0  0  0  0  0  0  0  0  0  0  0
  146.8793  139.0997  153.2671 C   0  0  1  0  0  0  0  0  0  0  0  0
  148.1282  138.7135  154.0860 C   0  0  0  0  0  0  0  0  0  0  0  0
  149.1556  139.7923  154.0867 N   0  3  2  0  0  0  0  0  0  0  0  0
  150.4119  139.4829  154.8480 C   0  0  2  0  0  0  0  0  0  0  0  0
  151.0349  138.1594  154.3450 C   0  0  0  0  0  0  0  0  0  0  0  0
  150.2093  139.4225  156.3894 C   0  0  0  0  0  0  0  0  0  0  0  0
  151.2450  140.1336  157.1344 N   0  0  0  0  0  0  0  0  0  0  0  0
  151.0200  141.1565  157.9731 C   0  0  0  0  0  0  0  0  0  0  0  0
  149.8980  141.6210  158.1793 O   0  0  0  0  0  0  0  0  0  0  0  0
  152.2558  141.7530  158.6611 C   0  0  0  0  0  0  0  0  0  0  0  0
  151.9637  142.9944  159.3971 N   0  0  0  0  0  0  0  0  0  0  0  0
  151.6504  144.1364  158.6330 C   0  0  0  0  0  0  0  0  0  0  0  0
  151.3636  145.3166  159.2050 C   0  0  0  0  0  0  0  0  0  0  0  0
  151.3825  145.3995  160.6463 C   0  0  0  0  0  0  0  0  0  0  0  0
  151.6776  144.3125  161.3868 C   0  0  0  0  0  0  0  0  0  0  0  0
  151.9879  143.0194  160.7659 C   0  0  0  0  0  0  0  0  0  0  0  0
  152.2526  142.0195  161.4345 O   0  0  0  0  0  0  0  0  0  0  0  0
  148.5256  141.0695  154.5181 C   0  0  0  0  0  0  0  0  0  0  0  0
  147.3199  141.4231  153.6312 C   0  0  2  0  0  0  0  0  0  0  0  0
  146.6183  142.7039  154.0972 C   0  0  0  0  0  0  0  0  0  0  0  0
  146.3729  140.3636  153.6863 O   0  0  0  0  0  0  0  0  0  0  0  0
  147.3412  138.0207  151.4316 H   0  0  0  0  0  0  0  0  0  0  0  0
  147.9153  139.6786  151.4158 H   0  0  0  0  0  0  0  0  0  0  0  0
  146.1980  139.3377  151.2098 H   0  0  0  0  0  0  0  0  0  0  0  0
  146.0980  138.3747  153.4982 H   0  0  0  0  0  0  0  0  0  0  0  0
  147.8413  138.4980  155.1167 H   0  0  0  0  0  0  0  0  0  0  0  0
  148.5223  137.7915  153.6603 H   0  0  0  0  0  0  0  0  0  0  0  0
  151.1169  140.2912  154.6466 H   0  0  0  0  0  0  0  0  0  0  0  0
  151.9551  137.9162  154.8760 H   0  0  0  0  0  0  0  0  0  0  0  0
  151.3067  138.1928  153.2919 H   0  0  0  0  0  0  0  0  0  0  0  0
  150.3469  137.3247  154.4833 H   0  0  0  0  0  0  0  0  0  0  0  0
  149.2538  139.8557  156.6870 H   0  0  0  0  0  0  0  0  0  0  0  0
  150.2031  138.3855  156.7265 H   0  0  0  0  0  0  0  0  0  0  0  0
  152.1965  139.8163  157.0156 H   0  0  0  0  0  0  0  0  0  0  0  0
  152.6933  141.0135  159.3350 H   0  0  0  0  0  0  0  0  0  0  0  0
  153.0160  141.9289  157.8989 H   0  0  0  0  0  0  0  0  0  0  0  0
  151.6507  143.9890  157.5628 H   0  0  0  0  0  0  0  0  0  0  0  0
  151.1215  146.1804  158.6033 H   0  0  0  0  0  0  0  0  0  0  0  0
  151.1581  146.3371  161.1331 H   0  0  0  0  0  0  0  0  0  0  0  0
  151.6860  144.3934  162.4640 H   0  0  0  0  0  0  0  0  0  0  0  0
  148.2125  140.9852  155.5603 H   0  0  0  0  0  0  0  0  0  0  0  0
  149.2341  141.8936  154.4692 H   0  0  0  0  0  0  0  0  0  0  0  0
  147.6507  141.5762  152.6038 H   0  0  0  0  0  0  0  0  0  0  0  0
  147.2976  143.5564  154.0707 H   0  0  0  0  0  0  0  0  0  0  0  0
  146.2468  142.6033  155.1175 H   0  0  0  0  0  0  0  0  0  0  0  0
  145.7687  142.9378  153.4554 H   0  0  0  0  0  0  0  0  0  0  0  0
  149.4314  139.9114  153.1224 H   0  0  0  0  0  0  0  0  0  0  0  0
  1  2  1  0  0  0  0
  1 23  1  0  0  0  0
  1 24  1  0  0  0  0
  1 25  1  0  0  0  0
  2 22  1  0  0  0  0
  2  3  1  0  0  0  0
  2 26  1  0  0  0  0
  3  4  1  0  0  0  0
  3 27  1  0  0  0  0
  3 28  1  0  0  0  0
  4  5  1  0  0  0  0
  4 19  1  0  0  0  0
  4 48  1  0  0  0  0
  5  6  1  0  0  0  0
  5  7  1  0  0  0  0
  5 29  1  0  0  0  0
  6 30  1  0  0  0  0
  6 31  1  0  0  0  0
  6 32  1  0  0  0  0
  7  8  1  0  0  0  0
  7 33  1  0  0  0  0
  7 34  1  0  0  0  0
  8  9  1  0  0  0  0
  8 35  1  0  0  0  0
  9 10  2  0  0  0  0
  9 11  1  0  0  0  0
 11 12  1  0  0  0  0
 11 36  1  0  0  0  0
 11 37  1  0  0  0  0
 12 17  1  0  0  0  0
 12 13  1  0  0  0  0
 13 14  2  0  0  0  0
 13 38  1  0  0  0  0
 14 15  1  0  0  0  0
 14 39  1  0  0  0  0
 15 16  2  0  0  0  0
 15 40  1  0  0  0  0
 16 17  1  0  0  0  0
 16 41  1  0  0  0  0
 17 18  2  0  0  0  0
 19 20  1  0  0  0  0
 19 42  1  0  0  0  0
 19 43  1  0  0  0  0
 20 21  1  0  0  0  0
 20 22  1  0  0  0  0
 20 44  1  0  0  0  0
 21 45  1  0  0  0  0
 21 46  1  0  0  0  0
 21 47  1  0  0  0  0
M  CHG  1   4   1
M  END
> <s_m_source_file>
AV-unprocessed.smi

> <i_m_source_file_index>
1795

> <i_lp_mmshare_version>
43012

> <i_f3d_flags>
0

> <s_epik_input>
W0NIM11bQ0BASF0xW0NIMl1OKFtDSDJdW0NASF0oTzEpW0NIM10pW0NASF0oW0NIM10pW0NIMl1bTkhdQyg9TylbQ0gyXW4yW2NIXVtjSF1bY0hdW2NIXWMyPU8=

> <s_epik_cmdline>
J2VwaWtfcHl0aG9uJywgJy1waCcsICc3LjAnLCAnLXRuJywgJzgnLCAnLW1hJywgJzIwMCcsICctbWV0YWxfYmluZGluZycsICctaW1hZScsICc8aW5maWxlLm1hZT4nLCAnLW9tYWUnLCAnPG91dGZpbGUubWFlPic=

> <r_lp_tautomer_probability>
1

> <r_epik_Ionization_Penalty>
0.656654

> <r_epik_Ionization_Penalty_Charging>
0.656654

> <r_epik_Ionization_Penalty_Neutral>
8.90321e-08

> <r_epik_State_Penalty>
0.675641

> <r_epik_Charging_Adjusted_Penalty>
1.33229

> <i_epik_Tot_Q>
1

> <i_epik_Tot_abs_Q>
1

> <r_epik_Metal_State_Penalty>
0.675691

> <b_epik_Metal_Only>
0

> <s_lp_Force_Field>
OPLS_2005

> <r_lp_Energy>
31.4881

> <b_lp_Chiralities_Consistent>
1

> <s_lp_Variant>
AV-unprocessed.smi:1795-12

> <Gold.Version>
5.8.1

> <Gold.Id.Protein>
6NUR|6NUR_protein|mol2

> <Gold.PLP.Fitness>
51.9317

> <Gold.PLP.PLP>
-50.4840

> <Gold.PLP.part.hbond>
-1.0000

> <Gold.PLP.part.metal>
0.0000

> <Gold.PLP.part.buried>
-5.2366

> <Gold.PLP.part.nonpolar>
-44.6755

> <Gold.PLP.part.repulsive>
1.1714

> <Gold.PLP.ligand.clash>
0.0000

> <Gold.PLP.ligand.torsion>
0.8018

> <Gold.PLP.Chemscore.Hbond>
1.0000

> <Gold.PLP.Chemscore.CHOScore>
0.0000

> <Gold.PLP.Chemscore.Metal>
0.0000

> <Gold.Chemscore.Hbonds>
donor molecule, donor type, donor heavy atom, donor atom, acceptor molecule, acceptor atom, score
      L1  H     4    48       P1  7957  1.00
      P1  H  6933  6945       L1    18  0.08

> <Gold.PLP.Chemscore.Internal.Correction>
0.0512

> <Gold.Rescore>
     Score         DG    S(hbond)    S(metal)    S(lipo)     H(rot)  DE(clash)    DE(int)     intcor
     15.22     -17.89       1.00        0.00     118.84       1.89       0.75       1.93       ----

> <Gold.Chemscore.Fitness>
15.2200

> <Gold.Chemscore.DG>
-17.8917

> <Gold.Chemscore.ZeroCoef>
-5.4800

> <Gold.Chemscore.Hbond>
0.9995

> <Gold.Chemscore.Metal>
0.0000

> <Gold.Chemscore.Lipo>
118.8390

> <Gold.Chemscore.Internal_Hbond>
0.0000

> <Gold.Chemscore.DEClash>
0.7462

> <Gold.Chemscore.DEInternal>
1.9255

> <Gold.Chemscore.Rot>
1.8870

> <Gold.Chemscore.Internal.Correction>
   9.000000E+99

> <Gold.Chemscore.Hbonds>
donor molecule, donor type, donor heavy atom, donor atom, acceptor molecule, acceptor atom, score
      L1  H     4    48       P1  7957  0.98
      P1  H  6933  6945       L1    18  0.01

> <Gold.Chemscore.Hbond.Weighted>
-3.3383

> <Gold.Chemscore.Metal.Weighted>
-0.0000

> <Gold.Chemscore.Lipo.Weighted>
-13.9042

> <Gold.Chemscore.Internal_Hbond.Weighted>
0.0000

> <Gold.Chemscore.DEClash.Weighted>
0.7462

> <Gold.Chemscore.DEInternal.Weighted>
1.9255

> <Gold.Chemscore.Rot.Weighted>
4.8308

> <Gold.Chemscore.Internal.Correction.Weighted>
   9.000000E+99

> <Gold.Protein.RotatedTorsions>
[ 6907 6896 6895 6894 ] final  -90.10 input  -60.11 | X-H torsion
[ 7974 7965 7964 7962 ] final   83.97 input  175.53 | X-H torsion
[ 8008 7997 7996 7995 ] final  -92.67 input   59.86 | X-H torsion
[ 10167 10162 10161 10158 ] final  164.15 input  -65.29 | X-H torsion
[ 10718 10713 10712 10709 ] final   67.75 input   66.30 | X-H torsion
[ 10763 10752 10751 10750 ] final  160.68 input  -60.55 | X-H torsion
[ 11005 11000 10999 10996 ] final -116.91 input  -57.11 | X-H torsion

> <Gold.Protein.ActiveResidues>
 VAL166  LYS551  ARG553  GLY616  TRP617  ASP618  TYR619  PRO620  LYS621  CYS622 
 ASP623  PHE694  ASN695  SER759  ASP760  ASP761  ALA762  ILE779  LEU786  VAL792 
 PHE793  MET794  SER795  GLU796  ALA797  LYS798  CYS799  TRP800  GLU811  SER814 

> <Gold.Protein.RotatedAtoms>
  150.6879  134.2484  159.4500 H   0  0  0  0  0  0  0  0  0  0  0  0  # atno 6907 bound_to 6896
  152.0423  134.9701  160.0583 H   0  0  0  0  0  0  0  0  0  0  0  0  # atno 6908 bound_to 6896
  152.1198  133.4312  159.4707 H   0  0  0  0  0  0  0  0  0  0  0  0  # atno 6909 bound_to 6896
  145.6049  139.2358  143.2225 H   0  0  0  0  0  0  0  0  0  0  0  0  # atno 7974 bound_to 7965
  154.7260  140.0506  157.0683 H   0  0  0  0  0  0  0  0  0  0  0  0  # atno 8008 bound_to 7997
  155.0364  140.3163  155.4721 H   0  0  0  0  0  0  0  0  0  0  0  0  # atno 8009 bound_to 7997
  156.2829  140.2141  156.5486 H   0  0  0  0  0  0  0  0  0  0  0  0  # atno 8010 bound_to 7997
  139.4884  144.4265  151.9123 H   0  0  0  0  0  0  0  0  0  0  0  0  # atno 10167 bound_to 10162
  157.6249  130.9337  150.0284 H   0  0  0  0  0  0  0  0  0  0  0  0  # atno 10718 bound_to 10713
  154.2512  135.2771  155.2815 H   0  0  0  0  0  0  0  0  0  0  0  0  # atno 10763 bound_to 10752
  154.5463  135.5688  153.6886 H   0  0  0  0  0  0  0  0  0  0  0  0  # atno 10764 bound_to 10752
  152.9980  135.6263  154.2659 H   0  0  0  0  0  0  0  0  0  0  0  0  # atno 10765 bound_to 10752
  141.0390  133.9864  157.3024 H   0  0  0  0  0  0  0  0  0  0  0  0  # atno 11005 bound_to 11000
  146.1548  140.6873  142.9305 LP  0  0  0  0  0  0  0  0  0  0  0  0  # atno 17320 bound_to 7965
  144.7294  140.4626  143.6949 LP  0  0  0  0  0  0  0  0  0  0  0  0  # atno 17321 bound_to 7965
  140.3711  144.2854  150.5920 LP  0  0  0  0  0  0  0  0  0  0  0  0  # atno 17342 bound_to 10162
  140.5318  143.2242  151.8226 LP  0  0  0  0  0  0  0  0  0  0  0  0  # atno 17343 bound_to 10162
  156.1414  130.3642  149.9576 LP  0  0  0  0  0  0  0  0  0  0  0  0  # atno 17370 bound_to 10713
  156.7616  130.9153  151.3641 LP  0  0  0  0  0  0  0  0  0  0  0  0  # atno 17371 bound_to 10713
  139.9262  135.0201  156.8242 LP  0  0  0  0  0  0  0  0  0  0  0  0  # atno 17394 bound_to 11000
  140.6269  133.9942  155.7643 LP  0  0  0  0  0  0  0  0  0  0  0  0  # atno 17395 bound_to 11000

$$$$
