AV-unprocessed.smi:227|AV-procd|sdf|1740|dock1
  -GOLD-   2262020243D 1   1.00000     0.00000
 Structure written by MMmdl.
 54 58  0  0  0  0  0  0  0  0  1 V2000
  148.7863  134.8251  154.1000 O   0  0  0  0  0  0  0  0  0  0  0  0
  147.8308  133.7854  154.1356 C   0  0  0  0  0  0  0  0  0  0  0  0
  146.4042  134.3269  153.8631 C   0  0  1  0  0  0  0  0  0  0  0  0
  146.1014  135.5575  154.7686 C   0  0  0  0  0  0  0  0  0  0  0  0
  146.3458  135.3350  156.1872 N   0  0  0  0  0  0  0  0  0  0  0  0
  146.4698  134.1214  156.8249 C   0  0  0  0  0  0  0  0  0  0  0  0
  146.6824  134.1863  158.1097 N   0  0  0  0  0  0  0  0  0  0  0  0
  146.7234  135.5481  158.3838 C   0  0  0  0  0  0  0  0  0  0  0  0
  146.9060  136.3224  159.5665 C   0  0  0  0  0  0  0  0  0  0  0  0
  147.0733  135.7840  160.8048 N   0  0  0  0  0  0  0  0  0  0  0  0
  147.3747  136.6193  161.9573 C   0  0  2  0  0  0  0  0  0  0  0  0
  147.7021  135.5742  163.0378 C   0  0  0  0  0  0  0  0  0  0  0  0
  146.7326  134.4407  162.6633 C   0  0  0  0  0  0  0  0  0  0  0  0
  145.9954  135.0568  161.4602 C   0  0  1  0  0  0  0  0  0  0  0  0
  145.0295  136.1496  161.9843 C   0  0  2  0  0  0  0  0  0  0  0  0
  143.9147  136.5374  160.9932 C   0  0  0  0  0  0  0  0  0  0  0  0
  143.1952  137.6493  161.4816 O   0  0  0  0  0  0  0  0  0  0  0  0
  146.0246  137.2873  162.2915 C   0  0  0  0  0  0  0  0  0  0  0  0
  146.9245  137.6747  159.4276 N   0  0  0  0  0  0  0  0  0  0  0  0
  146.7471  138.2358  158.2289 C   0  0  0  0  0  0  0  0  0  0  0  0
  146.5409  137.6414  157.0535 N   0  0  0  0  0  0  0  0  0  0  0  0
  146.5366  136.2837  157.1783 C   0  0  0  0  0  0  0  0  0  0  0  0
  146.1831  134.6078  152.3434 C   0  0  1  0  0  0  0  0  0  0  0  0
  146.3259  133.3851  151.4398 C   0  0  0  0  0  0  0  0  0  0  0  0
  144.9445  132.7325  151.4836 C   0  0  0  0  0  0  0  0  0  0  0  0
  144.0382  133.7639  151.8556 O   0  0  0  0  0  0  0  0  0  0  0  0
  144.7436  134.9916  151.9683 C   0  0  0  0  0  0  0  0  0  0  0  0
  148.7337  135.2527  153.2588 H   0  0  0  0  0  0  0  0  0  0  0  0
  148.1044  133.0130  153.4169 H   0  0  0  0  0  0  0  0  0  0  0  0
  147.9153  133.3324  155.1203 H   0  0  0  0  0  0  0  0  0  0  0  0
  145.7023  133.5444  154.1551 H   0  0  0  0  0  0  0  0  0  0  0  0
  146.6796  136.4255  154.4557 H   0  0  0  0  0  0  0  0  0  0  0  0
  145.0630  135.8675  154.6494 H   0  0  0  0  0  0  0  0  0  0  0  0
  146.3924  133.1762  156.3089 H   0  0  0  0  0  0  0  0  0  0  0  0
  148.1861  137.3328  161.8088 H   0  0  0  0  0  0  0  0  0  0  0  0
  148.7361  135.2372  162.9559 H   0  0  0  0  0  0  0  0  0  0  0  0
  147.5456  135.9523  164.0488 H   0  0  0  0  0  0  0  0  0  0  0  0
  147.2859  133.5503  162.3617 H   0  0  0  0  0  0  0  0  0  0  0  0
  146.0651  134.1619  163.4795 H   0  0  0  0  0  0  0  0  0  0  0  0
  145.5014  134.2941  160.8609 H   0  0  0  0  0  0  0  0  0  0  0  0
  144.5542  135.8021  162.9031 H   0  0  0  0  0  0  0  0  0  0  0  0
  144.3128  136.7844  160.0098 H   0  0  0  0  0  0  0  0  0  0  0  0
  143.2207  135.7070  160.8602 H   0  0  0  0  0  0  0  0  0  0  0  0
  142.3529  137.6744  161.0537 H   0  0  0  0  0  0  0  0  0  0  0  0
  145.9681  137.6274  163.3261 H   0  0  0  0  0  0  0  0  0  0  0  0
  145.8520  138.1520  161.6494 H   0  0  0  0  0  0  0  0  0  0  0  0
  146.7693  139.3154  158.2098 H   0  0  0  0  0  0  0  0  0  0  0  0
  146.8764  135.3872  152.0257 H   0  0  0  0  0  0  0  0  0  0  0  0
  146.5287  133.7194  150.4211 H   0  0  0  0  0  0  0  0  0  0  0  0
  147.1205  132.6905  151.7022 H   0  0  0  0  0  0  0  0  0  0  0  0
  144.6711  132.2954  150.5230 H   0  0  0  0  0  0  0  0  0  0  0  0
  144.9076  131.9457  152.2376 H   0  0  0  0  0  0  0  0  0  0  0  0
  144.2469  135.6663  152.6615 H   0  0  0  0  0  0  0  0  0  0  0  0
  144.7353  135.4798  150.9923 H   0  0  0  0  0  0  0  0  0  0  0  0
  1  2  1  0  0  0  0
  1 28  1  0  0  0  0
  2  3  1  0  0  0  0
  2 29  1  0  0  0  0
  2 30  1  0  0  0  0
  3  4  1  0  0  0  0
  3 23  1  0  0  0  0
  3 31  1  0  0  0  0
  4  5  1  0  0  0  0
  4 32  1  0  0  0  0
  4 33  1  0  0  0  0
  5 22  1  0  0  0  0
  5  6  1  0  0  0  0
  6  7  2  0  0  0  0
  6 34  1  0  0  0  0
  7  8  1  0  0  0  0
  8 22  2  0  0  0  0
  8  9  1  0  0  0  0
  9 10  1  0  0  0  0
  9 19  2  0  0  0  0
 10 14  1  0  0  0  0
 10 11  1  0  0  0  0
 11 18  1  0  0  0  0
 11 12  1  0  0  0  0
 11 35  1  0  0  0  0
 12 13  1  0  0  0  0
 12 36  1  0  0  0  0
 12 37  1  0  0  0  0
 13 14  1  0  0  0  0
 13 38  1  0  0  0  0
 13 39  1  0  0  0  0
 14 15  1  0  0  0  0
 14 40  1  0  0  0  0
 15 16  1  0  0  0  0
 15 18  1  0  0  0  0
 15 41  1  0  0  0  0
 16 17  1  0  0  0  0
 16 42  1  0  0  0  0
 16 43  1  0  0  0  0
 17 44  1  0  0  0  0
 18 45  1  0  0  0  0
 18 46  1  0  0  0  0
 19 20  1  0  0  0  0
 20 21  2  0  0  0  0
 20 47  1  0  0  0  0
 21 22  1  0  0  0  0
 23 27  1  0  0  0  0
 23 24  1  0  0  0  0
 23 48  1  0  0  0  0
 24 25  1  0  0  0  0
 24 49  1  0  0  0  0
 24 50  1  0  0  0  0
 25 26  1  0  0  0  0
 25 51  1  0  0  0  0
 25 52  1  0  0  0  0
 26 27  1  0  0  0  0
 27 53  1  0  0  0  0
 27 54  1  0  0  0  0
M  END
> <s_m_source_file>
AV-unprocessed.smi

> <i_m_source_file_index>
227

> <i_lp_mmshare_version>
43012

> <i_f3d_flags>
0

> <s_epik_input>
W0NIMl0xT1tDSDJdW0NIMl1bQ0BIXTFbQ0BIXShbQ0gyXVtPSF0pW0NIMl1uKFtjSF1uMiljKGMyMyluW2NIXW5jM04oW0NASF00NSlbQ0BASF0oW0NIMl1bQ0gyXTQpW0NASF0oW0NIMl01KVtDSDJdW09IXQ==

> <s_epik_cmdline>
J2VwaWtfcHl0aG9uJywgJy1waCcsICc3LjAnLCAnLXRuJywgJzgnLCAnLW1hJywgJzIwMCcsICctbWV0YWxfYmluZGluZycsICctaW1hZScsICc8aW5maWxlLm1hZT4nLCAnLW9tYWUnLCAnPG91dGZpbGUubWFlPic=

> <r_lp_tautomer_probability>
1

> <r_epik_Ionization_Penalty>
0.0055791

> <r_epik_Ionization_Penalty_Charging>
0

> <r_epik_Ionization_Penalty_Neutral>
0.0055791

> <r_epik_State_Penalty>
0.00401299

> <r_epik_Charging_Adjusted_Penalty>
0.00401299

> <i_epik_Tot_Q>
0

> <i_epik_Tot_abs_Q>
0

> <r_epik_Metal_State_Penalty>
-0

> <b_epik_Metal_Only>
0

> <s_lp_Force_Field>
OPLS_2005

> <r_lp_Energy>
90.2099

> <b_lp_Chiralities_Consistent>
1

> <s_lp_Variant>
AV-unprocessed.smi:227-14

> <Gold.Version>
5.8.1

> <Gold.Id.Protein>
6NUR|6NUR_protein|mol2

> <Gold.PLP.Fitness>
35.3789

> <Gold.PLP.PLP>
-30.8114

> <Gold.PLP.part.hbond>
-2.7741

> <Gold.PLP.part.metal>
0.0000

> <Gold.PLP.part.buried>
-4.4638

> <Gold.PLP.part.nonpolar>
-23.2318

> <Gold.PLP.part.repulsive>
0.1297

> <Gold.PLP.ligand.clash>
0.0000

> <Gold.PLP.ligand.torsion>
0.4792

> <Gold.PLP.Chemscore.Hbond>
1.7670

> <Gold.PLP.Chemscore.CHOScore>
0.0000

> <Gold.PLP.Chemscore.Metal>
0.0000

> <Gold.Chemscore.Hbonds>
donor molecule, donor type, donor heavy atom, donor atom, acceptor molecule, acceptor atom, score
      L1  H     1    28       P1  7948  1.00
      P1  H  6934  6947       L1    19  0.82

> <Gold.PLP.Chemscore.Internal.Correction>
0.2249

> <Gold.Rescore>
     Score         DG    S(hbond)    S(metal)    S(lipo)     H(rot)  DE(clash)    DE(int)     intcor
     10.95     -11.54       1.78        0.00      79.82       3.61       0.02       0.57       ----

> <Gold.Chemscore.Fitness>
10.9465

> <Gold.Chemscore.DG>
-11.5352

> <Gold.Chemscore.ZeroCoef>
-5.4800

> <Gold.Chemscore.Hbond>
1.7815

> <Gold.Chemscore.Metal>
0.0000

> <Gold.Chemscore.Lipo>
79.8219

> <Gold.Chemscore.Internal_Hbond>
0.0000

> <Gold.Chemscore.DEClash>
0.0193

> <Gold.Chemscore.DEInternal>
0.5694

> <Gold.Chemscore.Rot>
3.6071

> <Gold.Chemscore.Internal.Correction>
   9.000000E+99

> <Gold.Chemscore.Hbonds>
donor molecule, donor type, donor heavy atom, donor atom, acceptor molecule, acceptor atom, score
      L1  H     1    28       P1  7948  0.74
      P1  H  6934  6947       L1    19  0.64

> <Gold.Chemscore.Hbond.Weighted>
-5.9502

> <Gold.Chemscore.Metal.Weighted>
-0.0000

> <Gold.Chemscore.Lipo.Weighted>
-9.3392

> <Gold.Chemscore.Internal_Hbond.Weighted>
0.0000

> <Gold.Chemscore.DEClash.Weighted>
0.0193

> <Gold.Chemscore.DEInternal.Weighted>
0.5694

> <Gold.Chemscore.Rot.Weighted>
9.2342

> <Gold.Chemscore.Internal.Correction.Weighted>
   9.000000E+99

> <Gold.Protein.RotatedTorsions>
[ 6907 6896 6895 6894 ] final   87.51 input  -60.11 | X-H torsion
[ 7974 7965 7964 7962 ] final  122.19 input  175.53 | X-H torsion
[ 8008 7997 7996 7995 ] final -158.60 input   59.86 | X-H torsion
[ 10167 10162 10161 10158 ] final -115.01 input  -65.29 | X-H torsion
[ 10718 10713 10712 10709 ] final   97.27 input   66.30 | X-H torsion
[ 10763 10752 10751 10750 ] final  -11.17 input  -60.55 | X-H torsion
[ 11005 11000 10999 10996 ] final   38.51 input  -57.11 | X-H torsion

> <Gold.Protein.ActiveResidues>
 VAL166  LYS551  ARG553  GLY616  TRP617  ASP618  TYR619  PRO620  LYS621  CYS622 
 ASP623  PHE694  ASN695  SER759  ASP760  ASP761  ALA762  ILE779  LEU786  VAL792 
 PHE793  MET794  SER795  GLU796  ALA797  LYS798  CYS799  TRP800  GLU811  SER814 

> <Gold.Protein.RotatedAtoms>
  152.5412  134.2265  159.8807 H   0  0  0  0  0  0  0  0  0  0  0  0  # atno 6907 bound_to 6896
  151.2240  133.4480  159.2609 H   0  0  0  0  0  0  0  0  0  0  0  0  # atno 6908 bound_to 6896
  151.0779  134.9853  159.8397 H   0  0  0  0  0  0  0  0  0  0  0  0  # atno 6909 bound_to 6896
  145.1105  139.3456  143.4765 H   0  0  0  0  0  0  0  0  0  0  0  0  # atno 7974 bound_to 7965
  155.7499  140.0825  157.2206 H   0  0  0  0  0  0  0  0  0  0  0  0  # atno 8008 bound_to 7997
  154.4013  140.1562  156.2768 H   0  0  0  0  0  0  0  0  0  0  0  0  # atno 8009 bound_to 7997
  155.8940  140.3413  155.5980 H   0  0  0  0  0  0  0  0  0  0  0  0  # atno 8010 bound_to 7997
  140.0948  143.4667  152.1848 H   0  0  0  0  0  0  0  0  0  0  0  0  # atno 10167 bound_to 10162
  157.6915  131.0604  150.4619 H   0  0  0  0  0  0  0  0  0  0  0  0  # atno 10718 bound_to 10713
  153.4799  135.7017  153.5944 H   0  0  0  0  0  0  0  0  0  0  0  0  # atno 10763 bound_to 10752
  153.4162  135.3836  155.2082 H   0  0  0  0  0  0  0  0  0  0  0  0  # atno 10764 bound_to 10752
  154.8722  135.3916  154.4247 H   0  0  0  0  0  0  0  0  0  0  0  0  # atno 10765 bound_to 10752
  140.2119  134.3744  155.8045 H   0  0  0  0  0  0  0  0  0  0  0  0  # atno 11005 bound_to 11000
  146.3526  140.1022  142.8607 LP  0  0  0  0  0  0  0  0  0  0  0  0  # atno 17320 bound_to 7965
  145.0852  140.9248  143.4801 LP  0  0  0  0  0  0  0  0  0  0  0  0  # atno 17321 bound_to 7965
  139.5704  144.7459  151.3906 LP  0  0  0  0  0  0  0  0  0  0  0  0  # atno 17342 bound_to 10162
  140.7009  143.7633  150.7402 LP  0  0  0  0  0  0  0  0  0  0  0  0  # atno 17343 bound_to 10162
  156.4962  130.4106  149.6378 LP  0  0  0  0  0  0  0  0  0  0  0  0  # atno 17370 bound_to 10713
  156.3370  130.7362  151.2301 LP  0  0  0  0  0  0  0  0  0  0  0  0  # atno 17371 bound_to 10713
  141.2226  133.7148  156.8433 LP  0  0  0  0  0  0  0  0  0  0  0  0  # atno 17394 bound_to 11000
  140.1941  134.8944  157.3094 LP  0  0  0  0  0  0  0  0  0  0  0  0  # atno 17395 bound_to 11000

$$$$
