#       Name:                AV-unprocessed.smi:761
#       Creating user name   scv26
#       Creation time:       Fri Mar 27 01:02:35 2020


#       File generated by GOLD software.
#

@<TRIPOS>MOLECULE
AV-unprocessed.smi:761
    37    38     1
SMALL
NO_CHARGES


@<TRIPOS>ATOM
      1 ****        -0.4715   1.8328   0.9871 O.2            1 S1                 0.0000
      2 ****        -0.9805   0.7261   0.7758 C.2            1 S1                 0.0000
      3 ****        -0.3482  -0.4749   0.6854 N.pl3          1 S1                -1.0000
      4 ****         1.0966  -0.6727   0.7936 C.3            1 S1                 0.0000
      5 ****         1.5653  -1.6545  -0.2984 C.3            1 S1                 0.0000
      6 ****         3.0269  -1.9172  -0.2440 N.4            1 S1                 1.0000
      7 ****         3.9024  -0.8616  -0.8414 C.3            1 S1                 0.0000
      8 ****         4.9943  -1.6517  -1.5047 C.2            1 S1                 0.0000
      9 ****         4.7330  -2.9535  -1.4837 C.2            1 S1                 0.0000
     10 ****         3.4240  -3.2406  -0.8045 C.3            1 S1                 0.0000
     11 ****        -2.3128   0.6097   0.6312 N.am           1 S1                 0.0000
     12 ****        -3.3018   1.6297   0.6013 C.ar           1 S1                 0.0000
     13 ****        -4.6107   1.2880   1.0070 C.ar           1 S1                 0.0000
     14 ****        -5.6271   2.2638   0.9676 C.ar           1 S1                 0.0000
     15 ****        -5.3460   3.5107   0.5320 N.pl3          1 S1                 1.0000
     16 ****        -4.1144   3.8795   0.1185 C.ar           1 S1                 0.0000
     17 ****        -3.0579   2.9465   0.1353 C.ar           1 S1                 0.0000
     18 ****         1.6576   0.2569   0.6892 H              1 S1                 0.0000
     19 ****         1.3702  -1.0730   1.7702 H              1 S1                 0.0000
     20 ****         1.0386  -2.5990  -0.1504 H              1 S1                 0.0000
     21 ****         1.2892  -1.3011  -1.2932 H              1 S1                 0.0000
     22 ****         3.3817  -0.2629  -1.5901 H              1 S1                 0.0000
     23 ****         4.3009  -0.2021  -0.0701 H              1 S1                 0.0000
     24 ****         5.8610  -1.1884  -1.9530 H              1 S1                 0.0000
     25 ****         5.3509  -3.7282  -1.9134 H              1 S1                 0.0000
     26 ****         3.5355  -3.9816  -0.0126 H              1 S1                 0.0000
     27 ****         2.7086  -3.6077  -1.5422 H              1 S1                 0.0000
     28 ****        -2.6606  -0.3369   0.5835 H              1 S1                 0.0000
     29 ****        -4.8343   0.2886   1.3519 H              1 S1                 0.0000
     30 ****        -6.6495   2.0845   1.2664 H              1 S1                 0.0000
     31 ****        -4.0123   4.9006  -0.2186 H              1 S1                 0.0000
     32 ****        -2.0849   3.2502  -0.2204 H              1 S1                 0.0000
     33 ****         3.2714  -1.9606   0.7350 H              1 S1                 0.0000
     34 ****        -6.0964   4.2015   0.5087 H              1 S1                 0.0000
     35 ****         0.5172   1.9124   1.1140 LP             1 S1                 0.0000
     36 ****        -1.0485   2.6483   1.0312 LP             1 S1                 0.0000
     37 ****        -0.9149  -1.2847   0.5333 LP             1 S1                 0.0000
@<TRIPOS>BOND
    1    1    2 2     
    2    2    3 1     
    3    2   11 am    
    4    3    4 1     
    5    4    5 1     
    6    4   18 1     
    7    4   19 1     
    8    5    6 1     
    9    5   20 1     
   10    5   21 1     
   11    6   10 1     
   12    6    7 1     
   13    6   33 1     
   14    7    8 1     
   15    7   22 1     
   16    7   23 1     
   17    8    9 2     
   18    8   24 1     
   19    9   10 1     
   20    9   25 1     
   21   10   26 1     
   22   10   27 1     
   23   11   12 1     
   24   11   28 1     
   25   12   17 ar    
   26   12   13 ar    
   27   13   14 ar    
   28   13   29 1     
   29   14   15 ar    
   30   14   30 1     
   31   15   16 ar    
   32   15   34 1     
   33   16   17 ar    
   34   16   31 1     
   35   17   32 1     
   36    1   35 1     
   37    1   36 1     
   38    3   37 1     
@<TRIPOS>SUBSTRUCTURE
      1 S1             1
@<TRIPOS>SET
LONE_PAIRS      STATIC     ATOMS    <user>   **** ""
3 35 36 37
DONOR_HYDROGENS      STATIC     ATOMS    <user>   **** ""
3 33 28 34
ATOM$BLUE        STATIC     ATOMS    COLORGROUP SYSTEM
3 35 36 37
ATOM$RED        STATIC     ATOMS    COLORGROUP SYSTEM
3 33 28 34
