AV-unprocessed.smi:2241|AV-procd|sdf|9059|dock1
  -GOLD-   2272012263D 1   1.00000     0.00000
 Structure written by MMmdl.
 45 47  0  0  0  0  0  0  0  0  1 V2000
  147.6506  132.8467  152.4674 C   0  0  0  0  0  0  0  0  0  0  0  0
  148.7023  132.7265  153.5512 C   0  0  0  0  0  0  0  0  0  0  0  0
  149.0946  131.4592  154.0252 C   0  0  0  0  0  0  0  0  0  0  0  0
  150.0719  131.3579  155.0319 C   0  0  0  0  0  0  0  0  0  0  0  0
  150.6586  132.5202  155.5683 C   0  0  0  0  0  0  0  0  0  0  0  0
  151.8537  132.3693  156.8068 Cl  0  0  0  0  0  0  0  0  0  0  0  0
  150.2757  133.7978  155.1040 C   0  0  0  0  0  0  0  0  0  0  0  0
  150.8913  134.8891  155.6788 O   0  0  0  0  0  0  0  0  0  0  0  0
  150.5775  136.1859  155.1900 C   0  0  0  0  0  0  0  0  0  0  0  0
  151.3166  137.2163  156.0569 C   0  0  1  0  0  0  0  0  0  0  0  0
  152.5284  136.6221  156.4769 O   0  0  0  0  0  0  0  0  0  0  0  0
  151.6398  138.5085  155.2722 C   0  0  0  0  0  0  0  0  0  0  0  0
  151.5383  139.7090  156.1158 N   0  0  0  0  0  0  0  0  0  0  0  0
  152.2062  139.6628  157.3536 C   0  0  0  0  0  0  0  0  0  0  0  0
  152.2045  140.6708  158.1666 N   0  0  0  0  0  0  0  0  0  0  0  0
  151.5194  141.8418  157.8215 C   0  0  0  0  0  0  0  0  0  0  0  0
  151.5437  142.9924  158.8182 C   0  0  0  0  0  0  0  0  0  0  0  0
  151.0569  144.3554  158.2973 C   0  0  0  0  0  0  0  0  0  0  0  0
  152.1771  144.9974  159.1230 C   0  0  0  0  0  0  0  0  0  0  0  0
  152.9119  143.6541  159.0483 C   0  0  0  0  0  0  0  0  0  0  0  0
  150.8403  141.9238  156.6526 C   0  0  0  0  0  0  0  0  0  0  0  0
  150.8241  140.8010  155.7150 C   0  0  0  0  0  0  0  0  0  0  0  0
  150.2146  140.8377  154.6458 O   0  0  0  0  0  0  0  0  0  0  0  0
  149.2923  133.8896  154.0864 C   0  0  0  0  0  0  0  0  0  0  0  0
  147.1781  131.8856  152.2625 H   0  0  0  0  0  0  0  0  0  0  0  0
  148.1015  133.2098  151.5436 H   0  0  0  0  0  0  0  0  0  0  0  0
  146.8726  133.5486  152.7695 H   0  0  0  0  0  0  0  0  0  0  0  0
  148.6494  130.5621  153.6202 H   0  0  0  0  0  0  0  0  0  0  0  0
  150.3711  130.3854  155.3940 H   0  0  0  0  0  0  0  0  0  0  0  0
  150.9026  136.2662  154.1511 H   0  0  0  0  0  0  0  0  0  0  0  0
  149.5022  136.3703  155.2266 H   0  0  0  0  0  0  0  0  0  0  0  0
  150.7133  137.4298  156.9405 H   0  0  0  0  0  0  0  0  0  0  0  0
  152.5714  136.6605  157.4199 H   0  0  0  0  0  0  0  0  0  0  0  0
  152.6115  138.4317  154.7796 H   0  0  0  0  0  0  0  0  0  0  0  0
  150.9379  138.6204  154.4438 H   0  0  0  0  0  0  0  0  0  0  0  0
  152.7184  138.7250  157.5759 H   0  0  0  0  0  0  0  0  0  0  0  0
  151.0609  142.7212  159.7588 H   0  0  0  0  0  0  0  0  0  0  0  0
  151.2032  144.4938  157.2244 H   0  0  0  0  0  0  0  0  0  0  0  0
  150.0473  144.6276  158.6058 H   0  0  0  0  0  0  0  0  0  0  0  0
  152.6887  145.8266  158.6335 H   0  0  0  0  0  0  0  0  0  0  0  0
  151.8633  145.2542  160.1362 H   0  0  0  0  0  0  0  0  0  0  0  0
  153.4147  143.3561  159.9687 H   0  0  0  0  0  0  0  0  0  0  0  0
  153.5772  143.5904  158.1852 H   0  0  0  0  0  0  0  0  0  0  0  0
  150.3063  142.8279  156.3979 H   0  0  0  0  0  0  0  0  0  0  0  0
  148.9735  134.8452  153.6990 H   0  0  0  0  0  0  0  0  0  0  0  0
  1  2  1  0  0  0  0
  1 25  1  0  0  0  0
  1 26  1  0  0  0  0
  1 27  1  0  0  0  0
  2 24  1  0  0  0  0
  2  3  2  0  0  0  0
  3  4  1  0  0  0  0
  3 28  1  0  0  0  0
  4  5  2  0  0  0  0
  4 29  1  0  0  0  0
  5  6  1  0  0  0  0
  5  7  1  0  0  0  0
  7  8  1  0  0  0  0
  7 24  2  0  0  0  0
  8  9  1  0  0  0  0
  9 10  1  0  0  0  0
  9 30  1  0  0  0  0
  9 31  1  0  0  0  0
 10 11  1  0  0  0  0
 10 12  1  0  0  0  0
 10 32  1  0  0  0  0
 11 33  1  0  0  0  0
 12 13  1  0  0  0  0
 12 34  1  0  0  0  0
 12 35  1  0  0  0  0
 13 22  1  0  0  0  0
 13 14  1  0  0  0  0
 14 15  2  0  0  0  0
 14 36  1  0  0  0  0
 15 16  1  0  0  0  0
 16 17  1  0  0  0  0
 16 21  2  0  0  0  0
 17 20  1  0  0  0  0
 17 18  1  0  0  0  0
 17 37  1  0  0  0  0
 18 19  1  0  0  0  0
 18 38  1  0  0  0  0
 18 39  1  0  0  0  0
 19 20  1  0  0  0  0
 19 40  1  0  0  0  0
 19 41  1  0  0  0  0
 20 42  1  0  0  0  0
 20 43  1  0  0  0  0
 21 22  1  0  0  0  0
 21 44  1  0  0  0  0
 22 23  2  0  0  0  0
 24 45  1  0  0  0  0
M  END
> <s_m_source_file>
AV-unprocessed.smi

> <i_m_source_file_index>
2241

> <i_lp_mmshare_version>
43012

> <i_f3d_flags>
0

> <s_epik_input>
W0NIM11jMVtjSF1bY0hdYyhDbCljKFtjSF0xKU9bQ0gyXVtDQEhdKFtPSF0pW0NIMl1uMltjSF1uYyhbY0hdYzI9TylbQ0hdM1tDSDJdW0NIMl1bQ0gyXTM=

> <s_epik_cmdline>
J2VwaWtfcHl0aG9uJywgJy1waCcsICc3LjAnLCAnLXRuJywgJzgnLCAnLW1hJywgJzIwMCcsICctbWV0YWxfYmluZGluZycsICctaW1hZScsICc8aW5maWxlLm1hZT4nLCAnLW9tYWUnLCAnPG91dGZpbGUubWFlPic=

> <r_lp_tautomer_probability>
1

> <r_epik_Ionization_Penalty>
1.78212e-05

> <r_epik_Ionization_Penalty_Charging>
5.61663e-08

> <r_epik_Ionization_Penalty_Neutral>
1.7765e-05

> <r_epik_State_Penalty>
-0

> <r_epik_Charging_Adjusted_Penalty>
5.61663e-08

> <i_epik_Tot_Q>
0

> <i_epik_Tot_abs_Q>
0

> <r_epik_Metal_State_Penalty>
-0

> <b_epik_Metal_Only>
0

> <s_lp_Force_Field>
OPLS_2005

> <r_lp_Energy>
30.2703

> <b_lp_Chiralities_Consistent>
1

> <s_lp_Variant>
AV-unprocessed.smi:2241-2

> <Gold.Version>
5.8.1

> <Gold.Id.Protein>
6NUR|6NUR_protein|mol2

> <Gold.PLP.Fitness>
55.2178

> <Gold.PLP.PLP>
-51.8615

> <Gold.PLP.part.hbond>
-2.4017

> <Gold.PLP.part.metal>
0.0000

> <Gold.PLP.part.buried>
-4.6378

> <Gold.PLP.part.nonpolar>
-45.4906

> <Gold.PLP.part.repulsive>
0.1738

> <Gold.PLP.ligand.clash>
0.0000

> <Gold.PLP.ligand.torsion>
1.1536

> <Gold.PLP.Chemscore.Hbond>
1.7296

> <Gold.PLP.Chemscore.CHOScore>
0.0000

> <Gold.PLP.Chemscore.Metal>
0.0000

> <Gold.Chemscore.Hbonds>
donor molecule, donor type, donor heavy atom, donor atom, acceptor molecule, acceptor atom, score
      P1  H  7989  7998       L1    23  0.75
      P1  H 10752 10764       L1    11  1.00

> <Gold.PLP.Chemscore.Internal.Correction>
0.4746

> <Gold.Rescore>
     Score         DG    S(hbond)    S(metal)    S(lipo)     H(rot)  DE(clash)    DE(int)     intcor
     17.27     -19.13       1.61        0.00     122.78       2.38       0.55       1.31       ----

> <Gold.Chemscore.Fitness>
17.2713

> <Gold.Chemscore.DG>
-19.1292

> <Gold.Chemscore.ZeroCoef>
-5.4800

> <Gold.Chemscore.Hbond>
1.6099

> <Gold.Chemscore.Metal>
0.0000

> <Gold.Chemscore.Lipo>
122.7804

> <Gold.Chemscore.Internal_Hbond>
0.0000

> <Gold.Chemscore.DEClash>
0.5495

> <Gold.Chemscore.DEInternal>
1.3084

> <Gold.Chemscore.Rot>
2.3801

> <Gold.Chemscore.Internal.Correction>
   9.000000E+99

> <Gold.Chemscore.Hbonds>
donor molecule, donor type, donor heavy atom, donor atom, acceptor molecule, acceptor atom, score
      P1  H  7989  7998       L1    23  0.19
      P1  H 10752 10764       L1    11  0.87

> <Gold.Chemscore.Hbond.Weighted>
-5.3769

> <Gold.Chemscore.Metal.Weighted>
-0.0000

> <Gold.Chemscore.Lipo.Weighted>
-14.3653

> <Gold.Chemscore.Internal_Hbond.Weighted>
0.0000

> <Gold.Chemscore.DEClash.Weighted>
0.5495

> <Gold.Chemscore.DEInternal.Weighted>
1.3084

> <Gold.Chemscore.Rot.Weighted>
6.0931

> <Gold.Chemscore.Internal.Correction.Weighted>
   9.000000E+99

> <Gold.Protein.RotatedTorsions>
[ 6907 6896 6895 6894 ] final -127.22 input  -60.11 | X-H torsion
[ 7974 7965 7964 7962 ] final -144.50 input  175.53 | X-H torsion
[ 8008 7997 7996 7995 ] final  -77.24 input   59.86 | X-H torsion
[ 10167 10162 10161 10158 ] final  -46.24 input  -65.29 | X-H torsion
[ 10718 10713 10712 10709 ] final   -5.79 input   66.30 | X-H torsion
[ 10763 10752 10751 10750 ] final  -18.40 input  -60.55 | X-H torsion
[ 11005 11000 10999 10996 ] final -133.62 input  -57.11 | X-H torsion

> <Gold.Protein.ActiveResidues>
 VAL166  LYS551  ARG553  GLY616  TRP617  ASP618  TYR619  PRO620  LYS621  CYS622 
 ASP623  PHE694  ASN695  SER759  ASP760  ASP761  ALA762  ILE779  LEU786  VAL792 
 PHE793  MET794  SER795  GLU796  ALA797  LYS798  CYS799  TRP800  GLU811  SER814 

> <Gold.Protein.RotatedAtoms>
  150.9050  133.7069  159.2868 H   0  0  0  0  0  0  0  0  0  0  0  0  # atno 6907 bound_to 6896
  151.4575  135.1034  159.9725 H   0  0  0  0  0  0  0  0  0  0  0  0  # atno 6908 bound_to 6896
  152.4898  133.8421  159.7213 H   0  0  0  0  0  0  0  0  0  0  0  0  # atno 6909 bound_to 6896
  144.8293  140.5702  143.5526 H   0  0  0  0  0  0  0  0  0  0  0  0  # atno 7974 bound_to 7965
  154.5578  140.0714  156.8770 H   0  0  0  0  0  0  0  0  0  0  0  0  # atno 8008 bound_to 7997
  155.2870  140.3375  155.4236 H   0  0  0  0  0  0  0  0  0  0  0  0  # atno 8009 bound_to 7997
  156.2016  140.1724  156.7872 H   0  0  0  0  0  0  0  0  0  0  0  0  # atno 8010 bound_to 7997
  140.6826  143.2841  151.3753 H   0  0  0  0  0  0  0  0  0  0  0  0  # atno 10167 bound_to 10162
  156.7414  130.5211  149.5823 H   0  0  0  0  0  0  0  0  0  0  0  0  # atno 10718 bound_to 10713
  153.5887  135.7003  153.5432 H   0  0  0  0  0  0  0  0  0  0  0  0  # atno 10763 bound_to 10752
  153.3198  135.4077  155.1406 H   0  0  0  0  0  0  0  0  0  0  0  0  # atno 10764 bound_to 10752
  154.8604  135.3692  154.5417 H   0  0  0  0  0  0  0  0  0  0  0  0  # atno 10765 bound_to 10752
  140.9064  134.1624  157.4422 H   0  0  0  0  0  0  0  0  0  0  0  0  # atno 11005 bound_to 11000
  145.4931  139.1487  143.3699 LP  0  0  0  0  0  0  0  0  0  0  0  0  # atno 17320 bound_to 7965
  146.2597  140.5069  142.8859 LP  0  0  0  0  0  0  0  0  0  0  0  0  # atno 17321 bound_to 7965
  139.6159  144.1004  152.2345 LP  0  0  0  0  0  0  0  0  0  0  0  0  # atno 17342 bound_to 10162
  140.0433  144.5990  150.7394 LP  0  0  0  0  0  0  0  0  0  0  0  0  # atno 17343 bound_to 10162
  156.1462  130.6278  151.0534 LP  0  0  0  0  0  0  0  0  0  0  0  0  # atno 17370 bound_to 10713
  157.6817  131.0836  150.7353 LP  0  0  0  0  0  0  0  0  0  0  0  0  # atno 17371 bound_to 10713
  139.8750  134.9918  156.5569 LP  0  0  0  0  0  0  0  0  0  0  0  0  # atno 17394 bound_to 11000
  140.8165  133.8387  155.8857 LP  0  0  0  0  0  0  0  0  0  0  0  0  # atno 17395 bound_to 11000

$$$$
