AV-unprocessed.smi:2331|AV-procd|sdf|9317|dock9
  -GOLD-   2272012543D 1   1.00000     0.00000
 Structure written by MMmdl.
 50 51  0  0  0  0  0  0  0  0  2 V2000
  153.0900  141.6979  161.3915 C   0  0  0  0  0  0  0  0  0  0  0  0
  153.4609  141.2201  159.9718 C   0  0  0  0  0  0  0  0  0  0  0  0
  154.9940  141.3767  159.8236 C   0  0  0  0  0  0  0  0  0  0  0  0
  153.1130  139.7146  159.8389 C   0  0  0  0  0  0  0  0  0  0  0  0
  153.6669  138.9307  160.9392 N   0  0  0  0  0  0  0  0  0  0  0  0
  153.4229  137.6329  161.1807 C   0  0  0  0  0  0  0  0  0  0  0  0
  152.7100  136.9436  160.4513 O   0  0  0  0  0  0  0  0  0  0  0  0
  154.0932  137.1446  162.2521 N   0  0  0  0  0  0  0  0  0  0  0  0
  154.5754  137.9862  163.3572 C   0  0  0  0  0  0  0  0  0  0  0  0
  154.9190  137.0484  164.5123 C   0  0  0  0  0  0  0  0  0  0  0  0
  154.1669  135.7644  164.1934 C   0  0  0  0  0  0  0  0  0  0  0  0
  154.0792  135.7273  162.6567 C   0  0  2  0  0  0  0  0  0  0  0  0
  155.1706  134.8449  161.9562 C   0  0  0  0  0  0  0  0  0  0  0  0
  155.0029  133.3647  162.3535 C   0  0  0  0  0  0  0  0  0  0  0  0
  155.1892  134.9444  160.4178 C   0  0  0  0  0  0  0  0  0  0  0  0
  156.4592  135.2283  162.3983 O   0  0  0  0  0  0  0  0  0  0  0  0
  152.6772  142.0439  158.9298 C   0  0  0  0  0  0  0  0  0  0  0  0
  151.7592  141.4551  158.0214 C   0  0  0  0  0  0  0  0  0  0  0  0
  151.0613  142.2680  157.1053 C   0  0  0  0  0  0  0  0  0  0  0  0
  151.2666  143.6015  157.0940 N   0  3  0  0  0  0  0  0  0  0  0  0
  152.1271  144.2120  157.9346 C   0  0  0  0  0  0  0  0  0  0  0  0
  152.8520  143.4492  158.8717 C   0  0  0  0  0  0  0  0  0  0  0  0
  153.6467  141.1498  162.1525 H   0  0  0  0  0  0  0  0  0  0  0  0
  152.0312  141.5579  161.6095 H   0  0  0  0  0  0  0  0  0  0  0  0
  153.3139  142.7573  161.5228 H   0  0  0  0  0  0  0  0  0  0  0  0
  155.5238  140.7907  160.5757 H   0  0  0  0  0  0  0  0  0  0  0  0
  155.3075  142.4135  159.9523 H   0  0  0  0  0  0  0  0  0  0  0  0
  155.3502  141.0363  158.8505 H   0  0  0  0  0  0  0  0  0  0  0  0
  152.0304  139.5869  159.7809 H   0  0  0  0  0  0  0  0  0  0  0  0
  153.5150  139.3072  158.9109 H   0  0  0  0  0  0  0  0  0  0  0  0
  154.2858  139.4131  161.5741 H   0  0  0  0  0  0  0  0  0  0  0  0
  155.4436  138.5757  163.0589 H   0  0  0  0  0  0  0  0  0  0  0  0
  153.7883  138.6762  163.6669 H   0  0  0  0  0  0  0  0  0  0  0  0
  155.9923  136.8577  164.5261 H   0  0  0  0  0  0  0  0  0  0  0  0
  154.6478  137.4618  165.4841 H   0  0  0  0  0  0  0  0  0  0  0  0
  154.6370  134.8887  164.6396 H   0  0  0  0  0  0  0  0  0  0  0  0
  153.1599  135.8322  164.6073 H   0  0  0  0  0  0  0  0  0  0  0  0
  153.1064  135.3043  162.3987 H   0  0  0  0  0  0  0  0  0  0  0  0
  154.0331  132.9816  162.0347 H   0  0  0  0  0  0  0  0  0  0  0  0
  155.0752  133.2137  163.4302 H   0  0  0  0  0  0  0  0  0  0  0  0
  155.7672  132.7385  161.8913 H   0  0  0  0  0  0  0  0  0  0  0  0
  154.2269  134.6595  159.9923 H   0  0  0  0  0  0  0  0  0  0  0  0
  155.9403  134.2810  159.9871 H   0  0  0  0  0  0  0  0  0  0  0  0
  155.4259  135.9516  160.0747 H   0  0  0  0  0  0  0  0  0  0  0  0
  156.5202  135.0600  163.3262 H   0  0  0  0  0  0  0  0  0  0  0  0
  151.5691  140.3930  158.0071 H   0  0  0  0  0  0  0  0  0  0  0  0
  150.3475  141.8925  156.3865 H   0  0  0  0  0  0  0  0  0  0  0  0
  152.2083  145.2847  157.8347 H   0  0  0  0  0  0  0  0  0  0  0  0
  153.5338  143.9488  159.5439 H   0  0  0  0  0  0  0  0  0  0  0  0
  150.7497  144.1707  156.4233 H   0  0  0  0  0  0  0  0  0  0  0  0
  1  2  1  0  0  0  0
  1 23  1  0  0  0  0
  1 24  1  0  0  0  0
  1 25  1  0  0  0  0
  2  3  1  0  0  0  0
  2  4  1  0  0  0  0
  2 17  1  0  0  0  0
  3 26  1  0  0  0  0
  3 27  1  0  0  0  0
  3 28  1  0  0  0  0
  4  5  1  0  0  0  0
  4 29  1  0  0  0  0
  4 30  1  0  0  0  0
  5  6  1  0  0  0  0
  5 31  1  0  0  0  0
  6  7  2  0  0  0  0
  6  8  1  0  0  0  0
  8 12  1  0  0  0  0
  8  9  1  0  0  0  0
  9 10  1  0  0  0  0
  9 32  1  0  0  0  0
  9 33  1  0  0  0  0
 10 11  1  0  0  0  0
 10 34  1  0  0  0  0
 10 35  1  0  0  0  0
 11 12  1  0  0  0  0
 11 36  1  0  0  0  0
 11 37  1  0  0  0  0
 12 13  1  0  0  0  0
 12 38  1  0  0  0  0
 13 14  1  0  0  0  0
 13 15  1  0  0  0  0
 13 16  1  0  0  0  0
 14 39  1  0  0  0  0
 14 40  1  0  0  0  0
 14 41  1  0  0  0  0
 15 42  1  0  0  0  0
 15 43  1  0  0  0  0
 15 44  1  0  0  0  0
 16 45  1  0  0  0  0
 17 22  1  0  0  0  0
 17 18  2  0  0  0  0
 18 19  1  0  0  0  0
 18 46  1  0  0  0  0
 19 20  2  0  0  0  0
 19 47  1  0  0  0  0
 20 21  1  0  0  0  0
 20 50  1  0  0  0  0
 21 22  2  0  0  0  0
 21 48  1  0  0  0  0
 22 49  1  0  0  0  0
M  CHG  1  20   1
M  END
> <s_m_source_file>
AV-unprocessed.smi

> <i_m_source_file_index>
2331

> <i_lp_mmshare_version>
43012

> <i_f3d_flags>
0

> <s_epik_input>
W2NIXTFbY0hdbltjSF1bY0hdYzFDKFtDSDNdKShbQ0gzXSlbQ0gyXVtOSF1DKD1PKU4yW0NIMl1bQ0gyXVtDSDJdW0NASF0yQyhbQ0gzXSkoW0NIM10pW09IXQ==

> <s_epik_cmdline>
J2VwaWtfcHl0aG9uJywgJy1waCcsICc3LjAnLCAnLXRuJywgJzgnLCAnLW1hJywgJzIwMCcsICctbWV0YWxfYmluZGluZycsICctaW1hZScsICc8aW5maWxlLm1hZT4nLCAnLW9tYWUnLCAnPG91dGZpbGUubWFlPic=

> <r_epik_Ionization_Penalty>
1.40501

> <r_epik_Ionization_Penalty_Charging>
1.40494

> <r_epik_Ionization_Penalty_Neutral>
7.00889e-05

> <r_epik_State_Penalty>
1.48741

> <r_epik_Charging_Adjusted_Penalty>
2.89235

> <i_epik_Tot_Q>
1

> <i_epik_Tot_abs_Q>
1

> <r_epik_Metal_State_Penalty>
1.54092

> <b_epik_Metal_Only>
0

> <s_lp_Force_Field>
OPLS_2005

> <r_lp_Energy>
57.0606

> <b_lp_Chiralities_Consistent>
1

> <s_lp_Variant>
AV-unprocessed.smi:2331-4

> <Gold.Version>
5.8.1

> <Gold.Id.Protein>
6NUR|6NUR_protein|mol2

> <Gold.PLP.Fitness>
52.8783

> <Gold.PLP.PLP>
-44.1553

> <Gold.PLP.part.hbond>
-1.9468

> <Gold.PLP.part.metal>
0.0000

> <Gold.PLP.part.buried>
-5.5369

> <Gold.PLP.part.nonpolar>
-37.9757

> <Gold.PLP.part.repulsive>
0.0392

> <Gold.PLP.ligand.clash>
0.0000

> <Gold.PLP.ligand.torsion>
0.2566

> <Gold.PLP.Chemscore.Hbond>
2.9913

> <Gold.PLP.Chemscore.CHOScore>
0.0000

> <Gold.PLP.Chemscore.Metal>
0.0000

> <Gold.Chemscore.Hbonds>
donor molecule, donor type, donor heavy atom, donor atom, acceptor molecule, acceptor atom, score
      L1  H    20    50       P1  8028  1.78
      P1  H  6896  6909       L1     7  0.98

> <Gold.PLP.Chemscore.Internal.Correction>
0.2624

> <Gold.Rescore>
     Score         DG    S(hbond)    S(metal)    S(lipo)     H(rot)  DE(clash)    DE(int)     intcor
     21.48     -21.71       1.94        0.00     127.50       2.02       0.03       0.19       ----

> <Gold.Chemscore.Fitness>
21.4833

> <Gold.Chemscore.DG>
-21.7084

> <Gold.Chemscore.ZeroCoef>
-5.4800

> <Gold.Chemscore.Hbond>
1.9402

> <Gold.Chemscore.Metal>
0.0000

> <Gold.Chemscore.Lipo>
127.4978

> <Gold.Chemscore.Internal_Hbond>
0.0000

> <Gold.Chemscore.DEClash>
0.0347

> <Gold.Chemscore.DEInternal>
0.1905

> <Gold.Chemscore.Rot>
2.0192

> <Gold.Chemscore.Internal.Correction>
   9.000000E+99

> <Gold.Chemscore.Hbonds>
donor molecule, donor type, donor heavy atom, donor atom, acceptor molecule, acceptor atom, score
      L1  H    20    50       P1  8028  0.82
      P1  H  6896  6909       L1     7  0.92

> <Gold.Chemscore.Hbond.Weighted>
-6.4803

> <Gold.Chemscore.Metal.Weighted>
-0.0000

> <Gold.Chemscore.Lipo.Weighted>
-14.9172

> <Gold.Chemscore.Internal_Hbond.Weighted>
0.0000

> <Gold.Chemscore.DEClash.Weighted>
0.0347

> <Gold.Chemscore.DEInternal.Weighted>
0.1905

> <Gold.Chemscore.Rot.Weighted>
5.1691

> <Gold.Chemscore.Internal.Correction.Weighted>
   9.000000E+99

> <Gold.Protein.RotatedTorsions>
[ 6907 6896 6895 6894 ] final  142.52 input  -60.11 | X-H torsion
[ 7974 7965 7964 7962 ] final -111.62 input  175.53 | X-H torsion
[ 8008 7997 7996 7995 ] final   -9.07 input   59.86 | X-H torsion
[ 10167 10162 10161 10158 ] final  -28.49 input  -65.29 | X-H torsion
[ 10718 10713 10712 10709 ] final   18.16 input   66.30 | X-H torsion
[ 10763 10752 10751 10750 ] final   42.63 input  -60.55 | X-H torsion
[ 11005 11000 10999 10996 ] final  -22.53 input  -57.11 | X-H torsion

> <Gold.Protein.ActiveResidues>
 VAL166  LYS551  ARG553  GLY616  TRP617  ASP618  TYR619  PRO620  LYS621  CYS622 
 ASP623  PHE694  ASN695  SER759  ASP760  ASP761  ALA762  ILE779  LEU786  VAL792 
 PHE793  MET794  SER795  GLU796  ALA797  LYS798  CYS799  TRP800  GLU811  SER814 

> <Gold.Protein.RotatedAtoms>
  152.2177  133.4959  159.5144 H   0  0  0  0  0  0  0  0  0  0  0  0  # atno 6907 bound_to 6896
  150.7005  134.1383  159.4104 H   0  0  0  0  0  0  0  0  0  0  0  0  # atno 6908 bound_to 6896
  151.9304  135.0259  160.0579 H   0  0  0  0  0  0  0  0  0  0  0  0  # atno 6909 bound_to 6896
  145.1538  140.8843  143.3631 H   0  0  0  0  0  0  0  0  0  0  0  0  # atno 7974 bound_to 7965
  154.5681  140.2364  155.8232 H   0  0  0  0  0  0  0  0  0  0  0  0  # atno 8008 bound_to 7997
  156.2085  140.3033  155.9638 H   0  0  0  0  0  0  0  0  0  0  0  0  # atno 8009 bound_to 7997
  155.2763  140.0420  157.3002 H   0  0  0  0  0  0  0  0  0  0  0  0  # atno 8010 bound_to 7997
  140.7269  143.4006  151.1272 H   0  0  0  0  0  0  0  0  0  0  0  0  # atno 10167 bound_to 10162
  157.0924  130.6433  149.5852 H   0  0  0  0  0  0  0  0  0  0  0  0  # atno 10718 bound_to 10713
  152.9878  135.6126  154.2980 H   0  0  0  0  0  0  0  0  0  0  0  0  # atno 10763 bound_to 10752
  154.2702  135.2780  155.2743 H   0  0  0  0  0  0  0  0  0  0  0  0  # atno 10764 bound_to 10752
  154.5129  135.5836  153.6676 H   0  0  0  0  0  0  0  0  0  0  0  0  # atno 10765 bound_to 10752
  140.8666  133.7750  156.0137 H   0  0  0  0  0  0  0  0  0  0  0  0  # atno 11005 bound_to 11000
  145.0402  139.3266  143.5980 LP  0  0  0  0  0  0  0  0  0  0  0  0  # atno 17320 bound_to 7965
  146.3491  139.9773  142.8699 LP  0  0  0  0  0  0  0  0  0  0  0  0  # atno 17321 bound_to 7965
  139.7625  143.8614  152.3103 LP  0  0  0  0  0  0  0  0  0  0  0  0  # atno 17342 bound_to 10162
  139.8505  144.7166  150.9220 LP  0  0  0  0  0  0  0  0  0  0  0  0  # atno 17343 bound_to 10162
  155.9894  130.4942  150.7214 LP  0  0  0  0  0  0  0  0  0  0  0  0  # atno 17370 bound_to 10713
  157.4710  131.0893  151.0643 LP  0  0  0  0  0  0  0  0  0  0  0  0  # atno 17371 bound_to 10713
  140.8622  134.2827  157.5229 LP  0  0  0  0  0  0  0  0  0  0  0  0  # atno 17394 bound_to 11000
  139.8709  134.9524  156.4113 LP  0  0  0  0  0  0  0  0  0  0  0  0  # atno 17395 bound_to 11000

$$$$
