AV-unprocessed.smi:281|AV-procd|sdf|2105|dock4
  -GOLD-   2262021393D 1   1.00000     0.00000
 Structure written by MMmdl.
 55 59  0  0  0  0  0  0  0  0  1 V2000
  147.9548  141.9069  154.0648 C   0  0  0  0  0  0  0  0  0  0  0  0
  148.6680  140.6010  154.4284 C   0  0  2  0  0  0  0  0  0  0  0  0
  147.6922  139.4180  154.5229 C   0  0  0  0  0  0  0  0  0  0  0  0
  148.3946  138.2118  154.9540 N   0  0  0  0  0  0  0  0  0  0  0  0
  147.7247  137.0312  154.8693 C   0  0  0  0  0  0  0  0  0  0  0  0
  148.0247  136.0194  155.7288 N   0  0  0  0  0  0  0  0  0  0  0  0
  147.3829  134.8503  155.6537 C   0  0  0  0  0  0  0  0  0  0  0  0
  146.4166  134.4826  154.8115 N   0  0  0  0  0  0  0  0  0  0  0  0
  146.1006  135.4923  153.9515 C   0  0  0  0  0  0  0  0  0  0  0  0
  146.7008  136.7837  153.9093 C   0  0  0  0  0  0  0  0  0  0  0  0
  146.1125  137.5391  152.9023 N   0  0  0  0  0  0  0  0  0  0  0  0
  145.2265  136.7408  152.3744 C   0  0  0  0  0  0  0  0  0  0  0  0
  145.1438  135.4939  152.9509 N   0  0  0  0  0  0  0  0  0  0  0  0
  144.2463  134.4143  152.5665 C   0  0  0  0  0  0  0  0  0  0  0  0
  144.5462  133.8249  151.1669 C   0  0  1  0  0  0  0  0  0  0  0  0
  144.3907  134.8463  150.1983 O   0  0  0  0  0  0  0  0  0  0  0  0
  145.9624  133.2538  151.0658 C   0  0  0  0  0  0  0  0  0  0  0  0
  145.7384  131.7471  151.0146 C   0  0  0  0  0  0  0  0  0  0  0  0
  144.5305  131.6394  150.2836 O   0  0  0  0  0  0  0  0  0  0  0  0
  143.6475  132.6290  150.7914 C   0  0  0  0  0  0  0  0  0  0  0  0
  149.1560  138.3961  156.1873 C   0  0  0  0  0  0  0  0  0  0  0  0
  150.0672  139.6531  156.1273 C   0  0  1  0  0  0  0  0  0  0  0  0
  150.5861  139.9928  157.5194 C   0  0  0  0  0  0  0  0  0  0  0  0
  151.8999  139.2327  157.5887 C   0  0  0  0  0  0  0  0  0  0  0  0
  152.4527  139.4304  156.2999 O   0  0  0  0  0  0  0  0  0  0  0  0
  151.4032  139.5191  155.3382 C   0  0  1  0  0  0  0  0  0  0  0  0
  151.5370  138.3512  154.3489 C   0  0  0  0  0  0  0  0  0  0  0  0
  149.2997  140.7780  155.6932 O   0  0  0  0  0  0  0  0  0  0  0  0
  147.4619  141.8283  153.0956 H   0  0  0  0  0  0  0  0  0  0  0  0
  148.6627  142.7343  154.0109 H   0  0  0  0  0  0  0  0  0  0  0  0
  147.1979  142.1638  154.8065 H   0  0  0  0  0  0  0  0  0  0  0  0
  149.4192  140.3985  153.6644 H   0  0  0  0  0  0  0  0  0  0  0  0
  146.8943  139.6473  155.2311 H   0  0  0  0  0  0  0  0  0  0  0  0
  147.2280  139.2511  153.5500 H   0  0  0  0  0  0  0  0  0  0  0  0
  147.6879  134.1027  156.3712 H   0  0  0  0  0  0  0  0  0  0  0  0
  144.5997  137.0448  151.5486 H   0  0  0  0  0  0  0  0  0  0  0  0
  144.3066  133.6343  153.3269 H   0  0  0  0  0  0  0  0  0  0  0  0
  143.2232  134.7912  152.5993 H   0  0  0  0  0  0  0  0  0  0  0  0
  144.6776  134.5106  149.3625 H   0  0  0  0  0  0  0  0  0  0  0  0
  146.4486  133.5707  150.1413 H   0  0  0  0  0  0  0  0  0  0  0  0
  146.6109  133.5476  151.8921 H   0  0  0  0  0  0  0  0  0  0  0  0
  146.5555  131.2148  150.5275 H   0  0  0  0  0  0  0  0  0  0  0  0
  145.6027  131.3350  152.0158 H   0  0  0  0  0  0  0  0  0  0  0  0
  143.1593  132.2104  151.6717 H   0  0  0  0  0  0  0  0  0  0  0  0
  142.8678  132.8763  150.0697 H   0  0  0  0  0  0  0  0  0  0  0  0
  148.4329  138.5098  156.9962 H   0  0  0  0  0  0  0  0  0  0  0  0
  149.7493  137.5175  156.4344 H   0  0  0  0  0  0  0  0  0  0  0  0
  150.7903  141.0620  157.5965 H   0  0  0  0  0  0  0  0  0  0  0  0
  149.8984  139.7301  158.3239 H   0  0  0  0  0  0  0  0  0  0  0  0
  152.5632  139.6022  158.3709 H   0  0  0  0  0  0  0  0  0  0  0  0
  151.7292  138.1681  157.7540 H   0  0  0  0  0  0  0  0  0  0  0  0
  151.5836  140.4464  154.7930 H   0  0  0  0  0  0  0  0  0  0  0  0
  150.7594  138.3739  153.5862 H   0  0  0  0  0  0  0  0  0  0  0  0
  151.4909  137.3907  154.8594 H   0  0  0  0  0  0  0  0  0  0  0  0
  152.4968  138.3955  153.8343 H   0  0  0  0  0  0  0  0  0  0  0  0
  1  2  1  0  0  0  0
  1 29  1  0  0  0  0
  1 30  1  0  0  0  0
  1 31  1  0  0  0  0
  2 28  1  0  0  0  0
  2  3  1  0  0  0  0
  2 32  1  0  0  0  0
  3  4  1  0  0  0  0
  3 33  1  0  0  0  0
  3 34  1  0  0  0  0
  4  5  1  0  0  0  0
  4 21  1  0  0  0  0
  5 10  1  0  0  0  0
  5  6  2  0  0  0  0
  6  7  1  0  0  0  0
  7  8  2  0  0  0  0
  7 35  1  0  0  0  0
  8  9  1  0  0  0  0
  9 13  1  0  0  0  0
  9 10  2  0  0  0  0
 10 11  1  0  0  0  0
 11 12  2  0  0  0  0
 12 13  1  0  0  0  0
 12 36  1  0  0  0  0
 13 14  1  0  0  0  0
 14 15  1  0  0  0  0
 14 37  1  0  0  0  0
 14 38  1  0  0  0  0
 15 20  1  0  0  0  0
 15 16  1  0  0  0  0
 15 17  1  0  0  0  0
 16 39  1  0  0  0  0
 17 18  1  0  0  0  0
 17 40  1  0  0  0  0
 17 41  1  0  0  0  0
 18 19  1  0  0  0  0
 18 42  1  0  0  0  0
 18 43  1  0  0  0  0
 19 20  1  0  0  0  0
 20 44  1  0  0  0  0
 20 45  1  0  0  0  0
 21 22  1  0  0  0  0
 21 46  1  0  0  0  0
 21 47  1  0  0  0  0
 22 26  1  0  0  0  0
 22 23  1  0  0  0  0
 22 28  1  0  0  0  0
 23 24  1  0  0  0  0
 23 48  1  0  0  0  0
 23 49  1  0  0  0  0
 24 25  1  0  0  0  0
 24 50  1  0  0  0  0
 24 51  1  0  0  0  0
 25 26  1  0  0  0  0
 26 27  1  0  0  0  0
 26 52  1  0  0  0  0
 27 53  1  0  0  0  0
 27 54  1  0  0  0  0
 27 55  1  0  0  0  0
M  END
> <s_m_source_file>
AV-unprocessed.smi

> <i_m_source_file_index>
281

> <i_lp_mmshare_version>
43012

> <i_f3d_flags>
0

> <s_epik_input>
W0NIM11bQ0BASF0xT1tDSDJdW0NIMl1bQ0BAXTEyW0NIMl1OKFtDSDJdW0NASF0oTzIpW0NIM10pYyhuW2NIXW4zKWMoYzM0KW5bY0hdbjRbQ0gyXVtDQEBdNShbT0hdKVtDSDJdW0NIMl1PW0NIMl01

> <s_epik_cmdline>
J2VwaWtfcHl0aG9uJywgJy1waCcsICc3LjAnLCAnLXRuJywgJzgnLCAnLW1hJywgJzIwMCcsICctbWV0YWxfYmluZGluZycsICctaW1hZScsICc8aW5maWxlLm1hZT4nLCAnLW9tYWUnLCAnPG91dGZpbGUubWFlPic=

> <r_lp_tautomer_probability>
1

> <r_epik_Ionization_Penalty>
0.00571331

> <r_epik_Ionization_Penalty_Charging>
0

> <r_epik_Ionization_Penalty_Neutral>
0.00571331

> <r_epik_State_Penalty>
0.00399586

> <r_epik_Charging_Adjusted_Penalty>
0.00399586

> <i_epik_Tot_Q>
0

> <i_epik_Tot_abs_Q>
0

> <r_epik_Metal_State_Penalty>
-0

> <b_epik_Metal_Only>
0

> <s_lp_Force_Field>
OPLS_2005

> <r_lp_Energy>
53.3416

> <b_lp_Chiralities_Consistent>
1

> <s_lp_Variant>
AV-unprocessed.smi:281-5

> <Gold.Version>
5.8.1

> <Gold.Id.Protein>
6NUR|6NUR_protein|mol2

> <Gold.PLP.Fitness>
42.6070

> <Gold.PLP.PLP>
-34.5394

> <Gold.PLP.part.hbond>
-2.4341

> <Gold.PLP.part.metal>
0.0000

> <Gold.PLP.part.buried>
-3.5406

> <Gold.PLP.part.nonpolar>
-28.5270

> <Gold.PLP.part.repulsive>
0.7025

> <Gold.PLP.ligand.clash>
0.0000

> <Gold.PLP.ligand.torsion>
0.6089

> <Gold.PLP.Chemscore.Hbond>
2.0000

> <Gold.PLP.Chemscore.CHOScore>
1.0000

> <Gold.PLP.Chemscore.Metal>
0.0000

> <Gold.Chemscore.Hbonds>
donor molecule, donor type, donor heavy atom, donor atom, acceptor molecule, acceptor atom, score
      L1  H    16    39       P1  7921  0.33
      P1  H  7997  8008       L1    25  1.00
      L1  C    12    36       P1 10171  1.00

> <Gold.PLP.Chemscore.Internal.Correction>
0.2854

> <Gold.Rescore>
     Score         DG    S(hbond)    S(metal)    S(lipo)     H(rot)  DE(clash)    DE(int)     intcor
     13.12     -16.21       1.91        0.00      83.06       2.09       0.21       2.88       ----

> <Gold.Chemscore.Fitness>
13.1219

> <Gold.Chemscore.DG>
-16.2082

> <Gold.Chemscore.ZeroCoef>
-5.4800

> <Gold.Chemscore.Hbond>
1.9065

> <Gold.Chemscore.Metal>
0.0000

> <Gold.Chemscore.Lipo>
83.0597

> <Gold.Chemscore.Internal_Hbond>
0.0000

> <Gold.Chemscore.DEClash>
0.2100

> <Gold.Chemscore.DEInternal>
2.8763

> <Gold.Chemscore.Rot>
2.0927

> <Gold.Chemscore.Internal.Correction>
   9.000000E+99

> <Gold.Chemscore.Hbonds>
donor molecule, donor type, donor heavy atom, donor atom, acceptor molecule, acceptor atom, score
      L1  H    16    39       P1  7921  0.33
      P1  H  7997  8008       L1    25  0.86

> <Gold.Chemscore.Hbond.Weighted>
-6.3676

> <Gold.Chemscore.Metal.Weighted>
-0.0000

> <Gold.Chemscore.Lipo.Weighted>
-9.7180

> <Gold.Chemscore.Internal_Hbond.Weighted>
0.0000

> <Gold.Chemscore.DEClash.Weighted>
0.2100

> <Gold.Chemscore.DEInternal.Weighted>
2.8763

> <Gold.Chemscore.Rot.Weighted>
5.3573

> <Gold.Chemscore.Internal.Correction.Weighted>
   9.000000E+99

> <Gold.Protein.RotatedTorsions>
[ 6907 6896 6895 6894 ] final   45.63 input  -60.11 | X-H torsion
[ 7974 7965 7964 7962 ] final -102.84 input  175.53 | X-H torsion
[ 8008 7997 7996 7995 ] final  -38.64 input   59.86 | X-H torsion
[ 10167 10162 10161 10158 ] final -133.41 input  -65.29 | X-H torsion
[ 10718 10713 10712 10709 ] final -154.66 input   66.30 | X-H torsion
[ 10763 10752 10751 10750 ] final  151.77 input  -60.55 | X-H torsion
[ 11005 11000 10999 10996 ] final  178.06 input  -57.11 | X-H torsion

> <Gold.Protein.ActiveResidues>
 VAL166  LYS551  ARG553  GLY616  TRP617  ASP618  TYR619  PRO620  LYS621  CYS622 
 ASP623  PHE694  ASN695  SER759  ASP760  ASP761  ALA762  ILE779  LEU786  VAL792 
 PHE793  MET794  SER795  GLU796  ALA797  LYS798  CYS799  TRP800  GLU811  SER814 

> <Gold.Protein.RotatedAtoms>
  152.2468  134.8173  160.0451 H   0  0  0  0  0  0  0  0  0  0  0  0  # atno 6907 bound_to 6896
  151.8867  133.3502  159.3793 H   0  0  0  0  0  0  0  0  0  0  0  0  # atno 6908 bound_to 6896
  150.7071  134.4891  159.5551 H   0  0  0  0  0  0  0  0  0  0  0  0  # atno 6909 bound_to 6896
  145.2635  140.9276  143.3027 H   0  0  0  0  0  0  0  0  0  0  0  0  # atno 7974 bound_to 7965
  154.4034  140.1572  156.2733 H   0  0  0  0  0  0  0  0  0  0  0  0  # atno 8008 bound_to 7997
  155.8934  140.3437  155.5950 H   0  0  0  0  0  0  0  0  0  0  0  0  # atno 8009 bound_to 7997
  155.7532  140.0807  157.2182 H   0  0  0  0  0  0  0  0  0  0  0  0  # atno 8010 bound_to 7997
  139.8985  143.6636  152.2599 H   0  0  0  0  0  0  0  0  0  0  0  0  # atno 10167 bound_to 10162
  156.5023  130.8397  151.2614 H   0  0  0  0  0  0  0  0  0  0  0  0  # atno 10718 bound_to 10713
  154.1092  135.2840  155.3234 H   0  0  0  0  0  0  0  0  0  0  0  0  # atno 10763 bound_to 10752
  154.6502  135.5372  153.7895 H   0  0  0  0  0  0  0  0  0  0  0  0  # atno 10764 bound_to 10752
  153.0351  135.6508  154.1251 H   0  0  0  0  0  0  0  0  0  0  0  0  # atno 10765 bound_to 10752
  140.3910  134.6862  157.4507 H   0  0  0  0  0  0  0  0  0  0  0  0  # atno 11005 bound_to 11000
  144.9397  139.4203  143.6455 LP  0  0  0  0  0  0  0  0  0  0  0  0  # atno 17320 bound_to 7965
  146.3268  139.8351  142.8901 LP  0  0  0  0  0  0  0  0  0  0  0  0  # atno 17321 bound_to 7965
  139.7046  144.7630  151.1215 LP  0  0  0  0  0  0  0  0  0  0  0  0  # atno 17342 bound_to 10162
  140.7712  143.5412  150.9310 LP  0  0  0  0  0  0  0  0  0  0  0  0  # atno 17343 bound_to 10162
  157.7461  130.9977  150.2827 LP  0  0  0  0  0  0  0  0  0  0  0  0  # atno 17370 bound_to 10713
  156.3320  130.3802  149.7482 LP  0  0  0  0  0  0  0  0  0  0  0  0  # atno 17371 bound_to 10713
  140.0407  134.6272  155.8985 LP  0  0  0  0  0  0  0  0  0  0  0  0  # atno 17394 bound_to 11000
  141.1891  133.6564  156.5352 LP  0  0  0  0  0  0  0  0  0  0  0  0  # atno 17395 bound_to 11000

$$$$
