AV-unprocessed.smi:2136|AV-procd|sdf|8702|dock8
  -GOLD-   2272011463D 1   1.00000     0.00000
 Structure written by MMmdl.
 42 43  0  0  0  0  0  0  0  0  1 V2000
  149.6383  135.0500  155.0554 C   0  0  0  0  0  0  0  0  0  0  0  0
  150.2007  136.6804  155.6998 S   0  0  0  0  0  0  0  0  0  0  0  0
  150.0221  136.7113  157.1595 O   0  0  0  0  0  0  0  0  0  0  0  0
  151.5356  136.9249  155.1322 O   0  0  0  0  0  0  0  0  0  0  0  0
  149.0841  137.8154  154.9702 N   0  0  0  0  0  0  0  0  0  0  0  0
  147.9456  137.2228  154.2271 C   0  0  0  0  0  0  0  0  0  0  0  0
  146.8087  138.2181  153.9616 C   0  0  0  0  0  0  0  0  0  0  0  0
  147.3325  139.4788  153.2837 C   0  0  0  0  0  0  0  0  0  0  0  0
  148.3795  140.1081  154.1982 C   0  0  0  0  0  0  0  0  0  0  0  0
  149.5609  139.1495  154.4847 C   0  0  1  0  0  0  0  0  0  0  0  0
  150.5639  139.8791  155.3959 C   0  0  0  0  0  0  0  0  0  0  0  0
  151.7106  140.1031  155.0062 O   0  0  0  0  0  0  0  0  0  0  0  0
  150.1175  140.2479  156.6069 N   0  0  0  0  0  0  0  0  0  0  0  0
  150.8894  140.9854  157.5984 C   0  0  0  0  0  0  0  0  0  0  0  0
  151.3330  142.3548  157.0588 C   0  0  0  0  0  0  0  0  0  0  0  0
  151.5902  143.3506  158.1722 C   0  0  0  0  0  0  0  0  0  0  0  0
  152.3379  142.9898  159.3121 C   0  0  0  0  0  0  0  0  0  0  0  0
  152.5532  143.9549  160.3148 C   0  0  0  0  0  0  0  0  0  0  0  0
  152.0097  145.2428  160.1343 C   0  0  0  0  0  0  0  0  0  0  0  0
  151.2910  145.5984  159.0475 N   0  0  0  0  0  0  0  0  0  0  0  0
  151.0893  144.6672  158.0906 C   0  0  0  0  0  0  0  0  0  0  0  0
  150.3555  134.2833  155.3468 H   0  0  0  0  0  0  0  0  0  0  0  0
  149.5771  135.0903  153.9682 H   0  0  0  0  0  0  0  0  0  0  0  0
  148.6649  134.7918  155.4645 H   0  0  0  0  0  0  0  0  0  0  0  0
  148.3188  136.8194  153.2849 H   0  0  0  0  0  0  0  0  0  0  0  0
  147.5337  136.3853  154.7893 H   0  0  0  0  0  0  0  0  0  0  0  0
  146.0469  137.7492  153.3381 H   0  0  0  0  0  0  0  0  0  0  0  0
  146.3201  138.4787  154.9015 H   0  0  0  0  0  0  0  0  0  0  0  0
  147.7682  139.2389  152.3131 H   0  0  0  0  0  0  0  0  0  0  0  0
  146.5162  140.1788  153.1040 H   0  0  0  0  0  0  0  0  0  0  0  0
  148.7470  141.0276  153.7402 H   0  0  0  0  0  0  0  0  0  0  0  0
  147.8967  140.4050  155.1312 H   0  0  0  0  0  0  0  0  0  0  0  0
  150.0633  138.9664  153.5330 H   0  0  0  0  0  0  0  0  0  0  0  0
  149.1611  140.0281  156.8454 H   0  0  0  0  0  0  0  0  0  0  0  0
  150.2634  141.1199  158.4809 H   0  0  0  0  0  0  0  0  0  0  0  0
  151.7525  140.3976  157.9156 H   0  0  0  0  0  0  0  0  0  0  0  0
  152.2449  142.2524  156.4699 H   0  0  0  0  0  0  0  0  0  0  0  0
  150.5752  142.7561  156.3842 H   0  0  0  0  0  0  0  0  0  0  0  0
  152.7408  141.9930  159.4177 H   0  0  0  0  0  0  0  0  0  0  0  0
  153.1218  143.7153  161.2011 H   0  0  0  0  0  0  0  0  0  0  0  0
  152.1556  146.0071  160.8832 H   0  0  0  0  0  0  0  0  0  0  0  0
  150.5138  144.9828  157.2329 H   0  0  0  0  0  0  0  0  0  0  0  0
  1  2  1  0  0  0  0
  1 22  1  0  0  0  0
  1 23  1  0  0  0  0
  1 24  1  0  0  0  0
  2  3  2  0  0  0  0
  2  4  2  0  0  0  0
  2  5  1  0  0  0  0
  5 10  1  0  0  0  0
  5  6  1  0  0  0  0
  6  7  1  0  0  0  0
  6 25  1  0  0  0  0
  6 26  1  0  0  0  0
  7  8  1  0  0  0  0
  7 27  1  0  0  0  0
  7 28  1  0  0  0  0
  8  9  1  0  0  0  0
  8 29  1  0  0  0  0
  8 30  1  0  0  0  0
  9 10  1  0  0  0  0
  9 31  1  0  0  0  0
  9 32  1  0  0  0  0
 10 11  1  0  0  0  0
 10 33  1  0  0  0  0
 11 12  2  0  0  0  0
 11 13  1  0  0  0  0
 13 14  1  0  0  0  0
 13 34  1  0  0  0  0
 14 15  1  0  0  0  0
 14 35  1  0  0  0  0
 14 36  1  0  0  0  0
 15 16  1  0  0  0  0
 15 37  1  0  0  0  0
 15 38  1  0  0  0  0
 16 21  1  0  0  0  0
 16 17  2  0  0  0  0
 17 18  1  0  0  0  0
 17 39  1  0  0  0  0
 18 19  2  0  0  0  0
 18 40  1  0  0  0  0
 19 20  1  0  0  0  0
 19 41  1  0  0  0  0
 20 21  2  0  0  0  0
 21 42  1  0  0  0  0
M  END
> <s_m_source_file>
AV-unprocessed.smi

> <i_m_source_file_index>
2136

> <i_lp_mmshare_version>
43012

> <i_f3d_flags>
0

> <s_epik_input>
W0NIM11TKD1PKSg9TylOMVtDSDJdW0NIMl1bQ0gyXVtDSDJdW0NASF0xQyg9TylbTkhdW0NIMl1bQ0gyXWMyW2NIXVtjSF1bY0hdbltjSF0y

> <s_epik_cmdline>
J2VwaWtfcHl0aG9uJywgJy1waCcsICc3LjAnLCAnLXRuJywgJzgnLCAnLW1hJywgJzIwMCcsICctbWV0YWxfYmluZGluZycsICctaW1hZScsICc8aW5maWxlLm1hZT4nLCAnLW9tYWUnLCAnPG91dGZpbGUubWFlPic=

> <r_epik_Ionization_Penalty>
0.0126915

> <r_epik_Ionization_Penalty_Charging>
0

> <r_epik_Ionization_Penalty_Neutral>
0.0126915

> <r_epik_State_Penalty>
0.0098379

> <r_epik_Charging_Adjusted_Penalty>
0.0098379

> <i_epik_Tot_Q>
0

> <i_epik_Tot_abs_Q>
0

> <r_epik_Metal_State_Penalty>
0.00962913

> <b_epik_Metal_Only>
0

> <s_lp_Force_Field>
OPLS_2005

> <r_lp_Energy>
4.41633

> <b_lp_Chiralities_Consistent>
1

> <s_lp_Variant>
AV-unprocessed.smi:2136-1

> <Gold.Version>
5.8.1

> <Gold.Id.Protein>
6NUR|6NUR_protein|mol2

> <Gold.PLP.Fitness>
43.5430

> <Gold.PLP.PLP>
-35.6045

> <Gold.PLP.part.hbond>
-3.0000

> <Gold.PLP.part.metal>
0.0000

> <Gold.PLP.part.buried>
-1.7827

> <Gold.PLP.part.nonpolar>
-31.2715

> <Gold.PLP.part.repulsive>
0.3376

> <Gold.PLP.ligand.clash>
0.0000

> <Gold.PLP.ligand.torsion>
1.5395

> <Gold.PLP.Chemscore.Hbond>
1.9760

> <Gold.PLP.Chemscore.CHOScore>
0.9975

> <Gold.PLP.Chemscore.Metal>
0.0000

> <Gold.Chemscore.Hbonds>
donor molecule, donor type, donor heavy atom, donor atom, acceptor molecule, acceptor atom, score
      P1  H  7989  7998       L1    12  0.98
      P1  H 10752 10764       L1     4  1.00
      L1  C    21    42       P1  8028  1.00

> <Gold.PLP.Chemscore.Internal.Correction>
2.0972

> <Gold.Rescore>
     Score         DG    S(hbond)    S(metal)    S(lipo)     H(rot)  DE(clash)    DE(int)     intcor
     17.61     -19.16       1.93        0.00      96.01       1.56       0.09       1.46       ----

> <Gold.Chemscore.Fitness>
17.6071

> <Gold.Chemscore.DG>
-19.1561

> <Gold.Chemscore.ZeroCoef>
-5.4800

> <Gold.Chemscore.Hbond>
1.9305

> <Gold.Chemscore.Metal>
0.0000

> <Gold.Chemscore.Lipo>
96.0059

> <Gold.Chemscore.Internal_Hbond>
0.0000

> <Gold.Chemscore.DEClash>
0.0901

> <Gold.Chemscore.DEInternal>
1.4589

> <Gold.Chemscore.Rot>
1.5643

> <Gold.Chemscore.Internal.Correction>
   9.000000E+99

> <Gold.Chemscore.Hbonds>
donor molecule, donor type, donor heavy atom, donor atom, acceptor molecule, acceptor atom, score
      P1  H  7989  7998       L1    12  0.69
      P1  H 10752 10764       L1     4  0.96

> <Gold.Chemscore.Hbond.Weighted>
-6.4480

> <Gold.Chemscore.Metal.Weighted>
-0.0000

> <Gold.Chemscore.Lipo.Weighted>
-11.2327

> <Gold.Chemscore.Internal_Hbond.Weighted>
0.0000

> <Gold.Chemscore.DEClash.Weighted>
0.0901

> <Gold.Chemscore.DEInternal.Weighted>
1.4589

> <Gold.Chemscore.Rot.Weighted>
4.0046

> <Gold.Chemscore.Internal.Correction.Weighted>
   9.000000E+99

> <Gold.Protein.RotatedTorsions>
[ 6907 6896 6895 6894 ] final   32.60 input  -60.11 | X-H torsion
[ 7974 7965 7964 7962 ] final  -15.13 input  175.53 | X-H torsion
[ 8008 7997 7996 7995 ] final   56.46 input   59.86 | X-H torsion
[ 10167 10162 10161 10158 ] final   57.31 input  -65.29 | X-H torsion
[ 10718 10713 10712 10709 ] final   93.25 input   66.30 | X-H torsion
[ 10763 10752 10751 10750 ] final  -55.51 input  -60.55 | X-H torsion
[ 11005 11000 10999 10996 ] final   92.07 input  -57.11 | X-H torsion

> <Gold.Protein.ActiveResidues>
 VAL166  LYS551  ARG553  GLY616  TRP617  ASP618  TYR619  PRO620  LYS621  CYS622 
 ASP623  PHE694  ASN695  SER759  ASP760  ASP761  ALA762  ILE779  LEU786  VAL792 
 PHE793  MET794  SER795  GLU796  ALA797  LYS798  CYS799  TRP800  GLU811  SER814 

> <Gold.Protein.RotatedAtoms>
  152.0768  134.9497  160.0573 H   0  0  0  0  0  0  0  0  0  0  0  0  # atno 6907 bound_to 6896
  152.0802  133.4144  159.4506 H   0  0  0  0  0  0  0  0  0  0  0  0  # atno 6908 bound_to 6896
  150.6836  134.2911  159.4710 H   0  0  0  0  0  0  0  0  0  0  0  0  # atno 6909 bound_to 6896
  146.2045  140.3449  142.8412 H   0  0  0  0  0  0  0  0  0  0  0  0  # atno 7974 bound_to 7965
  155.5178  140.3479  155.4401 H   0  0  0  0  0  0  0  0  0  0  0  0  # atno 8008 bound_to 7997
  156.0805  140.1385  156.9745 H   0  0  0  0  0  0  0  0  0  0  0  0  # atno 8009 bound_to 7997
  154.4577  140.0947  156.6781 H   0  0  0  0  0  0  0  0  0  0  0  0  # atno 8010 bound_to 7997
  140.1993  144.4004  150.6536 H   0  0  0  0  0  0  0  0  0  0  0  0  # atno 10167 bound_to 10162
  157.6955  131.0472  150.4006 H   0  0  0  0  0  0  0  0  0  0  0  0  # atno 10718 bound_to 10713
  154.1919  135.6426  153.5062 H   0  0  0  0  0  0  0  0  0  0  0  0  # atno 10763 bound_to 10752
  153.0033  135.5431  154.6406 H   0  0  0  0  0  0  0  0  0  0  0  0  # atno 10764 bound_to 10752
  154.5797  135.2924  155.0718 H   0  0  0  0  0  0  0  0  0  0  0  0  # atno 10765 bound_to 10752
  139.8829  134.8711  156.3520 H   0  0  0  0  0  0  0  0  0  0  0  0  # atno 11005 bound_to 11000
  144.8759  140.7336  143.6017 LP  0  0  0  0  0  0  0  0  0  0  0  0  # atno 17320 bound_to 7965
  145.3369  139.1743  143.4507 LP  0  0  0  0  0  0  0  0  0  0  0  0  # atno 17321 bound_to 7965
  140.6401  143.2202  151.6308 LP  0  0  0  0  0  0  0  0  0  0  0  0  # atno 17342 bound_to 10162
  139.5223  144.3165  152.0947 LP  0  0  0  0  0  0  0  0  0  0  0  0  # atno 17343 bound_to 10162
  156.4400  130.3989  149.6704 LP  0  0  0  0  0  0  0  0  0  0  0  0  # atno 17370 bound_to 10713
  156.3890  130.7618  151.2617 LP  0  0  0  0  0  0  0  0  0  0  0  0  # atno 17371 bound_to 10713
  140.9588  133.7402  156.0372 LP  0  0  0  0  0  0  0  0  0  0  0  0  # atno 17394 bound_to 11000
  140.8015  134.3503  157.5438 LP  0  0  0  0  0  0  0  0  0  0  0  0  # atno 17395 bound_to 11000

$$$$
