AV-unprocessed.smi:862|AV-procd|sdf|3980|dock3
  -GOLD-   22720 1453D 1   1.00000     0.00000
 Structure written by MMmdl.
 45 47  0  0  0  0  0  0  0  0  3 V2000
  146.7128  140.3428  157.1958 N   0  0  0  0  0  0  0  0  0  0  0  0
  147.2938  140.0639  156.0249 C   0  0  0  0  0  0  0  0  0  0  0  0
  148.0913  140.8465  155.5112 O   0  0  0  0  0  0  0  0  0  0  0  0
  146.9732  138.8578  155.4920 N   0  0  0  0  0  0  0  0  0  0  0  0
  145.8549  137.9954  155.9082 C   0  0  0  0  0  0  0  0  0  0  0  0
  144.7355  138.0947  154.8552 C   0  0  0  0  0  0  0  0  0  0  0  0
  145.2496  137.7124  153.4509 C   0  0  0  0  0  0  0  0  0  0  0  0
  144.1884  137.9503  152.4463 N   0  3  0  0  0  0  0  0  0  0  0  0
  142.9734  137.1103  152.5668 C   0  0  2  0  0  0  0  0  0  0  0  0
  142.0075  137.5833  153.6574 C   0  0  0  0  0  0  0  0  0  0  0  0
  141.1686  136.3497  154.0109 C   0  0  0  0  0  0  0  0  0  0  0  0
  141.9995  135.1243  153.5996 C   0  0  0  0  0  0  0  0  0  0  0  0
  143.3073  135.6774  153.0080 C   0  0  1  0  0  0  0  0  0  0  0  0
  143.8795  134.8368  151.9433 N   0  0  0  0  0  0  0  0  0  0  0  0
  144.0118  133.4710  151.9597 C   0  0  0  0  0  0  0  0  0  0  0  0
  144.5902  133.1165  150.7683 C   0  0  0  0  0  0  0  0  0  0  0  0
  144.7899  134.2784  150.0736 N   0  3  0  0  0  0  0  0  0  0  0  0
  144.3594  135.3229  150.7886 C   0  0  0  0  0  0  0  0  0  0  0  0
  146.5356  138.4990  153.1091 C   0  0  0  0  0  0  0  0  0  0  0  0
  147.5734  138.3818  154.2400 C   0  0  0  0  0  0  0  0  0  0  0  0
  146.9152  141.2182  157.6568 H   0  0  0  0  0  0  0  0  0  0  0  0
  146.0855  139.6767  157.6216 H   0  0  0  0  0  0  0  0  0  0  0  0
  146.2062  136.9654  155.9843 H   0  0  0  0  0  0  0  0  0  0  0  0
  145.4548  138.2373  156.8926 H   0  0  0  0  0  0  0  0  0  0  0  0
  143.9050  137.4465  155.1375 H   0  0  0  0  0  0  0  0  0  0  0  0
  144.3434  139.1131  154.8445 H   0  0  0  0  0  0  0  0  0  0  0  0
  145.4882  136.6477  153.4726 H   0  0  0  0  0  0  0  0  0  0  0  0
  143.8898  138.9079  152.5633 H   0  0  0  0  0  0  0  0  0  0  0  0
  142.4483  137.0854  151.6105 H   0  0  0  0  0  0  0  0  0  0  0  0
  142.5647  137.9038  154.5393 H   0  0  0  0  0  0  0  0  0  0  0  0
  141.3864  138.4194  153.3344 H   0  0  0  0  0  0  0  0  0  0  0  0
  140.9133  136.3322  155.0711 H   0  0  0  0  0  0  0  0  0  0  0  0
  140.2318  136.3615  153.4523 H   0  0  0  0  0  0  0  0  0  0  0  0
  142.1999  134.4695  154.4483 H   0  0  0  0  0  0  0  0  0  0  0  0
  141.4380  134.5385  152.8712 H   0  0  0  0  0  0  0  0  0  0  0  0
  144.0424  135.7246  153.8140 H   0  0  0  0  0  0  0  0  0  0  0  0
  143.6895  132.8647  152.7943 H   0  0  0  0  0  0  0  0  0  0  0  0
  144.8659  132.1498  150.3722 H   0  0  0  0  0  0  0  0  0  0  0  0
  144.3894  136.3548  150.4859 H   0  0  0  0  0  0  0  0  0  0  0  0
  146.9754  138.1393  152.1801 H   0  0  0  0  0  0  0  0  0  0  0  0
  146.2960  139.5515  152.9491 H   0  0  0  0  0  0  0  0  0  0  0  0
  148.4790  138.9299  153.9756 H   0  0  0  0  0  0  0  0  0  0  0  0
  147.8840  137.3429  154.3595 H   0  0  0  0  0  0  0  0  0  0  0  0
  144.5810  137.8538  151.5204 H   0  0  0  0  0  0  0  0  0  0  0  0
  145.1994  134.3399  149.1495 H   0  0  0  0  0  0  0  0  0  0  0  0
  1  2  1  0  0  0  0
  1 21  1  0  0  0  0
  1 22  1  0  0  0  0
  2  3  2  0  0  0  0
  2  4  1  0  0  0  0
  4 20  1  0  0  0  0
  4  5  1  0  0  0  0
  5  6  1  0  0  0  0
  5 23  1  0  0  0  0
  5 24  1  0  0  0  0
  6  7  1  0  0  0  0
  6 25  1  0  0  0  0
  6 26  1  0  0  0  0
  7  8  1  0  0  0  0
  7 19  1  0  0  0  0
  7 27  1  0  0  0  0
  8  9  1  0  0  0  0
  8 28  1  0  0  0  0
  8 44  1  0  0  0  0
  9 13  1  0  0  0  0
  9 10  1  0  0  0  0
  9 29  1  0  0  0  0
 10 11  1  0  0  0  0
 10 30  1  0  0  0  0
 10 31  1  0  0  0  0
 11 12  1  0  0  0  0
 11 32  1  0  0  0  0
 11 33  1  0  0  0  0
 12 13  1  0  0  0  0
 12 34  1  0  0  0  0
 12 35  1  0  0  0  0
 13 14  1  0  0  0  0
 13 36  1  0  0  0  0
 14 18  1  0  0  0  0
 14 15  1  0  0  0  0
 15 16  2  0  0  0  0
 15 37  1  0  0  0  0
 16 17  1  0  0  0  0
 16 38  1  0  0  0  0
 17 18  2  0  0  0  0
 17 45  1  0  0  0  0
 18 39  1  0  0  0  0
 19 20  1  0  0  0  0
 19 40  1  0  0  0  0
 19 41  1  0  0  0  0
 20 42  1  0  0  0  0
 20 43  1  0  0  0  0
M  CHG  1   8   1
M  CHG  1  17   1
M  END
> <s_m_source_file>
AV-unprocessed.smi

> <i_m_source_file_index>
862

> <i_lp_mmshare_version>
43012

> <i_f3d_flags>
0

> <s_epik_input>
W05IMl1DKD1PKU4xW0NIMl1bQ0gyXVtDSF0oW0NIMl1bQ0gyXTEpW05IXVtDQEBIXTJbQ0gyXVtDSDJdW0NIMl1bQ0BIXTJuM1tjSF1bY0hdbltjSF0z

> <s_epik_cmdline>
J2VwaWtfcHl0aG9uJywgJy1waCcsICc3LjAnLCAnLXRuJywgJzgnLCAnLW1hJywgJzIwMCcsICctbWV0YWxfYmluZGluZycsICctaW1hZScsICc8aW5maWxlLm1hZT4nLCAnLW9tYWUnLCAnPG91dGZpbGUubWFlPic=

> <r_lp_tautomer_probability>
1

> <r_epik_Ionization_Penalty>
1.30217

> <r_epik_Ionization_Penalty_Charging>
0.00439521

> <r_epik_Ionization_Penalty_Neutral>
1.29777

> <r_epik_State_Penalty>
0.977606

> <r_epik_Charging_Adjusted_Penalty>
0.982001

> <i_epik_Tot_Q>
2

> <i_epik_Tot_abs_Q>
2

> <r_epik_Metal_State_Penalty>
1.03289

> <b_epik_Metal_Only>
0

> <s_lp_Force_Field>
OPLS_2005

> <r_lp_Energy>
65.3299

> <b_lp_Chiralities_Consistent>
1

> <s_lp_Variant>
AV-unprocessed.smi:862-5

> <Gold.Version>
5.8.1

> <Gold.Id.Protein>
6NUR|6NUR_protein|mol2

> <Gold.PLP.Fitness>
43.4055

> <Gold.PLP.PLP>
-27.8180

> <Gold.PLP.part.hbond>
-2.9865

> <Gold.PLP.part.metal>
0.0000

> <Gold.PLP.part.buried>
-6.4717

> <Gold.PLP.part.nonpolar>
-19.5357

> <Gold.PLP.part.repulsive>
0.2277

> <Gold.PLP.ligand.clash>
0.0000

> <Gold.PLP.ligand.torsion>
0.6385

> <Gold.PLP.Chemscore.Hbond>
3.6080

> <Gold.PLP.Chemscore.CHOScore>
1.9960

> <Gold.PLP.Chemscore.Metal>
0.0000

> <Gold.Chemscore.Hbonds>
donor molecule, donor type, donor heavy atom, donor atom, acceptor molecule, acceptor atom, score
      L1  H     8    28       P1 10175  2.00
      L1  H     8    44       P1 10171  0.54
      L1  H    17    45       P1  7921  1.00
      L1  C    15    37       P1 10957  1.00
      L1  C    18    39       P1 10171  1.00

> <Gold.PLP.Chemscore.Internal.Correction>
0.0524

> <Gold.Rescore>
     Score         DG    S(hbond)    S(metal)    S(lipo)     H(rot)  DE(clash)    DE(int)     intcor
     15.67     -16.29       2.76        0.00      50.47       1.68       0.05       0.57       ----

> <Gold.Chemscore.Fitness>
15.6716

> <Gold.Chemscore.DG>
-16.2948

> <Gold.Chemscore.ZeroCoef>
-5.4800

> <Gold.Chemscore.Hbond>
2.7585

> <Gold.Chemscore.Metal>
0.0000

> <Gold.Chemscore.Lipo>
50.4749

> <Gold.Chemscore.Internal_Hbond>
0.0000

> <Gold.Chemscore.DEClash>
0.0516

> <Gold.Chemscore.DEInternal>
0.5716

> <Gold.Chemscore.Rot>
1.6814

> <Gold.Chemscore.Internal.Correction>
   9.000000E+99

> <Gold.Chemscore.Hbonds>
donor molecule, donor type, donor heavy atom, donor atom, acceptor molecule, acceptor atom, score
      L1  H     8    28       P1 10175  0.95
      L1  H     8    44       P1 10171  0.52
      L1  H    17    45       P1  7921  0.99

> <Gold.Chemscore.Hbond.Weighted>
-9.2135

> <Gold.Chemscore.Metal.Weighted>
-0.0000

> <Gold.Chemscore.Lipo.Weighted>
-5.9056

> <Gold.Chemscore.Internal_Hbond.Weighted>
0.0000

> <Gold.Chemscore.DEClash.Weighted>
0.0516

> <Gold.Chemscore.DEInternal.Weighted>
0.5716

> <Gold.Chemscore.Rot.Weighted>
4.3043

> <Gold.Chemscore.Internal.Correction.Weighted>
   9.000000E+99

> <Gold.Protein.RotatedTorsions>
[ 6907 6896 6895 6894 ] final -156.77 input  -60.11 | X-H torsion
[ 7974 7965 7964 7962 ] final  104.46 input  175.53 | X-H torsion
[ 8008 7997 7996 7995 ] final   36.54 input   59.86 | X-H torsion
[ 10167 10162 10161 10158 ] final    6.29 input  -65.29 | X-H torsion
[ 10718 10713 10712 10709 ] final  163.74 input   66.30 | X-H torsion
[ 10763 10752 10751 10750 ] final   34.51 input  -60.55 | X-H torsion
[ 11005 11000 10999 10996 ] final -108.30 input  -57.11 | X-H torsion

> <Gold.Protein.ActiveResidues>
 VAL166  LYS551  ARG553  GLY616  TRP617  ASP618  TYR619  PRO620  LYS621  CYS622 
 ASP623  PHE694  ASN695  SER759  ASP760  ASP761  ALA762  ILE779  LEU786  VAL792 
 PHE793  MET794  SER795  GLU796  ALA797  LYS798  CYS799  TRP800  GLU811  SER814 

> <Gold.Protein.RotatedAtoms>
  151.2926  133.4158  159.2633 H   0  0  0  0  0  0  0  0  0  0  0  0  # atno 6907 bound_to 6896
  151.0264  134.9508  159.8098 H   0  0  0  0  0  0  0  0  0  0  0  0  # atno 6908 bound_to 6896
  152.5336  134.2888  159.9088 H   0  0  0  0  0  0  0  0  0  0  0  0  # atno 6909 bound_to 6896
  145.3324  139.2483  143.3653 H   0  0  0  0  0  0  0  0  0  0  0  0  # atno 7974 bound_to 7965
  155.1891  140.3306  155.4362 H   0  0  0  0  0  0  0  0  0  0  0  0  # atno 8008 bound_to 7997
  156.2449  140.1913  156.6935 H   0  0  0  0  0  0  0  0  0  0  0  0  # atno 8009 bound_to 7997
  154.6218  140.0594  156.9610 H   0  0  0  0  0  0  0  0  0  0  0  0  # atno 8010 bound_to 7997
  140.6435  143.7717  150.7464 H   0  0  0  0  0  0  0  0  0  0  0  0  # atno 10167 bound_to 10162
  157.1042  131.0451  151.2485 H   0  0  0  0  0  0  0  0  0  0  0  0  # atno 10718 bound_to 10713
  153.0161  135.6358  154.1681 H   0  0  0  0  0  0  0  0  0  0  0  0  # atno 10763 bound_to 10752
  154.1419  135.2834  155.3160 H   0  0  0  0  0  0  0  0  0  0  0  0  # atno 10764 bound_to 10752
  154.6118  135.5554  153.7542 H   0  0  0  0  0  0  0  0  0  0  0  0  # atno 10765 bound_to 10752
  141.0909  133.9056  157.2077 H   0  0  0  0  0  0  0  0  0  0  0  0  # atno 11005 bound_to 11000
  146.3040  140.3905  142.8694 LP  0  0  0  0  0  0  0  0  0  0  0  0  # atno 17320 bound_to 7965
  144.8854  140.7454  143.5960 LP  0  0  0  0  0  0  0  0  0  0  0  0  # atno 17321 bound_to 7965
  140.1353  143.4489  152.2228 LP  0  0  0  0  0  0  0  0  0  0  0  0  # atno 17342 bound_to 10162
  139.5645  144.7427  151.4061 LP  0  0  0  0  0  0  0  0  0  0  0  0  # atno 17343 bound_to 10162
  157.4614  130.7655  149.7240 LP  0  0  0  0  0  0  0  0  0  0  0  0  # atno 17370 bound_to 10713
  155.9866  130.3973  150.3205 LP  0  0  0  0  0  0  0  0  0  0  0  0  # atno 17371 bound_to 10713
  139.9735  135.0121  156.9572 LP  0  0  0  0  0  0  0  0  0  0  0  0  # atno 17394 bound_to 11000
  140.5254  134.0866  155.7302 LP  0  0  0  0  0  0  0  0  0  0  0  0  # atno 17395 bound_to 11000

$$$$
