AV-unprocessed.smi:1199|AV-procd|sdf|5020|dock1
  -GOLD-   22720 4 43D 1   1.00000     0.00000
 Structure written by MMmdl.
 42 43  0  0  0  0  0  0  0  0  2 V2000
  150.2697  133.2723  155.6066 C   0  0  0  0  0  0  0  0  0  0  0  0
  149.2222  134.0760  154.8243 C   0  0  2  0  0  0  0  0  0  0  0  0
  148.7159  133.2963  153.5876 C   0  0  0  0  0  0  0  0  0  0  0  0
  147.6818  134.0293  152.8114 N   0  3  0  0  0  0  0  0  0  0  0  0
  147.0135  133.1845  151.7937 C   0  0  0  0  0  0  0  0  0  0  0  0
  146.0029  134.0158  150.9825 C   0  0  0  0  0  0  0  0  0  0  0  0
  145.0672  134.6319  151.8589 O   0  0  0  0  0  0  0  0  0  0  0  0
  145.6995  135.5099  152.7823 C   0  0  0  0  0  0  0  0  0  0  0  0
  146.6725  134.7071  153.6604 C   0  0  0  0  0  0  0  0  0  0  0  0
  149.7954  135.3623  154.4282 N   0  0  0  0  0  0  0  0  0  0  0  0
  150.4541  136.2096  155.2347 C   0  0  0  0  0  0  0  0  0  0  0  0
  150.7236  135.9581  156.4092 O   0  0  0  0  0  0  0  0  0  0  0  0
  150.8504  137.5604  154.6266 C   0  0  0  0  0  0  0  0  0  0  0  0
  150.7973  138.6423  155.6200 N   0  0  0  0  0  0  0  0  0  0  0  0
  149.7090  138.5760  156.4762 N   0  0  0  0  0  0  0  0  0  0  0  0
  149.5364  139.4896  157.3706 C   0  0  0  0  0  0  0  0  0  0  0  0
  148.4439  139.3868  158.1959 O   0  0  0  0  0  0  0  0  0  0  0  0
  150.4634  140.5921  157.5037 C   0  0  0  0  0  0  0  0  0  0  0  0
  151.5251  140.6444  156.6697 C   0  0  0  0  0  0  0  0  0  0  0  0
  151.7511  139.6243  155.6449 C   0  0  0  0  0  0  0  0  0  0  0  0
  152.7042  139.6498  154.8657 O   0  0  0  0  0  0  0  0  0  0  0  0
  148.7943  139.2135  159.0562 H   0  0  0  0  0  0  0  0  0  0  0  0
  149.8616  132.3174  155.9390 H   0  0  0  0  0  0  0  0  0  0  0  0
  150.5990  133.8145  156.4938 H   0  0  0  0  0  0  0  0  0  0  0  0
  151.1503  133.0637  154.9981 H   0  0  0  0  0  0  0  0  0  0  0  0
  148.3849  134.2430  155.5033 H   0  0  0  0  0  0  0  0  0  0  0  0
  149.5705  133.1068  152.9361 H   0  0  0  0  0  0  0  0  0  0  0  0
  148.3335  132.3167  153.8780 H   0  0  0  0  0  0  0  0  0  0  0  0
  147.7568  132.7554  151.1205 H   0  0  0  0  0  0  0  0  0  0  0  0
  146.5058  132.3533  152.2858 H   0  0  0  0  0  0  0  0  0  0  0  0
  146.5080  134.7760  150.3863 H   0  0  0  0  0  0  0  0  0  0  0  0
  145.4642  133.3742  150.2852 H   0  0  0  0  0  0  0  0  0  0  0  0
  146.2201  136.3088  152.2510 H   0  0  0  0  0  0  0  0  0  0  0  0
  144.9362  135.9819  153.4010 H   0  0  0  0  0  0  0  0  0  0  0  0
  146.1244  133.9654  154.2433 H   0  0  0  0  0  0  0  0  0  0  0  0
  147.1553  135.3753  154.3722 H   0  0  0  0  0  0  0  0  0  0  0  0
  149.6355  135.6532  153.4742 H   0  0  0  0  0  0  0  0  0  0  0  0
  151.8559  137.4657  154.2126 H   0  0  0  0  0  0  0  0  0  0  0  0
  150.2035  137.8029  153.7812 H   0  0  0  0  0  0  0  0  0  0  0  0
  150.3025  141.3494  158.2571 H   0  0  0  0  0  0  0  0  0  0  0  0
  152.2260  141.4613  156.7592 H   0  0  0  0  0  0  0  0  0  0  0  0
  148.1698  134.7512  152.2998 H   0  0  0  0  0  0  0  0  0  0  0  0
  1  2  1  0  0  0  0
  1 23  1  0  0  0  0
  1 24  1  0  0  0  0
  1 25  1  0  0  0  0
  2  3  1  0  0  0  0
  2 10  1  0  0  0  0
  2 26  1  0  0  0  0
  3  4  1  0  0  0  0
  3 27  1  0  0  0  0
  3 28  1  0  0  0  0
  4  9  1  0  0  0  0
  4  5  1  0  0  0  0
  4 42  1  0  0  0  0
  5  6  1  0  0  0  0
  5 29  1  0  0  0  0
  5 30  1  0  0  0  0
  6  7  1  0  0  0  0
  6 31  1  0  0  0  0
  6 32  1  0  0  0  0
  7  8  1  0  0  0  0
  8  9  1  0  0  0  0
  8 33  1  0  0  0  0
  8 34  1  0  0  0  0
  9 35  1  0  0  0  0
  9 36  1  0  0  0  0
 10 11  1  0  0  0  0
 10 37  1  0  0  0  0
 11 12  2  0  0  0  0
 11 13  1  0  0  0  0
 13 38  1  0  0  0  0
 13 39  1  0  0  0  0
 13 14  1  0  0  0  0
 14 15  1  0  0  0  0
 14 20  1  0  0  0  0
 15 16  2  0  0  0  0
 16 17  1  0  0  0  0
 16 18  1  0  0  0  0
 17 22  1  0  0  0  0
 18 40  1  0  0  0  0
 18 19  2  0  0  0  0
 19 41  1  0  0  0  0
 19 20  1  0  0  0  0
 20 21  2  0  0  0  0
M  CHG  1   4   1
M  END
> <s_m_source_file>
AV-unprocessed.smi

> <i_m_source_file_index>
1199

> <i_lp_mmshare_version>
43012

> <i_f3d_flags>
0

> <s_epik_input>
W0NIMl0xW0NIMl1PW0NIMl1bQ0gyXU4xW0NIMl1bQ0BASF0oW0NIM10pW05IXUMoPU8pW0NIMl1uMltuSF1jKD1PKVtjSF1bY0hdYzI9Tw==

> <s_epik_cmdline>
J2VwaWtfcHl0aG9uJywgJy1waCcsICc3LjAnLCAnLXRuJywgJzgnLCAnLW1hJywgJzIwMCcsICctbWV0YWxfYmluZGluZycsICctaW1hZScsICc8aW5maWxlLm1hZT4nLCAnLW9tYWUnLCAnPG91dGZpbGUubWFlPic=

> <r_lp_tautomer_probability>
0.9996

> <r_epik_Ionization_Penalty>
2.86815

> <r_epik_Ionization_Penalty_Charging>
0.656653

> <r_epik_Ionization_Penalty_Neutral>
2.21149

> <r_epik_State_Penalty>
2.43136

> <r_epik_Charging_Adjusted_Penalty>
3.08801

> <i_epik_Tot_Q>
1

> <i_epik_Tot_abs_Q>
1

> <r_epik_Metal_State_Penalty>
2.43136

> <b_epik_Metal_Only>
0

> <s_lp_Force_Field>
OPLS_2005

> <r_lp_Energy>
31.3185

> <b_lp_Chiralities_Consistent>
1

> <s_lp_Variant>
AV-unprocessed.smi:1199-7

> <Gold.Version>
5.8.1

> <Gold.Id.Protein>
6NUR|6NUR_protein|mol2

> <Gold.PLP.Fitness>
42.5728

> <Gold.PLP.PLP>
-32.7323

> <Gold.PLP.part.hbond>
-5.3650

> <Gold.PLP.part.metal>
0.0000

> <Gold.PLP.part.buried>
-3.8343

> <Gold.PLP.part.nonpolar>
-24.1231

> <Gold.PLP.part.repulsive>
0.1922

> <Gold.PLP.ligand.clash>
0.0000

> <Gold.PLP.ligand.torsion>
0.8334

> <Gold.PLP.Chemscore.Hbond>
3.8153

> <Gold.PLP.Chemscore.CHOScore>
0.0000

> <Gold.PLP.Chemscore.Metal>
0.0000

> <Gold.Chemscore.Hbonds>
donor molecule, donor type, donor heavy atom, donor atom, acceptor molecule, acceptor atom, score
      L1  H     4    42       P1  7948  2.00
      L1  H    10    37       P1  7948  0.75
      P1  H  7989  7998       L1    21  0.30
      P1  H  7997  8008       L1    21  0.71

> <Gold.PLP.Chemscore.Internal.Correction>
0.0613

> <Gold.Rescore>
     Score         DG    S(hbond)    S(metal)    S(lipo)     H(rot)  DE(clash)    DE(int)     intcor
      9.20     -12.11       2.78        0.00      43.74       3.03       0.02       2.89       ----

> <Gold.Chemscore.Fitness>
9.1972

> <Gold.Chemscore.DG>
-12.1090

> <Gold.Chemscore.ZeroCoef>
-5.4800

> <Gold.Chemscore.Hbond>
2.7776

> <Gold.Chemscore.Metal>
0.0000

> <Gold.Chemscore.Lipo>
43.7418

> <Gold.Chemscore.Internal_Hbond>
0.0000

> <Gold.Chemscore.DEClash>
0.0189

> <Gold.Chemscore.DEInternal>
2.8930

> <Gold.Chemscore.Rot>
3.0336

> <Gold.Chemscore.Internal.Correction>
   9.000000E+99

> <Gold.Chemscore.Hbonds>
donor molecule, donor type, donor heavy atom, donor atom, acceptor molecule, acceptor atom, score
      L1  H     4    42       P1  7948  0.35
      L1  H    10    37       P1  7948  0.09
      P1  H  7989  7998       L1    21  0.02
      P1  H  7997  8008       L1    21  0.31

> <Gold.Chemscore.Hbond.Weighted>
-9.2773

> <Gold.Chemscore.Metal.Weighted>
-0.0000

> <Gold.Chemscore.Lipo.Weighted>
-5.1178

> <Gold.Chemscore.Internal_Hbond.Weighted>
0.0000

> <Gold.Chemscore.DEClash.Weighted>
0.0189

> <Gold.Chemscore.DEInternal.Weighted>
2.8930

> <Gold.Chemscore.Rot.Weighted>
7.7661

> <Gold.Chemscore.Internal.Correction.Weighted>
   9.000000E+99

> <Gold.Protein.RotatedTorsions>
[ 6907 6896 6895 6894 ] final   70.83 input  -60.11 | X-H torsion
[ 7974 7965 7964 7962 ] final  -18.76 input  175.53 | X-H torsion
[ 8008 7997 7996 7995 ] final  -31.87 input   59.86 | X-H torsion
[ 10167 10162 10161 10158 ] final  126.13 input  -65.29 | X-H torsion
[ 10718 10713 10712 10709 ] final   59.69 input   66.30 | X-H torsion
[ 10763 10752 10751 10750 ] final  -87.27 input  -60.55 | X-H torsion
[ 11005 11000 10999 10996 ] final   -2.81 input  -57.11 | X-H torsion

> <Gold.Protein.ActiveResidues>
 VAL166  LYS551  ARG553  GLY616  TRP617  ASP618  TYR619  PRO620  LYS621  CYS622 
 ASP623  PHE694  ASN695  SER759  ASP760  ASP761  ALA762  ILE779  LEU786  VAL792 
 PHE793  MET794  SER795  GLU796  ALA797  LYS798  CYS799  TRP800  GLU811  SER814 

> <Gold.Protein.RotatedAtoms>
  152.4773  134.4810  159.9665 H   0  0  0  0  0  0  0  0  0  0  0  0  # atno 6907 bound_to 6896
  151.4823  133.3537  159.2848 H   0  0  0  0  0  0  0  0  0  0  0  0  # atno 6908 bound_to 6896
  150.8821  134.8240  159.7293 H   0  0  0  0  0  0  0  0  0  0  0  0  # atno 6909 bound_to 6896
  146.1876  140.3967  142.8470 H   0  0  0  0  0  0  0  0  0  0  0  0  # atno 7974 bound_to 7965
  154.4199  140.1752  156.1637 H   0  0  0  0  0  0  0  0  0  0  0  0  # atno 8008 bound_to 7997
  155.9817  140.3377  155.6645 H   0  0  0  0  0  0  0  0  0  0  0  0  # atno 8009 bound_to 7997
  155.6491  140.0688  157.2584 H   0  0  0  0  0  0  0  0  0  0  0  0  # atno 8010 bound_to 7997
  139.5647  144.6904  151.3942 H   0  0  0  0  0  0  0  0  0  0  0  0  # atno 10167 bound_to 10162
  157.5695  130.8897  149.9243 H   0  0  0  0  0  0  0  0  0  0  0  0  # atno 10718 bound_to 10713
  154.6317  135.5419  153.7688 H   0  0  0  0  0  0  0  0  0  0  0  0  # atno 10763 bound_to 10752
  153.0288  135.6437  154.1291 H   0  0  0  0  0  0  0  0  0  0  0  0  # atno 10764 bound_to 10752
  154.1220  135.2919  155.3186 H   0  0  0  0  0  0  0  0  0  0  0  0  # atno 10765 bound_to 10752
  140.6624  133.9308  155.8444 H   0  0  0  0  0  0  0  0  0  0  0  0  # atno 11005 bound_to 11000
  144.8425  140.6879  143.6220 LP  0  0  0  0  0  0  0  0  0  0  0  0  # atno 17320 bound_to 7965
  145.3892  139.1620  143.4238 LP  0  0  0  0  0  0  0  0  0  0  0  0  # atno 17321 bound_to 7965
  140.6930  143.7816  150.7284 LP  0  0  0  0  0  0  0  0  0  0  0  0  # atno 17342 bound_to 10162
  140.1304  143.4531  152.2258 LP  0  0  0  0  0  0  0  0  0  0  0  0  # atno 17343 bound_to 10162
  156.0741  130.3681  150.0713 LP  0  0  0  0  0  0  0  0  0  0  0  0  # atno 17370 bound_to 10713
  156.8868  130.9575  151.3593 LP  0  0  0  0  0  0  0  0  0  0  0  0  # atno 17371 bound_to 10713
  141.0455  134.0560  157.3849 LP  0  0  0  0  0  0  0  0  0  0  0  0  # atno 17394 bound_to 11000
  139.9008  135.0164  156.7260 LP  0  0  0  0  0  0  0  0  0  0  0  0  # atno 17395 bound_to 11000

$$$$
