AV-unprocessed.smi:975|AV-procd|sdf|4301|dock1
  -GOLD-   22720 2203D 1   1.00000     0.00000
 Structure written by MMmdl.
 44 45  0  0  0  0  0  0  0  0  1 V2000
  145.4663  136.8547  152.8194 C   0  0  0  0  0  0  0  0  0  0  0  0
  146.1940  138.1093  153.2568 C   0  0  0  0  0  0  0  0  0  0  0  0
  146.7883  138.9992  152.2811 C   0  0  0  0  0  0  0  0  0  0  0  0
  147.4296  140.0991  152.7052 C   0  0  0  0  0  0  0  0  0  0  0  0
  147.5397  140.4154  154.0713 N   0  0  0  0  0  0  0  0  0  0  0  0
  148.2543  141.6582  154.4155 C   0  0  0  0  0  0  0  0  0  0  0  0
  149.6409  141.4524  155.0504 C   0  0  0  0  0  0  0  0  0  0  0  0
  150.3308  140.5024  154.6824 O   0  0  0  0  0  0  0  0  0  0  0  0
  150.0472  142.3301  155.9843 N   0  0  0  0  0  0  0  0  0  0  0  0
  151.3235  142.3069  156.6935 C   0  0  0  0  0  0  0  0  0  0  0  0
  151.1451  141.4651  157.9779 C   0  0  0  0  0  0  0  0  0  0  0  0
  152.3437  141.4282  158.9432 C   0  0  0  0  0  0  0  0  0  0  0  0
  152.3006  142.4646  160.0891 C   0  0  0  0  0  0  0  0  0  0  0  0
  152.9338  143.8317  159.7710 C   0  0  0  0  0  0  0  0  0  0  0  0
  151.9868  144.9173  159.2159 C   0  0  0  0  0  0  0  0  0  0  0  0
  151.1070  144.5321  158.0126 C   0  0  0  0  0  0  0  0  0  0  0  0
  151.8388  143.7479  156.9055 C   0  0  0  0  0  0  0  0  0  0  0  0
  146.9938  139.6226  155.0423 C   0  0  0  0  0  0  0  0  0  0  0  0
  147.0713  139.9036  156.2382 O   0  0  0  0  0  0  0  0  0  0  0  0
  146.3005  138.4194  154.5677 C   0  0  0  0  0  0  0  0  0  0  0  0
  145.4561  136.7627  151.7329 H   0  0  0  0  0  0  0  0  0  0  0  0
  144.4338  136.8738  153.1691 H   0  0  0  0  0  0  0  0  0  0  0  0
  145.9536  135.9707  153.2316 H   0  0  0  0  0  0  0  0  0  0  0  0
  146.7167  138.7856  151.2244 H   0  0  0  0  0  0  0  0  0  0  0  0
  147.8894  140.8073  152.0308 H   0  0  0  0  0  0  0  0  0  0  0  0
  148.3696  142.2889  153.5322 H   0  0  0  0  0  0  0  0  0  0  0  0
  147.6534  142.2524  155.1056 H   0  0  0  0  0  0  0  0  0  0  0  0
  149.4166  143.0817  156.2228 H   0  0  0  0  0  0  0  0  0  0  0  0
  152.0535  141.7892  156.0683 H   0  0  0  0  0  0  0  0  0  0  0  0
  150.2466  141.7595  158.5214 H   0  0  0  0  0  0  0  0  0  0  0  0
  150.9461  140.4406  157.6597 H   0  0  0  0  0  0  0  0  0  0  0  0
  152.3350  140.4442  159.4140 H   0  0  0  0  0  0  0  0  0  0  0  0
  153.2881  141.4732  158.3994 H   0  0  0  0  0  0  0  0  0  0  0  0
  151.2898  142.5835  160.4812 H   0  0  0  0  0  0  0  0  0  0  0  0
  152.8757  142.0399  160.9129 H   0  0  0  0  0  0  0  0  0  0  0  0
  153.3537  144.2275  160.6966 H   0  0  0  0  0  0  0  0  0  0  0  0
  153.7963  143.6986  159.1183 H   0  0  0  0  0  0  0  0  0  0  0  0
  151.3350  145.2645  160.0183 H   0  0  0  0  0  0  0  0  0  0  0  0
  152.5941  145.7802  158.9402 H   0  0  0  0  0  0  0  0  0  0  0  0
  150.2311  143.9882  158.3632 H   0  0  0  0  0  0  0  0  0  0  0  0
  150.6999  145.4483  157.5832 H   0  0  0  0  0  0  0  0  0  0  0  0
  152.9115  143.7238  157.0887 H   0  0  0  0  0  0  0  0  0  0  0  0
  151.7497  144.2988  155.9682 H   0  0  0  0  0  0  0  0  0  0  0  0
  145.8591  137.7596  155.3008 H   0  0  0  0  0  0  0  0  0  0  0  0
  1  2  1  0  0  0  0
  1 21  1  0  0  0  0
  1 22  1  0  0  0  0
  1 23  1  0  0  0  0
  2 20  2  0  0  0  0
  2  3  1  0  0  0  0
  3  4  2  0  0  0  0
  3 24  1  0  0  0  0
  4  5  1  0  0  0  0
  4 25  1  0  0  0  0
  5  6  1  0  0  0  0
  5 18  1  0  0  0  0
  6  7  1  0  0  0  0
  6 26  1  0  0  0  0
  6 27  1  0  0  0  0
  7  8  2  0  0  0  0
  7  9  1  0  0  0  0
  9 10  1  0  0  0  0
  9 28  1  0  0  0  0
 10 17  1  0  0  0  0
 10 11  1  0  0  0  0
 10 29  1  0  0  0  0
 11 12  1  0  0  0  0
 11 30  1  0  0  0  0
 11 31  1  0  0  0  0
 12 13  1  0  0  0  0
 12 32  1  0  0  0  0
 12 33  1  0  0  0  0
 13 14  1  0  0  0  0
 13 34  1  0  0  0  0
 13 35  1  0  0  0  0
 14 15  1  0  0  0  0
 14 36  1  0  0  0  0
 14 37  1  0  0  0  0
 15 16  1  0  0  0  0
 15 38  1  0  0  0  0
 15 39  1  0  0  0  0
 16 17  1  0  0  0  0
 16 40  1  0  0  0  0
 16 41  1  0  0  0  0
 17 42  1  0  0  0  0
 17 43  1  0  0  0  0
 18 19  2  0  0  0  0
 18 20  1  0  0  0  0
 20 44  1  0  0  0  0
M  END
> <s_m_source_file>
AV-unprocessed.smi

> <i_m_source_file_index>
975

> <i_lp_mmshare_version>
43012

> <i_f3d_flags>
0

> <s_epik_input>
W0NIM11jMVtjSF1bY0hdbihjKD1PKVtjSF0xKVtDSDJdQyg9TylbTkhdW0NIXTJbQ0gyXVtDSDJdW0NIMl1bQ0gyXVtDSDJdW0NIMl1bQ0gyXTI=

> <s_epik_cmdline>
J2VwaWtfcHl0aG9uJywgJy1waCcsICc3LjAnLCAnLXRuJywgJzgnLCAnLW1hJywgJzIwMCcsICctbWV0YWxfYmluZGluZycsICctaW1hZScsICc8aW5maWxlLm1hZT4nLCAnLW9tYWUnLCAnPG91dGZpbGUubWFlPic=

> <r_lp_tautomer_probability>
1

> <r_epik_Ionization_Penalty>
5.54847e-07

> <r_epik_Ionization_Penalty_Charging>
5.34632e-07

> <r_epik_Ionization_Penalty_Neutral>
2.02148e-08

> <r_epik_State_Penalty>
-0

> <r_epik_Charging_Adjusted_Penalty>
5.34632e-07

> <i_epik_Tot_Q>
0

> <i_epik_Tot_abs_Q>
0

> <r_epik_Metal_State_Penalty>
-0

> <b_epik_Metal_Only>
0

> <s_lp_Force_Field>
OPLS_2005

> <r_lp_Energy>
31.8723

> <b_lp_Chiralities_Consistent>
1

> <s_lp_Variant>
AV-unprocessed.smi:975-1

> <Gold.Version>
5.8.1

> <Gold.Id.Protein>
6NUR|6NUR_protein|mol2

> <Gold.PLP.Fitness>
44.5943

> <Gold.PLP.PLP>
-39.1601

> <Gold.PLP.part.hbond>
-2.0000

> <Gold.PLP.part.metal>
0.0000

> <Gold.PLP.part.buried>
-1.1870

> <Gold.PLP.part.nonpolar>
-36.1856

> <Gold.PLP.part.repulsive>
0.2240

> <Gold.PLP.ligand.clash>
0.0000

> <Gold.PLP.ligand.torsion>
0.8406

> <Gold.PLP.Chemscore.Hbond>
1.7760

> <Gold.PLP.Chemscore.CHOScore>
0.5837

> <Gold.PLP.Chemscore.Metal>
0.0000

> <Gold.Chemscore.Hbonds>
donor molecule, donor type, donor heavy atom, donor atom, acceptor molecule, acceptor atom, score
      L1  H     9    28       P1  8028  0.83
      P1  H  7989  7998       L1     8  0.98
      L1  C     4    25       P1  7957  0.66

> <Gold.PLP.Chemscore.Internal.Correction>
0.0364

> <Gold.Rescore>
     Score         DG    S(hbond)    S(metal)    S(lipo)     H(rot)  DE(clash)    DE(int)     intcor
     18.85     -21.10       1.54        0.00     118.78       1.34       1.52       0.73       ----

> <Gold.Chemscore.Fitness>
18.8455

> <Gold.Chemscore.DG>
-21.0987

> <Gold.Chemscore.ZeroCoef>
-5.4800

> <Gold.Chemscore.Hbond>
1.5389

> <Gold.Chemscore.Metal>
0.0000

> <Gold.Chemscore.Lipo>
118.7776

> <Gold.Chemscore.Internal_Hbond>
0.0000

> <Gold.Chemscore.DEClash>
1.5232

> <Gold.Chemscore.DEInternal>
0.7300

> <Gold.Chemscore.Rot>
1.3352

> <Gold.Chemscore.Internal.Correction>
   9.000000E+99

> <Gold.Chemscore.Hbonds>
donor molecule, donor type, donor heavy atom, donor atom, acceptor molecule, acceptor atom, score
      L1  H     9    28       P1  8028  0.83
      P1  H  7989  7998       L1     8  0.87

> <Gold.Chemscore.Hbond.Weighted>
-5.1398

> <Gold.Chemscore.Metal.Weighted>
-0.0000

> <Gold.Chemscore.Lipo.Weighted>
-13.8970

> <Gold.Chemscore.Internal_Hbond.Weighted>
0.0000

> <Gold.Chemscore.DEClash.Weighted>
1.5232

> <Gold.Chemscore.DEInternal.Weighted>
0.7300

> <Gold.Chemscore.Rot.Weighted>
3.4181

> <Gold.Chemscore.Internal.Correction.Weighted>
   9.000000E+99

> <Gold.Protein.RotatedTorsions>
[ 6907 6896 6895 6894 ] final   23.58 input  -60.11 | X-H torsion
[ 7974 7965 7964 7962 ] final  110.10 input  175.53 | X-H torsion
[ 8008 7997 7996 7995 ] final   15.37 input   59.86 | X-H torsion
[ 10167 10162 10161 10158 ] final   27.39 input  -65.29 | X-H torsion
[ 10718 10713 10712 10709 ] final -176.53 input   66.30 | X-H torsion
[ 10763 10752 10751 10750 ] final  -18.29 input  -60.55 | X-H torsion
[ 11005 11000 10999 10996 ] final  121.09 input  -57.11 | X-H torsion

> <Gold.Protein.ActiveResidues>
 VAL166  LYS551  ARG553  GLY616  TRP617  ASP618  TYR619  PRO620  LYS621  CYS622 
 ASP623  PHE694  ASN695  SER759  ASP760  ASP761  ALA762  ILE779  LEU786  VAL792 
 PHE793  MET794  SER795  GLU796  ALA797  LYS798  CYS799  TRP800  GLU811  SER814 

> <Gold.Protein.RotatedAtoms>
  151.9445  135.0198  160.0537 H   0  0  0  0  0  0  0  0  0  0  0  0  # atno 6907 bound_to 6896
  152.2007  133.4835  159.5065 H   0  0  0  0  0  0  0  0  0  0  0  0  # atno 6908 bound_to 6896
  150.6954  134.1510  159.4183 H   0  0  0  0  0  0  0  0  0  0  0  0  # atno 6909 bound_to 6896
  145.2593  139.2708  143.4025 H   0  0  0  0  0  0  0  0  0  0  0  0  # atno 7974 bound_to 7965
  154.8618  140.2945  155.5535 H   0  0  0  0  0  0  0  0  0  0  0  0  # atno 8008 bound_to 7997
  156.3020  140.2476  156.3525 H   0  0  0  0  0  0  0  0  0  0  0  0  # atno 8009 bound_to 7997
  154.8911  140.0394  157.1828 H   0  0  0  0  0  0  0  0  0  0  0  0  # atno 8010 bound_to 7997
  140.4942  144.0418  150.6308 H   0  0  0  0  0  0  0  0  0  0  0  0  # atno 10167 bound_to 10162
  156.8160  130.9603  151.3114 H   0  0  0  0  0  0  0  0  0  0  0  0  # atno 10718 bound_to 10713
  153.5870  135.7003  153.5439 H   0  0  0  0  0  0  0  0  0  0  0  0  # atno 10763 bound_to 10752
  153.3211  135.4074  155.1417 H   0  0  0  0  0  0  0  0  0  0  0  0  # atno 10764 bound_to 10752
  154.8607  135.3695  154.5400 H   0  0  0  0  0  0  0  0  0  0  0  0  # atno 10765 bound_to 10752
  139.9211  134.9637  156.7905 H   0  0  0  0  0  0  0  0  0  0  0  0  # atno 11005 bound_to 11000
  146.3280  140.3006  142.8620 LP  0  0  0  0  0  0  0  0  0  0  0  0  # atno 17320 bound_to 7965
  144.9432  140.8101  143.5617 LP  0  0  0  0  0  0  0  0  0  0  0  0  # atno 17321 bound_to 7965
  140.3696  143.2862  152.0293 LP  0  0  0  0  0  0  0  0  0  0  0  0  # atno 17342 bound_to 10162
  139.4858  144.6240  151.7200 LP  0  0  0  0  0  0  0  0  0  0  0  0  # atno 17343 bound_to 10162
  157.6481  130.8861  149.9579 LP  0  0  0  0  0  0  0  0  0  0  0  0  # atno 17370 bound_to 10713
  156.1016  130.3655  150.0207 LP  0  0  0  0  0  0  0  0  0  0  0  0  # atno 17371 bound_to 10713
  140.6471  133.9765  155.7736 LP  0  0  0  0  0  0  0  0  0  0  0  0  # atno 17394 bound_to 11000
  141.0733  134.0173  157.3495 LP  0  0  0  0  0  0  0  0  0  0  0  0  # atno 17395 bound_to 11000

$$$$
