AV-unprocessed.smi:2557|AV-procd|sdf|10030|dock1
  -GOLD-   2272014 73D 1   1.00000     0.00000
 Structure written by MMmdl.
 38 40  0  0  0  0  0  0  0  0  2 V2000
  153.9805  135.7124  159.6293 O   0  5  0  0  0  0  0  0  0  0  0  0
  154.0200  136.8507  160.1534 C   0  0  0  0  0  0  0  0  0  0  0  0
  153.6287  138.1135  159.6992 C   0  0  0  0  0  0  0  0  0  0  0  0
  153.0045  138.2956  158.3627 C   0  0  0  0  0  0  0  0  0  0  0  0
  152.8265  137.3580  157.5859 O   0  0  0  0  0  0  0  0  0  0  0  0
  152.6068  139.5870  157.9832 N   0  0  0  0  0  0  0  0  0  0  0  0
  152.7946  140.5872  158.7903 C   0  0  0  0  0  0  0  0  0  0  0  0
  152.3832  142.0127  158.4129 C   0  0  0  0  0  0  0  0  0  0  0  0
  153.2657  143.1069  159.0614 C   0  0  0  0  0  0  0  0  0  0  0  0
  152.8380  144.5148  158.6165 C   0  0  0  0  0  0  0  0  0  0  0  0
  151.3551  144.7678  158.9270 C   0  0  0  0  0  0  0  0  0  0  0  0
  150.4657  143.6918  158.2859 C   0  0  0  0  0  0  0  0  0  0  0  0
  150.8919  142.2792  158.7198 C   0  0  0  0  0  0  0  0  0  0  0  0
  153.3841  140.5006  160.0384 N   0  0  0  0  0  0  0  0  0  0  0  0
  153.7932  139.2509  160.4885 N   0  0  0  0  0  0  0  0  0  0  0  0
  154.6662  136.7418  161.4758 C   0  0  0  0  0  0  0  0  0  0  0  0
  156.0425  136.4463  161.5908 C   0  0  0  0  0  0  0  0  0  0  0  0
  156.6096  136.3465  162.8762 C   0  0  0  0  0  0  0  0  0  0  0  0
  155.9037  136.5166  164.0145 N   0  0  0  0  0  0  0  0  0  0  0  0
  154.5864  136.7911  163.9019 C   0  0  0  0  0  0  0  0  0  0  0  0
  153.9236  136.9124  162.6649 C   0  0  0  0  0  0  0  0  0  0  0  0
  152.5163  142.1006  157.3331 H   0  0  0  0  0  0  0  0  0  0  0  0
  153.2041  143.0456  160.1492 H   0  0  0  0  0  0  0  0  0  0  0  0
  154.3133  142.9501  158.8004 H   0  0  0  0  0  0  0  0  0  0  0  0
  153.4546  145.2644  159.1131 H   0  0  0  0  0  0  0  0  0  0  0  0
  153.0129  144.6296  157.5460 H   0  0  0  0  0  0  0  0  0  0  0  0
  151.2029  144.7730  160.0070 H   0  0  0  0  0  0  0  0  0  0  0  0
  151.0629  145.7550  158.5683 H   0  0  0  0  0  0  0  0  0  0  0  0
  149.4231  143.8638  158.5547 H   0  0  0  0  0  0  0  0  0  0  0  0
  150.5213  143.7723  157.1996 H   0  0  0  0  0  0  0  0  0  0  0  0
  150.2585  141.5480  158.2161 H   0  0  0  0  0  0  0  0  0  0  0  0
  150.7094  142.1586  159.7889 H   0  0  0  0  0  0  0  0  0  0  0  0
  153.5298  141.2862  160.6556 H   0  0  0  0  0  0  0  0  0  0  0  0
  154.2045  139.1840  161.4086 H   0  0  0  0  0  0  0  0  0  0  0  0
  156.6488  136.2990  160.7089 H   0  0  0  0  0  0  0  0  0  0  0  0
  157.6597  136.1240  162.9934 H   0  0  0  0  0  0  0  0  0  0  0  0
  154.0432  136.9193  164.8263 H   0  0  0  0  0  0  0  0  0  0  0  0
  152.8671  137.1332  162.6269 H   0  0  0  0  0  0  0  0  0  0  0  0
  1  2  1  0  0  0  0
  2  3  2  0  0  0  0
  2 16  1  0  0  0  0
  3 15  1  0  0  0  0
  3  4  1  0  0  0  0
  4  5  2  0  0  0  0
  4  6  1  0  0  0  0
  6  7  2  0  0  0  0
  7  8  1  0  0  0  0
  7 14  1  0  0  0  0
  8 13  1  0  0  0  0
  8  9  1  0  0  0  0
  8 22  1  0  0  0  0
  9 10  1  0  0  0  0
  9 23  1  0  0  0  0
  9 24  1  0  0  0  0
 10 11  1  0  0  0  0
 10 25  1  0  0  0  0
 10 26  1  0  0  0  0
 11 12  1  0  0  0  0
 11 27  1  0  0  0  0
 11 28  1  0  0  0  0
 12 13  1  0  0  0  0
 12 29  1  0  0  0  0
 12 30  1  0  0  0  0
 13 31  1  0  0  0  0
 13 32  1  0  0  0  0
 14 15  1  0  0  0  0
 14 33  1  0  0  0  0
 15 34  1  0  0  0  0
 16 21  1  0  0  0  0
 16 17  2  0  0  0  0
 17 18  1  0  0  0  0
 17 35  1  0  0  0  0
 18 19  2  0  0  0  0
 18 36  1  0  0  0  0
 19 20  1  0  0  0  0
 20 21  2  0  0  0  0
 20 37  1  0  0  0  0
 21 38  1  0  0  0  0
M  CHG  1   1  -1
M  END
> <s_m_source_file>
AV-unprocessed.smi

> <i_m_source_file_index>
2557

> <i_lp_mmshare_version>
43012

> <i_f3d_flags>
0

> <s_epik_input>
W2NIXTFbY0hdbltjSF1bY0hdYzFDKD1PKUMyPUMoW09IXSlOPUMoW05IXVtOSF0yKVtDSF0zW0NIMl1bQ0gyXVtDSDJdW0NIMl1bQ0gyXTM=

> <s_epik_cmdline>
J2VwaWtfcHl0aG9uJywgJy1waCcsICc3LjAnLCAnLXRuJywgJzgnLCAnLW1hJywgJzIwMCcsICctbWV0YWxfYmluZGluZycsICctaW1hZScsICc8aW5maWxlLm1hZT4nLCAnLW9tYWUnLCAnPG91dGZpbGUubWFlPic=

> <r_epik_Ionization_Penalty>
0.904364

> <r_epik_Ionization_Penalty_Charging>
0.00179702

> <r_epik_Ionization_Penalty_Neutral>
0.902567

> <r_epik_State_Penalty>
2.26092

> <r_epik_Charging_Adjusted_Penalty>
2.26271

> <i_epik_Tot_Q>
-1

> <i_epik_Tot_abs_Q>
1

> <r_epik_Metal_State_Penalty>
1.86017

> <b_epik_Metal_Only>
0

> <s_epik_Chemistry_Notes>
This compound has an imine and may undergo hydrolysis.

> <s_lp_Force_Field>
OPLS_2005

> <r_lp_Energy>
33.3792

> <b_lp_Chiralities_Consistent>
1

> <s_lp_Variant>
AV-unprocessed.smi:2557-4

> <Gold.Version>
5.8.1

> <Gold.Id.Protein>
6NUR|6NUR_protein|mol2

> <Gold.PLP.Fitness>
40.3302

> <Gold.PLP.PLP>
-34.0010

> <Gold.PLP.part.hbond>
-1.7360

> <Gold.PLP.part.metal>
0.0000

> <Gold.PLP.part.buried>
-4.1451

> <Gold.PLP.part.nonpolar>
-27.6462

> <Gold.PLP.part.repulsive>
0.2109

> <Gold.PLP.ligand.clash>
0.0000

> <Gold.PLP.ligand.torsion>
2.0448

> <Gold.PLP.Chemscore.Hbond>
2.7410

> <Gold.PLP.Chemscore.CHOScore>
0.0000

> <Gold.PLP.Chemscore.Metal>
0.0000

> <Gold.Chemscore.Hbonds>
donor molecule, donor type, donor heavy atom, donor atom, acceptor molecule, acceptor atom, score
      P1  H  6896  6909       L1     1  2.00
      P1  H  7997  8010       L1     6  0.25

> <Gold.PLP.Chemscore.Internal.Correction>
2.1959

> <Gold.Rescore>
     Score         DG    S(hbond)    S(metal)    S(lipo)     H(rot)  DE(clash)    DE(int)     intcor
     16.97     -19.04       1.00        0.00     109.17       1.00       0.13       1.93       ----

> <Gold.Chemscore.Fitness>
16.9683

> <Gold.Chemscore.DG>
-19.0353

> <Gold.Chemscore.ZeroCoef>
-5.4800

> <Gold.Chemscore.Hbond>
1.0008

> <Gold.Chemscore.Metal>
0.0000

> <Gold.Chemscore.Lipo>
109.1684

> <Gold.Chemscore.Internal_Hbond>
0.0000

> <Gold.Chemscore.DEClash>
0.1334

> <Gold.Chemscore.DEInternal>
1.9336

> <Gold.Chemscore.Rot>
1.0000

> <Gold.Chemscore.Internal.Correction>
   9.000000E+99

> <Gold.Chemscore.Hbonds>
donor molecule, donor type, donor heavy atom, donor atom, acceptor molecule, acceptor atom, score
      P1  H  6896  6909       L1     1  0.94

> <Gold.Chemscore.Hbond.Weighted>
-3.3426

> <Gold.Chemscore.Metal.Weighted>
-0.0000

> <Gold.Chemscore.Lipo.Weighted>
-12.7727

> <Gold.Chemscore.Internal_Hbond.Weighted>
0.0000

> <Gold.Chemscore.DEClash.Weighted>
0.1334

> <Gold.Chemscore.DEInternal.Weighted>
1.9336

> <Gold.Chemscore.Rot.Weighted>
2.5600

> <Gold.Chemscore.Internal.Correction.Weighted>
   9.000000E+99

> <Gold.Protein.RotatedTorsions>
[ 6907 6896 6895 6894 ] final -178.94 input  -60.11 | X-H torsion
[ 7974 7965 7964 7962 ] final -156.06 input  175.53 | X-H torsion
[ 8008 7997 7996 7995 ] final   46.86 input   59.86 | X-H torsion
[ 10167 10162 10161 10158 ] final  -86.37 input  -65.29 | X-H torsion
[ 10718 10713 10712 10709 ] final   79.56 input   66.30 | X-H torsion
[ 10763 10752 10751 10750 ] final  107.52 input  -60.55 | X-H torsion
[ 11005 11000 10999 10996 ] final   59.01 input  -57.11 | X-H torsion

> <Gold.Protein.ActiveResidues>
 VAL166  LYS551  ARG553  GLY616  TRP617  ASP618  TYR619  PRO620  LYS621  CYS622 
 ASP623  PHE694  ASN695  SER759  ASP760  ASP761  ALA762  ILE779  LEU786  VAL792 
 PHE793  MET794  SER795  GLU796  ALA797  LYS798  CYS799  TRP800  GLU811  SER814 

> <Gold.Protein.RotatedAtoms>
  151.6453  133.3323  159.3139 H   0  0  0  0  0  0  0  0  0  0  0  0  # atno 6907 bound_to 6896
  150.7987  134.7070  159.6591 H   0  0  0  0  0  0  0  0  0  0  0  0  # atno 6908 bound_to 6896
  152.4077  134.6182  160.0095 H   0  0  0  0  0  0  0  0  0  0  0  0  # atno 6909 bound_to 6896
  144.7610  140.4162  143.5976 H   0  0  0  0  0  0  0  0  0  0  0  0  # atno 7974 bound_to 7965
  155.3595  140.3418  155.4240 H   0  0  0  0  0  0  0  0  0  0  0  0  # atno 8008 bound_to 7997
  156.1721  140.1635  156.8463 H   0  0  0  0  0  0  0  0  0  0  0  0  # atno 8009 bound_to 7997
  154.5244  140.0759  156.8213 H   0  0  0  0  0  0  0  0  0  0  0  0  # atno 8010 bound_to 7997
  140.3947  143.2689  151.9219 H   0  0  0  0  0  0  0  0  0  0  0  0  # atno 10167 bound_to 10162
  157.6780  130.9919  150.1950 H   0  0  0  0  0  0  0  0  0  0  0  0  # atno 10718 bound_to 10713
  153.4079  135.3842  155.2031 H   0  0  0  0  0  0  0  0  0  0  0  0  # atno 10763 bound_to 10752
  154.8735  135.3787  154.4538 H   0  0  0  0  0  0  0  0  0  0  0  0  # atno 10764 bound_to 10752
  153.5042  135.7088  153.5877 H   0  0  0  0  0  0  0  0  0  0  0  0  # atno 10765 bound_to 10752
  140.0335  134.5977  155.9475 H   0  0  0  0  0  0  0  0  0  0  0  0  # atno 11005 bound_to 11000
  145.6619  139.1583  143.2803 LP  0  0  0  0  0  0  0  0  0  0  0  0  # atno 17320 bound_to 7965
  146.1673  140.6698  142.9249 LP  0  0  0  0  0  0  0  0  0  0  0  0  # atno 17321 bound_to 7965
  139.4787  144.5692  151.8115 LP  0  0  0  0  0  0  0  0  0  0  0  0  # atno 17342 bound_to 10162
  140.4802  144.1460  150.5931 LP  0  0  0  0  0  0  0  0  0  0  0  0  # atno 17343 bound_to 10162
  156.2653  130.3715  149.8088 LP  0  0  0  0  0  0  0  0  0  0  0  0  # atno 17370 bound_to 10713
  156.5821  130.8470  151.3385 LP  0  0  0  0  0  0  0  0  0  0  0  0  # atno 17371 bound_to 10713
  141.1844  133.6553  156.5157 LP  0  0  0  0  0  0  0  0  0  0  0  0  # atno 17394 bound_to 11000
  140.4186  134.7208  157.4877 LP  0  0  0  0  0  0  0  0  0  0  0  0  # atno 17395 bound_to 11000

$$$$
