AV-unprocessed.smi:92|AV-procd|sdf|846|dock8
  -GOLD-   2262017283D 1   1.00000     0.00000
 Structure written by MMmdl.
 61 64  0  0  0  0  0  0  0  0  2 V2000
  150.7265  141.9830  156.5660 C   0  0  0  0  0  0  0  0  0  0  0  0
  150.2049  140.5945  156.1694 C   0  0  0  0  0  0  0  0  0  0  0  0
  149.7233  140.5472  154.7629 N   0  3  1  0  0  0  0  0  0  0  0  0
  149.2006  139.2166  154.3611 C   0  0  0  0  0  0  0  0  0  0  0  0
  147.8169  138.9427  154.9710 C   0  0  0  0  0  0  0  0  0  0  0  0
  146.8131  140.0485  154.5844 C   0  0  1  0  0  0  0  0  0  0  0  0
  145.4809  139.7935  155.1516 N   0  0  0  0  0  0  0  0  0  0  0  0
  144.9783  140.6075  156.2560 C   0  0  0  0  0  0  0  0  0  0  0  0
  144.8651  138.5976  154.9366 C   0  0  0  0  0  0  0  0  0  0  0  0
  144.0710  138.0727  155.9080 N   0  0  0  0  0  0  0  0  0  0  0  0
  143.4468  136.9069  155.7214 C   0  0  0  0  0  0  0  0  0  0  0  0
  143.4783  136.1070  154.6558 N   0  0  0  0  0  0  0  0  0  0  0  0
  144.2782  136.6153  153.6758 C   0  0  0  0  0  0  0  0  0  0  0  0
  145.0015  137.8424  153.7334 C   0  0  0  0  0  0  0  0  0  0  0  0
  145.7160  138.0183  152.5537 N   0  0  0  0  0  0  0  0  0  0  0  0
  145.4250  136.9666  151.8392 C   0  0  0  0  0  0  0  0  0  0  0  0
  144.5669  136.0700  152.4342 N   0  0  0  0  0  0  0  0  0  0  0  0
  144.0947  134.8384  151.8633 C   0  0  0  0  0  0  0  0  0  0  0  0
  144.6052  133.4809  152.3579 C   0  0  0  0  0  0  0  0  0  0  0  0
  144.5595  132.9325  150.9117 C   0  0  0  0  0  0  0  0  0  0  0  0
  145.7852  132.1217  150.4498 C   0  0  0  0  0  0  0  0  0  0  0  0
  147.0116  132.7485  150.7687 O   0  0  0  0  0  0  0  0  0  0  0  0
  143.3418  132.0536  150.5545 C   0  0  0  0  0  0  0  0  0  0  0  0
  143.0501  132.0286  149.1716 O   0  0  0  0  0  0  0  0  0  0  0  0
  144.4966  134.4076  150.4486 C   0  0  0  0  0  0  0  0  0  0  0  0
  147.3654  141.4447  154.9673 C   0  0  2  0  0  0  0  0  0  0  0  0
  146.4414  142.5789  154.4899 C   0  0  0  0  0  0  0  0  0  0  0  0
  148.7849  141.6383  154.3835 C   0  0  0  0  0  0  0  0  0  0  0  0
  151.1602  141.9562  157.5659 H   0  0  0  0  0  0  0  0  0  0  0  0
  149.9350  142.7313  156.5794 H   0  0  0  0  0  0  0  0  0  0  0  0
  151.5026  142.3233  155.8800 H   0  0  0  0  0  0  0  0  0  0  0  0
  151.0290  139.8895  156.2844 H   0  0  0  0  0  0  0  0  0  0  0  0
  149.4289  140.2674  156.8611 H   0  0  0  0  0  0  0  0  0  0  0  0
  149.1300  139.1867  153.2728 H   0  0  0  0  0  0  0  0  0  0  0  0
  149.9049  138.4321  154.6399 H   0  0  0  0  0  0  0  0  0  0  0  0
  147.4570  137.9734  154.6253 H   0  0  0  0  0  0  0  0  0  0  0  0
  147.9047  138.8630  156.0547 H   0  0  0  0  0  0  0  0  0  0  0  0
  146.7310  140.0529  153.4967 H   0  0  0  0  0  0  0  0  0  0  0  0
  144.5942  139.9839  157.0642 H   0  0  0  0  0  0  0  0  0  0  0  0
  144.1748  141.2571  155.9089 H   0  0  0  0  0  0  0  0  0  0  0  0
  145.7570  141.2414  156.6778 H   0  0  0  0  0  0  0  0  0  0  0  0
  142.8337  136.5662  156.5425 H   0  0  0  0  0  0  0  0  0  0  0  0
  145.8349  136.8165  150.8509 H   0  0  0  0  0  0  0  0  0  0  0  0
  143.0069  134.8683  151.9406 H   0  0  0  0  0  0  0  0  0  0  0  0
  145.6118  133.5354  152.7736 H   0  0  0  0  0  0  0  0  0  0  0  0
  143.9324  132.9809  153.0553 H   0  0  0  0  0  0  0  0  0  0  0  0
  145.7906  131.1326  150.9091 H   0  0  0  0  0  0  0  0  0  0  0  0
  145.7634  131.9670  149.3705 H   0  0  0  0  0  0  0  0  0  0  0  0
  147.6955  132.0965  150.7561 H   0  0  0  0  0  0  0  0  0  0  0  0
  143.5020  131.0234  150.8748 H   0  0  0  0  0  0  0  0  0  0  0  0
  142.4482  132.4050  151.0716 H   0  0  0  0  0  0  0  0  0  0  0  0
  142.4069  132.6961  148.9876 H   0  0  0  0  0  0  0  0  0  0  0  0
  143.7407  134.6145  149.6903 H   0  0  0  0  0  0  0  0  0  0  0  0
  145.4620  134.8122  150.1436 H   0  0  0  0  0  0  0  0  0  0  0  0
  147.4333  141.5195  156.0521 H   0  0  0  0  0  0  0  0  0  0  0  0
  146.3026  142.5497  153.4087 H   0  0  0  0  0  0  0  0  0  0  0  0
  146.8543  143.5552  154.7456 H   0  0  0  0  0  0  0  0  0  0  0  0
  145.4562  142.5151  154.9522 H   0  0  0  0  0  0  0  0  0  0  0  0
  149.1889  142.6066  154.6762 H   0  0  0  0  0  0  0  0  0  0  0  0
  148.7256  141.6613  153.2944 H   0  0  0  0  0  0  0  0  0  0  0  0
  150.5522  140.6864  154.2027 H   0  0  0  0  0  0  0  0  0  0  0  0
  1  2  1  0  0  0  0
  1 29  1  0  0  0  0
  1 30  1  0  0  0  0
  1 31  1  0  0  0  0
  2  3  1  0  0  0  0
  2 32  1  0  0  0  0
  2 33  1  0  0  0  0
  3 28  1  0  0  0  0
  3  4  1  0  0  0  0
  3 61  1  0  0  0  0
  4  5  1  0  0  0  0
  4 34  1  0  0  0  0
  4 35  1  0  0  0  0
  5  6  1  0  0  0  0
  5 36  1  0  0  0  0
  5 37  1  0  0  0  0
  6  7  1  0  0  0  0
  6 26  1  0  0  0  0
  6 38  1  0  0  0  0
  7  8  1  0  0  0  0
  7  9  1  0  0  0  0
  8 39  1  0  0  0  0
  8 40  1  0  0  0  0
  8 41  1  0  0  0  0
  9 14  1  0  0  0  0
  9 10  2  0  0  0  0
 10 11  1  0  0  0  0
 11 12  2  0  0  0  0
 11 42  1  0  0  0  0
 12 13  1  0  0  0  0
 13 17  1  0  0  0  0
 13 14  2  0  0  0  0
 14 15  1  0  0  0  0
 15 16  2  0  0  0  0
 16 17  1  0  0  0  0
 16 43  1  0  0  0  0
 17 18  1  0  0  0  0
 18 25  1  0  0  0  0
 18 19  1  0  0  0  0
 18 44  1  0  0  0  0
 19 20  1  0  0  0  0
 19 45  1  0  0  0  0
 19 46  1  0  0  0  0
 20 21  1  0  0  0  0
 20 23  1  0  0  0  0
 20 25  1  0  0  0  0
 21 22  1  0  0  0  0
 21 47  1  0  0  0  0
 21 48  1  0  0  0  0
 22 49  1  0  0  0  0
 23 24  1  0  0  0  0
 23 50  1  0  0  0  0
 23 51  1  0  0  0  0
 24 52  1  0  0  0  0
 25 53  1  0  0  0  0
 25 54  1  0  0  0  0
 26 27  1  0  0  0  0
 26 28  1  0  0  0  0
 26 55  1  0  0  0  0
 27 56  1  0  0  0  0
 27 57  1  0  0  0  0
 27 58  1  0  0  0  0
 28 59  1  0  0  0  0
 28 60  1  0  0  0  0
M  CHG  1   3   1
M  END
> <s_m_source_file>
AV-unprocessed.smi

> <i_m_source_file_index>
92

> <i_lp_mmshare_version>
43012

> <i_f3d_flags>
0

> <s_epik_input>
W0NIM11bQ0gyXU4xW0NIMl1bQ0gyXVtDQEhdKFtDQEBIXShbQ0gzXSlbQ0gyXTEpTihbQ0gzXSljKG5bY0hdbjIpYyhjMjMpbltjSF1uM1tDSF0oW0NIMl00KVtDSDJdQzQoW0NIMl1bT0hdKVtDSDJdW09IXQ==

> <s_epik_cmdline>
J2VwaWtfcHl0aG9uJywgJy1waCcsICc3LjAnLCAnLXRuJywgJzgnLCAnLW1hJywgJzIwMCcsICctbWV0YWxfYmluZGluZycsICctaW1hZScsICc8aW5maWxlLm1hZT4nLCAnLW9tYWUnLCAnPG91dGZpbGUubWFlPic=

> <r_lp_tautomer_probability>
1

> <r_epik_Ionization_Penalty>
0.00235514

> <r_epik_Ionization_Penalty_Charging>
0.00137877

> <r_epik_Ionization_Penalty_Neutral>
0.000976366

> <r_epik_State_Penalty>
-0

> <r_epik_Charging_Adjusted_Penalty>
0.00137877

> <i_epik_Tot_Q>
1

> <i_epik_Tot_abs_Q>
1

> <r_epik_Metal_State_Penalty>
-0

> <b_epik_Metal_Only>
0

> <s_lp_Force_Field>
OPLS_2005

> <r_lp_Energy>
55.2069

> <b_lp_Chiralities_Consistent>
1

> <s_lp_Variant>
AV-unprocessed.smi:92-6

> <Gold.Version>
5.8.1

> <Gold.Id.Protein>
6NUR|6NUR_protein|mol2

> <Gold.PLP.Fitness>
47.5497

> <Gold.PLP.PLP>
-39.7086

> <Gold.PLP.part.hbond>
-4.0000

> <Gold.PLP.part.metal>
0.0000

> <Gold.PLP.part.buried>
-5.4902

> <Gold.PLP.part.nonpolar>
-32.4798

> <Gold.PLP.part.repulsive>
1.1966

> <Gold.PLP.ligand.clash>
0.0000

> <Gold.PLP.ligand.torsion>
0.9112

> <Gold.PLP.Chemscore.Hbond>
2.7550

> <Gold.PLP.Chemscore.CHOScore>
0.1859

> <Gold.PLP.Chemscore.Metal>
0.0000

> <Gold.Chemscore.Hbonds>
donor molecule, donor type, donor heavy atom, donor atom, acceptor molecule, acceptor atom, score
      L1  H    22    49       P1 10747  1.00
      L1  H    24    52       P1 10186  0.37
      P1  H 10785 10796       L1    24  1.00
      L1  C    16    43       P1 10171  0.05

> <Gold.PLP.Chemscore.Internal.Correction>
0.8407

> <Gold.Rescore>
     Score         DG    S(hbond)    S(metal)    S(lipo)     H(rot)  DE(clash)    DE(int)     intcor
     13.28     -15.43       2.34        0.00      88.61       3.22       0.32       1.82       ----

> <Gold.Chemscore.Fitness>
13.2835

> <Gold.Chemscore.DG>
-15.4256

> <Gold.Chemscore.ZeroCoef>
-5.4800

> <Gold.Chemscore.Hbond>
2.3432

> <Gold.Chemscore.Metal>
0.0000

> <Gold.Chemscore.Lipo>
88.6100

> <Gold.Chemscore.Internal_Hbond>
0.0000

> <Gold.Chemscore.DEClash>
0.3227

> <Gold.Chemscore.DEInternal>
1.8193

> <Gold.Chemscore.Rot>
3.2219

> <Gold.Chemscore.Internal.Correction>
   9.000000E+99

> <Gold.Chemscore.Hbonds>
donor molecule, donor type, donor heavy atom, donor atom, acceptor molecule, acceptor atom, score
      L1  H    22    49       P1 10747  1.00
      L1  H    24    52       P1 10186  0.36
      P1  H 10785 10796       L1    24  0.39

> <Gold.Chemscore.Hbond.Weighted>
-7.8264

> <Gold.Chemscore.Metal.Weighted>
-0.0000

> <Gold.Chemscore.Lipo.Weighted>
-10.3674

> <Gold.Chemscore.Internal_Hbond.Weighted>
0.0000

> <Gold.Chemscore.DEClash.Weighted>
0.3227

> <Gold.Chemscore.DEInternal.Weighted>
1.8193

> <Gold.Chemscore.Rot.Weighted>
8.2482

> <Gold.Chemscore.Internal.Correction.Weighted>
   9.000000E+99

> <Gold.Protein.RotatedTorsions>
[ 6907 6896 6895 6894 ] final  155.22 input  -60.11 | X-H torsion
[ 7974 7965 7964 7962 ] final  -18.92 input  175.53 | X-H torsion
[ 8008 7997 7996 7995 ] final  -26.36 input   59.86 | X-H torsion
[ 10167 10162 10161 10158 ] final -127.60 input  -65.29 | X-H torsion
[ 10718 10713 10712 10709 ] final   68.00 input   66.30 | X-H torsion
[ 10763 10752 10751 10750 ] final -128.39 input  -60.55 | X-H torsion
[ 11005 11000 10999 10996 ] final  -51.70 input  -57.11 | X-H torsion

> <Gold.Protein.ActiveResidues>
 VAL166  LYS551  ARG553  GLY616  TRP617  ASP618  TYR619  PRO620  LYS621  CYS622 
 ASP623  PHE694  ASN695  SER759  ASP760  ASP761  ALA762  ILE779  LEU786  VAL792 
 PHE793  MET794  SER795  GLU796  ALA797  LYS798  CYS799  TRP800  GLU811  SER814 

> <Gold.Protein.RotatedAtoms>
  152.0473  133.4003  159.4361 H   0  0  0  0  0  0  0  0  0  0  0  0  # atno 6907 bound_to 6896
  150.6872  134.3348  159.4851 H   0  0  0  0  0  0  0  0  0  0  0  0  # atno 6908 bound_to 6896
  152.1153  134.9244  160.0616 H   0  0  0  0  0  0  0  0  0  0  0  0  # atno 6909 bound_to 6896
  146.1868  140.3989  142.8473 H   0  0  0  0  0  0  0  0  0  0  0  0  # atno 7974 bound_to 7965
  154.4429  140.1901  156.0764 H   0  0  0  0  0  0  0  0  0  0  0  0  # atno 8008 bound_to 7997
  156.0472  140.3313  155.7283 H   0  0  0  0  0  0  0  0  0  0  0  0  # atno 8009 bound_to 7997
  155.5611  140.0604  157.2819 H   0  0  0  0  0  0  0  0  0  0  0  0  # atno 8010 bound_to 7997
  139.9591  143.5970  152.2451 H   0  0  0  0  0  0  0  0  0  0  0  0  # atno 10167 bound_to 10162
  157.6264  130.9350  150.0318 H   0  0  0  0  0  0  0  0  0  0  0  0  # atno 10718 bound_to 10713
  154.8756  135.3930  154.3748 H   0  0  0  0  0  0  0  0  0  0  0  0  # atno 10763 bound_to 10752
  153.4503  135.7028  153.6118 H   0  0  0  0  0  0  0  0  0  0  0  0  # atno 10764 bound_to 10752
  153.4661  135.3801  155.2334 H   0  0  0  0  0  0  0  0  0  0  0  0  # atno 10765 bound_to 10752
  141.0885  133.6637  156.3915 H   0  0  0  0  0  0  0  0  0  0  0  0  # atno 11005 bound_to 11000
  144.8412  140.6859  143.6228 LP  0  0  0  0  0  0  0  0  0  0  0  0  # atno 17320 bound_to 7965
  145.3915  139.1615  143.4226 LP  0  0  0  0  0  0  0  0  0  0  0  0  # atno 17321 bound_to 7965
  139.6568  144.7662  151.2040 LP  0  0  0  0  0  0  0  0  0  0  0  0  # atno 17342 bound_to 10162
  140.7559  143.6073  150.8640 LP  0  0  0  0  0  0  0  0  0  0  0  0  # atno 17343 bound_to 10162
  156.1438  130.3642  149.9541 LP  0  0  0  0  0  0  0  0  0  0  0  0  # atno 17370 bound_to 10713
  156.7576  130.9139  151.3640 LP  0  0  0  0  0  0  0  0  0  0  0  0  # atno 17371 bound_to 10713
  140.5308  134.6215  157.5349 LP  0  0  0  0  0  0  0  0  0  0  0  0  # atno 17394 bound_to 11000
  139.9707  134.7298  156.0048 LP  0  0  0  0  0  0  0  0  0  0  0  0  # atno 17395 bound_to 11000

$$$$
