#       Name:                AV-unprocessed.smi:1669
#       Creating user name   scv26
#       Creation time:       Fri Mar 27 07:42:24 2020


#       File generated by GOLD software.
#

@<TRIPOS>MOLECULE
AV-unprocessed.smi:1669
    53    55     1
SMALL
NO_CHARGES


@<TRIPOS>ATOM
      1 ****        -3.3579   0.3734  -2.0327 C.3            1 S1                 0.0000
      2 ****        -2.0101   0.4832  -1.4267 N.4            1 S1                 1.0000
      3 ****        -1.1878   1.5514  -2.0514 C.3            1 S1                 0.0000
      4 ****        -1.6519   2.9360  -1.6377 C.ar           1 S1                 0.0000
      5 ****        -1.3179   3.4372  -0.3616 C.ar           1 S1                 0.0000
      6 ****        -1.7469   4.7207   0.0289 C.ar           1 S1                 0.0000
      7 ****        -2.5096   5.5079  -0.8552 C.ar           1 S1                 0.0000
      8 ****        -2.8428   5.0120  -2.1304 C.ar           1 S1                 0.0000
      9 ****        -2.4138   3.7289  -2.5222 C.ar           1 S1                 0.0000
     10 ****        -1.3143  -0.8277  -1.3708 C.3            1 S1                 0.0000
     11 ****        -0.3278  -0.9149  -0.1892 C.3            1 S1                 0.0000
     12 ****        -1.0631  -0.8740   1.0182 O.3            1 S1                 0.0000
     13 ****         0.5047  -2.2116  -0.2363 C.3            1 S1                 0.0000
     14 ****         1.4196  -2.3505   0.9076 N.pl3          1 S1                 0.0000
     15 ****         1.3072  -3.0961   2.0453 C.2            1 S1                 0.0000
     16 ****         0.1677  -3.9921   2.4155 C.3            1 S1                 0.0000
     17 ****         0.2651  -4.5033   3.7281 O.3            1 S1                 0.0000
     18 ****         2.4325  -2.8726   2.7832 N.pl3          1 S1                 1.0000
     19 ****         3.2725  -1.9841   2.1116 C.ar           1 S1                 0.0000
     20 ****         4.5152  -1.4639   2.4595 C.ar           1 S1                 0.0000
     21 ****         5.1097  -0.5763   1.5387 C.ar           1 S1                 0.0000
     22 ****         4.4708  -0.2376   0.3280 C.ar           1 S1                 0.0000
     23 ****         3.2100  -0.7707  -0.0133 C.ar           1 S1                 0.0000
     24 ****         2.6293  -1.6467   0.9034 C.ar           1 S1                 0.0000
     25 ****        -3.2927   0.0676  -3.0777 H              1 S1                 0.0000
     26 ****        -3.8914   1.3226  -1.9859 H              1 S1                 0.0000
     27 ****        -3.9621  -0.3611  -1.4990 H              1 S1                 0.0000
     28 ****        -0.1428   1.4564  -1.7567 H              1 S1                 0.0000
     29 ****        -1.2049   1.4502  -3.1378 H              1 S1                 0.0000
     30 ****        -0.7338   2.8381   0.3219 H              1 S1                 0.0000
     31 ****        -1.4908   5.1022   1.0065 H              1 S1                 0.0000
     32 ****        -2.8389   6.4921  -0.5554 H              1 S1                 0.0000
     33 ****        -3.4273   5.6165  -2.8084 H              1 S1                 0.0000
     34 ****        -2.6738   3.3561  -3.5022 H              1 S1                 0.0000
     35 ****        -2.0419  -1.6353  -1.2722 H              1 S1                 0.0000
     36 ****        -0.7993  -1.0001  -2.3173 H              1 S1                 0.0000
     37 ****         0.3490  -0.0613  -0.1950 H              1 S1                 0.0000
     38 ****        -0.4556  -0.9104   1.7418 H              1 S1                 0.0000
     39 ****        -0.1511  -3.0832  -0.2445 H              1 S1                 0.0000
     40 ****         1.0928  -2.2636  -1.1535 H              1 S1                 0.0000
     41 ****        -0.7686  -3.4418   2.3222 H              1 S1                 0.0000
     42 ****         0.1261  -4.8251   1.7135 H              1 S1                 0.0000
     43 ****        -0.4775  -5.0660   3.8885 H              1 S1                 0.0000
     44 ****         5.0070  -1.7232   3.3858 H              1 S1                 0.0000
     45 ****         6.0757  -0.1482   1.7650 H              1 S1                 0.0000
     46 ****         4.9587   0.4443  -0.3536 H              1 S1                 0.0000
     47 ****         2.7307  -0.5054  -0.9438 H              1 S1                 0.0000
     48 ****        -2.1575   0.7535  -0.4644 H              1 S1                 0.0000
     49 ****         2.6077  -3.3036   3.6822 H              1 S1                 0.0000
     50 ****        -1.6852  -1.6558   1.0607 LP             1 S1                 0.0000
     51 ****        -1.5904  -0.0256   1.0631 LP             1 S1                 0.0000
     52 ****         0.2641  -3.7488   4.3844 LP             1 S1                 0.0000
     53 ****         1.1116  -5.0271   3.8237 LP             1 S1                 0.0000
@<TRIPOS>BOND
    1    1    2 1     
    2    1   25 1     
    3    1   26 1     
    4    1   27 1     
    5    2    3 1     
    6    2   10 1     
    7    2   48 1     
    8    3    4 1     
    9    3   28 1     
   10    3   29 1     
   11    4    9 ar    
   12    4    5 ar    
   13    5    6 ar    
   14    5   30 1     
   15    6    7 ar    
   16    6   31 1     
   17    7    8 ar    
   18    7   32 1     
   19    8    9 ar    
   20    8   33 1     
   21    9   34 1     
   22   10   11 1     
   23   10   35 1     
   24   10   36 1     
   25   11   12 1     
   26   11   13 1     
   27   11   37 1     
   28   12   38 1     
   29   13   14 1     
   30   13   39 1     
   31   13   40 1     
   32   14   24 1     
   33   14   15 1     
   34   15   16 1     
   35   15   18 2     
   36   16   17 1     
   37   16   41 1     
   38   16   42 1     
   39   17   43 1     
   40   18   19 1     
   41   18   49 1     
   42   19   24 ar    
   43   19   20 ar    
   44   20   21 ar    
   45   20   44 1     
   46   21   22 ar    
   47   21   45 1     
   48   22   23 ar    
   49   22   46 1     
   50   23   24 ar    
   51   23   47 1     
   52   12   50 1     
   53   12   51 1     
   54   17   52 1     
   55   17   53 1     
@<TRIPOS>SUBSTRUCTURE
      1 S1             1
@<TRIPOS>SET
LONE_PAIRS      STATIC     ATOMS    <user>   **** ""
4 50 51 52 53
DONOR_HYDROGENS      STATIC     ATOMS    <user>   **** ""
4 48 38 43 49
ATOM$BLUE        STATIC     ATOMS    COLORGROUP SYSTEM
4 50 51 52 53
ATOM$RED        STATIC     ATOMS    COLORGROUP SYSTEM
4 48 38 43 49
