#       Name:                AV-unprocessed.smi:102
#       Creating user name   scv26
#       Creation time:       Thu Mar 26 17:51:10 2020


#       File generated by GOLD software.
#

@<TRIPOS>MOLECULE
AV-unprocessed.smi:102
    56    57     1
SMALL
NO_CHARGES


@<TRIPOS>ATOM
      1 ****        -4.4014   0.8477  -1.1062 C.3            1 S1                 0.0000
      2 ****        -3.9725  -0.5282  -0.6138 C.2            1 S1                 0.0000
      3 ****        -4.7952  -1.3612  -0.2332 O.2            1 S1                 0.0000
      4 ****        -2.6439  -0.6912  -0.6505 O.3            1 S1                 0.0000
      5 ****        -2.0641  -1.9091  -0.2086 C.3            1 S1                 0.0000
      6 ****        -0.5432  -1.7521  -0.0483 C.3            1 S1                 0.0000
      7 ****         0.0554  -1.2930  -1.2473 O.3            1 S1                 0.0000
      8 ****         1.3128  -0.7813  -0.9416 C.3            1 S1                 0.0000
      9 ****         1.6316   0.3200  -1.9258 N.am           1 S1                 0.0000
     10 ****         2.7137   0.1697  -2.7740 C.2            1 S1                 0.0000
     11 ****         3.0165   1.1053  -3.6969 C.2            1 S1                 0.0000
     12 ****         4.0778   0.9314  -4.5034 F              1 S1                 0.0000
     13 ****         2.1831   2.3002  -3.8146 C.2            1 S1                 0.0000
     14 ****         2.4710   3.1570  -4.6488 O.2            1 S1                 0.0000
     15 ****         1.1065   2.4109  -2.9840 N.pl3          1 S1                -1.0000
     16 ****         0.7887   1.4608  -2.0563 C.2            1 S1                 0.0000
     17 ****        -0.2001   1.5440  -1.3289 O.2            1 S1                 0.0000
     18 ****         1.2990  -0.2965   0.5214 C.3            1 S1                 0.0000
     19 ****         2.3985  -0.8553   1.2288 O.3            1 S1                 0.0000
     20 ****         2.8013  -0.3097   2.3900 C.2            1 S1                 0.0000
     21 ****         3.9908  -1.0439   2.9942 C.3            1 S1                 0.0000
     22 ****         2.2954   0.6636   2.9488 O.2            1 S1                 0.0000
     23 ****        -0.0290  -0.8215   1.0643 C.3            1 S1                 0.0000
     24 ****        -0.8683   0.2943   1.3417 O.3            1 S1                 0.0000
     25 ****        -1.6653   0.3095   2.4236 C.2            1 S1                 0.0000
     26 ****        -2.4691   1.5982   2.5311 C.3            1 S1                 0.0000
     27 ****        -1.7800  -0.5900   3.2561 O.2            1 S1                 0.0000
     28 ****        -3.6457   1.5948  -0.8614 H              1 S1                 0.0000
     29 ****        -5.3413   1.1430  -0.6401 H              1 S1                 0.0000
     30 ****        -4.5383   0.8352  -2.1875 H              1 S1                 0.0000
     31 ****        -2.5026  -2.2192   0.7409 H              1 S1                 0.0000
     32 ****        -2.2836  -2.6891  -0.9384 H              1 S1                 0.0000
     33 ****        -0.1234  -2.7409   0.1428 H              1 S1                 0.0000
     34 ****         2.0543  -1.5640  -1.1102 H              1 S1                 0.0000
     35 ****         3.3347  -0.7108  -2.7003 H              1 S1                 0.0000
     36 ****         1.3438   0.7931   0.5530 H              1 S1                 0.0000
     37 ****         4.7639  -1.2010   2.2418 H              1 S1                 0.0000
     38 ****         3.6785  -2.0146   3.3799 H              1 S1                 0.0000
     39 ****         4.4194  -0.4676   3.8142 H              1 S1                 0.0000
     40 ****         0.1393  -1.3989   1.9747 H              1 S1                 0.0000
     41 ****        -2.7128   1.9813   1.5397 H              1 S1                 0.0000
     42 ****        -1.8955   2.3562   3.0644 H              1 S1                 0.0000
     43 ****        -3.3998   1.4228   3.0708 H              1 S1                 0.0000
     44 ****        -5.7707  -1.1412  -0.2429 LP             1 S1                 0.0000
     45 ****        -4.4880  -2.2579   0.0855 LP             1 S1                 0.0000
     46 ****        -0.5109  -0.5767  -1.6550 LP             1 S1                 0.0000
     47 ****         0.1471  -2.0524  -1.8915 LP             1 S1                 0.0000
     48 ****         3.2689   3.0324  -5.2386 LP             1 S1                 0.0000
     49 ****         1.9072   3.9782  -4.7373 LP             1 S1                 0.0000
     50 ****         0.5259   3.2217  -3.0577 LP             1 S1                 0.0000
     51 ****        -0.3957   0.8210  -0.6663 LP             1 S1                 0.0000
     52 ****        -0.8083   2.3346  -1.4003 LP             1 S1                 0.0000
     53 ****         1.5089   1.1237   2.5368 LP             1 S1                 0.0000
     54 ****         2.6709   0.9941   3.8146 LP             1 S1                 0.0000
     55 ****        -1.2488  -1.4317   3.1591 LP             1 S1                 0.0000
     56 ****        -2.4044  -0.4790   4.0293 LP             1 S1                 0.0000
@<TRIPOS>BOND
    1    1    2 1     
    2    1   28 1     
    3    1   29 1     
    4    1   30 1     
    5    2    3 2     
    6    2    4 1     
    7    4    5 1     
    8    5    6 1     
    9    5   31 1     
   10    5   32 1     
   11    6   23 1     
   12    6    7 1     
   13    6   33 1     
   14    7    8 1     
   15    8    9 1     
   16    8   18 1     
   17    8   34 1     
   18    9   16 am    
   19    9   10 1     
   20   10   11 2     
   21   10   35 1     
   22   11   12 1     
   23   11   13 1     
   24   13   14 2     
   25   13   15 1     
   26   15   16 1     
   27   16   17 2     
   28   18   19 1     
   29   18   23 1     
   30   18   36 1     
   31   19   20 1     
   32   20   21 1     
   33   20   22 2     
   34   21   37 1     
   35   21   38 1     
   36   21   39 1     
   37   23   24 1     
   38   23   40 1     
   39   24   25 1     
   40   25   26 1     
   41   25   27 2     
   42   26   41 1     
   43   26   42 1     
   44   26   43 1     
   45    3   44 1     
   46    3   45 1     
   47    7   46 1     
   48    7   47 1     
   49   14   48 1     
   50   14   49 1     
   51   15   50 1     
   52   17   51 1     
   53   17   52 1     
   54   22   53 1     
   55   22   54 1     
   56   27   55 1     
   57   27   56 1     
@<TRIPOS>SUBSTRUCTURE
      1 S1             1
@<TRIPOS>SET
LONE_PAIRS      STATIC     ATOMS    <user>   **** ""
13 44 45 46 47 48 49 50 51 52 53 54 55 56
ATOM$BLUE        STATIC     ATOMS    COLORGROUP SYSTEM
13 44 45 46 47 48 49 50 51 52 53 54 55 56
