AV-unprocessed.smi:1662|AV-procd|sdf|6663|dock5
  -GOLD-   22720 7373D 1   1.00000     0.00000
 Structure written by MMmdl.
 47 48  0  0  0  0  0  0  0  0  1 V2000
  145.9404  140.0098  157.9891 C   0  0  0  0  0  0  0  0  0  0  0  0
  146.0737  140.9757  156.8426 C   0  0  0  0  0  0  0  0  0  0  0  0
  147.0708  140.7915  156.0412 N   0  0  0  0  0  0  0  0  0  0  0  0
  147.2877  141.6229  154.9593 N   0  0  0  0  0  0  0  0  0  0  0  0
  148.4836  141.2830  154.1741 C   0  0  0  0  0  0  0  0  0  0  0  0
  149.7634  141.1729  155.0164 C   0  0  0  0  0  0  0  0  0  0  0  0
  150.5989  140.2955  154.7925 O   0  0  0  0  0  0  0  0  0  0  0  0
  149.9070  142.0943  155.9812 N   0  0  0  0  0  0  0  0  0  0  0  0
  151.0409  142.1914  156.8982 C   0  0  2  0  0  0  0  0  0  0  0  0
  151.1970  140.8700  157.6759 C   0  0  0  0  0  0  0  0  0  0  0  0
  152.4039  140.9198  158.6249 C   0  0  0  0  0  0  0  0  0  0  0  0
  152.3290  142.1274  159.5725 C   0  0  0  0  0  0  0  0  0  0  0  0
  152.1664  143.4477  158.7925 C   0  0  2  0  0  0  0  0  0  0  0  0
  152.1952  144.6692  159.7262 C   0  0  0  0  0  0  0  0  0  0  0  0
  150.9287  143.4102  157.8563 C   0  0  2  0  0  0  0  0  0  0  0  0
  149.5800  143.4698  158.6111 C   0  0  0  0  0  0  0  0  0  0  0  0
  146.4945  142.6804  154.6213 C   0  0  0  0  0  0  0  0  0  0  0  0
  146.7196  143.3902  153.6398 O   0  0  0  0  0  0  0  0  0  0  0  0
  145.3672  142.8836  155.5342 C   0  0  0  0  0  0  0  0  0  0  0  0
  144.5148  143.9847  155.2207 C   0  0  0  0  0  0  0  0  0  0  0  0
  143.8402  144.8888  154.9600 N   0  0  0  0  0  0  0  0  0  0  0  0
  145.1500  142.0802  156.6057 C   0  0  0  0  0  0  0  0  0  0  0  0
  143.9968  142.2495  157.5851 C   0  0  0  0  0  0  0  0  0  0  0  0
  144.9646  139.5241  157.9765 H   0  0  0  0  0  0  0  0  0  0  0  0
  146.0511  140.5254  158.9431 H   0  0  0  0  0  0  0  0  0  0  0  0
  146.6970  139.2247  157.9495 H   0  0  0  0  0  0  0  0  0  0  0  0
  148.3352  140.3314  153.6599 H   0  0  0  0  0  0  0  0  0  0  0  0
  148.6360  142.0203  153.3835 H   0  0  0  0  0  0  0  0  0  0  0  0
  149.1753  142.7812  156.0915 H   0  0  0  0  0  0  0  0  0  0  0  0
  151.9426  142.3163  156.2947 H   0  0  0  0  0  0  0  0  0  0  0  0
  150.2916  140.6568  158.2451 H   0  0  0  0  0  0  0  0  0  0  0  0
  151.3207  140.0403  156.9787 H   0  0  0  0  0  0  0  0  0  0  0  0
  152.4613  139.9967  159.2024 H   0  0  0  0  0  0  0  0  0  0  0  0
  153.3228  140.9744  158.0400 H   0  0  0  0  0  0  0  0  0  0  0  0
  151.5013  141.9978  160.2703 H   0  0  0  0  0  0  0  0  0  0  0  0
  153.2343  142.1643  160.1797 H   0  0  0  0  0  0  0  0  0  0  0  0
  153.0421  143.5432  158.1482 H   0  0  0  0  0  0  0  0  0  0  0  0
  151.4144  144.6184  160.4852 H   0  0  0  0  0  0  0  0  0  0  0  0
  152.0627  145.5958  159.1671 H   0  0  0  0  0  0  0  0  0  0  0  0
  153.1503  144.7352  160.2482 H   0  0  0  0  0  0  0  0  0  0  0  0
  150.9717  144.3099  157.2408 H   0  0  0  0  0  0  0  0  0  0  0  0
  149.4483  142.6243  159.2852 H   0  0  0  0  0  0  0  0  0  0  0  0
  148.7351  143.4745  157.9227 H   0  0  0  0  0  0  0  0  0  0  0  0
  149.4948  144.3802  159.2033 H   0  0  0  0  0  0  0  0  0  0  0  0
  143.3848  143.1214  157.3563 H   0  0  0  0  0  0  0  0  0  0  0  0
  144.3724  142.3730  158.6014 H   0  0  0  0  0  0  0  0  0  0  0  0
  143.3451  141.3756  157.5623 H   0  0  0  0  0  0  0  0  0  0  0  0
  1  2  1  0  0  0  0
  1 24  1  0  0  0  0
  1 25  1  0  0  0  0
  1 26  1  0  0  0  0
  2 22  1  0  0  0  0
  2  3  2  0  0  0  0
  3  4  1  0  0  0  0
  4  5  1  0  0  0  0
  4 17  1  0  0  0  0
  5  6  1  0  0  0  0
  5 27  1  0  0  0  0
  5 28  1  0  0  0  0
  6  7  2  0  0  0  0
  6  8  1  0  0  0  0
  8  9  1  0  0  0  0
  8 29  1  0  0  0  0
  9 15  1  0  0  0  0
  9 10  1  0  0  0  0
  9 30  1  0  0  0  0
 10 11  1  0  0  0  0
 10 31  1  0  0  0  0
 10 32  1  0  0  0  0
 11 12  1  0  0  0  0
 11 33  1  0  0  0  0
 11 34  1  0  0  0  0
 12 13  1  0  0  0  0
 12 35  1  0  0  0  0
 12 36  1  0  0  0  0
 13 14  1  0  0  0  0
 13 15  1  0  0  0  0
 13 37  1  0  0  0  0
 14 38  1  0  0  0  0
 14 39  1  0  0  0  0
 14 40  1  0  0  0  0
 15 16  1  0  0  0  0
 15 41  1  0  0  0  0
 16 42  1  0  0  0  0
 16 43  1  0  0  0  0
 16 44  1  0  0  0  0
 17 18  2  0  0  0  0
 17 19  1  0  0  0  0
 19 20  1  0  0  0  0
 19 22  2  0  0  0  0
 20 21  3  0  0  0  0
 22 23  1  0  0  0  0
 23 45  1  0  0  0  0
 23 46  1  0  0  0  0
 23 47  1  0  0  0  0
M  END
> <s_m_source_file>
AV-unprocessed.smi

> <i_m_source_file_index>
1662

> <i_lp_mmshare_version>
43012

> <i_f3d_flags>
0

> <s_epik_input>
TiNDYyhjMVtDSDNdKWMoPU8pbihuYzFbQ0gzXSlbQ0gyXUMoPU8pW05IXVtDQEBIXTJbQ0gyXVtDSDJdW0NIMl1bQ0BASF0oW0NIM10pW0NASF0yW0NIM10=

> <s_epik_cmdline>
J2VwaWtfcHl0aG9uJywgJy1waCcsICc3LjAnLCAnLXRuJywgJzgnLCAnLW1hJywgJzIwMCcsICctbWV0YWxfYmluZGluZycsICctaW1hZScsICc8aW5maWxlLm1hZT4nLCAnLW9tYWUnLCAnPG91dGZpbGUubWFlPic=

> <r_lp_tautomer_probability>
1

> <r_epik_Ionization_Penalty>
1.90709e-08

> <r_epik_Ionization_Penalty_Charging>
2.37982e-11

> <r_epik_Ionization_Penalty_Neutral>
1.90471e-08

> <r_epik_State_Penalty>
-0

> <r_epik_Charging_Adjusted_Penalty>
2.37982e-11

> <i_epik_Tot_Q>
0

> <i_epik_Tot_abs_Q>
0

> <r_epik_Metal_State_Penalty>
-0

> <b_epik_Metal_Only>
0

> <s_lp_Force_Field>
OPLS_2005

> <r_lp_Energy>
29.1366

> <b_lp_Chiralities_Consistent>
1

> <s_lp_Variant>
AV-unprocessed.smi:1662-7

> <Gold.Version>
5.8.1

> <Gold.Id.Protein>
6NUR|6NUR_protein|mol2

> <Gold.PLP.Fitness>
43.8494

> <Gold.PLP.PLP>
-38.9640

> <Gold.PLP.part.hbond>
-3.0000

> <Gold.PLP.part.metal>
0.0000

> <Gold.PLP.part.buried>
-2.2315

> <Gold.PLP.part.nonpolar>
-34.0974

> <Gold.PLP.part.repulsive>
0.5136

> <Gold.PLP.ligand.clash>
0.0000

> <Gold.PLP.ligand.torsion>
0.3388

> <Gold.PLP.Chemscore.Hbond>
1.8491

> <Gold.PLP.Chemscore.CHOScore>
0.0000

> <Gold.PLP.Chemscore.Metal>
0.0000

> <Gold.Chemscore.Hbonds>
donor molecule, donor type, donor heavy atom, donor atom, acceptor molecule, acceptor atom, score
      L1  H     8    29       P1  8028  0.75
      P1  H  7989  7998       L1     7  1.00
      P1  H  8022  8030       L1    18  0.07

> <Gold.PLP.Chemscore.Internal.Correction>
0.0156

> <Gold.Rescore>
     Score         DG    S(hbond)    S(metal)    S(lipo)     H(rot)  DE(clash)    DE(int)     intcor
     16.08     -17.30       1.59        0.00      87.40       1.45       0.04       1.19       ----

> <Gold.Chemscore.Fitness>
16.0773

> <Gold.Chemscore.DG>
-17.3047

> <Gold.Chemscore.ZeroCoef>
-5.4800

> <Gold.Chemscore.Hbond>
1.5905

> <Gold.Chemscore.Metal>
0.0000

> <Gold.Chemscore.Lipo>
87.3963

> <Gold.Chemscore.Internal_Hbond>
0.0000

> <Gold.Chemscore.DEClash>
0.0357

> <Gold.Chemscore.DEInternal>
1.1917

> <Gold.Chemscore.Rot>
1.4504

> <Gold.Chemscore.Internal.Correction>
   9.000000E+99

> <Gold.Chemscore.Hbonds>
donor molecule, donor type, donor heavy atom, donor atom, acceptor molecule, acceptor atom, score
      L1  H     8    29       P1  8028  0.72
      P1  H  7989  7998       L1     7  0.60
      P1  H  8022  8030       L1    18  0.07

> <Gold.Chemscore.Hbond.Weighted>
-5.3122

> <Gold.Chemscore.Metal.Weighted>
-0.0000

> <Gold.Chemscore.Lipo.Weighted>
-10.2254

> <Gold.Chemscore.Internal_Hbond.Weighted>
0.0000

> <Gold.Chemscore.DEClash.Weighted>
0.0357

> <Gold.Chemscore.DEInternal.Weighted>
1.1917

> <Gold.Chemscore.Rot.Weighted>
3.7129

> <Gold.Chemscore.Internal.Correction.Weighted>
   9.000000E+99

> <Gold.Protein.RotatedTorsions>
[ 6907 6896 6895 6894 ] final -121.86 input  -60.11 | X-H torsion
[ 7974 7965 7964 7962 ] final   86.55 input  175.53 | X-H torsion
[ 8008 7997 7996 7995 ] final -107.85 input   59.86 | X-H torsion
[ 10167 10162 10161 10158 ] final -129.00 input  -65.29 | X-H torsion
[ 10718 10713 10712 10709 ] final   -3.11 input   66.30 | X-H torsion
[ 10763 10752 10751 10750 ] final  149.55 input  -60.55 | X-H torsion
[ 11005 11000 10999 10996 ] final -162.00 input  -57.11 | X-H torsion

> <Gold.Protein.ActiveResidues>
 VAL166  LYS551  ARG553  GLY616  TRP617  ASP618  TYR619  PRO620  LYS621  CYS622 
 ASP623  PHE694  ASN695  SER759  ASP760  ASP761  ALA762  ILE779  LEU786  VAL792 
 PHE793  MET794  SER795  GLU796  ALA797  LYS798  CYS799  TRP800  GLU811  SER814 

> <Gold.Protein.RotatedAtoms>
  150.8523  133.7769  159.3021 H   0  0  0  0  0  0  0  0  0  0  0  0  # atno 6907 bound_to 6896
  151.5437  135.1066  159.9942 H   0  0  0  0  0  0  0  0  0  0  0  0  # atno 6908 bound_to 6896
  152.4562  133.7684  159.6841 H   0  0  0  0  0  0  0  0  0  0  0  0  # atno 6909 bound_to 6896
  145.5708  139.2313  143.2407 H   0  0  0  0  0  0  0  0  0  0  0  0  # atno 7974 bound_to 7965
  154.9354  140.0404  157.2070 H   0  0  0  0  0  0  0  0  0  0  0  0  # atno 8008 bound_to 7997
  154.8120  140.2869  155.5825 H   0  0  0  0  0  0  0  0  0  0  0  0  # atno 8009 bound_to 7997
  156.2972  140.2535  156.3010 H   0  0  0  0  0  0  0  0  0  0  0  0  # atno 8010 bound_to 7997
  139.9444  143.6127  152.2494 H   0  0  0  0  0  0  0  0  0  0  0  0  # atno 10167 bound_to 10162
  156.7808  130.5330  149.5751 H   0  0  0  0  0  0  0  0  0  0  0  0  # atno 10718 bound_to 10713
  154.0730  135.2865  155.3304 H   0  0  0  0  0  0  0  0  0  0  0  0  # atno 10763 bound_to 10752
  154.6734  135.5291  153.8171 H   0  0  0  0  0  0  0  0  0  0  0  0  # atno 10764 bound_to 10752
  153.0478  135.6563  154.0910 H   0  0  0  0  0  0  0  0  0  0  0  0  # atno 10765 bound_to 10752
  140.6141  134.4818  157.5218 H   0  0  0  0  0  0  0  0  0  0  0  0  # atno 11005 bound_to 11000
  146.1785  140.6534  142.9200 LP  0  0  0  0  0  0  0  0  0  0  0  0  # atno 17320 bound_to 7965
  144.7439  140.5015  143.6850 LP  0  0  0  0  0  0  0  0  0  0  0  0  # atno 17321 bound_to 7965
  139.6679  144.7662  151.1839 LP  0  0  0  0  0  0  0  0  0  0  0  0  # atno 17342 bound_to 10162
  140.7601  143.5910  150.8796 LP  0  0  0  0  0  0  0  0  0  0  0  0  # atno 17343 bound_to 10162
  156.1219  130.6116  151.0206 LP  0  0  0  0  0  0  0  0  0  0  0  0  # atno 17370 bound_to 10713
  157.6647  131.0874  150.7756 LP  0  0  0  0  0  0  0  0  0  0  0  0  # atno 17371 bound_to 10713
  139.9180  134.8207  156.1303 LP  0  0  0  0  0  0  0  0  0  0  0  0  # atno 17394 bound_to 11000
  141.0787  133.6764  156.2291 LP  0  0  0  0  0  0  0  0  0  0  0  0  # atno 17395 bound_to 11000

$$$$
