AV-unprocessed.smi:2059|AV-procd|sdf|8349|dock2
  -GOLD-   2272011 13D 1   1.00000     0.00000
 Structure written by MMmdl.
 30 31  0  0  0  0  0  0  0  0  1 V2000
  146.8689  129.9026  152.7515 C   0  0  0  0  0  0  0  0  0  0  0  0
  147.6572  131.0385  153.3075 C   0  0  0  0  0  0  0  0  0  0  0  0
  147.7511  132.3593  152.9701 C   0  0  0  0  0  0  0  0  0  0  0  0
  148.6837  132.8696  153.9124 C   0  0  0  0  0  0  0  0  0  0  0  0
  149.0507  134.2452  153.8867 N   0  0  0  0  0  0  0  0  0  0  0  0
  149.6013  135.0329  154.8346 C   0  0  0  0  0  0  0  0  0  0  0  0
  149.8749  134.5889  155.9485 O   0  0  0  0  0  0  0  0  0  0  0  0
  149.8278  136.3105  154.4871 N   0  0  0  0  0  0  0  0  0  0  0  0
  150.4163  137.3284  155.3502 C   0  0  1  0  0  0  0  0  0  0  0  0
  151.6465  136.7997  156.1156 C   0  0  0  0  0  0  0  0  0  0  0  0
  152.4213  137.9931  156.6880 C   0  0  0  0  0  0  0  0  0  0  0  0
  152.1373  139.3881  155.5331 S   0  0  0  0  0  0  0  0  0  0  0  0
  151.5200  140.4996  156.2727 O   0  0  0  0  0  0  0  0  0  0  0  0
  153.3372  139.6009  154.7098 O   0  0  0  0  0  0  0  0  0  0  0  0
  150.8610  138.5440  154.5258 C   0  0  0  0  0  0  0  0  0  0  0  0
  149.1176  131.9391  154.7507 N   0  0  0  0  0  0  0  0  0  0  0  0
  148.4630  130.7628  154.3679 O   0  0  0  0  0  0  0  0  0  0  0  0
  146.4268  130.1685  151.7911 H   0  0  0  0  0  0  0  0  0  0  0  0
  146.0623  129.6241  153.4297 H   0  0  0  0  0  0  0  0  0  0  0  0
  147.5022  129.0282  152.6006 H   0  0  0  0  0  0  0  0  0  0  0  0
  147.2337  132.8750  152.1746 H   0  0  0  0  0  0  0  0  0  0  0  0
  148.8597  134.7123  153.0123 H   0  0  0  0  0  0  0  0  0  0  0  0
  149.5745  136.5952  153.5514 H   0  0  0  0  0  0  0  0  0  0  0  0
  149.6743  137.6671  156.0761 H   0  0  0  0  0  0  0  0  0  0  0  0
  151.3678  136.0942  156.8990 H   0  0  0  0  0  0  0  0  0  0  0  0
  152.2956  136.2636  155.4218 H   0  0  0  0  0  0  0  0  0  0  0  0
  152.0250  138.2786  157.6625 H   0  0  0  0  0  0  0  0  0  0  0  0
  153.4888  137.7974  156.7890 H   0  0  0  0  0  0  0  0  0  0  0  0
  151.3283  138.2382  153.5890 H   0  0  0  0  0  0  0  0  0  0  0  0
  150.0444  139.2301  154.3000 H   0  0  0  0  0  0  0  0  0  0  0  0
  1  2  1  0  0  0  0
  1 18  1  0  0  0  0
  1 19  1  0  0  0  0
  1 20  1  0  0  0  0
  2 17  1  0  0  0  0
  2  3  2  0  0  0  0
  3  4  1  0  0  0  0
  3 21  1  0  0  0  0
  4  5  1  0  0  0  0
  4 16  2  0  0  0  0
  5  6  1  0  0  0  0
  5 22  1  0  0  0  0
  6  7  2  0  0  0  0
  6  8  1  0  0  0  0
  8  9  1  0  0  0  0
  8 23  1  0  0  0  0
  9 15  1  0  0  0  0
  9 10  1  0  0  0  0
  9 24  1  0  0  0  0
 10 11  1  0  0  0  0
 10 25  1  0  0  0  0
 10 26  1  0  0  0  0
 11 12  1  0  0  0  0
 11 27  1  0  0  0  0
 11 28  1  0  0  0  0
 12 13  2  0  0  0  0
 12 14  2  0  0  0  0
 12 15  1  0  0  0  0
 15 29  1  0  0  0  0
 15 30  1  0  0  0  0
 16 17  1  0  0  0  0
M  END
> <s_m_source_file>
AV-unprocessed.smi

> <i_m_source_file_index>
2059

> <i_lp_mmshare_version>
43012

> <i_f3d_flags>
0

> <s_epik_input>
W0NIM11jMVtjSF1jKG5vMSlbTkhdQyg9TylbTkhdW0NAQEhdKFtDSDJdMilbQ0gyXVtDSDJdUzIoPU8pPU8=

> <s_epik_cmdline>
J2VwaWtfcHl0aG9uJywgJy1waCcsICc3LjAnLCAnLXRuJywgJzgnLCAnLW1hJywgJzIwMCcsICctbWV0YWxfYmluZGluZycsICctaW1hZScsICc8aW5maWxlLm1hZT4nLCAnLW9tYWUnLCAnPG91dGZpbGUubWFlPic=

> <r_lp_tautomer_probability>
1

> <r_epik_Ionization_Penalty>
3.88767e-05

> <r_epik_Ionization_Penalty_Charging>
0

> <r_epik_Ionization_Penalty_Neutral>
3.88767e-05

> <r_epik_State_Penalty>
-0

> <r_epik_Charging_Adjusted_Penalty>
0

> <i_epik_Tot_Q>
0

> <i_epik_Tot_abs_Q>
0

> <r_epik_Metal_State_Penalty>
0.0251347

> <b_epik_Metal_Only>
0

> <s_lp_Force_Field>
OPLS_2005

> <r_lp_Energy>
4.37502

> <b_lp_Chiralities_Consistent>
1

> <s_lp_Variant>
AV-unprocessed.smi:2059-2

> <Gold.Version>
5.8.1

> <Gold.Id.Protein>
6NUR|6NUR_protein|mol2

> <Gold.PLP.Fitness>
33.3134

> <Gold.PLP.PLP>
-25.4685

> <Gold.PLP.part.hbond>
-4.1252

> <Gold.PLP.part.metal>
0.0000

> <Gold.PLP.part.buried>
-2.7005

> <Gold.PLP.part.nonpolar>
-18.3587

> <Gold.PLP.part.repulsive>
0.1638

> <Gold.PLP.ligand.clash>
0.0000

> <Gold.PLP.ligand.torsion>
0.2778

> <Gold.PLP.Chemscore.Hbond>
2.8000

> <Gold.PLP.Chemscore.CHOScore>
0.0000

> <Gold.PLP.Chemscore.Metal>
0.0000

> <Gold.Chemscore.Hbonds>
donor molecule, donor type, donor heavy atom, donor atom, acceptor molecule, acceptor atom, score
      L1  H     5    22       P1  7948  0.75
      L1  H     8    23       P1  7948  1.00
      P1  H  7997  8010       L1    14  1.00

> <Gold.PLP.Chemscore.Internal.Correction>
0.0004

> <Gold.Rescore>
     Score         DG    S(hbond)    S(metal)    S(lipo)     H(rot)  DE(clash)    DE(int)     intcor
     12.81     -15.45       2.44        0.00      37.27       1.00       0.00       2.63       ----

> <Gold.Chemscore.Fitness>
12.8139

> <Gold.Chemscore.DG>
-15.4465

> <Gold.Chemscore.ZeroCoef>
-5.4800

> <Gold.Chemscore.Hbond>
2.4449

> <Gold.Chemscore.Metal>
0.0000

> <Gold.Chemscore.Lipo>
37.2706

> <Gold.Chemscore.Internal_Hbond>
0.0000

> <Gold.Chemscore.DEClash>
0.0000

> <Gold.Chemscore.DEInternal>
2.6326

> <Gold.Chemscore.Rot>
1.0000

> <Gold.Chemscore.Internal.Correction>
   9.000000E+99

> <Gold.Chemscore.Hbonds>
donor molecule, donor type, donor heavy atom, donor atom, acceptor molecule, acceptor atom, score
      L1  H     5    22       P1  7948  0.09
      L1  H     8    23       P1  7948  0.63
      P1  H  7997  8010       L1    14  0.90

> <Gold.Chemscore.Hbond.Weighted>
-8.1659

> <Gold.Chemscore.Metal.Weighted>
-0.0000

> <Gold.Chemscore.Lipo.Weighted>
-4.3607

> <Gold.Chemscore.Internal_Hbond.Weighted>
0.0000

> <Gold.Chemscore.DEClash.Weighted>
0.0000

> <Gold.Chemscore.DEInternal.Weighted>
2.6326

> <Gold.Chemscore.Rot.Weighted>
2.5600

> <Gold.Chemscore.Internal.Correction.Weighted>
   9.000000E+99

> <Gold.Protein.RotatedTorsions>
[ 6907 6896 6895 6894 ] final  -20.41 input  -60.11 | X-H torsion
[ 7974 7965 7964 7962 ] final    5.52 input  175.53 | X-H torsion
[ 8008 7997 7996 7995 ] final  132.10 input   59.86 | X-H torsion
[ 10167 10162 10161 10158 ] final   84.29 input  -65.29 | X-H torsion
[ 10718 10713 10712 10709 ] final   84.67 input   66.30 | X-H torsion
[ 10763 10752 10751 10750 ] final  113.65 input  -60.55 | X-H torsion
[ 11005 11000 10999 10996 ] final   92.50 input  -57.11 | X-H torsion

> <Gold.Protein.ActiveResidues>
 VAL166  LYS551  ARG553  GLY616  TRP617  ASP618  TYR619  PRO620  LYS621  CYS622 
 ASP623  PHE694  ASN695  SER759  ASP760  ASP761  ALA762  ILE779  LEU786  VAL792 
 PHE793  MET794  SER795  GLU796  ALA797  LYS798  CYS799  TRP800  GLU811  SER814 

> <Gold.Protein.RotatedAtoms>
  151.2486  135.0614  159.9052 H   0  0  0  0  0  0  0  0  0  0  0  0  # atno 6907 bound_to 6896
  152.5383  134.0357  159.8055 H   0  0  0  0  0  0  0  0  0  0  0  0  # atno 6908 bound_to 6896
  151.0561  133.5534  159.2669 H   0  0  0  0  0  0  0  0  0  0  0  0  # atno 6909 bound_to 6896
  146.2440  140.0371  142.8385 H   0  0  0  0  0  0  0  0  0  0  0  0  # atno 7974 bound_to 7965
  156.2978  140.2555  156.3035 H   0  0  0  0  0  0  0  0  0  0  0  0  # atno 8008 bound_to 7997
  154.9395  140.0396  157.2108 H   0  0  0  0  0  0  0  0  0  0  0  0  # atno 8009 bound_to 7997
  154.8140  140.2849  155.5837 H   0  0  0  0  0  0  0  0  0  0  0  0  # atno 8010 bound_to 7997
  139.9096  144.6280  150.8551 H   0  0  0  0  0  0  0  0  0  0  0  0  # atno 10167 bound_to 10162
  157.6902  131.0143  150.2707 H   0  0  0  0  0  0  0  0  0  0  0  0  # atno 10718 bound_to 10713
  153.4957  135.3649  155.2514 H   0  0  0  0  0  0  0  0  0  0  0  0  # atno 10763 bound_to 10752
  154.8750  135.3988  154.3537 H   0  0  0  0  0  0  0  0  0  0  0  0  # atno 10764 bound_to 10752
  153.4164  135.7079  153.6389 H   0  0  0  0  0  0  0  0  0  0  0  0  # atno 10765 bound_to 10752
  139.8822  134.8736  156.3581 H   0  0  0  0  0  0  0  0  0  0  0  0  # atno 11005 bound_to 11000
  145.1102  140.9400  143.4661 LP  0  0  0  0  0  0  0  0  0  0  0  0  # atno 17320 bound_to 7965
  145.0583  139.3125  143.5893 LP  0  0  0  0  0  0  0  0  0  0  0  0  # atno 17321 bound_to 7965
  140.7688  143.3376  151.2277 LP  0  0  0  0  0  0  0  0  0  0  0  0  # atno 17342 bound_to 10162
  139.6954  143.9621  152.2880 LP  0  0  0  0  0  0  0  0  0  0  0  0  # atno 17343 bound_to 10162
  156.3270  130.3794  149.7524 LP  0  0  0  0  0  0  0  0  0  0  0  0  # atno 17370 bound_to 10713
  156.5076  130.8157  151.3156 LP  0  0  0  0  0  0  0  0  0  0  0  0  # atno 17371 bound_to 10713
  140.9548  133.7427  156.0320 LP  0  0  0  0  0  0  0  0  0  0  0  0  # atno 17394 bound_to 11000
  140.8062  134.3452  157.5425 LP  0  0  0  0  0  0  0  0  0  0  0  0  # atno 17395 bound_to 11000

$$$$
