AV-unprocessed.smi:2119|AV-procd|sdf|8631|dock8
  -GOLD-   2272011373D 1   1.00000     0.00000
 Structure written by MMmdl.
 47 49  0  0  0  0  0  0  0  0  1 V2000
  144.8854  136.4583  153.6224 O   0  0  0  0  0  0  0  0  0  0  0  0
  145.9753  136.2536  153.0889 C   0  0  0  0  0  0  0  0  0  0  0  0
  147.0511  137.0236  153.2954 N   0  0  0  0  0  0  0  0  0  0  0  0
  147.0790  138.1851  154.1765 C   0  0  0  0  0  0  0  0  0  0  0  0
  148.3986  138.9877  154.0261 C   0  0  1  0  0  0  0  0  0  0  0  0
  148.1631  140.5301  154.0844 C   0  0  2  0  0  0  0  0  0  0  0  0
  147.9973  141.1565  155.4726 C   0  0  0  0  0  0  0  0  0  0  0  0
  146.7418  142.0181  155.3400 C   0  0  0  0  0  0  0  0  0  0  0  0
  146.6579  142.2993  153.9525 O   0  0  0  0  0  0  0  0  0  0  0  0
  146.9923  141.1025  153.2686 C   0  0  0  0  0  0  0  0  0  0  0  0
  149.5242  138.4900  154.8429 N   0  0  0  0  0  0  0  0  0  0  0  0
  150.8218  139.0170  154.4249 C   0  0  0  0  0  0  0  0  0  0  0  0
  151.9447  138.5959  155.3863 C   0  0  0  0  0  0  0  0  0  0  0  0
  151.9832  137.1756  155.4706 O   0  0  0  0  0  0  0  0  0  0  0  0
  150.7545  136.6217  155.9288 C   0  0  0  0  0  0  0  0  0  0  0  0
  149.6051  137.0383  154.9936 C   0  0  0  0  0  0  0  0  0  0  0  0
  146.2497  135.2610  152.2250 N   0  0  0  0  0  0  0  0  0  0  0  0
  145.4009  134.2196  151.7592 C   0  0  0  0  0  0  0  0  0  0  0  0
  145.7968  133.2013  150.8576 C   0  0  0  0  0  0  0  0  0  0  0  0
  144.8496  132.2369  150.4628 C   0  0  0  0  0  0  0  0  0  0  0  0
  143.5415  132.3284  150.9757 C   0  0  0  0  0  0  0  0  0  0  0  0
  143.1468  133.2989  151.8263 N   0  0  0  0  0  0  0  0  0  0  0  0
  144.0604  134.2195  152.2009 C   0  0  0  0  0  0  0  0  0  0  0  0
  147.9078  136.7921  152.8140 H   0  0  0  0  0  0  0  0  0  0  0  0
  146.2186  138.8216  153.9652 H   0  0  0  0  0  0  0  0  0  0  0  0
  146.9548  137.8195  155.1952 H   0  0  0  0  0  0  0  0  0  0  0  0
  148.7108  138.8229  152.9936 H   0  0  0  0  0  0  0  0  0  0  0  0
  149.0567  140.9941  153.6636 H   0  0  0  0  0  0  0  0  0  0  0  0
  147.8989  140.4419  156.2892 H   0  0  0  0  0  0  0  0  0  0  0  0
  148.8613  141.7829  155.6985 H   0  0  0  0  0  0  0  0  0  0  0  0
  145.8566  141.4602  155.6488 H   0  0  0  0  0  0  0  0  0  0  0  0
  146.7932  142.9311  155.9335 H   0  0  0  0  0  0  0  0  0  0  0  0
  147.2702  141.3113  152.2353 H   0  0  0  0  0  0  0  0  0  0  0  0
  146.1256  140.4453  153.2455 H   0  0  0  0  0  0  0  0  0  0  0  0
  151.0735  138.6599  153.4265 H   0  0  0  0  0  0  0  0  0  0  0  0
  150.7830  140.1055  154.3714 H   0  0  0  0  0  0  0  0  0  0  0  0
  152.9078  138.9584  155.0268 H   0  0  0  0  0  0  0  0  0  0  0  0
  151.7882  139.0250  156.3771 H   0  0  0  0  0  0  0  0  0  0  0  0
  150.8422  135.5356  155.9596 H   0  0  0  0  0  0  0  0  0  0  0  0
  150.5586  136.9548  156.9492 H   0  0  0  0  0  0  0  0  0  0  0  0
  148.6828  136.6491  155.4164 H   0  0  0  0  0  0  0  0  0  0  0  0
  149.7420  136.5658  154.0204 H   0  0  0  0  0  0  0  0  0  0  0  0
  147.1754  135.2714  151.8220 H   0  0  0  0  0  0  0  0  0  0  0  0
  146.7938  133.1436  150.4507 H   0  0  0  0  0  0  0  0  0  0  0  0
  145.1189  131.4470  149.7774 H   0  0  0  0  0  0  0  0  0  0  0  0
  142.7910  131.6056  150.6912 H   0  0  0  0  0  0  0  0  0  0  0  0
  143.7078  134.9824  152.8798 H   0  0  0  0  0  0  0  0  0  0  0  0
  1  2  2  0  0  0  0
  2  3  1  0  0  0  0
  2 17  1  0  0  0  0
  3  4  1  0  0  0  0
  3 24  1  0  0  0  0
  4  5  1  0  0  0  0
  4 25  1  0  0  0  0
  4 26  1  0  0  0  0
  5  6  1  0  0  0  0
  5 11  1  0  0  0  0
  5 27  1  0  0  0  0
  6 10  1  0  0  0  0
  6  7  1  0  0  0  0
  6 28  1  0  0  0  0
  7  8  1  0  0  0  0
  7 29  1  0  0  0  0
  7 30  1  0  0  0  0
  8  9  1  0  0  0  0
  8 31  1  0  0  0  0
  8 32  1  0  0  0  0
  9 10  1  0  0  0  0
 10 33  1  0  0  0  0
 10 34  1  0  0  0  0
 11 16  1  0  0  0  0
 11 12  1  0  0  0  0
 12 13  1  0  0  0  0
 12 35  1  0  0  0  0
 12 36  1  0  0  0  0
 13 14  1  0  0  0  0
 13 37  1  0  0  0  0
 13 38  1  0  0  0  0
 14 15  1  0  0  0  0
 15 16  1  0  0  0  0
 15 39  1  0  0  0  0
 15 40  1  0  0  0  0
 16 41  1  0  0  0  0
 16 42  1  0  0  0  0
 17 18  1  0  0  0  0
 17 43  1  0  0  0  0
 18 23  1  0  0  0  0
 18 19  2  0  0  0  0
 19 20  1  0  0  0  0
 19 44  1  0  0  0  0
 20 21  2  0  0  0  0
 20 45  1  0  0  0  0
 21 22  1  0  0  0  0
 21 46  1  0  0  0  0
 22 23  2  0  0  0  0
 23 47  1  0  0  0  0
M  END
> <s_m_source_file>
AV-unprocessed.smi

> <i_m_source_file_index>
2119

> <i_lp_mmshare_version>
43012

> <i_f3d_flags>
0

> <s_epik_input>
W2NIXTFuW2NIXVtjSF1bY0hdYzFbTkhdQyg9TylbTkhdW0NIMl1bQ0BIXShbQ0BASF0yW0NIMl1bQ0gyXU9bQ0gyXTIpTjNbQ0gyXVtDSDJdT1tDSDJdW0NIMl0z

> <s_epik_cmdline>
J2VwaWtfcHl0aG9uJywgJy1waCcsICc3LjAnLCAnLXRuJywgJzgnLCAnLW1hJywgJzIwMCcsICctbWV0YWxfYmluZGluZycsICctaW1hZScsICc8aW5maWxlLm1hZT4nLCAnLW9tYWUnLCAnPG91dGZpbGUubWFlPic=

> <r_epik_Ionization_Penalty>
0.129787

> <r_epik_Ionization_Penalty_Charging>
0

> <r_epik_Ionization_Penalty_Neutral>
0.129787

> <r_epik_State_Penalty>
0.121311

> <r_epik_Charging_Adjusted_Penalty>
0.121311

> <i_epik_Tot_Q>
0

> <i_epik_Tot_abs_Q>
0

> <r_epik_Metal_State_Penalty>
0.117931

> <b_epik_Metal_Only>
0

> <s_lp_Force_Field>
OPLS_2005

> <r_lp_Energy>
56.2921

> <b_lp_Chiralities_Consistent>
1

> <s_lp_Variant>
AV-unprocessed.smi:2119-2

> <Gold.Version>
5.8.1

> <Gold.Id.Protein>
6NUR|6NUR_protein|mol2

> <Gold.PLP.Fitness>
45.0139

> <Gold.PLP.PLP>
-34.5837

> <Gold.PLP.part.hbond>
-2.9705

> <Gold.PLP.part.metal>
0.0000

> <Gold.PLP.part.buried>
-7.3439

> <Gold.PLP.part.nonpolar>
-25.8242

> <Gold.PLP.part.repulsive>
0.7573

> <Gold.PLP.ligand.clash>
0.0000

> <Gold.PLP.ligand.torsion>
0.8253

> <Gold.PLP.Chemscore.Hbond>
2.9040

> <Gold.PLP.Chemscore.CHOScore>
1.0000

> <Gold.PLP.Chemscore.Metal>
0.0000

> <Gold.Chemscore.Hbonds>
donor molecule, donor type, donor heavy atom, donor atom, acceptor molecule, acceptor atom, score
      L1  H     3    24       P1  7948  0.98
      L1  H    17    43       P1  7948  0.90
      P1  H 10752 10764       L1    14  0.94
      L1  C    21    46       P1 10952  0.86

> <Gold.PLP.Chemscore.Internal.Correction>
0.3688

> <Gold.Rescore>
     Score         DG    S(hbond)    S(metal)    S(lipo)     H(rot)  DE(clash)    DE(int)     intcor
     17.59     -20.79       2.82        0.00      86.37       1.65       0.02       3.18       ----

> <Gold.Chemscore.Fitness>
17.5851

> <Gold.Chemscore.DG>
-20.7879

> <Gold.Chemscore.ZeroCoef>
-5.4800

> <Gold.Chemscore.Hbond>
2.8228

> <Gold.Chemscore.Metal>
0.0000

> <Gold.Chemscore.Lipo>
86.3744

> <Gold.Chemscore.Internal_Hbond>
0.0000

> <Gold.Chemscore.DEClash>
0.0202

> <Gold.Chemscore.DEInternal>
3.1825

> <Gold.Chemscore.Rot>
1.6508

> <Gold.Chemscore.Internal.Correction>
   9.000000E+99

> <Gold.Chemscore.Hbonds>
donor molecule, donor type, donor heavy atom, donor atom, acceptor molecule, acceptor atom, score
      L1  H     3    24       P1  7948  0.91
      L1  H    17    43       P1  7948  0.84
      P1  H 10752 10764       L1    14  0.38

> <Gold.Chemscore.Hbond.Weighted>
-9.4283

> <Gold.Chemscore.Metal.Weighted>
-0.0000

> <Gold.Chemscore.Lipo.Weighted>
-10.1058

> <Gold.Chemscore.Internal_Hbond.Weighted>
0.0000

> <Gold.Chemscore.DEClash.Weighted>
0.0202

> <Gold.Chemscore.DEInternal.Weighted>
3.1825

> <Gold.Chemscore.Rot.Weighted>
4.2262

> <Gold.Chemscore.Internal.Correction.Weighted>
   9.000000E+99

> <Gold.Protein.RotatedTorsions>
[ 6907 6896 6895 6894 ] final   84.48 input  -60.11 | X-H torsion
[ 7974 7965 7964 7962 ] final   20.19 input  175.53 | X-H torsion
[ 8008 7997 7996 7995 ] final -155.32 input   59.86 | X-H torsion
[ 10167 10162 10161 10158 ] final   45.41 input  -65.29 | X-H torsion
[ 10718 10713 10712 10709 ] final -105.32 input   66.30 | X-H torsion
[ 10763 10752 10751 10750 ] final  -53.30 input  -60.55 | X-H torsion
[ 11005 11000 10999 10996 ] final  119.41 input  -57.11 | X-H torsion

> <Gold.Protein.ActiveResidues>
 VAL166  LYS551  ARG553  GLY616  TRP617  ASP618  TYR619  PRO620  LYS621  CYS622 
 ASP623  PHE694  ASN695  SER759  ASP760  ASP761  ALA762  ILE779  LEU786  VAL792 
 PHE793  MET794  SER795  GLU796  ALA797  LYS798  CYS799  TRP800  GLU811  SER814 

> <Gold.Protein.RotatedAtoms>
  152.5353  134.2735  159.8980 H   0  0  0  0  0  0  0  0  0  0  0  0  # atno 6907 bound_to 6896
  151.2691  133.4257  159.2628 H   0  0  0  0  0  0  0  0  0  0  0  0  # atno 6908 bound_to 6896
  151.0384  134.9604  159.8205 H   0  0  0  0  0  0  0  0  0  0  0  0  # atno 6909 bound_to 6896
  146.2121  139.8205  142.8681 H   0  0  0  0  0  0  0  0  0  0  0  0  # atno 7974 bound_to 7965
  155.7000  140.0765  157.2414 H   0  0  0  0  0  0  0  0  0  0  0  0  # atno 8008 bound_to 7997
  154.4074  140.1649  156.2234 H   0  0  0  0  0  0  0  0  0  0  0  0  # atno 8009 bound_to 7997
  155.9376  140.3387  155.6303 H   0  0  0  0  0  0  0  0  0  0  0  0  # atno 8010 bound_to 7997
  140.3244  144.2666  150.6177 H   0  0  0  0  0  0  0  0  0  0  0  0  # atno 10167 bound_to 10162
  156.0341  130.5558  150.7523 H   0  0  0  0  0  0  0  0  0  0  0  0  # atno 10718 bound_to 10713
  154.1566  135.6481  153.4976 H   0  0  0  0  0  0  0  0  0  0  0  0  # atno 10763 bound_to 10752
  153.0122  135.5351  154.6753 H   0  0  0  0  0  0  0  0  0  0  0  0  # atno 10764 bound_to 10752
  154.6056  135.2948  155.0460 H   0  0  0  0  0  0  0  0  0  0  0  0  # atno 10765 bound_to 10752
  139.9145  134.9628  156.7650 H   0  0  0  0  0  0  0  0  0  0  0  0  # atno 11005 bound_to 11000
  145.3102  141.0217  143.3559 LP  0  0  0  0  0  0  0  0  0  0  0  0  # atno 17320 bound_to 7965
  144.8942  139.4735  143.6663 LP  0  0  0  0  0  0  0  0  0  0  0  0  # atno 17321 bound_to 7965
  140.5454  143.2215  151.8015 LP  0  0  0  0  0  0  0  0  0  0  0  0  # atno 17342 bound_to 10162
  139.4868  144.4546  151.9614 LP  0  0  0  0  0  0  0  0  0  0  0  0  # atno 17343 bound_to 10162
  157.5064  131.0922  151.0252 LP  0  0  0  0  0  0  0  0  0  0  0  0  # atno 17370 bound_to 10713
  157.0619  130.5829  149.5387 LP  0  0  0  0  0  0  0  0  0  0  0  0  # atno 17371 bound_to 10713
  140.6666  133.9597  155.7834 LP  0  0  0  0  0  0  0  0  0  0  0  0  # atno 17394 bound_to 11000
  141.0606  134.0351  157.3663 LP  0  0  0  0  0  0  0  0  0  0  0  0  # atno 17395 bound_to 11000

$$$$
