AV-unprocessed.smi:3321|AV-procd|sdf|12769|dock8
  -GOLD-   2272019113D 1   1.00000     0.00000
 Structure written by MMmdl.
 41 42  0  0  0  0  0  0  0  0  2 V2000
  148.0399  137.4547  155.0123 C   0  0  0  0  0  0  0  0  0  0  0  0
  148.2768  138.7901  154.2884 C   0  0  2  0  0  0  0  0  0  0  0  0
  148.1640  138.5839  152.8251 N   0  3  0  0  0  0  0  0  0  0  0  0
  146.7981  138.7298  152.2776 C   0  0  0  0  0  0  0  0  0  0  0  0
  145.8188  137.7773  152.9782 C   0  0  0  0  0  0  0  0  0  0  0  0
  145.8878  136.4360  152.4310 N   0  0  0  0  0  0  0  0  0  0  0  0
  145.6283  136.0198  151.1419 C   0  0  0  0  0  0  0  0  0  0  0  0
  145.8233  134.6689  151.1047 C   0  0  0  0  0  0  0  0  0  0  0  0
  146.2003  134.3443  152.4377 C   0  0  0  0  0  0  0  0  0  0  0  0
  146.2358  135.4042  153.2296 N   0  0  0  0  0  0  0  0  0  0  0  0
  149.6537  139.3685  154.6791 C   0  0  0  0  0  0  0  0  0  0  0  0
  150.5300  139.4080  153.8133 O   0  0  0  0  0  0  0  0  0  0  0  0
  149.8723  139.8127  155.9425 N   0  0  0  0  0  0  0  0  0  0  0  0
  148.8931  139.8362  157.0377 C   0  0  0  0  0  0  0  0  0  0  0  0
  148.4577  141.2941  157.2697 C   0  0  0  0  0  0  0  0  0  0  0  0
  149.6788  142.1847  157.5736 C   0  0  0  0  0  0  0  0  0  0  0  0
  150.8049  141.9897  156.5391 C   0  0  0  0  0  0  0  0  0  0  0  0
  151.1138  140.4951  156.3315 C   0  0  0  0  0  0  0  0  0  0  0  0
  148.1016  137.5667  156.0955 H   0  0  0  0  0  0  0  0  0  0  0  0
  148.7745  136.7042  154.7165 H   0  0  0  0  0  0  0  0  0  0  0  0
  147.0509  137.0571  154.7829 H   0  0  0  0  0  0  0  0  0  0  0  0
  147.4811  139.4834  154.5579 H   0  0  0  0  0  0  0  0  0  0  0  0
  148.7770  139.2408  152.3632 H   0  0  0  0  0  0  0  0  0  0  0  0
  146.4679  139.7615  152.4058 H   0  0  0  0  0  0  0  0  0  0  0  0
  146.8100  138.5274  151.2058 H   0  0  0  0  0  0  0  0  0  0  0  0
  146.0321  137.7262  154.0470 H   0  0  0  0  0  0  0  0  0  0  0  0
  144.7954  138.1411  152.8750 H   0  0  0  0  0  0  0  0  0  0  0  0
  145.3314  136.7107  150.3664 H   0  0  0  0  0  0  0  0  0  0  0  0
  145.7127  134.0115  150.2550 H   0  0  0  0  0  0  0  0  0  0  0  0
  146.4472  133.3770  152.8502 H   0  0  0  0  0  0  0  0  0  0  0  0
  148.0270  139.1986  156.8746 H   0  0  0  0  0  0  0  0  0  0  0  0
  149.3597  139.4445  157.9429 H   0  0  0  0  0  0  0  0  0  0  0  0
  147.9412  141.6676  156.3843 H   0  0  0  0  0  0  0  0  0  0  0  0
  147.7436  141.3483  158.0919 H   0  0  0  0  0  0  0  0  0  0  0  0
  149.3809  143.2326  157.6146 H   0  0  0  0  0  0  0  0  0  0  0  0
  150.0614  141.9347  158.5639 H   0  0  0  0  0  0  0  0  0  0  0  0
  150.5077  142.4343  155.5883 H   0  0  0  0  0  0  0  0  0  0  0  0
  151.7028  142.5181  156.8604 H   0  0  0  0  0  0  0  0  0  0  0  0
  151.4974  140.0581  157.2547 H   0  0  0  0  0  0  0  0  0  0  0  0
  151.9130  140.3799  155.5982 H   0  0  0  0  0  0  0  0  0  0  0  0
  148.4781  137.6469  152.6167 H   0  0  0  0  0  0  0  0  0  0  0  0
  1  2  1  0  0  0  0
  1 19  1  0  0  0  0
  1 20  1  0  0  0  0
  1 21  1  0  0  0  0
  2  3  1  0  0  0  0
  2 11  1  0  0  0  0
  2 22  1  0  0  0  0
  3  4  1  0  0  0  0
  3 23  1  0  0  0  0
  3 41  1  0  0  0  0
  4  5  1  0  0  0  0
  4 24  1  0  0  0  0
  4 25  1  0  0  0  0
  5  6  1  0  0  0  0
  5 26  1  0  0  0  0
  5 27  1  0  0  0  0
  6 10  1  0  0  0  0
  6  7  1  0  0  0  0
  7  8  2  0  0  0  0
  7 28  1  0  0  0  0
  8  9  1  0  0  0  0
  8 29  1  0  0  0  0
  9 10  2  0  0  0  0
  9 30  1  0  0  0  0
 11 12  2  0  0  0  0
 11 13  1  0  0  0  0
 13 18  1  0  0  0  0
 13 14  1  0  0  0  0
 14 15  1  0  0  0  0
 14 31  1  0  0  0  0
 14 32  1  0  0  0  0
 15 16  1  0  0  0  0
 15 33  1  0  0  0  0
 15 34  1  0  0  0  0
 16 17  1  0  0  0  0
 16 35  1  0  0  0  0
 16 36  1  0  0  0  0
 17 18  1  0  0  0  0
 17 37  1  0  0  0  0
 17 38  1  0  0  0  0
 18 39  1  0  0  0  0
 18 40  1  0  0  0  0
M  CHG  1   3   1
M  END
> <s_m_source_file>
AV-unprocessed.smi

> <i_m_source_file_index>
3321

> <i_lp_mmshare_version>
43012

> <i_f3d_flags>
0

> <s_epik_input>
W0NIMl0xW0NIMl1bQ0gyXVtDSDJdW0NIMl1OMUMoPU8pW0NASF0oW0NIM10pW05IXVtDSDJdW0NIMl1uMltjSF1bY0hdW2NIXW4y

> <s_epik_cmdline>
J2VwaWtfcHl0aG9uJywgJy1waCcsICc3LjAnLCAnLXRuJywgJzgnLCAnLW1hJywgJzIwMCcsICctbWV0YWxfYmluZGluZycsICctaW1hZScsICc8aW5maWxlLm1hZT4nLCAnLW9tYWUnLCAnPG91dGZpbGUubWFlPic=

> <r_lp_tautomer_probability>
1

> <r_epik_Ionization_Penalty>
0.202061

> <r_epik_Ionization_Penalty_Charging>
0.202058

> <r_epik_Ionization_Penalty_Neutral>
2.46932e-06

> <r_epik_State_Penalty>
0.191938

> <r_epik_Charging_Adjusted_Penalty>
0.393996

> <i_epik_Tot_Q>
1

> <i_epik_Tot_abs_Q>
1

> <r_epik_Metal_State_Penalty>
0.192188

> <b_epik_Metal_Only>
0

> <s_lp_Force_Field>
OPLS_2005

> <r_lp_Energy>
26.3396

> <b_lp_Chiralities_Consistent>
1

> <s_lp_Variant>
AV-unprocessed.smi:3321-1

> <Gold.Version>
5.8.1

> <Gold.Id.Protein>
6NUR|6NUR_protein|mol2

> <Gold.PLP.Fitness>
40.7494

> <Gold.PLP.PLP>
-26.9796

> <Gold.PLP.part.hbond>
-3.0000

> <Gold.PLP.part.metal>
0.0000

> <Gold.PLP.part.buried>
-2.7237

> <Gold.PLP.part.nonpolar>
-23.4984

> <Gold.PLP.part.repulsive>
1.9198

> <Gold.PLP.ligand.clash>
0.0000

> <Gold.PLP.ligand.torsion>
0.6478

> <Gold.PLP.Chemscore.Hbond>
4.0000

> <Gold.PLP.Chemscore.CHOScore>
1.0000

> <Gold.PLP.Chemscore.Metal>
0.0000

> <Gold.Chemscore.Hbonds>
donor molecule, donor type, donor heavy atom, donor atom, acceptor molecule, acceptor atom, score
      L1  H     3    23       P1  7957  1.00
      L1  H     3    41       P1  7948  2.00
      P1  H  7989  7998       L1    12  1.00
      L1  C     7    28       P1 10171  1.00

> <Gold.PLP.Chemscore.Internal.Correction>
0.0655

> <Gold.Rescore>
     Score         DG    S(hbond)    S(metal)    S(lipo)     H(rot)  DE(clash)    DE(int)     intcor
     16.00     -16.68       2.94        0.00      51.17       1.79       0.00       0.67       ----

> <Gold.Chemscore.Fitness>
16.0032

> <Gold.Chemscore.DG>
-16.6815

> <Gold.Chemscore.ZeroCoef>
-5.4800

> <Gold.Chemscore.Hbond>
2.9352

> <Gold.Chemscore.Metal>
0.0000

> <Gold.Chemscore.Lipo>
51.1740

> <Gold.Chemscore.Internal_Hbond>
0.0000

> <Gold.Chemscore.DEClash>
0.0048

> <Gold.Chemscore.DEInternal>
0.6736

> <Gold.Chemscore.Rot>
1.7928

> <Gold.Chemscore.Internal.Correction>
   9.000000E+99

> <Gold.Chemscore.Hbonds>
donor molecule, donor type, donor heavy atom, donor atom, acceptor molecule, acceptor atom, score
      L1  H     3    23       P1  7957  0.99
      L1  H     3    41       P1  7948  1.00
      P1  H  7989  7998       L1    12  0.95

> <Gold.Chemscore.Hbond.Weighted>
-9.8036

> <Gold.Chemscore.Metal.Weighted>
-0.0000

> <Gold.Chemscore.Lipo.Weighted>
-5.9874

> <Gold.Chemscore.Internal_Hbond.Weighted>
0.0000

> <Gold.Chemscore.DEClash.Weighted>
0.0048

> <Gold.Chemscore.DEInternal.Weighted>
0.6736

> <Gold.Chemscore.Rot.Weighted>
4.5895

> <Gold.Chemscore.Internal.Correction.Weighted>
   9.000000E+99

> <Gold.Protein.RotatedTorsions>
[ 6907 6896 6895 6894 ] final -136.03 input  -60.11 | X-H torsion
[ 7974 7965 7964 7962 ] final  -17.06 input  175.53 | X-H torsion
[ 8008 7997 7996 7995 ] final   -9.43 input   59.86 | X-H torsion
[ 10167 10162 10161 10158 ] final  152.17 input  -65.29 | X-H torsion
[ 10718 10713 10712 10709 ] final -131.03 input   66.30 | X-H torsion
[ 10763 10752 10751 10750 ] final   41.77 input  -60.55 | X-H torsion
[ 11005 11000 10999 10996 ] final   86.40 input  -57.11 | X-H torsion

> <Gold.Protein.ActiveResidues>
 VAL166  LYS551  ARG553  GLY616  TRP617  ASP618  TYR619  PRO620  LYS621  CYS622 
 ASP623  PHE694  ASN695  SER759  ASP760  ASP761  ALA762  ILE779  LEU786  VAL792 
 PHE793  MET794  SER795  GLU796  ALA797  LYS798  CYS799  TRP800  GLU811  SER814 

> <Gold.Protein.RotatedAtoms>
  151.0051  133.6019  159.2689 H   0  0  0  0  0  0  0  0  0  0  0  0  # atno 6907 bound_to 6896
  151.3191  135.0813  159.9309 H   0  0  0  0  0  0  0  0  0  0  0  0  # atno 6908 bound_to 6896
  152.5284  133.9701  159.7812 H   0  0  0  0  0  0  0  0  0  0  0  0  # atno 6909 bound_to 6896
  146.1958  140.3726  142.8441 H   0  0  0  0  0  0  0  0  0  0  0  0  # atno 7974 bound_to 7965
  154.5647  140.2355  155.8281 H   0  0  0  0  0  0  0  0  0  0  0  0  # atno 8008 bound_to 7997
  156.2059  140.3040  155.9584 H   0  0  0  0  0  0  0  0  0  0  0  0  # atno 8009 bound_to 7997
  155.2823  140.0423  157.3007 H   0  0  0  0  0  0  0  0  0  0  0  0  # atno 8010 bound_to 7997
  139.4835  144.5380  151.7612 H   0  0  0  0  0  0  0  0  0  0  0  0  # atno 10167 bound_to 10162
  156.2204  130.6974  151.0749 H   0  0  0  0  0  0  0  0  0  0  0  0  # atno 10718 bound_to 10713
  152.9899  135.6152  154.2841 H   0  0  0  0  0  0  0  0  0  0  0  0  # atno 10763 bound_to 10752
  154.2569  135.2783  155.2795 H   0  0  0  0  0  0  0  0  0  0  0  0  # atno 10764 bound_to 10752
  154.5239  135.5807  153.6760 H   0  0  0  0  0  0  0  0  0  0  0  0  # atno 10765 bound_to 10752
  139.8945  134.8353  156.2715 H   0  0  0  0  0  0  0  0  0  0  0  0  # atno 11005 bound_to 11000
  144.8579  140.7096  143.6126 LP  0  0  0  0  0  0  0  0  0  0  0  0  # atno 17320 bound_to 7965
  145.3646  139.1673  143.4365 LP  0  0  0  0  0  0  0  0  0  0  0  0  # atno 17321 bound_to 7965
  140.4916  144.1302  150.5951 LP  0  0  0  0  0  0  0  0  0  0  0  0  # atno 17342 bound_to 10162
  140.4165  143.2632  151.9769 LP  0  0  0  0  0  0  0  0  0  0  0  0  # atno 17343 bound_to 10162
  157.7084  131.0745  150.6586 LP  0  0  0  0  0  0  0  0  0  0  0  0  # atno 17370 bound_to 10713
  156.6649  130.4523  149.5676 LP  0  0  0  0  0  0  0  0  0  0  0  0  # atno 17371 bound_to 10713
  141.0097  133.7102  156.1092 LP  0  0  0  0  0  0  0  0  0  0  0  0  # atno 17394 bound_to 11000
  140.7384  134.4177  157.5558 LP  0  0  0  0  0  0  0  0  0  0  0  0  # atno 17395 bound_to 11000

$$$$
