AV-unprocessed.smi:2445|AV-procd|sdf|9634|dock1
  -GOLD-   2272013263D 1   1.00000     0.00000
 Structure written by MMmdl.
 40 41  0  0  0  0  0  0  0  0  1 V2000
  145.8634  131.6435  149.2585 C   0  0  0  0  0  0  0  0  0  0  0  0
  145.8243  132.6885  150.3214 C   0  0  0  0  0  0  0  0  0  0  0  0
  146.8706  133.1608  151.0742 C   0  0  0  0  0  0  0  0  0  0  0  0
  146.5047  134.1467  151.9931 N   0  0  0  0  0  0  0  0  0  0  0  0
  145.1994  134.4287  151.9488 C   0  0  0  0  0  0  0  0  0  0  0  0
  144.5378  135.4475  152.8229 C   0  0  1  0  0  0  0  0  0  0  0  0
  144.7201  135.1177  154.3147 C   0  0  0  0  0  0  0  0  0  0  0  0
  144.9549  136.8828  152.4346 C   0  0  0  0  0  0  0  0  0  0  0  0
  146.3302  137.1935  152.8114 N   0  0  0  0  0  0  0  0  0  0  0  0
  146.6993  138.2118  153.5999 C   0  0  0  0  0  0  0  0  0  0  0  0
  145.9146  139.0231  154.0916 O   0  0  0  0  0  0  0  0  0  0  0  0
  148.0243  138.2311  153.7968 N   0  0  0  0  0  0  0  0  0  0  0  0
  148.7323  139.1917  154.6370 C   0  0  2  0  0  0  0  0  0  0  0  0
  148.3880  140.6194  154.2662 C   0  0  0  0  0  0  0  0  0  0  0  0
  149.6052  141.3893  154.7708 C   0  0  0  0  0  0  0  0  0  0  0  0
  150.6990  140.4774  154.7340 O   0  0  0  0  0  0  0  0  0  0  0  0
  150.2454  139.1724  154.3894 C   0  0  1  0  0  0  0  0  0  0  0  0
  151.0105  138.1161  155.1957 C   0  0  0  0  0  0  0  0  0  0  0  0
  144.3294  133.4785  150.7492 S   0  0  0  0  0  0  0  0  0  0  0  0
  146.8740  131.2567  149.1243 H   0  0  0  0  0  0  0  0  0  0  0  0
  145.5291  132.0504  148.3040 H   0  0  0  0  0  0  0  0  0  0  0  0
  145.2142  130.8065  149.5158 H   0  0  0  0  0  0  0  0  0  0  0  0
  147.9046  132.8532  151.0221 H   0  0  0  0  0  0  0  0  0  0  0  0
  143.4690  135.3630  152.6220 H   0  0  0  0  0  0  0  0  0  0  0  0
  144.3700  134.1091  154.5361 H   0  0  0  0  0  0  0  0  0  0  0  0
  144.1574  135.8024  154.9494 H   0  0  0  0  0  0  0  0  0  0  0  0
  145.7686  135.1779  154.6078 H   0  0  0  0  0  0  0  0  0  0  0  0
  144.8661  137.0177  151.3563 H   0  0  0  0  0  0  0  0  0  0  0  0
  144.2801  137.6089  152.8915 H   0  0  0  0  0  0  0  0  0  0  0  0
  147.0488  136.5801  152.4558 H   0  0  0  0  0  0  0  0  0  0  0  0
  148.5832  137.5199  153.3484 H   0  0  0  0  0  0  0  0  0  0  0  0
  148.5151  139.0381  155.6962 H   0  0  0  0  0  0  0  0  0  0  0  0
  148.3118  140.7259  153.1828 H   0  0  0  0  0  0  0  0  0  0  0  0
  147.4534  140.9650  154.7085 H   0  0  0  0  0  0  0  0  0  0  0  0
  149.8084  142.2783  154.1736 H   0  0  0  0  0  0  0  0  0  0  0  0
  149.4547  141.7041  155.8041 H   0  0  0  0  0  0  0  0  0  0  0  0
  150.4425  139.0356  153.3245 H   0  0  0  0  0  0  0  0  0  0  0  0
  150.6933  137.1086  154.9266 H   0  0  0  0  0  0  0  0  0  0  0  0
  150.8498  138.2439  156.2663 H   0  0  0  0  0  0  0  0  0  0  0  0
  152.0822  138.1859  155.0084 H   0  0  0  0  0  0  0  0  0  0  0  0
  1  2  1  0  0  0  0
  1 20  1  0  0  0  0
  1 21  1  0  0  0  0
  1 22  1  0  0  0  0
  2 19  1  0  0  0  0
  2  3  2  0  0  0  0
  3  4  1  0  0  0  0
  3 23  1  0  0  0  0
  4  5  2  0  0  0  0
  5  6  1  0  0  0  0
  5 19  1  0  0  0  0
  6  7  1  0  0  0  0
  6  8  1  0  0  0  0
  6 24  1  0  0  0  0
  7 25  1  0  0  0  0
  7 26  1  0  0  0  0
  7 27  1  0  0  0  0
  8  9  1  0  0  0  0
  8 28  1  0  0  0  0
  8 29  1  0  0  0  0
  9 10  1  0  0  0  0
  9 30  1  0  0  0  0
 10 11  2  0  0  0  0
 10 12  1  0  0  0  0
 12 13  1  0  0  0  0
 12 31  1  0  0  0  0
 13 17  1  0  0  0  0
 13 14  1  0  0  0  0
 13 32  1  0  0  0  0
 14 15  1  0  0  0  0
 14 33  1  0  0  0  0
 14 34  1  0  0  0  0
 15 16  1  0  0  0  0
 15 35  1  0  0  0  0
 15 36  1  0  0  0  0
 16 17  1  0  0  0  0
 17 18  1  0  0  0  0
 17 37  1  0  0  0  0
 18 38  1  0  0  0  0
 18 39  1  0  0  0  0
 18 40  1  0  0  0  0
M  END
> <s_m_source_file>
AV-unprocessed.smi

> <i_m_source_file_index>
2445

> <i_lp_mmshare_version>
43012

> <i_f3d_flags>
0

> <s_epik_input>
W0NIM11jMVtjSF1uYyhzMSlbQ0BIXShbQ0gzXSlbQ0gyXVtOSF1DKD1PKVtOSF1bQ0BASF0yW0NIMl1bQ0gyXU9bQ0BIXTJbQ0gzXQ==

> <s_epik_cmdline>
J2VwaWtfcHl0aG9uJywgJy1waCcsICc3LjAnLCAnLXRuJywgJzgnLCAnLW1hJywgJzIwMCcsICctbWV0YWxfYmluZGluZycsICctaW1hZScsICc8aW5maWxlLm1hZT4nLCAnLW9tYWUnLCAnPG91dGZpbGUubWFlPic=

> <r_epik_Ionization_Penalty>
0.000649483

> <r_epik_Ionization_Penalty_Charging>
0

> <r_epik_Ionization_Penalty_Neutral>
0.000649483

> <r_epik_State_Penalty>
0.000379895

> <r_epik_Charging_Adjusted_Penalty>
0.000379895

> <i_epik_Tot_Q>
0

> <i_epik_Tot_abs_Q>
0

> <r_epik_Metal_State_Penalty>
-0

> <b_epik_Metal_Only>
0

> <s_lp_Force_Field>
OPLS_2005

> <r_lp_Energy>
5.33919

> <b_lp_Chiralities_Consistent>
1

> <s_lp_Variant>
AV-unprocessed.smi:2445-2

> <Gold.Version>
5.8.1

> <Gold.Id.Protein>
6NUR|6NUR_protein|mol2

> <Gold.PLP.Fitness>
42.9826

> <Gold.PLP.PLP>
-31.3392

> <Gold.PLP.part.hbond>
-3.0000

> <Gold.PLP.part.metal>
0.0000

> <Gold.PLP.part.buried>
-3.3837

> <Gold.PLP.part.nonpolar>
-24.5826

> <Gold.PLP.part.repulsive>
0.5739

> <Gold.PLP.ligand.clash>
0.0000

> <Gold.PLP.ligand.torsion>
0.2534

> <Gold.PLP.Chemscore.Hbond>
3.0000

> <Gold.PLP.Chemscore.CHOScore>
1.0000

> <Gold.PLP.Chemscore.Metal>
0.0000

> <Gold.Chemscore.Hbonds>
donor molecule, donor type, donor heavy atom, donor atom, acceptor molecule, acceptor atom, score
      L1  H     9    30       P1  7948  1.00
      L1  H    12    31       P1  7948  1.00
      P1  H  7989  7998       L1    16  1.00
      L1  C     3    23       P1 10747  1.00

> <Gold.PLP.Chemscore.Internal.Correction>
0.1503

> <Gold.Rescore>
     Score         DG    S(hbond)    S(metal)    S(lipo)     H(rot)  DE(clash)    DE(int)     intcor
     17.38     -19.10       2.18        0.00      87.57       1.53       0.36       1.36       ----

> <Gold.Chemscore.Fitness>
17.3773

> <Gold.Chemscore.DG>
-19.0996

> <Gold.Chemscore.ZeroCoef>
-5.4800

> <Gold.Chemscore.Hbond>
2.1846

> <Gold.Chemscore.Metal>
0.0000

> <Gold.Chemscore.Lipo>
87.5746

> <Gold.Chemscore.Internal_Hbond>
0.0000

> <Gold.Chemscore.DEClash>
0.3643

> <Gold.Chemscore.DEInternal>
1.3579

> <Gold.Chemscore.Rot>
1.5325

> <Gold.Chemscore.Internal.Correction>
   9.000000E+99

> <Gold.Chemscore.Hbonds>
donor molecule, donor type, donor heavy atom, donor atom, acceptor molecule, acceptor atom, score
      L1  H     9    30       P1  7948  0.91
      L1  H    12    31       P1  7948  0.94
      P1  H  7989  7998       L1    16  0.25

> <Gold.Chemscore.Hbond.Weighted>
-7.2967

> <Gold.Chemscore.Metal.Weighted>
-0.0000

> <Gold.Chemscore.Lipo.Weighted>
-10.2462

> <Gold.Chemscore.Internal_Hbond.Weighted>
0.0000

> <Gold.Chemscore.DEClash.Weighted>
0.3643

> <Gold.Chemscore.DEInternal.Weighted>
1.3579

> <Gold.Chemscore.Rot.Weighted>
3.9233

> <Gold.Chemscore.Internal.Correction.Weighted>
   9.000000E+99

> <Gold.Protein.RotatedTorsions>
[ 6907 6896 6895 6894 ] final  165.19 input  -60.11 | X-H torsion
[ 7974 7965 7964 7962 ] final  104.41 input  175.53 | X-H torsion
[ 8008 7997 7996 7995 ] final -138.42 input   59.86 | X-H torsion
[ 10167 10162 10161 10158 ] final -113.32 input  -65.29 | X-H torsion
[ 10718 10713 10712 10709 ] final   40.77 input   66.30 | X-H torsion
[ 10763 10752 10751 10750 ] final  104.01 input  -60.55 | X-H torsion
[ 11005 11000 10999 10996 ] final -118.77 input  -57.11 | X-H torsion

> <Gold.Protein.ActiveResidues>
 VAL166  LYS551  ARG553  GLY616  TRP617  ASP618  TYR619  PRO620  LYS621  CYS622 
 ASP623  PHE694  ASN695  SER759  ASP760  ASP761  ALA762  ILE779  LEU786  VAL792 
 PHE793  MET794  SER795  GLU796  ALA797  LYS798  CYS799  TRP800  GLU811  SER814 

> <Gold.Protein.RotatedAtoms>
  151.8983  133.3532  159.3821 H   0  0  0  0  0  0  0  0  0  0  0  0  # atno 6907 bound_to 6896
  150.7086  134.4854  159.5499 H   0  0  0  0  0  0  0  0  0  0  0  0  # atno 6908 bound_to 6896
  152.2437  134.8203  160.0507 H   0  0  0  0  0  0  0  0  0  0  0  0  # atno 6909 bound_to 6896
  145.3331  139.2481  143.3650 H   0  0  0  0  0  0  0  0  0  0  0  0  # atno 7974 bound_to 7965
  155.4280  140.0523  157.3020 H   0  0  0  0  0  0  0  0  0  0  0  0  # atno 8008 bound_to 7997
  154.4872  140.2105  155.9586 H   0  0  0  0  0  0  0  0  0  0  0  0  # atno 8009 bound_to 7997
  156.1292  140.3175  155.8328 H   0  0  0  0  0  0  0  0  0  0  0  0  # atno 8010 bound_to 7997
  140.1131  143.4509  152.1739 H   0  0  0  0  0  0  0  0  0  0  0  0  # atno 10167 bound_to 10162
  157.3860  130.7780  149.7231 H   0  0  0  0  0  0  0  0  0  0  0  0  # atno 10718 bound_to 10713
  153.3603  135.3957  155.1713 H   0  0  0  0  0  0  0  0  0  0  0  0  # atno 10763 bound_to 10752
  154.8678  135.3678  154.5108 H   0  0  0  0  0  0  0  0  0  0  0  0  # atno 10764 bound_to 10752
  153.5567  135.7082  153.5626 H   0  0  0  0  0  0  0  0  0  0  0  0  # atno 10765 bound_to 10752
  141.0263  134.0049  157.3210 H   0  0  0  0  0  0  0  0  0  0  0  0  # atno 11005 bound_to 11000
  146.3037  140.3913  142.8694 LP  0  0  0  0  0  0  0  0  0  0  0  0  # atno 17320 bound_to 7965
  144.8848  140.7448  143.5963 LP  0  0  0  0  0  0  0  0  0  0  0  0  # atno 17321 bound_to 7965
  139.5608  144.7404  151.4160 LP  0  0  0  0  0  0  0  0  0  0  0  0  # atno 17342 bound_to 10162
  140.6914  143.7852  150.7261 LP  0  0  0  0  0  0  0  0  0  0  0  0  # atno 17343 bound_to 10162
  155.9787  130.4048  150.3634 LP  0  0  0  0  0  0  0  0  0  0  0  0  # atno 17370 bound_to 10713
  157.1744  131.0376  151.2779 LP  0  0  0  0  0  0  0  0  0  0  0  0  # atno 17371 bound_to 10713
  139.9178  135.0198  156.7948 LP  0  0  0  0  0  0  0  0  0  0  0  0  # atno 17394 bound_to 11000
  140.6486  133.9752  155.7743 LP  0  0  0  0  0  0  0  0  0  0  0  0  # atno 17395 bound_to 11000

$$$$
