AV-unprocessed.smi:2032|AV-procd|sdf|8245|dock9
  -GOLD-   2272010513D 1   1.00000     0.00000
 Structure written by MMmdl.
 41 42  0  0  0  0  0  0  0  0  2 V2000
  149.4546  141.5667  156.1762 C   0  0  0  0  0  0  0  0  0  0  0  0
  149.5015  141.2077  154.6810 C   0  0  2  0  0  0  0  0  0  0  0  0
  148.1259  140.8209  154.1023 C   0  0  0  0  0  0  0  0  0  0  0  0
  147.6618  139.4921  154.5179 N   0  0  0  0  0  0  0  0  0  0  0  0
  146.3494  139.1412  153.9236 C   0  0  2  0  0  0  0  0  0  0  0  0
  145.5300  138.1732  154.8154 C   0  0  0  0  0  0  0  0  0  0  0  0
  146.4605  138.5364  152.4926 C   0  0  0  0  0  0  0  0  0  0  0  0
  146.5554  137.0782  152.4784 N   0  0  0  0  0  0  0  0  0  0  0  0
  145.5240  136.2216  152.4732 C   0  0  0  0  0  0  0  0  0  0  0  0
  144.3677  136.6506  152.4647 O   0  0  0  0  0  0  0  0  0  0  0  0
  145.8973  134.9217  152.4835 N   0  5  0  0  0  0  0  0  0  0  0  0
  145.4474  134.0843  151.5350 C   0  0  0  0  0  0  0  0  0  0  0  0
  144.1633  134.0243  151.1636 N   0  0  0  0  0  0  0  0  0  0  0  0
  143.9206  133.0920  150.1532 C   0  0  0  0  0  0  0  0  0  0  0  0
  145.0475  132.4330  149.7389 C   0  0  0  0  0  0  0  0  0  0  0  0
  146.4557  132.9658  150.6123 S   0  0  0  0  0  0  0  0  0  0  0  0
  148.7130  138.5256  154.1872 C   0  0  0  0  0  0  0  0  0  0  0  0
  150.0728  138.8819  154.8149 C   0  0  1  0  0  0  0  0  0  0  0  0
  151.1761  137.9072  154.3895 C   0  0  0  0  0  0  0  0  0  0  0  0
  150.4606  140.1894  154.4072 O   0  0  0  0  0  0  0  0  0  0  0  0
  148.8086  142.4280  156.3469 H   0  0  0  0  0  0  0  0  0  0  0  0
  150.4477  141.8205  156.5467 H   0  0  0  0  0  0  0  0  0  0  0  0
  149.0693  140.7477  156.7831 H   0  0  0  0  0  0  0  0  0  0  0  0
  149.8459  142.0976  154.1535 H   0  0  0  0  0  0  0  0  0  0  0  0
  147.4204  141.5920  154.4058 H   0  0  0  0  0  0  0  0  0  0  0  0
  148.1787  140.8585  153.0130 H   0  0  0  0  0  0  0  0  0  0  0  0
  145.7675  140.0600  153.8375 H   0  0  0  0  0  0  0  0  0  0  0  0
  144.5880  137.8780  154.3544 H   0  0  0  0  0  0  0  0  0  0  0  0
  145.2465  138.6241  155.7650 H   0  0  0  0  0  0  0  0  0  0  0  0
  146.0905  137.2622  155.0262 H   0  0  0  0  0  0  0  0  0  0  0  0
  145.6055  138.7966  151.8702 H   0  0  0  0  0  0  0  0  0  0  0  0
  147.3414  138.9359  151.9895 H   0  0  0  0  0  0  0  0  0  0  0  0
  147.4841  136.6829  152.4840 H   0  0  0  0  0  0  0  0  0  0  0  0
  142.9131  132.9645  149.7865 H   0  0  0  0  0  0  0  0  0  0  0  0
  145.1358  131.6730  148.9775 H   0  0  0  0  0  0  0  0  0  0  0  0
  148.4528  137.5346  154.5525 H   0  0  0  0  0  0  0  0  0  0  0  0
  148.8152  138.4477  153.1037 H   0  0  0  0  0  0  0  0  0  0  0  0
  149.9906  138.8496  155.9016 H   0  0  0  0  0  0  0  0  0  0  0  0
  150.9367  136.8874  154.6920 H   0  0  0  0  0  0  0  0  0  0  0  0
  152.1294  138.1737  154.8465 H   0  0  0  0  0  0  0  0  0  0  0  0
  151.3117  137.9126  153.3076 H   0  0  0  0  0  0  0  0  0  0  0  0
  1  2  1  0  0  0  0
  1 21  1  0  0  0  0
  1 22  1  0  0  0  0
  1 23  1  0  0  0  0
  2 20  1  0  0  0  0
  2  3  1  0  0  0  0
  2 24  1  0  0  0  0
  3  4  1  0  0  0  0
  3 25  1  0  0  0  0
  3 26  1  0  0  0  0
  4  5  1  0  0  0  0
  4 17  1  0  0  0  0
  5  6  1  0  0  0  0
  5  7  1  0  0  0  0
  5 27  1  0  0  0  0
  6 28  1  0  0  0  0
  6 29  1  0  0  0  0
  6 30  1  0  0  0  0
  7  8  1  0  0  0  0
  7 31  1  0  0  0  0
  7 32  1  0  0  0  0
  8  9  1  0  0  0  0
  8 33  1  0  0  0  0
  9 10  2  0  0  0  0
  9 11  1  0  0  0  0
 11 12  1  0  0  0  0
 12 16  1  0  0  0  0
 12 13  2  0  0  0  0
 13 14  1  0  0  0  0
 14 15  2  0  0  0  0
 14 34  1  0  0  0  0
 15 16  1  0  0  0  0
 15 35  1  0  0  0  0
 17 18  1  0  0  0  0
 17 36  1  0  0  0  0
 17 37  1  0  0  0  0
 18 19  1  0  0  0  0
 18 20  1  0  0  0  0
 18 38  1  0  0  0  0
 19 39  1  0  0  0  0
 19 40  1  0  0  0  0
 19 41  1  0  0  0  0
M  CHG  1  11  -1
M  END
> <s_m_source_file>
AV-unprocessed.smi

> <i_m_source_file_index>
2032

> <i_lp_mmshare_version>
43012

> <i_f3d_flags>
0

> <s_epik_input>
W0NIM11bQ0BASF0xW0NIMl1OKFtDSDJdW0NASF0oTzEpW0NIM10pW0NASF0oW0NIM10pW0NIMl1bTkhdQyg9TylbTkhdYzJuW2NIXVtjSF1zMg==

> <s_epik_cmdline>
J2VwaWtfcHl0aG9uJywgJy1waCcsICc3LjAnLCAnLXRuJywgJzgnLCAnLW1hJywgJzIwMCcsICctbWV0YWxfYmluZGluZycsICctaW1hZScsICc8aW5maWxlLm1hZT4nLCAnLW9tYWUnLCAnPG91dGZpbGUubWFlPic=

> <r_lp_tautomer_probability>
0.999

> <r_epik_Ionization_Penalty>
7.22375

> <r_epik_Ionization_Penalty_Charging>
5.82415

> <r_epik_Ionization_Penalty_Neutral>
1.39959

> <r_epik_State_Penalty>
6.03347

> <r_epik_Charging_Adjusted_Penalty>
11.8576

> <i_epik_Tot_Q>
-1

> <i_epik_Tot_abs_Q>
1

> <r_epik_Metal_State_Penalty>
2.01024

> <b_epik_Metal_Only>
1

> <s_lp_Force_Field>
OPLS_2005

> <r_lp_Energy>
26.7208

> <b_lp_Chiralities_Consistent>
1

> <s_lp_Variant>
AV-unprocessed.smi:2032-15

> <Gold.Version>
5.8.1

> <Gold.Id.Protein>
6NUR|6NUR_protein|mol2

> <Gold.PLP.Fitness>
37.9564

> <Gold.PLP.PLP>
-32.9236

> <Gold.PLP.part.hbond>
-1.9729

> <Gold.PLP.part.metal>
0.0000

> <Gold.PLP.part.buried>
-4.2827

> <Gold.PLP.part.nonpolar>
-28.7572

> <Gold.PLP.part.repulsive>
0.6925

> <Gold.PLP.ligand.clash>
0.0000

> <Gold.PLP.ligand.torsion>
2.0110

> <Gold.PLP.Chemscore.Hbond>
2.0000

> <Gold.PLP.Chemscore.CHOScore>
1.0000

> <Gold.PLP.Chemscore.Metal>
0.0000

> <Gold.Chemscore.Hbonds>
donor molecule, donor type, donor heavy atom, donor atom, acceptor molecule, acceptor atom, score
      L1  H     8    33       P1  7948  1.00
      P1  H  7989  7998       L1    20  1.00
      L1  C    14    34       P1 10186  1.00

> <Gold.PLP.Chemscore.Internal.Correction>
0.0548

> <Gold.Rescore>
     Score         DG    S(hbond)    S(metal)    S(lipo)     H(rot)  DE(clash)    DE(int)     intcor
     13.50     -16.85       1.91        0.00      76.32       1.54       0.02       3.32       ----

> <Gold.Chemscore.Fitness>
13.4987

> <Gold.Chemscore.DG>
-16.8456

> <Gold.Chemscore.ZeroCoef>
-5.4800

> <Gold.Chemscore.Hbond>
1.9122

> <Gold.Chemscore.Metal>
0.0000

> <Gold.Chemscore.Lipo>
76.3169

> <Gold.Chemscore.Internal_Hbond>
0.0000

> <Gold.Chemscore.DEClash>
0.0230

> <Gold.Chemscore.DEInternal>
3.3239

> <Gold.Chemscore.Rot>
1.5431

> <Gold.Chemscore.Internal.Correction>
   9.000000E+99

> <Gold.Chemscore.Hbonds>
donor molecule, donor type, donor heavy atom, donor atom, acceptor molecule, acceptor atom, score
      L1  H     8    33       P1  7948  0.98
      P1  H  7989  7998       L1    20  0.59

> <Gold.Chemscore.Hbond.Weighted>
-6.3868

> <Gold.Chemscore.Metal.Weighted>
-0.0000

> <Gold.Chemscore.Lipo.Weighted>
-8.9291

> <Gold.Chemscore.Internal_Hbond.Weighted>
0.0000

> <Gold.Chemscore.DEClash.Weighted>
0.0230

> <Gold.Chemscore.DEInternal.Weighted>
3.3239

> <Gold.Chemscore.Rot.Weighted>
3.9503

> <Gold.Chemscore.Internal.Correction.Weighted>
   9.000000E+99

> <Gold.Protein.RotatedTorsions>
[ 6907 6896 6895 6894 ] final -110.96 input  -60.11 | X-H torsion
[ 7974 7965 7964 7962 ] final   85.66 input  175.53 | X-H torsion
[ 8008 7997 7996 7995 ] final -179.76 input   59.86 | X-H torsion
[ 10167 10162 10161 10158 ] final  -92.05 input  -65.29 | X-H torsion
[ 10718 10713 10712 10709 ] final  106.50 input   66.30 | X-H torsion
[ 10763 10752 10751 10750 ] final   33.95 input  -60.55 | X-H torsion
[ 11005 11000 10999 10996 ] final  115.45 input  -57.11 | X-H torsion

> <Gold.Protein.ActiveResidues>
 VAL166  LYS551  ARG553  GLY616  TRP617  ASP618  TYR619  PRO620  LYS621  CYS622 
 ASP623  PHE694  ASN695  SER759  ASP760  ASP761  ALA762  ILE779  LEU786  VAL792 
 PHE793  MET794  SER795  GLU796  ALA797  LYS798  CYS799  TRP800  GLU811  SER814 

> <Gold.Protein.RotatedAtoms>
  150.7659  133.9305  159.3425 H   0  0  0  0  0  0  0  0  0  0  0  0  # atno 6907 bound_to 6896
  151.7202  135.0893  160.0292 H   0  0  0  0  0  0  0  0  0  0  0  0  # atno 6908 bound_to 6896
  152.3654  133.6312  159.6082 H   0  0  0  0  0  0  0  0  0  0  0  0  # atno 6909 bound_to 6896
  145.5826  139.2327  143.2344 H   0  0  0  0  0  0  0  0  0  0  0  0  # atno 7974 bound_to 7965
  156.0342  140.1289  157.0226 H   0  0  0  0  0  0  0  0  0  0  0  0  # atno 8008 bound_to 7997
  154.4363  140.1043  156.6213 H   0  0  0  0  0  0  0  0  0  0  0  0  # atno 8009 bound_to 7997
  155.5762  140.3467  155.4530 H   0  0  0  0  0  0  0  0  0  0  0  0  # atno 8010 bound_to 7997
  140.3388  143.2954  151.9859 H   0  0  0  0  0  0  0  0  0  0  0  0  # atno 10167 bound_to 10162
  157.6666  131.0852  150.6015 H   0  0  0  0  0  0  0  0  0  0  0  0  # atno 10718 bound_to 10713
  153.0187  135.6373  154.1591 H   0  0  0  0  0  0  0  0  0  0  0  0  # atno 10763 bound_to 10752
  154.1328  135.2839  155.3182 H   0  0  0  0  0  0  0  0  0  0  0  0  # atno 10764 bound_to 10752
  154.6182  135.5534  153.7608 H   0  0  0  0  0  0  0  0  0  0  0  0  # atno 10765 bound_to 10752
  139.9010  134.9584  156.7047 H   0  0  0  0  0  0  0  0  0  0  0  0  # atno 11005 bound_to 11000
  146.1705  140.6652  142.9235 LP  0  0  0  0  0  0  0  0  0  0  0  0  # atno 17320 bound_to 7965
  144.7387  140.4882  143.6885 LP  0  0  0  0  0  0  0  0  0  0  0  0  # atno 17321 bound_to 7965
  139.4844  144.6174  151.7320 LP  0  0  0  0  0  0  0  0  0  0  0  0  # atno 17342 bound_to 10162
  140.5329  144.0702  150.6060 LP  0  0  0  0  0  0  0  0  0  0  0  0  # atno 17343 bound_to 10162
  156.6316  130.4433  149.5784 LP  0  0  0  0  0  0  0  0  0  0  0  0  # atno 17370 bound_to 10713
  156.2277  130.6776  151.1433 LP  0  0  0  0  0  0  0  0  0  0  0  0  # atno 17371 bound_to 10713
  140.7123  133.9213  155.8092 LP  0  0  0  0  0  0  0  0  0  0  0  0  # atno 17394 bound_to 11000
  141.0291  134.0781  157.4035 LP  0  0  0  0  0  0  0  0  0  0  0  0  # atno 17395 bound_to 11000

$$$$
