AV-unprocessed.smi:569|AV-procd|sdf|2960|dock4
  -GOLD-   2262023463D 1   1.00000     0.00000
 Structure written by MMmdl.
 37 38  0  0  0  0  0  0  0  0  1 V2000
  147.1601  140.2808  153.4305 C   0  0  0  0  0  0  0  0  0  0  0  0
  146.9274  141.0953  154.6566 C   0  0  0  0  0  0  0  0  0  0  0  0
  147.6603  140.9821  155.7669 N   0  0  0  0  0  0  0  0  0  0  0  0
  147.2467  141.8549  156.7786 C   0  0  0  0  0  0  0  0  0  0  0  0
  147.9718  141.8768  158.0943 C   0  0  0  0  0  0  0  0  0  0  0  0
  149.4810  141.9466  157.8568 C   0  0  0  0  0  0  0  0  0  0  0  0
  150.0684  141.0072  157.3209 O   0  0  0  0  0  0  0  0  0  0  0  0
  150.0900  143.0766  158.2477 N   0  0  0  0  0  0  0  0  0  0  0  0
  151.4922  143.4168  158.0209 C   0  0  2  0  0  0  0  0  0  0  0  0
  152.4000  142.3249  158.6179 C   0  0  0  0  0  0  0  0  0  0  0  0
  152.3516  142.3067  160.1572 C   0  0  0  0  0  0  0  0  0  0  0  0
  152.6942  143.6847  160.7566 C   0  0  2  0  0  0  0  0  0  0  0  0
  152.6208  143.6618  162.2898 C   0  0  0  0  0  0  0  0  0  0  0  0
  151.7800  144.7764  160.1674 C   0  0  0  0  0  0  0  0  0  0  0  0
  151.8352  144.7935  158.6292 C   0  0  0  0  0  0  0  0  0  0  0  0
  146.1707  142.6284  156.4160 C   0  0  0  0  0  0  0  0  0  0  0  0
  145.6530  142.3010  154.7856 S   0  0  0  0  0  0  0  0  0  0  0  0
  148.1808  139.8976  153.4143 H   0  0  0  0  0  0  0  0  0  0  0  0
  147.0031  140.8900  152.5402 H   0  0  0  0  0  0  0  0  0  0  0  0
  146.4684  139.4388  153.4064 H   0  0  0  0  0  0  0  0  0  0  0  0
  147.6615  142.7349  158.6916 H   0  0  0  0  0  0  0  0  0  0  0  0
  147.7374  140.9891  158.6839 H   0  0  0  0  0  0  0  0  0  0  0  0
  149.5217  143.7858  158.6871 H   0  0  0  0  0  0  0  0  0  0  0  0
  151.6655  143.4525  156.9439 H   0  0  0  0  0  0  0  0  0  0  0  0
  152.1217  141.3465  158.2242 H   0  0  0  0  0  0  0  0  0  0  0  0
  153.4275  142.4991  158.2961 H   0  0  0  0  0  0  0  0  0  0  0  0
  151.3601  141.9965  160.4898 H   0  0  0  0  0  0  0  0  0  0  0  0
  153.0469  141.5552  160.5325 H   0  0  0  0  0  0  0  0  0  0  0  0
  153.7221  143.9237  160.4802 H   0  0  0  0  0  0  0  0  0  0  0  0
  151.6130  143.4284  162.6348 H   0  0  0  0  0  0  0  0  0  0  0  0
  152.9014  144.6278  162.7104 H   0  0  0  0  0  0  0  0  0  0  0  0
  153.2968  142.9135  162.7045 H   0  0  0  0  0  0  0  0  0  0  0  0
  150.7520  144.6169  160.4963 H   0  0  0  0  0  0  0  0  0  0  0  0
  152.0737  145.7540  160.5509 H   0  0  0  0  0  0  0  0  0  0  0  0
  152.8375  145.0838  158.3124 H   0  0  0  0  0  0  0  0  0  0  0  0
  151.1647  145.5615  158.2418 H   0  0  0  0  0  0  0  0  0  0  0  0
  145.6607  143.3772  157.0035 H   0  0  0  0  0  0  0  0  0  0  0  0
  1  2  1  0  0  0  0
  1 18  1  0  0  0  0
  1 19  1  0  0  0  0
  1 20  1  0  0  0  0
  2 17  1  0  0  0  0
  2  3  2  0  0  0  0
  3  4  1  0  0  0  0
  4  5  1  0  0  0  0
  4 16  2  0  0  0  0
  5  6  1  0  0  0  0
  5 21  1  0  0  0  0
  5 22  1  0  0  0  0
  6  7  2  0  0  0  0
  6  8  1  0  0  0  0
  8  9  1  0  0  0  0
  8 23  1  0  0  0  0
  9 15  1  0  0  0  0
  9 10  1  0  0  0  0
  9 24  1  0  0  0  0
 10 11  1  0  0  0  0
 10 25  1  0  0  0  0
 10 26  1  0  0  0  0
 11 12  1  0  0  0  0
 11 27  1  0  0  0  0
 11 28  1  0  0  0  0
 12 13  1  0  0  0  0
 12 14  1  0  0  0  0
 12 29  1  0  0  0  0
 13 30  1  0  0  0  0
 13 31  1  0  0  0  0
 13 32  1  0  0  0  0
 14 15  1  0  0  0  0
 14 33  1  0  0  0  0
 14 34  1  0  0  0  0
 15 35  1  0  0  0  0
 15 36  1  0  0  0  0
 16 17  1  0  0  0  0
 16 37  1  0  0  0  0
M  END
> <s_m_source_file>
AV-unprocessed.smi

> <i_m_source_file_index>
569

> <i_lp_mmshare_version>
43012

> <i_f3d_flags>
0

> <s_epik_input>
W0NIM11jMW5jKFtjSF1zMSlbQ0gyXUMoPU8pW05IXVtDQEBIXTJbQ0gyXVtDSDJdW0NAQEhdKFtDSDNdKVtDSDJdW0NIMl0y

> <s_epik_cmdline>
J2VwaWtfcHl0aG9uJywgJy1waCcsICc3LjAnLCAnLXRuJywgJzgnLCAnLW1hJywgJzIwMCcsICctbWV0YWxfYmluZGluZycsICctaW1hZScsICc8aW5maWxlLm1hZT4nLCAnLW9tYWUnLCAnPG91dGZpbGUubWFlPic=

> <r_lp_tautomer_probability>
1

> <r_epik_Ionization_Penalty>
6.63234e-05

> <r_epik_Ionization_Penalty_Charging>
0

> <r_epik_Ionization_Penalty_Neutral>
6.63234e-05

> <r_epik_State_Penalty>
-0

> <r_epik_Charging_Adjusted_Penalty>
0

> <i_epik_Tot_Q>
0

> <i_epik_Tot_abs_Q>
0

> <r_epik_Metal_State_Penalty>
-0

> <b_epik_Metal_Only>
0

> <s_lp_Force_Field>
OPLS_2005

> <r_lp_Energy>
5.61603

> <b_lp_Chiralities_Consistent>
1

> <s_lp_Variant>
AV-unprocessed.smi:569-2

> <Gold.Version>
5.8.1

> <Gold.Id.Protein>
6NUR|6NUR_protein|mol2

> <Gold.PLP.Fitness>
36.8271

> <Gold.PLP.PLP>
-37.1629

> <Gold.PLP.part.hbond>
-0.2090

> <Gold.PLP.part.metal>
0.0000

> <Gold.PLP.part.buried>
-5.4155

> <Gold.PLP.part.nonpolar>
-31.4941

> <Gold.PLP.part.repulsive>
0.1780

> <Gold.PLP.ligand.clash>
0.0000

> <Gold.PLP.ligand.torsion>
0.1699

> <Gold.PLP.Chemscore.Hbond>
0.0000

> <Gold.PLP.Chemscore.CHOScore>
0.0000

> <Gold.PLP.Chemscore.Metal>
0.0000

> <Gold.PLP.Chemscore.Internal.Correction>
0.0042

> <Gold.Rescore>
     Score         DG    S(hbond)    S(metal)    S(lipo)     H(rot)  DE(clash)    DE(int)     intcor
     13.40     -15.03       0.00        0.00     109.22       1.26       0.26       1.37       ----

> <Gold.Chemscore.Fitness>
13.3971

> <Gold.Chemscore.DG>
-15.0283

> <Gold.Chemscore.ZeroCoef>
-5.4800

> <Gold.Chemscore.Hbond>
0.0000

> <Gold.Chemscore.Metal>
0.0000

> <Gold.Chemscore.Lipo>
109.2213

> <Gold.Chemscore.Internal_Hbond>
0.0000

> <Gold.Chemscore.DEClash>
0.2600

> <Gold.Chemscore.DEInternal>
1.3712

> <Gold.Chemscore.Rot>
1.2620

> <Gold.Chemscore.Internal.Correction>
   9.000000E+99

> <Gold.Chemscore.Hbond.Weighted>
-0.0000

> <Gold.Chemscore.Metal.Weighted>
-0.0000

> <Gold.Chemscore.Lipo.Weighted>
-12.7789

> <Gold.Chemscore.Internal_Hbond.Weighted>
0.0000

> <Gold.Chemscore.DEClash.Weighted>
0.2600

> <Gold.Chemscore.DEInternal.Weighted>
1.3712

> <Gold.Chemscore.Rot.Weighted>
3.2306

> <Gold.Chemscore.Internal.Correction.Weighted>
   9.000000E+99

> <Gold.Protein.RotatedTorsions>
[ 6907 6896 6895 6894 ] final   67.94 input  -60.11 | X-H torsion
[ 7974 7965 7964 7962 ] final   69.23 input  175.53 | X-H torsion
[ 8008 7997 7996 7995 ] final   46.77 input   59.86 | X-H torsion
[ 10167 10162 10161 10158 ] final   23.75 input  -65.29 | X-H torsion
[ 10718 10713 10712 10709 ] final   -0.91 input   66.30 | X-H torsion
[ 10763 10752 10751 10750 ] final -168.20 input  -60.55 | X-H torsion
[ 11005 11000 10999 10996 ] final  123.74 input  -57.11 | X-H torsion

> <Gold.Protein.ActiveResidues>
 VAL166  LYS551  ARG553  GLY616  TRP617  ASP618  TYR619  PRO620  LYS621  CYS622 
 ASP623  PHE694  ASN695  SER759  ASP760  ASP761  ALA762  ILE779  LEU786  VAL792 
 PHE793  MET794  SER795  GLU796  ALA797  LYS798  CYS799  TRP800  GLU811  SER814 

> <Gold.Protein.RotatedAtoms>
  152.4586  134.5235  159.9789 H   0  0  0  0  0  0  0  0  0  0  0  0  # atno 6907 bound_to 6896
  151.5290  133.3447  159.2922 H   0  0  0  0  0  0  0  0  0  0  0  0  # atno 6908 bound_to 6896
  150.8540  134.7903  159.7093 H   0  0  0  0  0  0  0  0  0  0  0  0  # atno 6909 bound_to 6896
  145.7930  139.2943  143.1199 H   0  0  0  0  0  0  0  0  0  0  0  0  # atno 7974 bound_to 7965
  155.3580  140.3417  155.4240 H   0  0  0  0  0  0  0  0  0  0  0  0  # atno 8008 bound_to 7997
  156.1728  140.1637  156.8451 H   0  0  0  0  0  0  0  0  0  0  0  0  # atno 8009 bound_to 7997
  154.5251  140.0758  156.8226 H   0  0  0  0  0  0  0  0  0  0  0  0  # atno 8010 bound_to 7997
  140.5244  143.9948  150.6433 H   0  0  0  0  0  0  0  0  0  0  0  0  # atno 10167 bound_to 10162
  156.8134  130.5432  149.5706 H   0  0  0  0  0  0  0  0  0  0  0  0  # atno 10718 bound_to 10713
  154.6653  135.2931  154.9814 H   0  0  0  0  0  0  0  0  0  0  0  0  # atno 10763 bound_to 10752
  154.0859  135.6597  153.4849 H   0  0  0  0  0  0  0  0  0  0  0  0  # atno 10764 bound_to 10752
  153.0453  135.5208  154.7623 H   0  0  0  0  0  0  0  0  0  0  0  0  # atno 10765 bound_to 10752
  139.9326  134.9641  156.8305 H   0  0  0  0  0  0  0  0  0  0  0  0  # atno 11005 bound_to 11000
  145.9957  140.8564  143.0044 LP  0  0  0  0  0  0  0  0  0  0  0  0  # atno 17320 bound_to 7965
  144.6779  140.2280  143.7358 LP  0  0  0  0  0  0  0  0  0  0  0  0  # atno 17321 bound_to 7965
  140.3306  143.3080  152.0691 LP  0  0  0  0  0  0  0  0  0  0  0  0  # atno 17342 bound_to 10162
  139.4933  144.6512  151.6672 LP  0  0  0  0  0  0  0  0  0  0  0  0  # atno 17343 bound_to 10162
  156.1031  130.5984  150.9927 LP  0  0  0  0  0  0  0  0  0  0  0  0  # atno 17370 bound_to 10713
  157.6494  131.0899  150.8083 LP  0  0  0  0  0  0  0  0  0  0  0  0  # atno 17371 bound_to 10713
  140.6160  134.0038  155.7597 LP  0  0  0  0  0  0  0  0  0  0  0  0  # atno 17394 bound_to 11000
  141.0924  133.9897  157.3216 LP  0  0  0  0  0  0  0  0  0  0  0  0  # atno 17395 bound_to 11000

$$$$
