AV-unprocessed.smi:1868|AV-procd|sdf|7588|dock10
  -GOLD-   22720 9303D 1   1.00000     0.00000
 Structure written by MMmdl.
 48 50  0  0  0  0  0  0  0  0  3 V2000
  146.1697  142.3388  154.5814 C   0  0  0  0  0  0  0  0  0  0  0  0
  147.3542  141.4753  154.8592 C   0  0  0  0  0  0  0  0  0  0  0  0
  148.5218  141.8795  155.4343 N   0  3  0  0  0  0  0  0  0  0  0  0
  149.3976  140.7979  155.5366 C   0  0  0  0  0  0  0  0  0  0  0  0
  150.6886  140.7154  156.0487 C   0  0  0  0  0  0  0  0  0  0  0  0
  151.3075  139.4489  156.0035 C   0  0  0  0  0  0  0  0  0  0  0  0
  150.6452  138.3266  155.4645 C   0  0  0  0  0  0  0  0  0  0  0  0
  149.3360  138.4224  154.9476 C   0  0  0  0  0  0  0  0  0  0  0  0
  148.7318  139.6784  154.9963 C   0  0  0  0  0  0  0  0  0  0  0  0
  147.4764  140.1434  154.5890 N   0  0  0  0  0  0  0  0  0  0  0  0
  146.5249  139.2030  153.9765 C   0  0  0  0  0  0  0  0  0  0  0  0
  146.8299  138.9114  152.4930 C   0  0  2  0  0  0  0  0  0  0  0  0
  146.7735  140.1238  151.7649 O   0  0  0  0  0  0  0  0  0  0  0  0
  145.8137  137.9140  151.8984 C   0  0  0  0  0  0  0  0  0  0  0  0
  146.2128  136.4928  152.0731 N   0  3  2  0  0  0  0  0  0  0  0  0
  145.5672  135.6053  151.0713 C   0  0  0  0  0  0  0  0  0  0  0  0
  146.0968  134.1654  151.1773 C   0  0  0  0  0  0  0  0  0  0  0  0
  145.9001  133.6009  152.5939 C   0  0  1  0  0  0  0  0  0  0  0  0
  146.4525  132.1742  152.7202 C   0  0  0  0  0  0  0  0  0  0  0  0
  146.5467  134.5551  153.6116 C   0  0  0  0  0  0  0  0  0  0  0  0
  146.0075  135.9871  153.4570 C   0  0  0  0  0  0  0  0  0  0  0  0
  146.3392  143.3517  154.9479 H   0  0  0  0  0  0  0  0  0  0  0  0
  145.2852  141.9362  155.0751 H   0  0  0  0  0  0  0  0  0  0  0  0
  145.9803  142.3854  153.5090 H   0  0  0  0  0  0  0  0  0  0  0  0
  151.1978  141.5732  156.4634 H   0  0  0  0  0  0  0  0  0  0  0  0
  152.3099  139.3359  156.3908 H   0  0  0  0  0  0  0  0  0  0  0  0
  151.1517  137.3724  155.4492 H   0  0  0  0  0  0  0  0  0  0  0  0
  148.8374  137.5566  154.5383 H   0  0  0  0  0  0  0  0  0  0  0  0
  146.5274  138.2834  154.5629 H   0  0  0  0  0  0  0  0  0  0  0  0
  145.5258  139.6277  154.0811 H   0  0  0  0  0  0  0  0  0  0  0  0
  147.8431  138.5191  152.4191 H   0  0  0  0  0  0  0  0  0  0  0  0
  147.6019  140.2623  151.3320 H   0  0  0  0  0  0  0  0  0  0  0  0
  144.8290  138.0618  152.3450 H   0  0  0  0  0  0  0  0  0  0  0  0
  145.6986  138.1357  150.8358 H   0  0  0  0  0  0  0  0  0  0  0  0
  144.4854  135.6209  151.2125 H   0  0  0  0  0  0  0  0  0  0  0  0
  145.7609  135.9808  150.0658 H   0  0  0  0  0  0  0  0  0  0  0  0
  145.5877  133.5331  150.4488 H   0  0  0  0  0  0  0  0  0  0  0  0
  147.1556  134.1469  150.9144 H   0  0  0  0  0  0  0  0  0  0  0  0
  144.8292  133.5601  152.7988 H   0  0  0  0  0  0  0  0  0  0  0  0
  147.5251  132.1446  152.5259 H   0  0  0  0  0  0  0  0  0  0  0  0
  145.9675  131.5009  152.0127 H   0  0  0  0  0  0  0  0  0  0  0  0
  146.2842  131.7754  153.7209 H   0  0  0  0  0  0  0  0  0  0  0  0
  146.3586  134.2013  154.6260 H   0  0  0  0  0  0  0  0  0  0  0  0
  147.6302  134.5580  153.4828 H   0  0  0  0  0  0  0  0  0  0  0  0
  146.5112  136.6289  154.1783 H   0  0  0  0  0  0  0  0  0  0  0  0
  144.9445  136.0137  153.7017 H   0  0  0  0  0  0  0  0  0  0  0  0
  147.2039  136.4487  151.8847 H   0  0  0  0  0  0  0  0  0  0  0  0
  148.7041  142.8282  155.7355 H   0  0  0  0  0  0  0  0  0  0  0  0
  1  2  1  0  0  0  0
  1 22  1  0  0  0  0
  1 23  1  0  0  0  0
  1 24  1  0  0  0  0
  2 10  1  0  0  0  0
  2  3  2  0  0  0  0
  3  4  1  0  0  0  0
  3 48  1  0  0  0  0
  4  9  2  0  0  0  0
  4  5  1  0  0  0  0
  5  6  2  0  0  0  0
  5 25  1  0  0  0  0
  6  7  1  0  0  0  0
  6 26  1  0  0  0  0
  7  8  2  0  0  0  0
  7 27  1  0  0  0  0
  8  9  1  0  0  0  0
  8 28  1  0  0  0  0
  9 10  1  0  0  0  0
 10 11  1  0  0  0  0
 11 12  1  0  0  0  0
 11 29  1  0  0  0  0
 11 30  1  0  0  0  0
 12 13  1  0  0  0  0
 12 14  1  0  0  0  0
 12 31  1  0  0  0  0
 13 32  1  0  0  0  0
 14 15  1  0  0  0  0
 14 33  1  0  0  0  0
 14 34  1  0  0  0  0
 15 21  1  0  0  0  0
 15 16  1  0  0  0  0
 15 47  1  0  0  0  0
 16 17  1  0  0  0  0
 16 35  1  0  0  0  0
 16 36  1  0  0  0  0
 17 18  1  0  0  0  0
 17 37  1  0  0  0  0
 17 38  1  0  0  0  0
 18 19  1  0  0  0  0
 18 20  1  0  0  0  0
 18 39  1  0  0  0  0
 19 40  1  0  0  0  0
 19 41  1  0  0  0  0
 19 42  1  0  0  0  0
 20 21  1  0  0  0  0
 20 43  1  0  0  0  0
 20 44  1  0  0  0  0
 21 45  1  0  0  0  0
 21 46  1  0  0  0  0
M  CHG  1   3   1
M  CHG  1  15   1
M  END
> <s_m_source_file>
AV-unprocessed.smi

> <i_m_source_file_index>
1868

> <i_lp_mmshare_version>
43012

> <i_f3d_flags>
0

> <s_epik_input>
W2NIXTFbY0hdW2NIXVtjSF1jKGMxMiluKGMobjIpW0NIM10pW0NIMl1bQ0BIXShbT0hdKVtDSDJdTjNbQ0gyXVtDSDJdW0NIXShbQ0gzXSlbQ0gyXVtDSDJdMw==

> <s_epik_cmdline>
J2VwaWtfcHl0aG9uJywgJy1waCcsICc3LjAnLCAnLXRuJywgJzgnLCAnLW1hJywgJzIwMCcsICctbWV0YWxfYmluZGluZycsICctaW1hZScsICc8aW5maWxlLm1hZT4nLCAnLW9tYWUnLCAnPG91dGZpbGUubWFlPic=

> <r_epik_Ionization_Penalty>
1.10901

> <r_epik_Ionization_Penalty_Charging>
1.10901

> <r_epik_Ionization_Penalty_Neutral>
6.90208e-07

> <r_epik_State_Penalty>
1.18788

> <r_epik_Charging_Adjusted_Penalty>
2.29689

> <i_epik_Tot_Q>
2

> <i_epik_Tot_abs_Q>
2

> <r_epik_Metal_State_Penalty>
5.19353

> <b_epik_Metal_Only>
0

> <s_lp_Force_Field>
OPLS_2005

> <r_lp_Energy>
30.2902

> <b_lp_Chiralities_Consistent>
1

> <s_lp_Variant>
AV-unprocessed.smi:1868-5

> <Gold.Version>
5.8.1

> <Gold.Id.Protein>
6NUR|6NUR_protein|mol2

> <Gold.PLP.Fitness>
53.2725

> <Gold.PLP.PLP>
-40.1713

> <Gold.PLP.part.hbond>
-3.2498

> <Gold.PLP.part.metal>
0.0000

> <Gold.PLP.part.buried>
0.7031

> <Gold.PLP.part.nonpolar>
-37.2938

> <Gold.PLP.part.repulsive>
0.2302

> <Gold.PLP.ligand.clash>
0.0000

> <Gold.PLP.ligand.torsion>
0.7915

> <Gold.PLP.Chemscore.Hbond>
4.8800

> <Gold.PLP.Chemscore.CHOScore>
0.0000

> <Gold.PLP.Chemscore.Metal>
0.0000

> <Gold.Chemscore.Hbonds>
donor molecule, donor type, donor heavy atom, donor atom, acceptor molecule, acceptor atom, score
      L1  H     3    48       P1  8028  2.00
      L1  H    13    32       P1  7957  1.00
      L1  H    15    47       P1  7948  2.00

> <Gold.PLP.Chemscore.Internal.Correction>
0.0443

> <Gold.Rescore>
     Score         DG    S(hbond)    S(metal)    S(lipo)     H(rot)  DE(clash)    DE(int)     intcor
     19.02     -19.95       2.86        0.00      85.54       1.99       0.15       0.78       ----

> <Gold.Chemscore.Fitness>
19.0165

> <Gold.Chemscore.DG>
-19.9518

> <Gold.Chemscore.ZeroCoef>
-5.4800

> <Gold.Chemscore.Hbond>
2.8588

> <Gold.Chemscore.Metal>
0.0000

> <Gold.Chemscore.Lipo>
85.5416

> <Gold.Chemscore.Internal_Hbond>
0.0000

> <Gold.Chemscore.DEClash>
0.1505

> <Gold.Chemscore.DEInternal>
0.7848

> <Gold.Chemscore.Rot>
1.9863

> <Gold.Chemscore.Internal.Correction>
   9.000000E+99

> <Gold.Chemscore.Hbonds>
donor molecule, donor type, donor heavy atom, donor atom, acceptor molecule, acceptor atom, score
      L1  H     3    48       P1  8028  0.99
      L1  H    13    32       P1  7957  0.96
      L1  H    15    47       P1  7948  1.00

> <Gold.Chemscore.Hbond.Weighted>
-9.5485

> <Gold.Chemscore.Metal.Weighted>
-0.0000

> <Gold.Chemscore.Lipo.Weighted>
-10.0084

> <Gold.Chemscore.Internal_Hbond.Weighted>
0.0000

> <Gold.Chemscore.DEClash.Weighted>
0.1505

> <Gold.Chemscore.DEInternal.Weighted>
0.7848

> <Gold.Chemscore.Rot.Weighted>
5.0850

> <Gold.Chemscore.Internal.Correction.Weighted>
   9.000000E+99

> <Gold.Protein.RotatedTorsions>
[ 6907 6896 6895 6894 ] final    2.93 input  -60.11 | X-H torsion
[ 7974 7965 7964 7962 ] final   22.75 input  175.53 | X-H torsion
[ 8008 7997 7996 7995 ] final  144.79 input   59.86 | X-H torsion
[ 10167 10162 10161 10158 ] final  -43.74 input  -65.29 | X-H torsion
[ 10718 10713 10712 10709 ] final -143.83 input   66.30 | X-H torsion
[ 10763 10752 10751 10750 ] final   36.47 input  -60.55 | X-H torsion
[ 11005 11000 10999 10996 ] final  -82.23 input  -57.11 | X-H torsion

> <Gold.Protein.ActiveResidues>
 VAL166  LYS551  ARG553  GLY616  TRP617  ASP618  TYR619  PRO620  LYS621  CYS622 
 ASP623  PHE694  ASN695  SER759  ASP760  ASP761  ALA762  ILE779  LEU786  VAL792 
 PHE793  MET794  SER795  GLU796  ALA797  LYS798  CYS799  TRP800  GLU811  SER814 

> <Gold.Protein.RotatedAtoms>
  151.6169  135.1035  160.0093 H   0  0  0  0  0  0  0  0  0  0  0  0  # atno 6907 bound_to 6896
  152.4178  133.7063  159.6463 H   0  0  0  0  0  0  0  0  0  0  0  0  # atno 6908 bound_to 6896
  150.8066  133.8425  159.3224 H   0  0  0  0  0  0  0  0  0  0  0  0  # atno 6909 bound_to 6896
  146.2015  139.7841  142.8758 H   0  0  0  0  0  0  0  0  0  0  0  0  # atno 7974 bound_to 7965
  156.2899  140.2226  156.5110 H   0  0  0  0  0  0  0  0  0  0  0  0  # atno 8008 bound_to 7997
  154.7609  140.0473  157.0994 H   0  0  0  0  0  0  0  0  0  0  0  0  # atno 8009 bound_to 7997
  154.9992  140.3099  155.4877 H   0  0  0  0  0  0  0  0  0  0  0  0  # atno 8010 bound_to 7997
  140.6923  143.2967  151.3396 H   0  0  0  0  0  0  0  0  0  0  0  0  # atno 10167 bound_to 10162
  156.3628  130.7747  151.1917 H   0  0  0  0  0  0  0  0  0  0  0  0  # atno 10718 bound_to 10713
  153.0076  135.6305  154.1991 H   0  0  0  0  0  0  0  0  0  0  0  0  # atno 10763 bound_to 10752
  154.1734  135.2817  155.3076 H   0  0  0  0  0  0  0  0  0  0  0  0  # atno 10764 bound_to 10752
  154.5891  135.5623  153.7320 H   0  0  0  0  0  0  0  0  0  0  0  0  # atno 10765 bound_to 10752
  141.1664  133.7234  156.8540 H   0  0  0  0  0  0  0  0  0  0  0  0  # atno 11005 bound_to 11000
  145.3468  141.0299  143.3361 LP  0  0  0  0  0  0  0  0  0  0  0  0  # atno 17320 bound_to 7965
  144.8694  139.5060  143.6775 LP  0  0  0  0  0  0  0  0  0  0  0  0  # atno 17321 bound_to 7965
  139.6338  144.0669  152.2499 LP  0  0  0  0  0  0  0  0  0  0  0  0  # atno 17342 bound_to 10162
  140.0153  144.6194  150.7613 LP  0  0  0  0  0  0  0  0  0  0  0  0  # atno 17343 bound_to 10162
  157.7475  131.0395  150.4554 LP  0  0  0  0  0  0  0  0  0  0  0  0  # atno 17370 bound_to 10713
  156.4767  130.4065  149.6485 LP  0  0  0  0  0  0  0  0  0  0  0  0  # atno 17371 bound_to 10713
  140.1895  134.8976  157.3044 LP  0  0  0  0  0  0  0  0  0  0  0  0  # atno 17394 bound_to 11000
  140.2306  134.3914  155.7524 LP  0  0  0  0  0  0  0  0  0  0  0  0  # atno 17395 bound_to 11000

$$$$
