AV-unprocessed.smi:3206|AV-procd|sdf|12257|dock8
  -GOLD-   2272018 93D 1   1.00000     0.00000
 Structure written by MMmdl.
 42 43  0  0  0  0  0  0  0  0  2 V2000
  153.1204  142.8276  162.6602 C   0  0  0  0  0  0  0  0  0  0  0  0
  153.0957  143.1854  161.1675 C   0  0  2  0  0  0  0  0  0  0  0  0
  152.2098  144.4156  160.8973 C   0  0  0  0  0  0  0  0  0  0  0  0
  152.1784  144.7736  159.4006 C   0  0  0  0  0  0  0  0  0  0  0  0
  151.7307  143.5901  158.5163 C   0  0  2  0  0  0  0  0  0  0  0  0
  150.2150  143.2964  158.6354 C   0  0  0  0  0  0  0  0  0  0  0  0
  149.6729  142.7189  157.3890 N   0  3  0  0  0  0  0  0  0  0  0  0
  150.4377  141.5639  156.8797 C   0  0  0  0  0  0  0  0  0  0  0  0
  149.6847  140.8610  155.7379 C   0  0  0  0  0  0  0  0  0  0  0  0
  150.4102  139.6867  155.1476 C   0  0  0  0  0  0  0  0  0  0  0  0
  151.6885  139.6836  154.7783 N   0  0  0  0  0  0  0  0  0  0  0  0
  151.8137  138.4024  154.3263 C   0  0  0  0  0  0  0  0  0  0  0  0
  150.7170  137.6538  154.3993 N   0  0  0  0  0  0  0  0  0  0  0  0
  149.8128  138.5044  154.9360 N   0  0  0  0  0  0  0  0  0  0  0  0
  148.4562  138.0521  155.1801 C   0  0  0  0  0  0  0  0  0  0  0  0
  152.6018  142.3506  158.8127 C   0  0  0  0  0  0  0  0  0  0  0  0
  152.6331  141.9933  160.3096 C   0  0  0  0  0  0  0  0  0  0  0  0
  152.1257  142.5659  163.0224 H   0  0  0  0  0  0  0  0  0  0  0  0
  153.4833  143.6638  163.2585 H   0  0  0  0  0  0  0  0  0  0  0  0
  153.7778  141.9785  162.8496 H   0  0  0  0  0  0  0  0  0  0  0  0
  154.1161  143.4351  160.8732 H   0  0  0  0  0  0  0  0  0  0  0  0
  151.1975  144.2267  161.2560 H   0  0  0  0  0  0  0  0  0  0  0  0
  152.5791  145.2701  161.4658 H   0  0  0  0  0  0  0  0  0  0  0  0
  151.5302  145.6350  159.2358 H   0  0  0  0  0  0  0  0  0  0  0  0
  153.1771  145.0882  159.0949 H   0  0  0  0  0  0  0  0  0  0  0  0
  151.9374  143.8768  157.4838 H   0  0  0  0  0  0  0  0  0  0  0  0
  150.0154  142.6019  159.4523 H   0  0  0  0  0  0  0  0  0  0  0  0
  149.6583  144.2058  158.8646 H   0  0  0  0  0  0  0  0  0  0  0  0
  148.7218  142.4247  157.5603 H   0  0  0  0  0  0  0  0  0  0  0  0
  151.4119  141.9089  156.5301 H   0  0  0  0  0  0  0  0  0  0  0  0
  150.6138  140.8651  157.6990 H   0  0  0  0  0  0  0  0  0  0  0  0
  148.7152  140.5156  156.0992 H   0  0  0  0  0  0  0  0  0  0  0  0
  149.4865  141.5757  154.9381 H   0  0  0  0  0  0  0  0  0  0  0  0
  152.7399  138.0105  153.9322 H   0  0  0  0  0  0  0  0  0  0  0  0
  147.8520  138.8487  155.6127 H   0  0  0  0  0  0  0  0  0  0  0  0
  148.4696  137.2079  155.8700 H   0  0  0  0  0  0  0  0  0  0  0  0
  148.0003  137.7366  154.2412 H   0  0  0  0  0  0  0  0  0  0  0  0
  152.2534  141.4962  158.2316 H   0  0  0  0  0  0  0  0  0  0  0  0
  153.6216  142.5443  158.4777 H   0  0  0  0  0  0  0  0  0  0  0  0
  153.3000  141.1443  160.4648 H   0  0  0  0  0  0  0  0  0  0  0  0
  151.6448  141.6667  160.6348 H   0  0  0  0  0  0  0  0  0  0  0  0
  149.6664  143.4383  156.6798 H   0  0  0  0  0  0  0  0  0  0  0  0
  1  2  1  0  0  0  0
  1 18  1  0  0  0  0
  1 19  1  0  0  0  0
  1 20  1  0  0  0  0
  2 17  1  0  0  0  0
  2  3  1  0  0  0  0
  2 21  1  0  0  0  0
  3  4  1  0  0  0  0
  3 22  1  0  0  0  0
  3 23  1  0  0  0  0
  4  5  1  0  0  0  0
  4 24  1  0  0  0  0
  4 25  1  0  0  0  0
  5  6  1  0  0  0  0
  5 16  1  0  0  0  0
  5 26  1  0  0  0  0
  6  7  1  0  0  0  0
  6 27  1  0  0  0  0
  6 28  1  0  0  0  0
  7  8  1  0  0  0  0
  7 29  1  0  0  0  0
  7 42  1  0  0  0  0
  8  9  1  0  0  0  0
  8 30  1  0  0  0  0
  8 31  1  0  0  0  0
  9 10  1  0  0  0  0
  9 32  1  0  0  0  0
  9 33  1  0  0  0  0
 10 14  1  0  0  0  0
 10 11  2  0  0  0  0
 11 12  1  0  0  0  0
 12 13  2  0  0  0  0
 12 34  1  0  0  0  0
 13 14  1  0  0  0  0
 14 15  1  0  0  0  0
 15 35  1  0  0  0  0
 15 36  1  0  0  0  0
 15 37  1  0  0  0  0
 16 17  1  0  0  0  0
 16 38  1  0  0  0  0
 16 39  1  0  0  0  0
 17 40  1  0  0  0  0
 17 41  1  0  0  0  0
M  CHG  1   7   1
M  END
> <s_m_source_file>
AV-unprocessed.smi

> <i_m_source_file_index>
3206

> <i_lp_mmshare_version>
43012

> <i_f3d_flags>
0

> <s_epik_input>
W0NIM11bQ0BASF0xW0NIMl1bQ0gyXVtDQEhdKFtDSDJdW0NIMl0xKVtDSDJdW05IXVtDSDJdW0NIMl1jMm5bY0hdbm4yW0NIM10=

> <s_epik_cmdline>
J2VwaWtfcHl0aG9uJywgJy1waCcsICc3LjAnLCAnLXRuJywgJzgnLCAnLW1hJywgJzIwMCcsICctbWV0YWxfYmluZGluZycsICctaW1hZScsICc8aW5maWxlLm1hZT4nLCAnLW9tYWUnLCAnPG91dGZpbGUubWFlPic=

> <r_lp_tautomer_probability>
1

> <r_epik_Ionization_Penalty>
0.00114491

> <r_epik_Ionization_Penalty_Charging>
0.00114083

> <r_epik_Ionization_Penalty_Neutral>
4.0852e-06

> <r_epik_State_Penalty>
-0

> <r_epik_Charging_Adjusted_Penalty>
0.00114083

> <i_epik_Tot_Q>
1

> <i_epik_Tot_abs_Q>
1

> <r_epik_Metal_State_Penalty>
-0

> <b_epik_Metal_Only>
0

> <s_lp_Force_Field>
OPLS_2005

> <r_lp_Energy>
20.2126

> <b_lp_Chiralities_Consistent>
1

> <s_lp_Variant>
AV-unprocessed.smi:3206-2

> <Gold.Version>
5.8.1

> <Gold.Id.Protein>
6NUR|6NUR_protein|mol2

> <Gold.PLP.Fitness>
49.7161

> <Gold.PLP.PLP>
-41.6800

> <Gold.PLP.part.hbond>
-2.0000

> <Gold.PLP.part.metal>
0.0000

> <Gold.PLP.part.buried>
-7.5123

> <Gold.PLP.part.nonpolar>
-31.8391

> <Gold.PLP.part.repulsive>
0.2933

> <Gold.PLP.ligand.clash>
0.0000

> <Gold.PLP.ligand.torsion>
0.4922

> <Gold.PLP.Chemscore.Hbond>
3.0000

> <Gold.PLP.Chemscore.CHOScore>
0.0000

> <Gold.PLP.Chemscore.Metal>
0.0000

> <Gold.Chemscore.Hbonds>
donor molecule, donor type, donor heavy atom, donor atom, acceptor molecule, acceptor atom, score
      L1  H     7    42       P1  8028  2.00
      P1  H  7989  7998       L1    11  1.00

> <Gold.PLP.Chemscore.Internal.Correction>
0.0205

> <Gold.Rescore>
     Score         DG    S(hbond)    S(metal)    S(lipo)     H(rot)  DE(clash)    DE(int)     intcor
     17.76     -18.35       1.93        0.00      99.77       2.05       0.10       0.49       ----

> <Gold.Chemscore.Fitness>
17.7557

> <Gold.Chemscore.DG>
-18.3472

> <Gold.Chemscore.ZeroCoef>
-5.4800

> <Gold.Chemscore.Hbond>
1.9308

> <Gold.Chemscore.Metal>
0.0000

> <Gold.Chemscore.Lipo>
99.7732

> <Gold.Chemscore.Internal_Hbond>
0.0000

> <Gold.Chemscore.DEClash>
0.0997

> <Gold.Chemscore.DEInternal>
0.4918

> <Gold.Chemscore.Rot>
2.0528

> <Gold.Chemscore.Internal.Correction>
   9.000000E+99

> <Gold.Chemscore.Hbonds>
donor molecule, donor type, donor heavy atom, donor atom, acceptor molecule, acceptor atom, score
      L1  H     7    42       P1  8028  0.97
      P1  H  7989  7998       L1    11  0.25

> <Gold.Chemscore.Hbond.Weighted>
-6.4488

> <Gold.Chemscore.Metal.Weighted>
-0.0000

> <Gold.Chemscore.Lipo.Weighted>
-11.6735

> <Gold.Chemscore.Internal_Hbond.Weighted>
0.0000

> <Gold.Chemscore.DEClash.Weighted>
0.0997

> <Gold.Chemscore.DEInternal.Weighted>
0.4918

> <Gold.Chemscore.Rot.Weighted>
5.2551

> <Gold.Chemscore.Internal.Correction.Weighted>
   9.000000E+99

> <Gold.Protein.RotatedTorsions>
[ 6907 6896 6895 6894 ] final    2.96 input  -60.11 | X-H torsion
[ 7974 7965 7964 7962 ] final -137.33 input  175.53 | X-H torsion
[ 8008 7997 7996 7995 ] final  -72.74 input   59.86 | X-H torsion
[ 10167 10162 10161 10158 ] final  130.28 input  -65.29 | X-H torsion
[ 10718 10713 10712 10709 ] final  -78.44 input   66.30 | X-H torsion
[ 10763 10752 10751 10750 ] final  -87.26 input  -60.55 | X-H torsion
[ 11005 11000 10999 10996 ] final -162.76 input  -57.11 | X-H torsion

> <Gold.Protein.ActiveResidues>
 VAL166  LYS551  ARG553  GLY616  TRP617  ASP618  TYR619  PRO620  LYS621  CYS622 
 ASP623  PHE694  ASN695  SER759  ASP760  ASP761  ALA762  ILE779  LEU786  VAL792 
 PHE793  MET794  SER795  GLU796  ALA797  LYS798  CYS799  TRP800  GLU811  SER814 

> <Gold.Protein.RotatedAtoms>
  151.6173  135.1035  160.0093 H   0  0  0  0  0  0  0  0  0  0  0  0  # atno 6907 bound_to 6896
  152.4176  133.7060  159.6462 H   0  0  0  0  0  0  0  0  0  0  0  0  # atno 6908 bound_to 6896
  150.8064  133.8428  159.3225 H   0  0  0  0  0  0  0  0  0  0  0  0  # atno 6909 bound_to 6896
  144.8851  140.6563  143.5181 H   0  0  0  0  0  0  0  0  0  0  0  0  # atno 7974 bound_to 7965
  154.5191  140.0791  156.8137 H   0  0  0  0  0  0  0  0  0  0  0  0  # atno 8008 bound_to 7997
  155.3616  140.3418  155.4223 H   0  0  0  0  0  0  0  0  0  0  0  0  # atno 8009 bound_to 7997
  156.1661  140.1604  156.8516 H   0  0  0  0  0  0  0  0  0  0  0  0  # atno 8010 bound_to 7997
  139.5437  144.6754  151.4541 H   0  0  0  0  0  0  0  0  0  0  0  0  # atno 10167 bound_to 10162
  156.0117  130.4518  150.3497 H   0  0  0  0  0  0  0  0  0  0  0  0  # atno 10718 bound_to 10713
  154.6317  135.5419  153.7688 H   0  0  0  0  0  0  0  0  0  0  0  0  # atno 10763 bound_to 10752
  153.0288  135.6437  154.1292 H   0  0  0  0  0  0  0  0  0  0  0  0  # atno 10764 bound_to 10752
  154.1221  135.2919  155.3186 H   0  0  0  0  0  0  0  0  0  0  0  0  # atno 10765 bound_to 10752
  140.6056  134.4902  157.5210 H   0  0  0  0  0  0  0  0  0  0  0  0  # atno 11005 bound_to 11000
  145.3884  139.1622  143.4242 LP  0  0  0  0  0  0  0  0  0  0  0  0  # atno 17320 bound_to 7965
  146.3019  140.3971  142.8701 LP  0  0  0  0  0  0  0  0  0  0  0  0  # atno 17321 bound_to 7965
  140.6677  143.8361  150.6962 LP  0  0  0  0  0  0  0  0  0  0  0  0  # atno 17342 bound_to 10162
  140.1775  143.4142  152.1956 LP  0  0  0  0  0  0  0  0  0  0  0  0  # atno 17343 bound_to 10162
  157.1590  131.0340  151.2850 LP  0  0  0  0  0  0  0  0  0  0  0  0  # atno 17370 bound_to 10713
  157.4327  130.7500  149.7004 LP  0  0  0  0  0  0  0  0  0  0  0  0  # atno 17371 bound_to 10713
  139.9214  134.8142  156.1201 LP  0  0  0  0  0  0  0  0  0  0  0  0  # atno 17394 bound_to 11000
  141.0843  133.6741  156.2402 LP  0  0  0  0  0  0  0  0  0  0  0  0  # atno 17395 bound_to 11000

$$$$
