AV-unprocessed.smi:1661|AV-procd|sdf|6656|dock6
  -GOLD-   22720 7363D 1   1.00000     0.00000
 Structure written by MMmdl.
 37 38  0  0  0  0  0  0  0  0  3 V2000
  143.7241  133.7555  152.0064 C   0  0  0  0  0  0  0  0  0  0  0  0
  144.7848  134.8212  151.6794 C   0  0  2  0  0  0  0  0  0  0  0  0
  145.8793  134.3012  150.7301 C   0  0  0  0  0  0  0  0  0  0  0  0
  146.8576  133.3451  151.4360 C   0  0  0  0  0  0  0  0  0  0  0  0
  147.4657  133.9811  152.6333 N   0  3  2  0  0  0  0  0  0  0  0  0
  148.5080  133.1249  153.2524 C   0  0  0  0  0  0  0  0  0  0  0  0
  148.9189  133.6208  154.6515 C   0  0  0  0  0  0  0  0  0  0  0  0
  150.1153  134.4515  154.5885 N   0  0  0  0  0  0  0  0  0  0  0  0
  150.2100  135.7195  155.0133 C   0  0  0  0  0  0  0  0  0  0  0  0
  149.2292  136.2742  155.5143 O   0  0  0  0  0  0  0  0  0  0  0  0
  151.4319  136.2659  154.8253 N   0  5  0  0  0  0  0  0  0  0  0  0
  151.6716  137.5267  155.2220 C   0  0  0  0  0  0  0  0  0  0  0  0
  152.6411  137.8313  156.0996 N   0  0  0  0  0  0  0  0  0  0  0  0
  152.7250  139.1903  156.3709 N   0  0  0  0  0  0  0  0  0  0  0  0
  151.8170  139.8802  155.6811 C   0  0  0  0  0  0  0  0  0  0  0  0
  150.7792  138.9331  154.6360 S   0  0  0  0  0  0  0  0  0  0  0  0
  146.4290  134.4335  153.5987 C   0  0  0  0  0  0  0  0  0  0  0  0
  145.4414  135.4131  152.9395 C   0  0  0  0  0  0  0  0  0  0  0  0
  144.1492  132.8954  152.5228 H   0  0  0  0  0  0  0  0  0  0  0  0
  143.2454  133.3901  151.0974 H   0  0  0  0  0  0  0  0  0  0  0  0
  142.9410  134.1678  152.6433 H   0  0  0  0  0  0  0  0  0  0  0  0
  144.2614  135.6303  151.1684 H   0  0  0  0  0  0  0  0  0  0  0  0
  145.4292  133.8077  149.8680 H   0  0  0  0  0  0  0  0  0  0  0  0
  146.4398  135.1488  150.3334 H   0  0  0  0  0  0  0  0  0  0  0  0
  146.3523  132.4232  151.7269 H   0  0  0  0  0  0  0  0  0  0  0  0
  147.6422  133.0634  150.7328 H   0  0  0  0  0  0  0  0  0  0  0  0
  148.1642  132.0900  153.2922 H   0  0  0  0  0  0  0  0  0  0  0  0
  149.3926  133.1284  152.6140 H   0  0  0  0  0  0  0  0  0  0  0  0
  148.1033  134.1754  155.1186 H   0  0  0  0  0  0  0  0  0  0  0  0
  149.1434  132.7846  155.3119 H   0  0  0  0  0  0  0  0  0  0  0  0
  150.9438  134.0339  154.1903 H   0  0  0  0  0  0  0  0  0  0  0  0
  151.7600  140.9533  155.7854 H   0  0  0  0  0  0  0  0  0  0  0  0
  145.8985  133.5685  153.9988 H   0  0  0  0  0  0  0  0  0  0  0  0
  146.8956  134.9307  154.4481 H   0  0  0  0  0  0  0  0  0  0  0  0
  145.9762  136.3247  152.6692 H   0  0  0  0  0  0  0  0  0  0  0  0
  144.6774  135.7137  153.6574 H   0  0  0  0  0  0  0  0  0  0  0  0
  147.9407  134.8076  152.2996 H   0  0  0  0  0  0  0  0  0  0  0  0
  1  2  1  0  0  0  0
  1 19  1  0  0  0  0
  1 20  1  0  0  0  0
  1 21  1  0  0  0  0
  2 18  1  0  0  0  0
  2  3  1  0  0  0  0
  2 22  1  0  0  0  0
  3  4  1  0  0  0  0
  3 23  1  0  0  0  0
  3 24  1  0  0  0  0
  4  5  1  0  0  0  0
  4 25  1  0  0  0  0
  4 26  1  0  0  0  0
  5  6  1  0  0  0  0
  5 17  1  0  0  0  0
  5 37  1  0  0  0  0
  6  7  1  0  0  0  0
  6 27  1  0  0  0  0
  6 28  1  0  0  0  0
  7  8  1  0  0  0  0
  7 29  1  0  0  0  0
  7 30  1  0  0  0  0
  8  9  1  0  0  0  0
  8 31  1  0  0  0  0
  9 10  2  0  0  0  0
  9 11  1  0  0  0  0
 11 12  1  0  0  0  0
 12 16  1  0  0  0  0
 12 13  2  0  0  0  0
 13 14  1  0  0  0  0
 14 15  2  0  0  0  0
 15 16  1  0  0  0  0
 15 32  1  0  0  0  0
 17 18  1  0  0  0  0
 17 33  1  0  0  0  0
 17 34  1  0  0  0  0
 18 35  1  0  0  0  0
 18 36  1  0  0  0  0
M  CHG  1   5   1
M  CHG  1  11  -1
M  END
> <s_m_source_file>
AV-unprocessed.smi

> <i_m_source_file_index>
1661

> <i_lp_mmshare_version>
43012

> <i_f3d_flags>
0

> <s_epik_input>
W0NIM11bQ0hdMVtDSDJdW0NIMl1OKFtDSDJdW0NIMl0xKVtDSDJdW0NIMl1bTkhdQyg9TylbTkhdYzJubltjSF1zMg==

> <s_epik_cmdline>
J2VwaWtfcHl0aG9uJywgJy1waCcsICc3LjAnLCAnLXRuJywgJzgnLCAnLW1hJywgJzIwMCcsICctbWV0YWxfYmluZGluZycsICctaW1hZScsICc8aW5maWxlLm1hZT4nLCAnLW9tYWUnLCAnPG91dGZpbGUubWFlPic=

> <r_lp_tautomer_probability>
1

> <r_epik_Ionization_Penalty>
3.04466

> <r_epik_Ionization_Penalty_Charging>
3.01305

> <r_epik_Ionization_Penalty_Neutral>
0.0316037

> <r_epik_State_Penalty>
3.00821

> <r_epik_Charging_Adjusted_Penalty>
6.02127

> <i_epik_Tot_Q>
0

> <i_epik_Tot_abs_Q>
2

> <r_epik_Metal_State_Penalty>
0.454395

> <b_epik_Metal_Only>
1

> <s_lp_Force_Field>
OPLS_2005

> <r_lp_Energy>
9.834

> <b_lp_Chiralities_Consistent>
1

> <s_lp_Variant>
AV-unprocessed.smi:1661-4

> <Gold.Version>
5.8.1

> <Gold.Id.Protein>
6NUR|6NUR_protein|mol2

> <Gold.PLP.Fitness>
42.7623

> <Gold.PLP.PLP>
-29.5279

> <Gold.PLP.part.hbond>
-3.0000

> <Gold.PLP.part.metal>
0.0000

> <Gold.PLP.part.buried>
-3.5520

> <Gold.PLP.part.nonpolar>
-23.6103

> <Gold.PLP.part.repulsive>
0.3222

> <Gold.PLP.ligand.clash>
0.0000

> <Gold.PLP.ligand.torsion>
0.9309

> <Gold.PLP.Chemscore.Hbond>
5.0000

> <Gold.PLP.Chemscore.CHOScore>
0.0000

> <Gold.PLP.Chemscore.Metal>
0.0000

> <Gold.Chemscore.Hbonds>
donor molecule, donor type, donor heavy atom, donor atom, acceptor molecule, acceptor atom, score
      L1  H     5    37       P1  7948  2.00
      P1  H  7997  8008       L1    14  1.00
      P1  H 10752 10763       L1    11  2.00

> <Gold.PLP.Chemscore.Internal.Correction>
0.0963

> <Gold.Rescore>
     Score         DG    S(hbond)    S(metal)    S(lipo)     H(rot)  DE(clash)    DE(int)     intcor
     15.39     -16.23       2.63        0.00      53.53       1.68       0.10       0.75       ----

> <Gold.Chemscore.Fitness>
15.3877

> <Gold.Chemscore.DG>
-16.2318

> <Gold.Chemscore.ZeroCoef>
-5.4800

> <Gold.Chemscore.Hbond>
2.6297

> <Gold.Chemscore.Metal>
0.0000

> <Gold.Chemscore.Lipo>
53.5349

> <Gold.Chemscore.Internal_Hbond>
0.0000

> <Gold.Chemscore.DEClash>
0.0985

> <Gold.Chemscore.DEInternal>
0.7456

> <Gold.Chemscore.Rot>
1.6777

> <Gold.Chemscore.Internal.Correction>
   9.000000E+99

> <Gold.Chemscore.Hbonds>
donor molecule, donor type, donor heavy atom, donor atom, acceptor molecule, acceptor atom, score
      L1  H     5    37       P1  7948  0.65
      P1  H  7997  8008       L1    14  0.87
      P1  H 10752 10763       L1    11  0.55

> <Gold.Chemscore.Hbond.Weighted>
-8.7832

> <Gold.Chemscore.Metal.Weighted>
-0.0000

> <Gold.Chemscore.Lipo.Weighted>
-6.2636

> <Gold.Chemscore.Internal_Hbond.Weighted>
0.0000

> <Gold.Chemscore.DEClash.Weighted>
0.0985

> <Gold.Chemscore.DEInternal.Weighted>
0.7456

> <Gold.Chemscore.Rot.Weighted>
4.2950

> <Gold.Chemscore.Internal.Correction.Weighted>
   9.000000E+99

> <Gold.Protein.RotatedTorsions>
[ 6907 6896 6895 6894 ] final   26.32 input  -60.11 | X-H torsion
[ 7974 7965 7964 7962 ] final  142.29 input  175.53 | X-H torsion
[ 8008 7997 7996 7995 ] final  -56.99 input   59.86 | X-H torsion
[ 10167 10162 10161 10158 ] final   15.24 input  -65.29 | X-H torsion
[ 10718 10713 10712 10709 ] final  -20.35 input   66.30 | X-H torsion
[ 10763 10752 10751 10750 ] final   52.60 input  -60.55 | X-H torsion
[ 11005 11000 10999 10996 ] final -106.33 input  -57.11 | X-H torsion

> <Gold.Protein.ActiveResidues>
 VAL166  LYS551  ARG553  GLY616  TRP617  ASP618  TYR619  PRO620  LYS621  CYS622 
 ASP623  PHE694  ASN695  SER759  ASP760  ASP761  ALA762  ILE779  LEU786  VAL792 
 PHE793  MET794  SER795  GLU796  ALA797  LYS798  CYS799  TRP800  GLU811  SER814 

> <Gold.Protein.RotatedAtoms>
  151.9858  135.0005  160.0559 H   0  0  0  0  0  0  0  0  0  0  0  0  # atno 6907 bound_to 6896
  152.1654  133.4604  159.4890 H   0  0  0  0  0  0  0  0  0  0  0  0  # atno 6908 bound_to 6896
  150.6894  134.1937  159.4338 H   0  0  0  0  0  0  0  0  0  0  0  0  # atno 6909 bound_to 6896
  144.9020  139.5409  143.5749 H   0  0  0  0  0  0  0  0  0  0  0  0  # atno 7974 bound_to 7965
  154.4251  140.1117  156.5725 H   0  0  0  0  0  0  0  0  0  0  0  0  # atno 8008 bound_to 7997
  155.6197  140.3495  155.4629 H   0  0  0  0  0  0  0  0  0  0  0  0  # atno 8009 bound_to 7997
  156.0034  140.1204  157.0514 H   0  0  0  0  0  0  0  0  0  0  0  0  # atno 8010 bound_to 7997
  140.5881  143.8850  150.6848 H   0  0  0  0  0  0  0  0  0  0  0  0  # atno 10167 bound_to 10162
  156.5331  130.4660  149.6537 H   0  0  0  0  0  0  0  0  0  0  0  0  # atno 10718 bound_to 10713
  152.9790  135.5807  154.4605 H   0  0  0  0  0  0  0  0  0  0  0  0  # atno 10763 bound_to 10752
  154.4182  135.2771  155.1995 H   0  0  0  0  0  0  0  0  0  0  0  0  # atno 10764 bound_to 10752
  154.3755  135.6158  153.5817 H   0  0  0  0  0  0  0  0  0  0  0  0  # atno 10765 bound_to 10752
  141.1010  133.8884  157.1843 H   0  0  0  0  0  0  0  0  0  0  0  0  # atno 11005 bound_to 11000
  146.3113  139.7758  142.9017 LP  0  0  0  0  0  0  0  0  0  0  0  0  # atno 17320 bound_to 7965
  145.3600  141.0324  143.3290 LP  0  0  0  0  0  0  0  0  0  0  0  0  # atno 17321 bound_to 7965
  140.2366  143.3695  152.1521 LP  0  0  0  0  0  0  0  0  0  0  0  0  # atno 17342 bound_to 10162
  139.5210  144.7040  151.5409 LP  0  0  0  0  0  0  0  0  0  0  0  0  # atno 17343 bound_to 10162
  156.3041  130.7193  151.2071 LP  0  0  0  0  0  0  0  0  0  0  0  0  # atno 17370 bound_to 10713
  157.7418  131.0498  150.5069 LP  0  0  0  0  0  0  0  0  0  0  0  0  # atno 17371 bound_to 10713
  139.9861  135.0081  156.9866 LP  0  0  0  0  0  0  0  0  0  0  0  0  # atno 17394 bound_to 11000
  140.5022  134.1085  155.7253 LP  0  0  0  0  0  0  0  0  0  0  0  0  # atno 17395 bound_to 11000

$$$$
