AV-unprocessed.smi:893|AV-procd|sdf|4070|dock8
  -GOLD-   22720 1553D 1   1.00000     0.00000
 Structure written by MMmdl.
 26 27  0  0  0  0  0  0  0  0  2 V2000
  149.9026  141.2054  155.5068 C   0  0  0  0  0  0  0  0  0  0  0  0
  149.6414  140.3482  156.7604 C   0  0  0  0  0  0  0  0  0  0  0  0
  150.8620  140.0829  157.6842 C   0  0  1  0  0  0  0  0  0  0  0  0
  151.4346  141.3950  158.1976 C   0  0  0  0  0  0  0  0  0  0  0  0
  152.5112  141.5784  159.1164 C   0  0  0  0  0  0  0  0  0  0  0  0
  152.7761  142.8504  159.3658 N   0  0  0  0  0  0  0  0  0  0  0  0
  151.8847  143.5283  158.6160 N   0  0  0  0  0  0  0  0  0  0  0  0
  151.8841  144.9752  158.6407 C   0  0  0  0  0  0  0  0  0  0  0  0
  151.0674  142.6806  157.9013 C   0  0  0  0  0  0  0  0  0  0  0  0
  150.4931  139.1863  158.7727 N   0  5  0  0  0  0  0  0  0  0  0  0
  151.2957  138.0961  158.7307 C   0  0  0  0  0  0  0  0  0  0  0  0
  151.2957  137.1326  159.4933 O   0  0  0  0  0  0  0  0  0  0  0  0
  152.1461  138.1748  157.7023 N   0  0  0  0  0  0  0  0  0  0  0  0
  151.9710  139.2912  157.0017 C   0  0  0  0  0  0  0  0  0  0  0  0
  152.5766  139.6348  155.9866 O   0  0  0  0  0  0  0  0  0  0  0  0
  148.9912  141.3092  154.9180 H   0  0  0  0  0  0  0  0  0  0  0  0
  150.6570  140.7534  154.8628 H   0  0  0  0  0  0  0  0  0  0  0  0
  150.2379  142.2098  155.7650 H   0  0  0  0  0  0  0  0  0  0  0  0
  148.8540  140.8354  157.3368 H   0  0  0  0  0  0  0  0  0  0  0  0
  149.2219  139.3920  156.4446 H   0  0  0  0  0  0  0  0  0  0  0  0
  153.1040  140.8221  159.6097 H   0  0  0  0  0  0  0  0  0  0  0  0
  151.0978  145.3596  157.9902 H   0  0  0  0  0  0  0  0  0  0  0  0
  152.8469  145.3507  158.2931 H   0  0  0  0  0  0  0  0  0  0  0  0
  151.7065  145.3273  159.6573 H   0  0  0  0  0  0  0  0  0  0  0  0
  150.2954  143.0562  157.2456 H   0  0  0  0  0  0  0  0  0  0  0  0
  152.8271  137.4652  157.4768 H   0  0  0  0  0  0  0  0  0  0  0  0
  1  2  1  0  0  0  0
  1 16  1  0  0  0  0
  1 17  1  0  0  0  0
  1 18  1  0  0  0  0
  2  3  1  0  0  0  0
  2 19  1  0  0  0  0
  2 20  1  0  0  0  0
  3 14  1  0  0  0  0
  3  4  1  0  0  0  0
  3 10  1  0  0  0  0
  4  9  2  0  0  0  0
  4  5  1  0  0  0  0
  5  6  2  0  0  0  0
  5 21  1  0  0  0  0
  6  7  1  0  0  0  0
  7  8  1  0  0  0  0
  7  9  1  0  0  0  0
  8 22  1  0  0  0  0
  8 23  1  0  0  0  0
  8 24  1  0  0  0  0
  9 25  1  0  0  0  0
 10 11  1  0  0  0  0
 11 12  2  0  0  0  0
 11 13  1  0  0  0  0
 13 14  1  0  0  0  0
 13 26  1  0  0  0  0
 14 15  2  0  0  0  0
M  CHG  1  10  -1
M  END
> <s_m_source_file>
AV-unprocessed.smi

> <i_m_source_file_index>
893

> <i_lp_mmshare_version>
43012

> <i_f3d_flags>
0

> <s_epik_input>
Tz1DMVtOSF1DKD1PKVtOSF1bQ0BAXTEoW0NIMl1bQ0gzXSljMltjSF1ubihbQ0gzXSlbY0hdMg==

> <s_epik_cmdline>
J2VwaWtfcHl0aG9uJywgJy1waCcsICc3LjAnLCAnLXRuJywgJzgnLCAnLW1hJywgJzIwMCcsICctbWV0YWxfYmluZGluZycsICctaW1hZScsICc8aW5maWxlLm1hZT4nLCAnLW9tYWUnLCAnPG91dGZpbGUubWFlPic=

> <r_lp_tautomer_probability>
1

> <r_epik_Ionization_Penalty>
4.97057

> <r_epik_Ionization_Penalty_Charging>
4.97009

> <r_epik_Ionization_Penalty_Neutral>
0.000472554

> <r_epik_State_Penalty>
4.98892

> <r_epik_Charging_Adjusted_Penalty>
9.95901

> <i_epik_Tot_Q>
-1

> <i_epik_Tot_abs_Q>
1

> <r_epik_Metal_State_Penalty>
1.41037

> <b_epik_Metal_Only>
1

> <s_lp_Force_Field>
OPLS_2005

> <r_lp_Energy>
9.72866

> <b_lp_Chiralities_Consistent>
1

> <s_lp_Variant>
AV-unprocessed.smi:893-5

> <Gold.Version>
5.8.1

> <Gold.Id.Protein>
6NUR|6NUR_protein|mol2

> <Gold.PLP.Fitness>
34.2828

> <Gold.PLP.PLP>
-26.6318

> <Gold.PLP.part.hbond>
-1.9486

> <Gold.PLP.part.metal>
0.0000

> <Gold.PLP.part.buried>
-5.5847

> <Gold.PLP.part.nonpolar>
-20.2413

> <Gold.PLP.part.repulsive>
0.0717

> <Gold.PLP.ligand.clash>
0.0000

> <Gold.PLP.ligand.torsion>
0.0707

> <Gold.PLP.Chemscore.Hbond>
1.9425

> <Gold.PLP.Chemscore.CHOScore>
0.6258

> <Gold.PLP.Chemscore.Metal>
0.0000

> <Gold.Chemscore.Hbonds>
donor molecule, donor type, donor heavy atom, donor atom, acceptor molecule, acceptor atom, score
      P1  H  6896  6907       L1    12  1.00
      P1  H  7997  8010       L1    15  1.00
      L1  C     9    25       P1  8028  0.61

> <Gold.PLP.Chemscore.Internal.Correction>
0.0877

> <Gold.Rescore>
     Score         DG    S(hbond)    S(metal)    S(lipo)     H(rot)  DE(clash)    DE(int)     intcor
     15.05     -15.15       1.98        0.00      54.20       1.28       0.04       0.05       ----

> <Gold.Chemscore.Fitness>
15.0548

> <Gold.Chemscore.DG>
-15.1451

> <Gold.Chemscore.ZeroCoef>
-5.4800

> <Gold.Chemscore.Hbond>
1.9767

> <Gold.Chemscore.Metal>
0.0000

> <Gold.Chemscore.Lipo>
54.1992

> <Gold.Chemscore.Internal_Hbond>
0.0000

> <Gold.Chemscore.DEClash>
0.0402

> <Gold.Chemscore.DEInternal>
0.0501

> <Gold.Chemscore.Rot>
1.2805

> <Gold.Chemscore.Internal.Correction>
   9.000000E+99

> <Gold.Chemscore.Hbonds>
donor molecule, donor type, donor heavy atom, donor atom, acceptor molecule, acceptor atom, score
      P1  H  6896  6907       L1    12  0.94
      P1  H  7997  8010       L1    15  0.97

> <Gold.Chemscore.Hbond.Weighted>
-6.6020

> <Gold.Chemscore.Metal.Weighted>
-0.0000

> <Gold.Chemscore.Lipo.Weighted>
-6.3413

> <Gold.Chemscore.Internal_Hbond.Weighted>
0.0000

> <Gold.Chemscore.DEClash.Weighted>
0.0402

> <Gold.Chemscore.DEInternal.Weighted>
0.0501

> <Gold.Chemscore.Rot.Weighted>
3.2782

> <Gold.Chemscore.Internal.Correction.Weighted>
   9.000000E+99

> <Gold.Protein.RotatedTorsions>
[ 6907 6896 6895 6894 ] final  -13.06 input  -60.11 | X-H torsion
[ 7974 7965 7964 7962 ] final   84.22 input  175.53 | X-H torsion
[ 8008 7997 7996 7995 ] final  100.20 input   59.86 | X-H torsion
[ 10167 10162 10161 10158 ] final  -14.61 input  -65.29 | X-H torsion
[ 10718 10713 10712 10709 ] final -148.87 input   66.30 | X-H torsion
[ 10763 10752 10751 10750 ] final  161.94 input  -60.55 | X-H torsion
[ 11005 11000 10999 10996 ] final   52.32 input  -57.11 | X-H torsion

> <Gold.Protein.ActiveResidues>
 VAL166  LYS551  ARG553  GLY616  TRP617  ASP618  TYR619  PRO620  LYS621  CYS622 
 ASP623  PHE694  ASN695  SER759  ASP760  ASP761  ALA762  ILE779  LEU786  VAL792 
 PHE793  MET794  SER795  GLU796  ALA797  LYS798  CYS799  TRP800  GLU811  SER814 

> <Gold.Protein.RotatedAtoms>
  151.3609  135.0904  159.9433 H   0  0  0  0  0  0  0  0  0  0  0  0  # atno 6907 bound_to 6896
  152.5162  133.9259  159.7567 H   0  0  0  0  0  0  0  0  0  0  0  0  # atno 6908 bound_to 6896
  150.9653  133.6347  159.2776 H   0  0  0  0  0  0  0  0  0  0  0  0  # atno 6909 bound_to 6896
  145.6016  139.2353  143.2242 H   0  0  0  0  0  0  0  0  0  0  0  0  # atno 7974 bound_to 7965
  156.1180  140.3217  155.8167 H   0  0  0  0  0  0  0  0  0  0  0  0  # atno 8008 bound_to 7997
  155.4555  140.0535  157.3014 H   0  0  0  0  0  0  0  0  0  0  0  0  # atno 8009 bound_to 7997
  154.4807  140.2051  155.9785 H   0  0  0  0  0  0  0  0  0  0  0  0  # atno 8010 bound_to 7997
  140.7204  143.5303  150.9528 H   0  0  0  0  0  0  0  0  0  0  0  0  # atno 10167 bound_to 10162
  156.4259  130.8051  151.2276 H   0  0  0  0  0  0  0  0  0  0  0  0  # atno 10718 bound_to 10713
  154.2707  135.2766  155.2739 H   0  0  0  0  0  0  0  0  0  0  0  0  # atno 10763 bound_to 10752
  154.5304  135.5731  153.6757 H   0  0  0  0  0  0  0  0  0  0  0  0  # atno 10764 bound_to 10752
  152.9945  135.6226  154.2862 H   0  0  0  0  0  0  0  0  0  0  0  0  # atno 10765 bound_to 10752
  140.0859  134.5275  155.8900 H   0  0  0  0  0  0  0  0  0  0  0  0  # atno 11005 bound_to 11000
  146.1572  140.6841  142.9294 LP  0  0  0  0  0  0  0  0  0  0  0  0  # atno 17320 bound_to 7965
  144.7307  140.4664  143.6940 LP  0  0  0  0  0  0  0  0  0  0  0  0  # atno 17321 bound_to 7965
  139.9023  143.6820  152.3129 LP  0  0  0  0  0  0  0  0  0  0  0  0  # atno 17342 bound_to 10162
  139.7174  144.7609  151.1011 LP  0  0  0  0  0  0  0  0  0  0  0  0  # atno 17343 bound_to 10162
  157.7508  131.0213  150.3746 LP  0  0  0  0  0  0  0  0  0  0  0  0  # atno 17370 bound_to 10713
  156.4074  130.3927  149.6916 LP  0  0  0  0  0  0  0  0  0  0  0  0  # atno 17371 bound_to 10713
  141.2062  133.6653  156.6228 LP  0  0  0  0  0  0  0  0  0  0  0  0  # atno 17394 bound_to 11000
  140.3421  134.7840  157.4405 LP  0  0  0  0  0  0  0  0  0  0  0  0  # atno 17395 bound_to 11000

$$$$
