AV-unprocessed.smi:225|AV-procd|sdf|1724|dock7
  -GOLD-   2262020203D 1   1.00000     0.00000
 Structure written by MMmdl.
 56 59  0  0  0  0  0  0  0  0  1 V2000
  146.6041  138.5858  151.0456 O   0  0  0  0  0  0  0  0  0  0  0  0
  146.2697  138.3408  152.3940 C   0  0  0  0  0  0  0  0  0  0  0  0
  145.3958  137.0785  152.4841 C   0  0  0  0  0  0  0  0  0  0  0  0
  145.9410  136.0734  153.4013 N   0  0  0  0  0  0  0  0  0  0  0  0
  146.3965  134.8090  152.8216 C   0  0  0  0  0  0  0  0  0  0  0  0
  145.5244  134.3257  151.6435 C   0  0  0  0  0  0  0  0  0  0  0  0
  144.0987  133.9921  152.1266 C   0  0  0  0  0  0  0  0  0  0  0  0
  143.2040  133.5126  150.9717 C   0  0  0  0  0  0  0  0  0  0  0  0
  143.8238  132.3053  150.2521 C   0  0  0  0  0  0  0  0  0  0  0  0
  145.2467  132.6222  149.7676 C   0  0  0  0  0  0  0  0  0  0  0  0
  146.1351  133.1028  150.9264 C   0  0  0  0  0  0  0  0  0  0  0  0
  145.3229  135.9136  154.6003 C   0  0  0  0  0  0  0  0  0  0  0  0
  144.1434  135.2407  154.6764 N   0  0  0  0  0  0  0  0  0  0  0  0
  143.5389  135.0696  155.8555 C   0  0  0  0  0  0  0  0  0  0  0  0
  143.9341  135.4778  157.0627 N   0  0  0  0  0  0  0  0  0  0  0  0
  145.1199  136.1478  156.9949 C   0  0  0  0  0  0  0  0  0  0  0  0
  145.8719  136.4109  155.8153 C   0  0  0  0  0  0  0  0  0  0  0  0
  147.0153  137.1322  156.1344 N   0  0  0  0  0  0  0  0  0  0  0  0
  146.9471  137.2817  157.4288 C   0  0  0  0  0  0  0  0  0  0  0  0
  145.8473  136.7112  158.0295 N   0  0  0  0  0  0  0  0  0  0  0  0
  145.5229  136.7223  159.4484 C   0  0  0  0  0  0  0  0  0  0  0  0
  146.4878  135.8768  160.3156 C   0  0  2  0  0  0  0  0  0  0  0  0
  146.5372  134.5605  159.7968 O   0  0  0  0  0  0  0  0  0  0  0  0
  146.0548  135.8181  161.7825 C   0  0  0  0  0  0  0  0  0  0  0  0
  147.0931  136.6735  162.4986 C   0  0  0  0  0  0  0  0  0  0  0  0
  148.2726  136.4103  161.7607 O   0  0  0  0  0  0  0  0  0  0  0  0
  147.9193  136.4458  160.3858 C   0  0  0  0  0  0  0  0  0  0  0  0
  145.8099  138.5795  150.5335 H   0  0  0  0  0  0  0  0  0  0  0  0
  147.1873  138.2115  152.9686 H   0  0  0  0  0  0  0  0  0  0  0  0
  145.7562  139.2162  152.7913 H   0  0  0  0  0  0  0  0  0  0  0  0
  144.3811  137.3418  152.7858 H   0  0  0  0  0  0  0  0  0  0  0  0
  145.3031  136.6463  151.4885 H   0  0  0  0  0  0  0  0  0  0  0  0
  147.4354  134.8746  152.4946 H   0  0  0  0  0  0  0  0  0  0  0  0
  146.3824  134.0584  153.6128 H   0  0  0  0  0  0  0  0  0  0  0  0
  145.4360  135.1328  150.9164 H   0  0  0  0  0  0  0  0  0  0  0  0
  144.1415  133.2212  152.8971 H   0  0  0  0  0  0  0  0  0  0  0  0
  143.6490  134.8692  152.5935 H   0  0  0  0  0  0  0  0  0  0  0  0
  142.2154  133.2518  151.3506 H   0  0  0  0  0  0  0  0  0  0  0  0
  143.0579  134.3267  150.2605 H   0  0  0  0  0  0  0  0  0  0  0  0
  143.8500  131.4501  150.9287 H   0  0  0  0  0  0  0  0  0  0  0  0
  143.1985  132.0134  149.4079 H   0  0  0  0  0  0  0  0  0  0  0  0
  145.6868  131.7390  149.3039 H   0  0  0  0  0  0  0  0  0  0  0  0
  145.2075  133.3907  148.9947 H   0  0  0  0  0  0  0  0  0  0  0  0
  147.1263  133.3459  150.5423 H   0  0  0  0  0  0  0  0  0  0  0  0
  146.2703  132.2882  151.6387 H   0  0  0  0  0  0  0  0  0  0  0  0
  142.6068  134.5249  155.8283 H   0  0  0  0  0  0  0  0  0  0  0  0
  147.7054  137.8148  157.9836 H   0  0  0  0  0  0  0  0  0  0  0  0
  145.5267  137.7588  159.7882 H   0  0  0  0  0  0  0  0  0  0  0  0
  144.4983  136.3672  159.5679 H   0  0  0  0  0  0  0  0  0  0  0  0
  145.6684  134.1908  159.8354 H   0  0  0  0  0  0  0  0  0  0  0  0
  145.0381  136.1746  161.9515 H   0  0  0  0  0  0  0  0  0  0  0  0
  146.1106  134.7985  162.1675 H   0  0  0  0  0  0  0  0  0  0  0  0
  146.8434  137.7337  162.4311 H   0  0  0  0  0  0  0  0  0  0  0  0
  147.2057  136.4094  163.5502 H   0  0  0  0  0  0  0  0  0  0  0  0
  148.6387  135.8993  159.7745 H   0  0  0  0  0  0  0  0  0  0  0  0
  147.9450  137.4891  160.0703 H   0  0  0  0  0  0  0  0  0  0  0  0
  1  2  1  0  0  0  0
  1 28  1  0  0  0  0
  2  3  1  0  0  0  0
  2 29  1  0  0  0  0
  2 30  1  0  0  0  0
  3  4  1  0  0  0  0
  3 31  1  0  0  0  0
  3 32  1  0  0  0  0
  4  5  1  0  0  0  0
  4 12  1  0  0  0  0
  5  6  1  0  0  0  0
  5 33  1  0  0  0  0
  5 34  1  0  0  0  0
  6 11  1  0  0  0  0
  6  7  1  0  0  0  0
  6 35  1  0  0  0  0
  7  8  1  0  0  0  0
  7 36  1  0  0  0  0
  7 37  1  0  0  0  0
  8  9  1  0  0  0  0
  8 38  1  0  0  0  0
  8 39  1  0  0  0  0
  9 10  1  0  0  0  0
  9 40  1  0  0  0  0
  9 41  1  0  0  0  0
 10 11  1  0  0  0  0
 10 42  1  0  0  0  0
 10 43  1  0  0  0  0
 11 44  1  0  0  0  0
 11 45  1  0  0  0  0
 12 17  1  0  0  0  0
 12 13  2  0  0  0  0
 13 14  1  0  0  0  0
 14 15  2  0  0  0  0
 14 46  1  0  0  0  0
 15 16  1  0  0  0  0
 16 20  1  0  0  0  0
 16 17  2  0  0  0  0
 17 18  1  0  0  0  0
 18 19  2  0  0  0  0
 19 20  1  0  0  0  0
 19 47  1  0  0  0  0
 20 21  1  0  0  0  0
 21 22  1  0  0  0  0
 21 48  1  0  0  0  0
 21 49  1  0  0  0  0
 22 27  1  0  0  0  0
 22 23  1  0  0  0  0
 22 24  1  0  0  0  0
 23 50  1  0  0  0  0
 24 25  1  0  0  0  0
 24 51  1  0  0  0  0
 24 52  1  0  0  0  0
 25 26  1  0  0  0  0
 25 53  1  0  0  0  0
 25 54  1  0  0  0  0
 26 27  1  0  0  0  0
 27 55  1  0  0  0  0
 27 56  1  0  0  0  0
M  END
> <s_m_source_file>
AV-unprocessed.smi

> <i_m_source_file_index>
225

> <i_lp_mmshare_version>
43012

> <i_f3d_flags>
0

> <s_epik_input>
W0NIMl0xW0NIMl1bQ0gyXVtDSDJdW0NIMl1bQ0hdMVtDSDJdTihbQ0gyXVtDSDJdW09IXSljKG5bY0hdbjIpYyhjMjMpbltjSF1uM1tDSDJdW0NAQF00KFtPSF0pW0NIMl1bQ0gyXU9bQ0gyXTQ=

> <s_epik_cmdline>
J2VwaWtfcHl0aG9uJywgJy1waCcsICc3LjAnLCAnLXRuJywgJzgnLCAnLW1hJywgJzIwMCcsICctbWV0YWxfYmluZGluZycsICctaW1hZScsICc8aW5maWxlLm1hZT4nLCAnLW9tYWUnLCAnPG91dGZpbGUubWFlPic=

> <r_lp_tautomer_probability>
1

> <r_epik_Ionization_Penalty>
0.00405109

> <r_epik_Ionization_Penalty_Charging>
0

> <r_epik_Ionization_Penalty_Neutral>
0.00405109

> <r_epik_State_Penalty>
0.00270467

> <r_epik_Charging_Adjusted_Penalty>
0.00270467

> <i_epik_Tot_Q>
0

> <i_epik_Tot_abs_Q>
0

> <r_epik_Metal_State_Penalty>
-0

> <b_epik_Metal_Only>
0

> <s_lp_Force_Field>
OPLS_2005

> <r_lp_Energy>
36.6988

> <b_lp_Chiralities_Consistent>
1

> <s_lp_Variant>
AV-unprocessed.smi:225-2

> <Gold.Version>
5.8.1

> <Gold.Id.Protein>
6NUR|6NUR_protein|mol2

> <Gold.PLP.Fitness>
45.3395

> <Gold.PLP.PLP>
-34.1336

> <Gold.PLP.part.hbond>
-3.3445

> <Gold.PLP.part.metal>
0.0000

> <Gold.PLP.part.buried>
-4.8386

> <Gold.PLP.part.nonpolar>
-27.0055

> <Gold.PLP.part.repulsive>
0.2063

> <Gold.PLP.ligand.clash>
0.0000

> <Gold.PLP.ligand.torsion>
1.8613

> <Gold.PLP.Chemscore.Hbond>
3.0000

> <Gold.PLP.Chemscore.CHOScore>
1.6275

> <Gold.PLP.Chemscore.Metal>
0.0000

> <Gold.Chemscore.Hbonds>
donor molecule, donor type, donor heavy atom, donor atom, acceptor molecule, acceptor atom, score
      L1  H     1    28       P1 10171  0.96
      P1  H  6931  6943       L1    26  0.76
      P1  H  7954  7966       L1     1  0.93
      L1  C    14    46       P1 11000  1.00

> <Gold.PLP.Chemscore.Internal.Correction>
1.0461

> <Gold.Rescore>
     Score         DG    S(hbond)    S(metal)    S(lipo)     H(rot)  DE(clash)    DE(int)     intcor
     10.91     -15.20       2.71        0.00      87.99       3.76       1.10       3.18       ----

> <Gold.Chemscore.Fitness>
10.9148

> <Gold.Chemscore.DG>
-15.1964

> <Gold.Chemscore.ZeroCoef>
-5.4800

> <Gold.Chemscore.Hbond>
2.7120

> <Gold.Chemscore.Metal>
0.0000

> <Gold.Chemscore.Lipo>
87.9937

> <Gold.Chemscore.Internal_Hbond>
0.0000

> <Gold.Chemscore.DEClash>
1.1019

> <Gold.Chemscore.DEInternal>
3.1797

> <Gold.Chemscore.Rot>
3.7644

> <Gold.Chemscore.Internal.Correction>
   9.000000E+99

> <Gold.Chemscore.Hbonds>
donor molecule, donor type, donor heavy atom, donor atom, acceptor molecule, acceptor atom, score
      L1  H     1    28       P1 10171  0.90
      P1  H  6931  6943       L1    26  0.02
      P1  H  7954  7966       L1     1  0.59

> <Gold.Chemscore.Hbond.Weighted>
-9.0580

> <Gold.Chemscore.Metal.Weighted>
-0.0000

> <Gold.Chemscore.Lipo.Weighted>
-10.2953

> <Gold.Chemscore.Internal_Hbond.Weighted>
0.0000

> <Gold.Chemscore.DEClash.Weighted>
1.1019

> <Gold.Chemscore.DEInternal.Weighted>
3.1797

> <Gold.Chemscore.Rot.Weighted>
9.6369

> <Gold.Chemscore.Internal.Correction.Weighted>
   9.000000E+99

> <Gold.Protein.RotatedTorsions>
[ 6907 6896 6895 6894 ] final  138.61 input  -60.11 | X-H torsion
[ 7974 7965 7964 7962 ] final   68.98 input  175.53 | X-H torsion
[ 8008 7997 7996 7995 ] final  116.22 input   59.86 | X-H torsion
[ 10167 10162 10161 10158 ] final   52.40 input  -65.29 | X-H torsion
[ 10718 10713 10712 10709 ] final -169.29 input   66.30 | X-H torsion
[ 10763 10752 10751 10750 ] final  -44.40 input  -60.55 | X-H torsion
[ 11005 11000 10999 10996 ] final  155.78 input  -57.11 | X-H torsion

> <Gold.Protein.ActiveResidues>
 VAL166  LYS551  ARG553  GLY616  TRP617  ASP618  TYR619  PRO620  LYS621  CYS622 
 ASP623  PHE694  ASN695  SER759  ASP760  ASP761  ALA762  ILE779  LEU786  VAL792 
 PHE793  MET794  SER795  GLU796  ALA797  LYS798  CYS799  TRP800  GLU811  SER814 

> <Gold.Protein.RotatedAtoms>
  152.2645  133.5327  159.5401 H   0  0  0  0  0  0  0  0  0  0  0  0  # atno 6907 bound_to 6896
  150.7137  134.0783  159.3898 H   0  0  0  0  0  0  0  0  0  0  0  0  # atno 6908 bound_to 6896
  151.8700  135.0493  160.0529 H   0  0  0  0  0  0  0  0  0  0  0  0  # atno 6909 bound_to 6896
  145.7960  139.2958  143.1183 H   0  0  0  0  0  0  0  0  0  0  0  0  # atno 7974 bound_to 7965
  156.2427  140.2922  156.0490 H   0  0  0  0  0  0  0  0  0  0  0  0  # atno 8008 bound_to 7997
  155.1903  140.0406  157.2916 H   0  0  0  0  0  0  0  0  0  0  0  0  # atno 8009 bound_to 7997
  154.6199  140.2473  155.7569 H   0  0  0  0  0  0  0  0  0  0  0  0  # atno 8010 bound_to 7997
  140.2517  144.3471  150.6346 H   0  0  0  0  0  0  0  0  0  0  0  0  # atno 10167 bound_to 10162
  156.7094  130.9227  151.3088 H   0  0  0  0  0  0  0  0  0  0  0  0  # atno 10718 bound_to 10713
  154.0115  135.6681  153.4765 H   0  0  0  0  0  0  0  0  0  0  0  0  # atno 10763 bound_to 10752
  153.0619  135.5023  154.8109 H   0  0  0  0  0  0  0  0  0  0  0  0  # atno 10764 bound_to 10752
  154.6993  135.3076  154.9329 H   0  0  0  0  0  0  0  0  0  0  0  0  # atno 10765 bound_to 10752
  140.1613  134.8607  157.2578 H   0  0  0  0  0  0  0  0  0  0  0  0  # atno 11005 bound_to 11000
  145.9928  140.8588  143.0058 LP  0  0  0  0  0  0  0  0  0  0  0  0  # atno 17320 bound_to 7965
  144.6775  140.2240  143.7363 LP  0  0  0  0  0  0  0  0  0  0  0  0  # atno 17321 bound_to 7965
  140.6035  143.2167  151.7026 LP  0  0  0  0  0  0  0  0  0  0  0  0  # atno 17342 bound_to 10162
  139.5044  144.3755  152.0428 LP  0  0  0  0  0  0  0  0  0  0  0  0  # atno 17343 bound_to 10162
  157.6942  130.9265  150.0598 LP  0  0  0  0  0  0  0  0  0  0  0  0  # atno 17370 bound_to 10713
  156.1672  130.3645  149.9216 LP  0  0  0  0  0  0  0  0  0  0  0  0  # atno 17371 bound_to 10713
  140.2486  134.3710  155.7451 LP  0  0  0  0  0  0  0  0  0  0  0  0  # atno 17394 bound_to 11000
  141.2209  133.7304  156.8900 LP  0  0  0  0  0  0  0  0  0  0  0  0  # atno 17395 bound_to 11000

$$$$
