#       Name:                AV-unprocessed.smi:1278
#       Creating user name   scv26
#       Creation time:       Fri Mar 27 04:48:45 2020


#       File generated by GOLD software.
#

@<TRIPOS>MOLECULE
AV-unprocessed.smi:1278
    42    43     1
SMALL
NO_CHARGES


@<TRIPOS>ATOM
      1 ****        -0.7960   2.8118   3.1090 C.3            1 S1                 0.0000
      2 ****        -1.5216   1.4659   3.2824 C.3            1 S1                 0.0000
      3 ****        -3.0077   1.5330   2.8837 C.3            1 S1                 0.0000
      4 ****        -3.1737   1.5892   1.3585 C.3            1 S1                 0.0000
      5 ****        -2.4214   0.4350   0.6774 C.3            1 S1                 0.0000
      6 ****        -0.9855   0.4315   1.0587 N.4            1 S1                 1.0000
      7 ****        -0.2053  -0.5762   0.2986 C.3            1 S1                 0.0000
      8 ****         1.2948  -0.2302   0.2386 C.3            1 S1                 0.0000
      9 ****         2.0318  -1.2035  -0.5585 N.am           1 S1                 0.0000
     10 ****         2.0777  -1.2422  -1.8979 C.2            1 S1                 0.0000
     11 ****         1.4652  -0.3991  -2.5578 O.2            1 S1                 0.0000
     12 ****         2.8240  -2.2574  -2.3870 N.pl3          1 S1                -1.0000
     13 ****         2.9544  -2.4155  -3.7143 C.2            1 S1                 0.0000
     14 ****         4.0228  -1.9899  -4.3979 N.2            1 S1                 0.0000
     15 ****         3.9510  -2.2609  -5.7656 C.2            1 S1                 0.0000
     16 ****         2.8049  -2.9161  -6.1305 C.2            1 S1                 0.0000
     17 ****         1.7764  -3.2159  -4.7587 S.3            1 S1                 0.0000
     18 ****        -0.8110   0.3200   2.5326 C.3            1 S1                 0.0000
     19 ****        -0.7564   3.1222   2.0650 H              1 S1                 0.0000
     20 ****         0.2303   2.7516   3.4726 H              1 S1                 0.0000
     21 ****        -1.2954   3.6011   3.6714 H              1 S1                 0.0000
     22 ****        -1.4823   1.2325   4.3472 H              1 S1                 0.0000
     23 ****        -3.5216   0.6492   3.2642 H              1 S1                 0.0000
     24 ****        -3.4921   2.3918   3.3501 H              1 S1                 0.0000
     25 ****        -4.2320   1.5448   1.0996 H              1 S1                 0.0000
     26 ****        -2.8068   2.5429   0.9780 H              1 S1                 0.0000
     27 ****        -2.8729  -0.5217   0.9448 H              1 S1                 0.0000
     28 ****        -2.5175   0.5397  -0.4040 H              1 S1                 0.0000
     29 ****        -0.3594  -1.5679   0.7270 H              1 S1                 0.0000
     30 ****        -0.5871  -0.6215  -0.7223 H              1 S1                 0.0000
     31 ****         1.4425   0.7723  -0.1663 H              1 S1                 0.0000
     32 ****         1.7361  -0.2304   1.2344 H              1 S1                 0.0000
     33 ****         2.5534  -1.9083  -0.0574 H              1 S1                 0.0000
     34 ****         4.7627  -1.9513  -6.4069 H              1 S1                 0.0000
     35 ****         2.5053  -3.2406  -7.1154 H              1 S1                 0.0000
     36 ****         0.2460   0.3211   2.7967 H              1 S1                 0.0000
     37 ****        -1.2103  -0.6398   2.8649 H              1 S1                 0.0000
     38 ****        -0.6215   1.3330   0.7850 H              1 S1                 0.0000
     39 ****         0.9359   0.3112  -2.0937 LP             1 S1                 0.0000
     40 ****         1.4978  -0.4259  -3.5569 LP             1 S1                 0.0000
     41 ****         3.2789  -2.8906  -1.7608 LP             1 S1                 0.0000
     42 ****         4.7972  -1.5232  -3.9709 LP             1 S1                 0.0000
@<TRIPOS>BOND
    1    1    2 1     
    2    1   19 1     
    3    1   20 1     
    4    1   21 1     
    5    2   18 1     
    6    2    3 1     
    7    2   22 1     
    8    3    4 1     
    9    3   23 1     
   10    3   24 1     
   11    4    5 1     
   12    4   25 1     
   13    4   26 1     
   14    5    6 1     
   15    5   27 1     
   16    5   28 1     
   17    6    7 1     
   18    6   18 1     
   19    6   38 1     
   20    7    8 1     
   21    7   29 1     
   22    7   30 1     
   23    8    9 1     
   24    8   31 1     
   25    8   32 1     
   26    9   10 am    
   27    9   33 1     
   28   10   11 2     
   29   10   12 1     
   30   12   13 1     
   31   13   17 1     
   32   13   14 2     
   33   14   15 1     
   34   15   16 2     
   35   15   34 1     
   36   16   17 1     
   37   16   35 1     
   38   18   36 1     
   39   18   37 1     
   40   11   39 1     
   41   11   40 1     
   42   12   41 1     
   43   14   42 1     
@<TRIPOS>SUBSTRUCTURE
      1 S1             1
@<TRIPOS>SET
LONE_PAIRS      STATIC     ATOMS    <user>   **** ""
4 39 40 41 42
DONOR_HYDROGENS      STATIC     ATOMS    <user>   **** ""
2 38 33
ATOM$BLUE        STATIC     ATOMS    COLORGROUP SYSTEM
4 39 40 41 42
ATOM$RED        STATIC     ATOMS    COLORGROUP SYSTEM
2 38 33
