AV-unprocessed.smi:2845|AV-procd|sdf|10950|dock7
  -GOLD-   2272015403D 1   1.00000     0.00000
 Structure written by MMmdl.
 43 45  0  0  0  0  0  0  0  0  2 V2000
  152.3553  143.3184  161.1141 C   0  0  0  0  0  0  0  0  0  0  0  0
  152.0766  142.5707  159.8212 C   0  0  0  0  0  0  0  0  0  0  0  0
  151.1538  143.1261  158.9063 C   0  0  0  0  0  0  0  0  0  0  0  0
  150.9236  142.4212  157.7308 C   0  0  0  0  0  0  0  0  0  0  0  0
  150.0907  142.7013  156.6454 N   0  3  0  0  0  0  0  0  0  0  0  0
  150.2040  141.7104  155.7182 C   0  0  0  0  0  0  0  0  0  0  0  0
  151.0957  140.8005  156.1958 N   0  0  0  0  0  0  0  0  0  0  0  0
  151.5748  139.5494  155.5901 C   0  0  0  0  0  0  0  0  0  0  0  0
  150.9358  138.2955  156.2183 C   0  0  1  0  0  0  0  0  0  0  0  0
  149.5601  138.5235  156.4600 O   0  0  0  0  0  0  0  0  0  0  0  0
  151.1091  137.0542  155.3221 C   0  0  0  0  0  0  0  0  0  0  0  0
  150.6091  135.8430  155.9474 N   0  0  0  0  0  0  0  0  0  0  0  0
  150.1273  135.6380  157.1768 C   0  0  0  0  0  0  0  0  0  0  0  0
  149.7470  134.3878  157.4058 N   0  0  0  0  0  0  0  0  0  0  0  0
  150.0463  133.8487  156.1887 C   0  0  0  0  0  0  0  0  0  0  0  0
  149.7503  132.0883  155.8325 S   0  0  2  0  0  0  0  0  0  0  0  0
  149.4539  132.3159  154.0159 C   0  0  0  0  0  0  0  0  0  0  0  0
  148.3998  131.7510  156.4683 O   0  0  0  0  0  0  0  0  0  0  0  0
  150.5663  134.6677  155.2765 N   0  0  0  0  0  0  0  0  0  0  0  0
  151.5719  141.2027  157.4497 C   0  0  0  0  0  0  0  0  0  0  0  0
  152.4832  140.6416  158.3413 C   0  0  0  0  0  0  0  0  0  0  0  0
  152.7326  141.3438  159.5420 C   0  0  0  0  0  0  0  0  0  0  0  0
  153.7262  140.7574  160.5303 C   0  0  0  0  0  0  0  0  0  0  0  0
  151.7923  144.2509  161.1654 H   0  0  0  0  0  0  0  0  0  0  0  0
  153.4144  143.5644  161.1942 H   0  0  0  0  0  0  0  0  0  0  0  0
  152.0738  142.7119  161.9751 H   0  0  0  0  0  0  0  0  0  0  0  0
  150.6512  144.0602  159.1113 H   0  0  0  0  0  0  0  0  0  0  0  0
  149.6812  141.6568  154.7740 H   0  0  0  0  0  0  0  0  0  0  0  0
  151.4085  139.5832  154.5132 H   0  0  0  0  0  0  0  0  0  0  0  0
  152.6562  139.5221  155.7297 H   0  0  0  0  0  0  0  0  0  0  0  0
  151.4114  138.1039  157.1811 H   0  0  0  0  0  0  0  0  0  0  0  0
  149.4429  138.7099  157.3796 H   0  0  0  0  0  0  0  0  0  0  0  0
  150.6014  137.1958  154.3664 H   0  0  0  0  0  0  0  0  0  0  0  0
  152.1648  136.9022  155.0941 H   0  0  0  0  0  0  0  0  0  0  0  0
  150.0504  136.4205  157.9175 H   0  0  0  0  0  0  0  0  0  0  0  0
  149.9962  133.1820  153.6359 H   0  0  0  0  0  0  0  0  0  0  0  0
  148.3909  132.4596  153.8221 H   0  0  0  0  0  0  0  0  0  0  0  0
  149.7896  131.4348  153.4695 H   0  0  0  0  0  0  0  0  0  0  0  0
  152.9898  139.7124  158.1263 H   0  0  0  0  0  0  0  0  0  0  0  0
  154.0978  139.7885  160.1949 H   0  0  0  0  0  0  0  0  0  0  0  0
  153.2610  140.6141  161.5057 H   0  0  0  0  0  0  0  0  0  0  0  0
  154.5831  141.4211  160.6483 H   0  0  0  0  0  0  0  0  0  0  0  0
  149.4901  143.5092  156.5416 H   0  0  0  0  0  0  0  0  0  0  0  0
  1  2  1  0  0  0  0
  1 24  1  0  0  0  0
  1 25  1  0  0  0  0
  1 26  1  0  0  0  0
  2 22  1  0  0  0  0
  2  3  2  0  0  0  0
  3  4  1  0  0  0  0
  3 27  1  0  0  0  0
  4 20  2  0  0  0  0
  4  5  1  0  0  0  0
  5  6  2  0  0  0  0
  5 43  1  0  0  0  0
  6  7  1  0  0  0  0
  6 28  1  0  0  0  0
  7  8  1  0  0  0  0
  7 20  1  0  0  0  0
  8  9  1  0  0  0  0
  8 29  1  0  0  0  0
  8 30  1  0  0  0  0
  9 10  1  0  0  0  0
  9 11  1  0  0  0  0
  9 31  1  0  0  0  0
 10 32  1  0  0  0  0
 11 12  1  0  0  0  0
 11 33  1  0  0  0  0
 11 34  1  0  0  0  0
 12 19  1  0  0  0  0
 12 13  1  0  0  0  0
 13 14  2  0  0  0  0
 13 35  1  0  0  0  0
 14 15  1  0  0  0  0
 15 16  1  0  0  0  0
 15 19  2  0  0  0  0
 16 17  1  0  0  0  0
 16 18  2  0  0  0  0
 17 36  1  0  0  0  0
 17 37  1  0  0  0  0
 17 38  1  0  0  0  0
 20 21  1  0  0  0  0
 21 22  2  0  0  0  0
 21 39  1  0  0  0  0
 22 23  1  0  0  0  0
 23 40  1  0  0  0  0
 23 41  1  0  0  0  0
 23 42  1  0  0  0  0
M  CHG  1   5   1
M  END
> <s_m_source_file>
AV-unprocessed.smi

> <i_m_source_file_index>
2845

> <i_lp_mmshare_version>
43012

> <i_f3d_flags>
0

> <s_epik_input>
W0NIM11jKFtjSF0xKWMoW0NIM10pW2NIXWMoYzEyKW4oW2NIXW4yKVtDSDJdW0NASF0oW09IXSlbQ0gyXW4zW2NIXW5jKG4zKVtTQF0oPU8pW0NIM10=

> <s_epik_cmdline>
J2VwaWtfcHl0aG9uJywgJy1waCcsICc3LjAnLCAnLXRuJywgJzgnLCAnLW1hJywgJzIwMCcsICctbWV0YWxfYmluZGluZycsICctaW1hZScsICc8aW5maWxlLm1hZT4nLCAnLW9tYWUnLCAnPG91dGZpbGUubWFlPic=

> <r_lp_tautomer_probability>
1

> <r_epik_Ionization_Penalty>
1.12076

> <r_epik_Ionization_Penalty_Charging>
1.12075

> <r_epik_Ionization_Penalty_Neutral>
1.54566e-06

> <r_epik_State_Penalty>
1.17957

> <r_epik_Charging_Adjusted_Penalty>
2.30033

> <i_epik_Tot_Q>
1

> <i_epik_Tot_abs_Q>
1

> <r_epik_Metal_State_Penalty>
1.26402

> <b_epik_Metal_Only>
0

> <s_lp_Force_Field>
OPLS_2005

> <r_lp_Energy>
14.8832

> <b_lp_Chiralities_Consistent>
1

> <s_lp_Variant>
AV-unprocessed.smi:2845-8

> <Gold.Version>
5.8.1

> <Gold.Id.Protein>
6NUR|6NUR_protein|mol2

> <Gold.PLP.Fitness>
48.8648

> <Gold.PLP.PLP>
-40.8283

> <Gold.PLP.part.hbond>
-2.0000

> <Gold.PLP.part.metal>
0.0000

> <Gold.PLP.part.buried>
-5.6506

> <Gold.PLP.part.nonpolar>
-34.7627

> <Gold.PLP.part.repulsive>
0.1424

> <Gold.PLP.ligand.clash>
0.0000

> <Gold.PLP.ligand.torsion>
0.9192

> <Gold.PLP.Chemscore.Hbond>
2.9516

> <Gold.PLP.Chemscore.CHOScore>
0.0000

> <Gold.PLP.Chemscore.Metal>
0.0000

> <Gold.Chemscore.Hbonds>
donor molecule, donor type, donor heavy atom, donor atom, acceptor molecule, acceptor atom, score
      L1  H     5    43       P1  8028  2.00
      P1  H  6896  6908       L1    14  0.68

> <Gold.PLP.Chemscore.Internal.Correction>
1.0200

> <Gold.Rescore>
     Score         DG    S(hbond)    S(metal)    S(lipo)     H(rot)  DE(clash)    DE(int)     intcor
     14.04     -15.31       1.68        0.00      96.60       2.77       0.33       0.93       ----

> <Gold.Chemscore.Fitness>
14.0370

> <Gold.Chemscore.DG>
-15.3050

> <Gold.Chemscore.ZeroCoef>
-5.4800

> <Gold.Chemscore.Hbond>
1.6792

> <Gold.Chemscore.Metal>
0.0000

> <Gold.Chemscore.Lipo>
96.6036

> <Gold.Chemscore.Internal_Hbond>
0.0000

> <Gold.Chemscore.DEClash>
0.3349

> <Gold.Chemscore.DEInternal>
0.9331

> <Gold.Chemscore.Rot>
2.7681

> <Gold.Chemscore.Internal.Correction>
   9.000000E+99

> <Gold.Chemscore.Hbonds>
donor molecule, donor type, donor heavy atom, donor atom, acceptor molecule, acceptor atom, score
      L1  H     5    43       P1  8028  0.95
      P1  H  6896  6908       L1    14  0.17

> <Gold.Chemscore.Hbond.Weighted>
-5.6087

> <Gold.Chemscore.Metal.Weighted>
-0.0000

> <Gold.Chemscore.Lipo.Weighted>
-11.3026

> <Gold.Chemscore.Internal_Hbond.Weighted>
0.0000

> <Gold.Chemscore.DEClash.Weighted>
0.3349

> <Gold.Chemscore.DEInternal.Weighted>
0.9331

> <Gold.Chemscore.Rot.Weighted>
7.0863

> <Gold.Chemscore.Internal.Correction.Weighted>
   9.000000E+99

> <Gold.Protein.RotatedTorsions>
[ 6907 6896 6895 6894 ] final  136.67 input  -60.11 | X-H torsion
[ 7974 7965 7964 7962 ] final  -15.53 input  175.53 | X-H torsion
[ 8008 7997 7996 7995 ] final  147.04 input   59.86 | X-H torsion
[ 10167 10162 10161 10158 ] final  -46.17 input  -65.29 | X-H torsion
[ 10718 10713 10712 10709 ] final   93.57 input   66.30 | X-H torsion
[ 10763 10752 10751 10750 ] final  -37.89 input  -60.55 | X-H torsion
[ 11005 11000 10999 10996 ] final   59.41 input  -57.11 | X-H torsion

> <Gold.Protein.ActiveResidues>
 VAL166  LYS551  ARG553  GLY616  TRP617  ASP618  TYR619  PRO620  LYS621  CYS622 
 ASP623  PHE694  ASN695  SER759  ASP760  ASP761  ALA762  ILE779  LEU786  VAL792 
 PHE793  MET794  SER795  GLU796  ALA797  LYS798  CYS799  TRP800  GLU811  SER814 

> <Gold.Protein.RotatedAtoms>
  152.2868  133.5523  159.5531 H   0  0  0  0  0  0  0  0  0  0  0  0  # atno 6907 bound_to 6896
  150.7218  134.0486  159.3799 H   0  0  0  0  0  0  0  0  0  0  0  0  # atno 6908 bound_to 6896
  151.8394  135.0595  160.0497 H   0  0  0  0  0  0  0  0  0  0  0  0  # atno 6909 bound_to 6896
  146.2028  140.3506  142.8417 H   0  0  0  0  0  0  0  0  0  0  0  0  # atno 7974 bound_to 7965
  156.2837  140.2166  156.5474 H   0  0  0  0  0  0  0  0  0  0  0  0  # atno 8008 bound_to 7997
  154.7319  140.0495  157.0757 H   0  0  0  0  0  0  0  0  0  0  0  0  # atno 8009 bound_to 7997
  155.0342  140.3138  155.4750 H   0  0  0  0  0  0  0  0  0  0  0  0  # atno 8010 bound_to 7997
  140.6828  143.2844  151.3744 H   0  0  0  0  0  0  0  0  0  0  0  0  # atno 10167 bound_to 10162
  157.6954  131.0483  150.4055 H   0  0  0  0  0  0  0  0  0  0  0  0  # atno 10718 bound_to 10713
  153.9039  135.6799  153.4754 H   0  0  0  0  0  0  0  0  0  0  0  0  # atno 10763 bound_to 10752
  153.1115  135.4781  154.9040 H   0  0  0  0  0  0  0  0  0  0  0  0  # atno 10764 bound_to 10752
  154.7561  135.3198  154.8421 H   0  0  0  0  0  0  0  0  0  0  0  0  # atno 10765 bound_to 10752
  140.0306  134.6017  155.9512 H   0  0  0  0  0  0  0  0  0  0  0  0  # atno 11005 bound_to 11000
  144.8721  140.7287  143.6040 LP  0  0  0  0  0  0  0  0  0  0  0  0  # atno 17320 bound_to 7965
  145.3426  139.1728  143.4478 LP  0  0  0  0  0  0  0  0  0  0  0  0  # atno 17321 bound_to 7965
  139.6164  144.0995  152.2349 LP  0  0  0  0  0  0  0  0  0  0  0  0  # atno 17342 bound_to 10162
  140.0425  144.5996  150.7399 LP  0  0  0  0  0  0  0  0  0  0  0  0  # atno 17343 bound_to 10162
  156.4444  130.3998  149.6676 LP  0  0  0  0  0  0  0  0  0  0  0  0  # atno 17370 bound_to 10713
  156.3848  130.7597  151.2593 LP  0  0  0  0  0  0  0  0  0  0  0  0  # atno 17371 bound_to 10713
  141.1829  133.6550  156.5094 LP  0  0  0  0  0  0  0  0  0  0  0  0  # atno 17394 bound_to 11000
  140.4232  134.7169  157.4901 LP  0  0  0  0  0  0  0  0  0  0  0  0  # atno 17395 bound_to 11000

$$$$
