AV-unprocessed.smi:1620|AV-procd|sdf|6491|dock8
  -GOLD-   22720 7153D 1   1.00000     0.00000
 Structure written by MMmdl.
 40 40  0  0  0  0  0  0  0  0  1 V2000
  151.8158  145.4851  160.3813 C   0  0  0  0  0  0  0  0  0  0  0  0
  152.5186  144.3814  159.5703 C   0  0  0  0  0  0  0  0  0  0  0  0
  152.1576  144.5326  158.0803 C   0  0  0  0  0  0  0  0  0  0  0  0
  152.2127  142.9591  160.1233 C   0  0  2  0  0  0  0  0  0  0  0  0
  152.7581  142.6972  161.5437 C   0  0  0  0  0  0  0  0  0  0  0  0
  152.6519  141.8884  159.1910 N   0  0  0  0  0  0  0  0  0  0  0  0
  153.9613  141.2882  159.4808 C   0  0  0  0  0  0  0  0  0  0  0  0
  151.9029  141.3515  158.1909 C   0  0  0  0  0  0  0  0  0  0  0  0
  152.3371  140.4816  157.4337 O   0  0  0  0  0  0  0  0  0  0  0  0
  150.6866  141.9109  158.0402 N   0  0  0  0  0  0  0  0  0  0  0  0
  149.6852  141.5767  157.0939 C   0  0  0  0  0  0  0  0  0  0  0  0
  148.2896  141.6154  157.3475 C   0  0  0  0  0  0  0  0  0  0  0  0
  147.5978  141.2493  156.2792 N   0  0  0  0  0  0  0  0  0  0  0  0
  148.5310  140.9696  155.3346 N   0  0  0  0  0  0  0  0  0  0  0  0
  148.1119  140.5258  154.0174 C   0  0  0  0  0  0  0  0  0  0  0  0
  148.1894  139.0029  153.8976 C   0  0  0  0  0  0  0  0  0  0  0  0
  149.0091  138.5058  152.9674 N   0  0  0  0  0  0  0  0  0  0  0  0
  147.5183  138.2851  154.6359 O   0  0  0  0  0  0  0  0  0  0  0  0
  149.8177  141.1577  155.8004 C   0  0  0  0  0  0  0  0  0  0  0  0
  150.7340  145.3478  160.3843 H   0  0  0  0  0  0  0  0  0  0  0  0
  152.0222  146.4706  159.9626 H   0  0  0  0  0  0  0  0  0  0  0  0
  152.1554  145.5062  161.4164 H   0  0  0  0  0  0  0  0  0  0  0  0
  153.5904  144.5612  159.6574 H   0  0  0  0  0  0  0  0  0  0  0  0
  151.0982  144.3409  157.9081 H   0  0  0  0  0  0  0  0  0  0  0  0
  152.7285  143.8488  157.4524 H   0  0  0  0  0  0  0  0  0  0  0  0
  152.3726  145.5409  157.7256 H   0  0  0  0  0  0  0  0  0  0  0  0
  151.1318  142.9168  160.2559 H   0  0  0  0  0  0  0  0  0  0  0  0
  152.2559  143.3190  162.2843 H   0  0  0  0  0  0  0  0  0  0  0  0
  153.8262  142.9002  161.6192 H   0  0  0  0  0  0  0  0  0  0  0  0
  152.5938  141.6607  161.8403 H   0  0  0  0  0  0  0  0  0  0  0  0
  154.5295  141.1160  158.5651 H   0  0  0  0  0  0  0  0  0  0  0  0
  153.8356  140.3304  159.9875 H   0  0  0  0  0  0  0  0  0  0  0  0
  154.5819  141.9207  160.1143 H   0  0  0  0  0  0  0  0  0  0  0  0
  150.4529  142.6541  158.6825 H   0  0  0  0  0  0  0  0  0  0  0  0
  147.7662  141.8919  158.2508 H   0  0  0  0  0  0  0  0  0  0  0  0
  147.0959  140.8715  153.8192 H   0  0  0  0  0  0  0  0  0  0  0  0
  148.7583  140.9890  153.2707 H   0  0  0  0  0  0  0  0  0  0  0  0
  149.0988  137.5060  152.8583 H   0  0  0  0  0  0  0  0  0  0  0  0
  149.5428  139.1321  152.3823 H   0  0  0  0  0  0  0  0  0  0  0  0
  150.6826  140.9770  155.1793 H   0  0  0  0  0  0  0  0  0  0  0  0
  1  2  1  0  0  0  0
  1 20  1  0  0  0  0
  1 21  1  0  0  0  0
  1 22  1  0  0  0  0
  2  3  1  0  0  0  0
  2  4  1  0  0  0  0
  2 23  1  0  0  0  0
  3 24  1  0  0  0  0
  3 25  1  0  0  0  0
  3 26  1  0  0  0  0
  4  5  1  0  0  0  0
  4  6  1  0  0  0  0
  4 27  1  0  0  0  0
  5 28  1  0  0  0  0
  5 29  1  0  0  0  0
  5 30  1  0  0  0  0
  6  7  1  0  0  0  0
  6  8  1  0  0  0  0
  7 31  1  0  0  0  0
  7 32  1  0  0  0  0
  7 33  1  0  0  0  0
  8  9  2  0  0  0  0
  8 10  1  0  0  0  0
 10 11  1  0  0  0  0
 10 34  1  0  0  0  0
 11 19  2  0  0  0  0
 11 12  1  0  0  0  0
 12 13  2  0  0  0  0
 12 35  1  0  0  0  0
 13 14  1  0  0  0  0
 14 15  1  0  0  0  0
 14 19  1  0  0  0  0
 15 16  1  0  0  0  0
 15 36  1  0  0  0  0
 15 37  1  0  0  0  0
 16 17  1  0  0  0  0
 16 18  2  0  0  0  0
 17 38  1  0  0  0  0
 17 39  1  0  0  0  0
 19 40  1  0  0  0  0
M  END
> <s_m_source_file>
AV-unprocessed.smi

> <i_m_source_file_index>
1620

> <i_lp_mmshare_version>
43012

> <i_f3d_flags>
0

> <s_epik_input>
W0NIM11bQ0hdKFtDSDNdKVtDQEhdKFtDSDNdKU4oW0NIM10pQyg9TylbTkhdYzFbY0hdbm4oW2NIXTEpW0NIMl1DKD1PKVtOSDJd

> <s_epik_cmdline>
J2VwaWtfcHl0aG9uJywgJy1waCcsICc3LjAnLCAnLXRuJywgJzgnLCAnLW1hJywgJzIwMCcsICctbWV0YWxfYmluZGluZycsICctaW1hZScsICc8aW5maWxlLm1hZT4nLCAnLW9tYWUnLCAnPG91dGZpbGUubWFlPic=

> <r_lp_tautomer_probability>
1

> <r_epik_Ionization_Penalty>
4.85642e-05

> <r_epik_Ionization_Penalty_Charging>
0

> <r_epik_Ionization_Penalty_Neutral>
4.85642e-05

> <r_epik_State_Penalty>
-0

> <r_epik_Charging_Adjusted_Penalty>
0

> <i_epik_Tot_Q>
0

> <i_epik_Tot_abs_Q>
0

> <r_epik_Metal_State_Penalty>
-0

> <b_epik_Metal_Only>
0

> <s_lp_Force_Field>
OPLS_2005

> <r_lp_Energy>
32.3257

> <b_lp_Chiralities_Consistent>
1

> <s_lp_Variant>
AV-unprocessed.smi:1620-1

> <Gold.Version>
5.8.1

> <Gold.Id.Protein>
6NUR|6NUR_protein|mol2

> <Gold.PLP.Fitness>
44.8881

> <Gold.PLP.PLP>
-40.4641

> <Gold.PLP.part.hbond>
-2.3293

> <Gold.PLP.part.metal>
0.0000

> <Gold.PLP.part.buried>
-4.4975

> <Gold.PLP.part.nonpolar>
-34.2127

> <Gold.PLP.part.repulsive>
0.3302

> <Gold.PLP.ligand.clash>
0.0000

> <Gold.PLP.ligand.torsion>
1.3789

> <Gold.PLP.Chemscore.Hbond>
2.3142

> <Gold.PLP.Chemscore.CHOScore>
0.0000

> <Gold.PLP.Chemscore.Metal>
0.0000

> <Gold.Chemscore.Hbonds>
donor molecule, donor type, donor heavy atom, donor atom, acceptor molecule, acceptor atom, score
      L1  H    17    38       P1  7948  0.93
      L1  H    17    39       P1  7957  0.94
      P1  H  7997  8009       L1     9  0.48

> <Gold.PLP.Chemscore.Internal.Correction>
0.2392

> <Gold.Rescore>
     Score         DG    S(hbond)    S(metal)    S(lipo)     H(rot)  DE(clash)    DE(int)     intcor
     16.70     -18.93       2.44        0.00      91.31       2.10       0.16       2.07       ----

> <Gold.Chemscore.Fitness>
16.7020

> <Gold.Chemscore.DG>
-18.9302

> <Gold.Chemscore.ZeroCoef>
-5.4800

> <Gold.Chemscore.Hbond>
2.4408

> <Gold.Chemscore.Metal>
0.0000

> <Gold.Chemscore.Lipo>
91.3142

> <Gold.Chemscore.Internal_Hbond>
0.0000

> <Gold.Chemscore.DEClash>
0.1607

> <Gold.Chemscore.DEInternal>
2.0675

> <Gold.Chemscore.Rot>
2.1039

> <Gold.Chemscore.Internal.Correction>
   9.000000E+99

> <Gold.Chemscore.Hbonds>
donor molecule, donor type, donor heavy atom, donor atom, acceptor molecule, acceptor atom, score
      L1  H    17    38       P1  7948  0.88
      L1  H    17    39       P1  7957  0.78
      P1  H  7997  8009       L1     9  0.48

> <Gold.Chemscore.Hbond.Weighted>
-8.1524

> <Gold.Chemscore.Metal.Weighted>
-0.0000

> <Gold.Chemscore.Lipo.Weighted>
-10.6838

> <Gold.Chemscore.Internal_Hbond.Weighted>
0.0000

> <Gold.Chemscore.DEClash.Weighted>
0.1607

> <Gold.Chemscore.DEInternal.Weighted>
2.0675

> <Gold.Chemscore.Rot.Weighted>
5.3860

> <Gold.Chemscore.Internal.Correction.Weighted>
   9.000000E+99

> <Gold.Protein.RotatedTorsions>
[ 6907 6896 6895 6894 ] final  -47.49 input  -60.11 | X-H torsion
[ 7974 7965 7964 7962 ] final  122.17 input  175.53 | X-H torsion
[ 8008 7997 7996 7995 ] final -179.36 input   59.86 | X-H torsion
[ 10167 10162 10161 10158 ] final  -39.20 input  -65.29 | X-H torsion
[ 10718 10713 10712 10709 ] final  166.02 input   66.30 | X-H torsion
[ 10763 10752 10751 10750 ] final  -95.89 input  -60.55 | X-H torsion
[ 11005 11000 10999 10996 ] final   38.76 input  -57.11 | X-H torsion

> <Gold.Protein.ActiveResidues>
 VAL166  LYS551  ARG553  GLY616  TRP617  ASP618  TYR619  PRO620  LYS621  CYS622 
 ASP623  PHE694  ASN695  SER759  ASP760  ASP761  ALA762  ILE779  LEU786  VAL792 
 PHE793  MET794  SER795  GLU796  ALA797  LYS798  CYS799  TRP800  GLU811  SER814 

> <Gold.Protein.RotatedAtoms>
  150.9003  134.8414  159.7354 H   0  0  0  0  0  0  0  0  0  0  0  0  # atno 6907 bound_to 6896
  152.4888  134.4513  159.9585 H   0  0  0  0  0  0  0  0  0  0  0  0  # atno 6908 bound_to 6896
  151.4566  133.3564  159.2838 H   0  0  0  0  0  0  0  0  0  0  0  0  # atno 6909 bound_to 6896
  145.1106  139.3455  143.4765 H   0  0  0  0  0  0  0  0  0  0  0  0  # atno 7974 bound_to 7965
  156.0295  140.1279  157.0273 H   0  0  0  0  0  0  0  0  0  0  0  0  # atno 8008 bound_to 7997
  154.4344  140.1052  156.6150 H   0  0  0  0  0  0  0  0  0  0  0  0  # atno 8009 bound_to 7997
  155.5827  140.3468  155.4547 H   0  0  0  0  0  0  0  0  0  0  0  0  # atno 8010 bound_to 7997
  140.7071  143.3229  151.2749 H   0  0  0  0  0  0  0  0  0  0  0  0  # atno 10167 bound_to 10162
  157.0718  131.0368  151.2609 H   0  0  0  0  0  0  0  0  0  0  0  0  # atno 10718 bound_to 10713
  154.7189  135.5104  153.8781 H   0  0  0  0  0  0  0  0  0  0  0  0  # atno 10763 bound_to 10752
  153.0845  135.6641  153.9986 H   0  0  0  0  0  0  0  0  0  0  0  0  # atno 10764 bound_to 10752
  153.9813  135.3028  155.3399 H   0  0  0  0  0  0  0  0  0  0  0  0  # atno 10765 bound_to 10752
  140.2094  134.3773  155.8056 H   0  0  0  0  0  0  0  0  0  0  0  0  # atno 11005 bound_to 11000
  146.3526  140.1024  142.8607 LP  0  0  0  0  0  0  0  0  0  0  0  0  # atno 17320 bound_to 7965
  145.0851  140.9247  143.4802 LP  0  0  0  0  0  0  0  0  0  0  0  0  # atno 17321 bound_to 7965
  139.6688  144.0057  152.2740 LP  0  0  0  0  0  0  0  0  0  0  0  0  # atno 17342 bound_to 10162
  139.9648  144.6533  150.8045 LP  0  0  0  0  0  0  0  0  0  0  0  0  # atno 17343 bound_to 10162
  157.4872  130.7800  149.7472 LP  0  0  0  0  0  0  0  0  0  0  0  0  # atno 17370 bound_to 10713
  155.9948  130.3915  150.2843 LP  0  0  0  0  0  0  0  0  0  0  0  0  # atno 17371 bound_to 10713
  141.2226  133.7135  156.8392 LP  0  0  0  0  0  0  0  0  0  0  0  0  # atno 17394 bound_to 11000
  140.1967  134.8926  157.3122 LP  0  0  0  0  0  0  0  0  0  0  0  0  # atno 17395 bound_to 11000

$$$$
