#       Name:                AV-unprocessed.smi:2190
#       Creating user name   scv26
#       Creation time:       Fri Mar 27 12:09:27 2020


#       File generated by GOLD software.
#

@<TRIPOS>MOLECULE
AV-unprocessed.smi:2190
    53    55     1
SMALL
NO_CHARGES


@<TRIPOS>ATOM
      1 ****        -6.1773  -1.4466  -0.6678 C.3            1 S1                 0.0000
      2 ****        -5.2009  -0.2884  -0.6599 C.ar           1 S1                 0.0000
      3 ****        -5.6698   1.0384  -0.6025 C.ar           1 S1                 0.0000
      4 ****        -4.7552   2.1069  -0.5986 C.ar           1 S1                 0.0000
      5 ****        -3.3682   1.8567  -0.6512 C.ar           1 S1                 0.0000
      6 ****        -2.3946   3.0207  -0.6477 C.3            1 S1                 0.0000
      7 ****        -2.8843   0.5292  -0.7066 C.ar           1 S1                 0.0000
      8 ****        -1.5171   0.3551  -0.7568 O.3            1 S1                 0.0000
      9 ****        -0.9970  -0.9668  -0.7241 C.3            1 S1                 0.0000
     10 ****         0.5359  -0.8844  -0.7212 C.3            1 S1                 0.0000
     11 ****         1.0601  -2.1872  -0.8812 O.3            1 S1                 0.0000
     12 ****         1.0874  -0.2458   0.5695 C.3            1 S1                 0.0000
     13 ****         2.5439  -0.0442   0.5262 N.pl3          1 S1                 0.0000
     14 ****         3.2661   0.9840  -0.0048 C.2            1 S1                 0.0000
     15 ****         2.7274   2.1946  -0.6939 C.3            1 S1                 0.0000
     16 ****         2.3075   3.1874   0.2156 O.3            1 S1                 0.0000
     17 ****         4.5823   0.7102   0.2176 N.pl3          1 S1                 1.0000
     18 ****         4.7045  -0.5050   0.8926 C.ar           1 S1                 0.0000
     19 ****         5.8317  -1.1930   1.3312 C.ar           1 S1                 0.0000
     20 ****         5.6081  -2.4194   1.9907 C.ar           1 S1                 0.0000
     21 ****         4.3044  -2.9167   2.1930 C.ar           1 S1                 0.0000
     22 ****         3.1691  -2.2089   1.7462 C.ar           1 S1                 0.0000
     23 ****         3.3982  -0.9969   1.0943 C.ar           1 S1                 0.0000
     24 ****        -3.8152  -0.5407  -0.7110 C.ar           1 S1                 0.0000
     25 ****        -7.2102  -1.0978  -0.6460 H              1 S1                 0.0000
     26 ****        -6.0148  -2.0836   0.2020 H              1 S1                 0.0000
     27 ****        -6.0407  -2.0496  -1.5659 H              1 S1                 0.0000
     28 ****        -6.7299   1.2424  -0.5625 H              1 S1                 0.0000
     29 ****        -5.1246   3.1209  -0.5555 H              1 S1                 0.0000
     30 ****        -1.6810   2.9178   0.1708 H              1 S1                 0.0000
     31 ****        -2.9109   3.9738  -0.5279 H              1 S1                 0.0000
     32 ****        -1.8396   3.0502  -1.5858 H              1 S1                 0.0000
     33 ****        -1.3461  -1.5001   0.1621 H              1 S1                 0.0000
     34 ****        -1.3354  -1.5127  -1.6065 H              1 S1                 0.0000
     35 ****         0.8558  -0.2984  -1.5834 H              1 S1                 0.0000
     36 ****         0.7390  -2.7283  -0.1765 H              1 S1                 0.0000
     37 ****         0.6375   0.7361   0.7213 H              1 S1                 0.0000
     38 ****         0.8256  -0.8336   1.4492 H              1 S1                 0.0000
     39 ****         3.4933   2.6114  -1.3485 H              1 S1                 0.0000
     40 ****         1.8857   1.9115  -1.3258 H              1 S1                 0.0000
     41 ****         1.9664   3.9199  -0.2748 H              1 S1                 0.0000
     42 ****         6.8314  -0.8140   1.1777 H              1 S1                 0.0000
     43 ****         6.4530  -2.9899   2.3483 H              1 S1                 0.0000
     44 ****         4.1717  -3.8607   2.7014 H              1 S1                 0.0000
     45 ****         2.1763  -2.6022   1.9054 H              1 S1                 0.0000
     46 ****        -3.4884  -1.5685  -0.7562 H              1 S1                 0.0000
     47 ****         5.3401   1.3156  -0.0708 H              1 S1                 0.0000
     48 ****        -1.1291   0.8437   0.0246 LP             1 S1                 0.0000
     49 ****        -1.1975   0.7765  -1.6055 LP             1 S1                 0.0000
     50 ****         2.0591  -2.1546  -0.8531 LP             1 S1                 0.0000
     51 ****         0.7635  -2.5647  -1.7584 LP             1 S1                 0.0000
     52 ****         3.0837   3.4858   0.7709 LP             1 S1                 0.0000
     53 ****         1.5937   2.8188   0.8111 LP             1 S1                 0.0000
@<TRIPOS>BOND
    1    1    2 1     
    2    1   25 1     
    3    1   26 1     
    4    1   27 1     
    5    2   24 ar    
    6    2    3 ar    
    7    3    4 ar    
    8    3   28 1     
    9    4    5 ar    
   10    4   29 1     
   11    5    6 1     
   12    5    7 ar    
   13    6   30 1     
   14    6   31 1     
   15    6   32 1     
   16    7    8 1     
   17    7   24 ar    
   18    8    9 1     
   19    9   10 1     
   20    9   33 1     
   21    9   34 1     
   22   10   11 1     
   23   10   12 1     
   24   10   35 1     
   25   11   36 1     
   26   12   13 1     
   27   12   37 1     
   28   12   38 1     
   29   13   23 1     
   30   13   14 1     
   31   14   15 1     
   32   14   17 2     
   33   15   16 1     
   34   15   39 1     
   35   15   40 1     
   36   16   41 1     
   37   17   18 1     
   38   17   47 1     
   39   18   23 ar    
   40   18   19 ar    
   41   19   20 ar    
   42   19   42 1     
   43   20   21 ar    
   44   20   43 1     
   45   21   22 ar    
   46   21   44 1     
   47   22   23 ar    
   48   22   45 1     
   49   24   46 1     
   50    8   48 1     
   51    8   49 1     
   52   11   50 1     
   53   11   51 1     
   54   16   52 1     
   55   16   53 1     
@<TRIPOS>SUBSTRUCTURE
      1 S1             1
@<TRIPOS>SET
LONE_PAIRS      STATIC     ATOMS    <user>   **** ""
6 48 49 50 51 52 53
DONOR_HYDROGENS      STATIC     ATOMS    <user>   **** ""
3 36 41 47
ATOM$BLUE        STATIC     ATOMS    COLORGROUP SYSTEM
6 48 49 50 51 52 53
ATOM$RED        STATIC     ATOMS    COLORGROUP SYSTEM
3 36 41 47
