AV-unprocessed.smi:511|AV-procd|sdf|2766|dock3
  -GOLD-   2262023233D 1   1.00000     0.00000
 Structure written by MMmdl.
 45 47  0  0  0  0  0  0  0  0  3 V2000
  152.1449  145.2653  158.8934 C   0  0  0  0  0  0  0  0  0  0  0  0
  151.2764  144.3758  159.5727 O   0  0  0  0  0  0  0  0  0  0  0  0
  151.9663  143.5331  160.4798 C   0  0  0  0  0  0  0  0  0  0  0  0
  153.0294  142.7393  159.7102 C   0  0  0  0  0  0  0  0  0  0  0  0
  152.5307  141.4246  159.3125 N   0  0  0  0  0  0  0  0  0  0  0  0
  151.5148  141.1289  158.4579 C   0  0  0  0  0  0  0  0  0  0  0  0
  150.8187  142.1174  157.7623 N   0  0  0  0  0  0  0  0  0  0  0  0
  150.9696  142.3924  156.3349 C   0  0  0  0  0  0  0  0  0  0  0  0
  149.8100  141.7870  155.5219 C   0  0  0  0  0  0  0  0  0  0  0  0
  148.5002  142.2758  156.0156 N   0  3  0  0  0  0  0  0  0  0  0  0
  147.3612  141.7209  155.2538 C   0  0  0  0  0  0  0  0  0  0  0  0
  148.3568  142.0852  157.4784 C   0  0  0  0  0  0  0  0  0  0  0  0
  149.5584  142.6914  158.2238 C   0  0  0  0  0  0  0  0  0  0  0  0
  151.2306  139.8293  158.3555 N   0  0  0  0  0  0  0  0  0  0  0  0
  152.1667  139.2412  159.1927 C   0  0  0  0  0  0  0  0  0  0  0  0
  152.9592  140.1779  159.7793 C   0  0  0  0  0  0  0  0  0  0  0  0
  154.0374  139.8582  160.7405 C   0  0  0  0  0  0  0  0  0  0  0  0
  154.7136  140.7472  161.2537 O   0  0  0  0  0  0  0  0  0  0  0  0
  154.1554  138.5095  160.9548 N   0  5  0  0  0  0  0  0  0  0  0  0
  153.3796  137.5263  160.3789 C   0  0  0  0  0  0  0  0  0  0  0  0
  153.5547  136.3322  160.6248 O   0  0  0  0  0  0  0  0  0  0  0  0
  152.3816  137.8713  159.5054 N   0  0  0  0  0  0  0  0  0  0  0  0
  151.5374  136.8481  158.8818 C   0  0  0  0  0  0  0  0  0  0  0  0
  151.5692  145.8866  158.2075 H   0  0  0  0  0  0  0  0  0  0  0  0
  152.8900  144.7220  158.3103 H   0  0  0  0  0  0  0  0  0  0  0  0
  152.6603  145.9241  159.5933 H   0  0  0  0  0  0  0  0  0  0  0  0
  152.4312  144.1305  161.2654 H   0  0  0  0  0  0  0  0  0  0  0  0
  151.2637  142.8492  160.9591 H   0  0  0  0  0  0  0  0  0  0  0  0
  153.3352  143.3110  158.8382 H   0  0  0  0  0  0  0  0  0  0  0  0
  153.9318  142.6151  160.3077 H   0  0  0  0  0  0  0  0  0  0  0  0
  151.0277  143.4701  156.1777 H   0  0  0  0  0  0  0  0  0  0  0  0
  151.9051  141.9683  155.9702 H   0  0  0  0  0  0  0  0  0  0  0  0
  149.9239  142.0433  154.4681 H   0  0  0  0  0  0  0  0  0  0  0  0
  149.8405  140.6981  155.5917 H   0  0  0  0  0  0  0  0  0  0  0  0
  147.3023  140.6379  155.3694 H   0  0  0  0  0  0  0  0  0  0  0  0
  147.4626  141.9471  154.1918 H   0  0  0  0  0  0  0  0  0  0  0  0
  146.4213  142.1531  155.5982 H   0  0  0  0  0  0  0  0  0  0  0  0
  147.4340  142.5545  157.8209 H   0  0  0  0  0  0  0  0  0  0  0  0
  148.2777  141.0201  157.7031 H   0  0  0  0  0  0  0  0  0  0  0  0
  149.4539  142.5230  159.2964 H   0  0  0  0  0  0  0  0  0  0  0  0
  149.5850  143.7729  158.0834 H   0  0  0  0  0  0  0  0  0  0  0  0
  151.0444  136.2412  159.6426 H   0  0  0  0  0  0  0  0  0  0  0  0
  152.1394  136.1877  158.2563 H   0  0  0  0  0  0  0  0  0  0  0  0
  150.7561  137.2731  158.2520 H   0  0  0  0  0  0  0  0  0  0  0  0
  148.4939  143.2736  155.8589 H   0  0  0  0  0  0  0  0  0  0  0  0
  1  2  1  0  0  0  0
  1 24  1  0  0  0  0
  1 25  1  0  0  0  0
  1 26  1  0  0  0  0
  2  3  1  0  0  0  0
  3  4  1  0  0  0  0
  3 27  1  0  0  0  0
  3 28  1  0  0  0  0
  4  5  1  0  0  0  0
  4 29  1  0  0  0  0
  4 30  1  0  0  0  0
  5 16  1  0  0  0  0
  5  6  1  0  0  0  0
  6  7  1  0  0  0  0
  6 14  2  0  0  0  0
  7 13  1  0  0  0  0
  7  8  1  0  0  0  0
  8  9  1  0  0  0  0
  8 31  1  0  0  0  0
  8 32  1  0  0  0  0
  9 10  1  0  0  0  0
  9 33  1  0  0  0  0
  9 34  1  0  0  0  0
 10 11  1  0  0  0  0
 10 12  1  0  0  0  0
 10 45  1  0  0  0  0
 11 35  1  0  0  0  0
 11 36  1  0  0  0  0
 11 37  1  0  0  0  0
 12 13  1  0  0  0  0
 12 38  1  0  0  0  0
 12 39  1  0  0  0  0
 13 40  1  0  0  0  0
 13 41  1  0  0  0  0
 14 15  1  0  0  0  0
 15 22  1  0  0  0  0
 15 16  2  0  0  0  0
 16 17  1  0  0  0  0
 17 18  2  0  0  0  0
 17 19  1  0  0  0  0
 19 20  1  0  0  0  0
 20 21  2  0  0  0  0
 20 22  1  0  0  0  0
 22 23  1  0  0  0  0
 23 42  1  0  0  0  0
 23 43  1  0  0  0  0
 23 44  1  0  0  0  0
M  CHG  1  10   1
M  CHG  1  19  -1
M  END
> <s_m_source_file>
AV-unprocessed.smi

> <i_m_source_file_index>
511

> <i_lp_mmshare_version>
43012

> <i_f3d_flags>
0

> <s_epik_input>
W0NIM11uMWMoPU8pW25IXWMoPU8pYyhjMTIpbihbQ0gyXVtDSDJdT1tDSDNdKWMobjIpTjNbQ0gyXVtDSDJdTihbQ0gzXSlbQ0gyXVtDSDJdMw==

> <s_epik_cmdline>
J2VwaWtfcHl0aG9uJywgJy1waCcsICc3LjAnLCAnLXRuJywgJzgnLCAnLW1hJywgJzIwMCcsICctbWV0YWxfYmluZGluZycsICctaW1hZScsICc8aW5maWxlLm1hZT4nLCAnLW9tYWUnLCAnPG91dGZpbGUubWFlPic=

> <r_epik_Ionization_Penalty>
5.9833

> <r_epik_Ionization_Penalty_Charging>
0.125752

> <r_epik_Ionization_Penalty_Neutral>
5.85754

> <r_epik_State_Penalty>
5.9139

> <r_epik_Charging_Adjusted_Penalty>
6.03966

> <i_epik_Tot_Q>
0

> <i_epik_Tot_abs_Q>
2

> <r_epik_Metal_State_Penalty>
1.87741

> <b_epik_Metal_Only>
1

> <s_lp_Force_Field>
OPLS_2005

> <r_lp_Energy>
51.0512

> <b_lp_Chiralities_Consistent>
1

> <s_lp_Variant>
AV-unprocessed.smi:511-3

> <Gold.Version>
5.8.1

> <Gold.Id.Protein>
6NUR|6NUR_protein|mol2

> <Gold.PLP.Fitness>
44.1195

> <Gold.PLP.PLP>
-37.9919

> <Gold.PLP.part.hbond>
-2.3010

> <Gold.PLP.part.metal>
0.0000

> <Gold.PLP.part.buried>
-3.9553

> <Gold.PLP.part.nonpolar>
-31.8786

> <Gold.PLP.part.repulsive>
0.1539

> <Gold.PLP.ligand.clash>
0.0000

> <Gold.PLP.ligand.torsion>
1.7104

> <Gold.PLP.Chemscore.Hbond>
2.9913

> <Gold.PLP.Chemscore.CHOScore>
0.0000

> <Gold.PLP.Chemscore.Metal>
0.0000

> <Gold.Chemscore.Hbonds>
donor molecule, donor type, donor heavy atom, donor atom, acceptor molecule, acceptor atom, score
      L1  H    10    45       P1  8028  1.85
      P1  H  6896  6908       L1    21  1.00

> <Gold.PLP.Chemscore.Internal.Correction>
0.5747

> <Gold.Rescore>
     Score         DG    S(hbond)    S(metal)    S(lipo)     H(rot)  DE(clash)    DE(int)     intcor
     14.71     -17.12       1.96        0.00      76.02       1.49       0.50       1.92       ----

> <Gold.Chemscore.Fitness>
14.7063

> <Gold.Chemscore.DG>
-17.1191

> <Gold.Chemscore.ZeroCoef>
-5.4800

> <Gold.Chemscore.Hbond>
1.9650

> <Gold.Chemscore.Metal>
0.0000

> <Gold.Chemscore.Lipo>
76.0205

> <Gold.Chemscore.Internal_Hbond>
0.0000

> <Gold.Chemscore.DEClash>
0.4955

> <Gold.Chemscore.DEInternal>
1.9174

> <Gold.Chemscore.Rot>
1.4915

> <Gold.Chemscore.Internal.Correction>
   9.000000E+99

> <Gold.Chemscore.Hbonds>
donor molecule, donor type, donor heavy atom, donor atom, acceptor molecule, acceptor atom, score
      L1  H    10    45       P1  8028  0.86
      P1  H  6896  6908       L1    21  0.94

> <Gold.Chemscore.Hbond.Weighted>
-6.5630

> <Gold.Chemscore.Metal.Weighted>
-0.0000

> <Gold.Chemscore.Lipo.Weighted>
-8.8944

> <Gold.Chemscore.Internal_Hbond.Weighted>
0.0000

> <Gold.Chemscore.DEClash.Weighted>
0.4955

> <Gold.Chemscore.DEInternal.Weighted>
1.9174

> <Gold.Chemscore.Rot.Weighted>
3.8183

> <Gold.Chemscore.Internal.Correction.Weighted>
   9.000000E+99

> <Gold.Protein.RotatedTorsions>
[ 6907 6896 6895 6894 ] final  -72.61 input  -60.11 | X-H torsion
[ 7974 7965 7964 7962 ] final   17.92 input  175.53 | X-H torsion
[ 8008 7997 7996 7995 ] final   -1.74 input   59.86 | X-H torsion
[ 10167 10162 10161 10158 ] final  127.30 input  -65.29 | X-H torsion
[ 10718 10713 10712 10709 ] final   59.59 input   66.30 | X-H torsion
[ 10763 10752 10751 10750 ] final   89.76 input  -60.55 | X-H torsion
[ 11005 11000 10999 10996 ] final  101.86 input  -57.11 | X-H torsion

> <Gold.Protein.ActiveResidues>
 VAL166  LYS551  ARG553  GLY616  TRP617  ASP618  TYR619  PRO620  LYS621  CYS622 
 ASP623  PHE694  ASN695  SER759  ASP760  ASP761  ALA762  ILE779  LEU786  VAL792 
 PHE793  MET794  SER795  GLU796  ALA797  LYS798  CYS799  TRP800  GLU811  SER814 

> <Gold.Protein.RotatedAtoms>
  150.7163  134.5138  159.5619 H   0  0  0  0  0  0  0  0  0  0  0  0  # atno 6907 bound_to 6896
  152.2708  134.7931  160.0423 H   0  0  0  0  0  0  0  0  0  0  0  0  # atno 6908 bound_to 6896
  151.8612  133.3422  159.3741 H   0  0  0  0  0  0  0  0  0  0  0  0  # atno 6909 bound_to 6896
  146.2202  139.8532  142.8618 H   0  0  0  0  0  0  0  0  0  0  0  0  # atno 7974 bound_to 7965
  154.6434  140.2552  155.7295 H   0  0  0  0  0  0  0  0  0  0  0  0  # atno 8008 bound_to 7997
  156.2540  140.2882  156.0758 H   0  0  0  0  0  0  0  0  0  0  0  0  # atno 8009 bound_to 7997
  155.1561  140.0383  157.2822 H   0  0  0  0  0  0  0  0  0  0  0  0  # atno 8010 bound_to 7997
  139.5585  144.6866  151.4111 H   0  0  0  0  0  0  0  0  0  0  0  0  # atno 10167 bound_to 10162
  157.5687  130.8891  149.9230 H   0  0  0  0  0  0  0  0  0  0  0  0  # atno 10718 bound_to 10713
  153.1905  135.4458  155.0143 H   0  0  0  0  0  0  0  0  0  0  0  0  # atno 10763 bound_to 10752
  154.8087  135.3285  154.7365 H   0  0  0  0  0  0  0  0  0  0  0  0  # atno 10764 bound_to 10752
  153.7820  135.6977  153.4942 H   0  0  0  0  0  0  0  0  0  0  0  0  # atno 10765 bound_to 10752
  139.8775  134.9200  156.4971 H   0  0  0  0  0  0  0  0  0  0  0  0  # atno 11005 bound_to 11000
  145.2780  141.0130  143.3734 LP  0  0  0  0  0  0  0  0  0  0  0  0  # atno 17320 bound_to 7965
  144.9172  139.4456  143.6558 LP  0  0  0  0  0  0  0  0  0  0  0  0  # atno 17321 bound_to 7965
  140.6862  143.7968  150.7189 LP  0  0  0  0  0  0  0  0  0  0  0  0  # atno 17342 bound_to 10162
  140.1437  143.4419  152.2177 LP  0  0  0  0  0  0  0  0  0  0  0  0  # atno 17343 bound_to 10162
  156.0734  130.3682  150.0729 LP  0  0  0  0  0  0  0  0  0  0  0  0  # atno 17370 bound_to 10713
  156.8884  130.9580  151.3591 LP  0  0  0  0  0  0  0  0  0  0  0  0  # atno 17371 bound_to 10713
  140.8616  133.8055  155.9271 LP  0  0  0  0  0  0  0  0  0  0  0  0  # atno 17394 bound_to 11000
  140.9043  134.2339  157.5023 LP  0  0  0  0  0  0  0  0  0  0  0  0  # atno 17395 bound_to 11000

$$$$
