AV-unprocessed.smi:833|AV-procd|sdf|3881|dock6
  -GOLD-   22720 1333D 1   1.00000     0.00000
 Structure written by MMmdl.
 39 40  0  0  0  0  0  0  0  0  1 V2000
  151.9816  144.1762  161.0992 C   0  0  0  0  0  0  0  0  0  0  0  0
  150.8241  144.5725  160.1726 C   0  0  1  0  0  0  0  0  0  0  0  0
  150.1437  145.6389  160.8019 O   0  0  0  0  0  0  0  0  0  0  0  0
  151.3239  145.0363  158.7891 C   0  0  0  0  0  0  0  0  0  0  0  0
  150.8706  144.1522  157.7209 N   0  0  0  0  0  0  0  0  0  0  0  0
  151.2783  142.8889  157.5397 C   0  0  0  0  0  0  0  0  0  0  0  0
  152.0959  142.3259  158.2673 O   0  0  0  0  0  0  0  0  0  0  0  0
  150.6974  142.3414  156.4597 N   0  0  0  0  0  0  0  0  0  0  0  0
  150.9195  141.0479  155.9091 C   0  0  0  0  0  0  0  0  0  0  0  0
  151.9808  140.2266  156.3619 C   0  0  0  0  0  0  0  0  0  0  0  0
  152.1197  138.9289  155.8407 C   0  0  0  0  0  0  0  0  0  0  0  0
  151.1800  138.4895  154.8940 C   0  0  0  0  0  0  0  0  0  0  0  0
  150.1564  139.2535  154.4628 N   0  0  0  0  0  0  0  0  0  0  0  0
  150.0173  140.5134  154.9448 C   0  0  0  0  0  0  0  0  0  0  0  0
  148.9352  141.2728  154.4427 N   0  0  0  0  0  0  0  0  0  0  0  0
  148.2832  140.8157  153.2186 C   0  0  0  0  0  0  0  0  0  0  0  0
  146.7911  141.1251  153.3795 C   0  0  0  0  0  0  0  0  0  0  0  0
  146.7606  142.2117  154.4498 C   0  0  0  0  0  0  0  0  0  0  0  0
  147.9284  141.8158  155.3485 C   0  0  0  0  0  0  0  0  0  0  0  0
  152.5409  143.3350  160.6890 H   0  0  0  0  0  0  0  0  0  0  0  0
  151.6150  143.8773  162.0820 H   0  0  0  0  0  0  0  0  0  0  0  0
  152.6793  145.0025  161.2405 H   0  0  0  0  0  0  0  0  0  0  0  0
  150.1458  143.7241  160.0707 H   0  0  0  0  0  0  0  0  0  0  0  0
  150.7686  146.1352  161.3093 H   0  0  0  0  0  0  0  0  0  0  0  0
  151.0589  146.0765  158.5891 H   0  0  0  0  0  0  0  0  0  0  0  0
  152.4132  144.9949  158.7656 H   0  0  0  0  0  0  0  0  0  0  0  0
  150.1978  144.5327  157.0717 H   0  0  0  0  0  0  0  0  0  0  0  0
  150.1207  142.9551  155.9030 H   0  0  0  0  0  0  0  0  0  0  0  0
  152.6755  140.5626  157.1166 H   0  0  0  0  0  0  0  0  0  0  0  0
  152.9193  138.2818  156.1695 H   0  0  0  0  0  0  0  0  0  0  0  0
  151.2473  137.4963  154.4754 H   0  0  0  0  0  0  0  0  0  0  0  0
  148.6880  141.3753  152.3751 H   0  0  0  0  0  0  0  0  0  0  0  0
  148.4520  139.7539  153.0334 H   0  0  0  0  0  0  0  0  0  0  0  0
  146.3187  141.4321  152.4461 H   0  0  0  0  0  0  0  0  0  0  0  0
  146.2701  140.2387  153.7440 H   0  0  0  0  0  0  0  0  0  0  0  0
  146.9499  143.1862  153.9975 H   0  0  0  0  0  0  0  0  0  0  0  0
  145.8110  142.2619  154.9831 H   0  0  0  0  0  0  0  0  0  0  0  0
  147.5971  141.0575  156.0591 H   0  0  0  0  0  0  0  0  0  0  0  0
  148.3154  142.6666  155.9097 H   0  0  0  0  0  0  0  0  0  0  0  0
  1  2  1  0  0  0  0
  1 20  1  0  0  0  0
  1 21  1  0  0  0  0
  1 22  1  0  0  0  0
  2  3  1  0  0  0  0
  2  4  1  0  0  0  0
  2 23  1  0  0  0  0
  3 24  1  0  0  0  0
  4  5  1  0  0  0  0
  4 25  1  0  0  0  0
  4 26  1  0  0  0  0
  5  6  1  0  0  0  0
  5 27  1  0  0  0  0
  6  7  2  0  0  0  0
  6  8  1  0  0  0  0
  8  9  1  0  0  0  0
  8 28  1  0  0  0  0
  9 14  1  0  0  0  0
  9 10  2  0  0  0  0
 10 11  1  0  0  0  0
 10 29  1  0  0  0  0
 11 12  2  0  0  0  0
 11 30  1  0  0  0  0
 12 13  1  0  0  0  0
 12 31  1  0  0  0  0
 13 14  2  0  0  0  0
 14 15  1  0  0  0  0
 15 19  1  0  0  0  0
 15 16  1  0  0  0  0
 16 17  1  0  0  0  0
 16 32  1  0  0  0  0
 16 33  1  0  0  0  0
 17 18  1  0  0  0  0
 17 34  1  0  0  0  0
 17 35  1  0  0  0  0
 18 19  1  0  0  0  0
 18 36  1  0  0  0  0
 18 37  1  0  0  0  0
 19 38  1  0  0  0  0
 19 39  1  0  0  0  0
M  END
> <s_m_source_file>
AV-unprocessed.smi

> <i_m_source_file_index>
833

> <i_lp_mmshare_version>
43012

> <i_f3d_flags>
0

> <s_epik_input>
W0NIM11bQ0BIXShbT0hdKVtDSDJdW05IXUMoPU8pW05IXWMxW2NIXVtjSF1bY0hdbmMxTjJbQ0gyXVtDSDJdW0NIMl1bQ0gyXTI=

> <s_epik_cmdline>
J2VwaWtfcHl0aG9uJywgJy1waCcsICc3LjAnLCAnLXRuJywgJzgnLCAnLW1hJywgJzIwMCcsICctbWV0YWxfYmluZGluZycsICctaW1hZScsICc8aW5maWxlLm1hZT4nLCAnLW9tYWUnLCAnPG91dGZpbGUubWFlPic=

> <r_lp_tautomer_probability>
1

> <r_epik_Ionization_Penalty>
0.0986749

> <r_epik_Ionization_Penalty_Charging>
0

> <r_epik_Ionization_Penalty_Neutral>
0.0986749

> <r_epik_State_Penalty>
0.0881977

> <r_epik_Charging_Adjusted_Penalty>
0.0881977

> <i_epik_Tot_Q>
0

> <i_epik_Tot_abs_Q>
0

> <r_epik_Metal_State_Penalty>
0.0755487

> <b_epik_Metal_Only>
0

> <s_lp_Force_Field>
OPLS_2005

> <r_lp_Energy>
30.9988

> <b_lp_Chiralities_Consistent>
1

> <s_lp_Variant>
AV-unprocessed.smi:833-2

> <Gold.Version>
5.8.1

> <Gold.Id.Protein>
6NUR|6NUR_protein|mol2

> <Gold.PLP.Fitness>
41.7464

> <Gold.PLP.PLP>
-38.4583

> <Gold.PLP.part.hbond>
-3.8242

> <Gold.PLP.part.metal>
0.0000

> <Gold.PLP.part.buried>
-0.1117

> <Gold.PLP.part.nonpolar>
-34.3953

> <Gold.PLP.part.repulsive>
0.4196

> <Gold.PLP.ligand.clash>
0.0000

> <Gold.PLP.ligand.torsion>
1.0219

> <Gold.PLP.Chemscore.Hbond>
1.6663

> <Gold.PLP.Chemscore.CHOScore>
0.0000

> <Gold.PLP.Chemscore.Metal>
0.0000

> <Gold.Chemscore.Hbonds>
donor molecule, donor type, donor heavy atom, donor atom, acceptor molecule, acceptor atom, score
      L1  H     5    27       P1  8028  1.00
      L1  H     8    28       P1  8028  0.67

> <Gold.PLP.Chemscore.Internal.Correction>
0.3332

> <Gold.Rescore>
     Score         DG    S(hbond)    S(metal)    S(lipo)     H(rot)  DE(clash)    DE(int)     intcor
      9.42     -15.43       1.38        0.00      89.93       2.03       2.86       3.14       ----

> <Gold.Chemscore.Fitness>
9.4227

> <Gold.Chemscore.DG>
-15.4264

> <Gold.Chemscore.ZeroCoef>
-5.4800

> <Gold.Chemscore.Hbond>
1.3840

> <Gold.Chemscore.Metal>
0.0000

> <Gold.Chemscore.Lipo>
89.9346

> <Gold.Chemscore.Internal_Hbond>
0.0000

> <Gold.Chemscore.DEClash>
2.8593

> <Gold.Chemscore.DEInternal>
3.1444

> <Gold.Chemscore.Rot>
2.0306

> <Gold.Chemscore.Internal.Correction>
   9.000000E+99

> <Gold.Chemscore.Hbonds>
donor molecule, donor type, donor heavy atom, donor atom, acceptor molecule, acceptor atom, score
      L1  H     5    27       P1  8028  0.60
      L1  H     8    28       P1  8028  0.64

> <Gold.Chemscore.Hbond.Weighted>
-4.6224

> <Gold.Chemscore.Metal.Weighted>
-0.0000

> <Gold.Chemscore.Lipo.Weighted>
-10.5224

> <Gold.Chemscore.Internal_Hbond.Weighted>
0.0000

> <Gold.Chemscore.DEClash.Weighted>
2.8593

> <Gold.Chemscore.DEInternal.Weighted>
3.1444

> <Gold.Chemscore.Rot.Weighted>
5.1984

> <Gold.Chemscore.Internal.Correction.Weighted>
   9.000000E+99

> <Gold.Protein.RotatedTorsions>
[ 6907 6896 6895 6894 ] final  138.72 input  -60.11 | X-H torsion
[ 7974 7965 7964 7962 ] final  -90.13 input  175.53 | X-H torsion
[ 8008 7997 7996 7995 ] final  144.51 input   59.86 | X-H torsion
[ 10167 10162 10161 10158 ] final  -95.28 input  -65.29 | X-H torsion
[ 10718 10713 10712 10709 ] final  -17.36 input   66.30 | X-H torsion
[ 10763 10752 10751 10750 ] final   47.07 input  -60.55 | X-H torsion
[ 11005 11000 10999 10996 ] final  142.21 input  -57.11 | X-H torsion

> <Gold.Protein.ActiveResidues>
 VAL166  LYS551  ARG553  GLY616  TRP617  ASP618  TYR619  PRO620  LYS621  CYS622 
 ASP623  PHE694  ASN695  SER759  ASP760  ASP761  ALA762  ILE779  LEU786  VAL792 
 PHE793  MET794  SER795  GLU796  ALA797  LYS798  CYS799  TRP800  GLU811  SER814 

> <Gold.Protein.RotatedAtoms>
  152.2633  133.5317  159.5394 H   0  0  0  0  0  0  0  0  0  0  0  0  # atno 6907 bound_to 6896
  150.7133  134.0799  159.3903 H   0  0  0  0  0  0  0  0  0  0  0  0  # atno 6908 bound_to 6896
  151.8716  135.0487  160.0530 H   0  0  0  0  0  0  0  0  0  0  0  0  # atno 6909 bound_to 6896
  145.4305  140.9555  143.2131 H   0  0  0  0  0  0  0  0  0  0  0  0  # atno 7974 bound_to 7965
  156.2906  140.2234  156.5064 H   0  0  0  0  0  0  0  0  0  0  0  0  # atno 8008 bound_to 7997
  154.7646  140.0471  157.1023 H   0  0  0  0  0  0  0  0  0  0  0  0  # atno 8009 bound_to 7997
  154.9949  140.3094  155.4894 H   0  0  0  0  0  0  0  0  0  0  0  0  # atno 8010 bound_to 7997
  140.3058  143.3135  152.0201 H   0  0  0  0  0  0  0  0  0  0  0  0  # atno 10167 bound_to 10162
  156.5747  130.4758  149.6347 H   0  0  0  0  0  0  0  0  0  0  0  0  # atno 10718 bound_to 10713
  152.9803  135.5988  154.3703 H   0  0  0  0  0  0  0  0  0  0  0  0  # atno 10763 bound_to 10752
  154.3377  135.2768  155.2441 H   0  0  0  0  0  0  0  0  0  0  0  0  # atno 10764 bound_to 10752
  154.4536  135.5983  153.6263 H   0  0  0  0  0  0  0  0  0  0  0  0  # atno 10765 bound_to 10752
  140.0459  134.9281  157.0930 H   0  0  0  0  0  0  0  0  0  0  0  0  # atno 11005 bound_to 11000
  144.8186  139.5832  143.6997 LP  0  0  0  0  0  0  0  0  0  0  0  0  # atno 17320 bound_to 7965
  146.2609  139.6409  142.9362 LP  0  0  0  0  0  0  0  0  0  0  0  0  # atno 17321 bound_to 7965
  139.4905  144.6422  151.6853 LP  0  0  0  0  0  0  0  0  0  0  0  0  # atno 17342 bound_to 10162
  140.5612  144.0266  150.6170 LP  0  0  0  0  0  0  0  0  0  0  0  0  # atno 17343 bound_to 10162
  156.2684  130.7003  151.1793 LP  0  0  0  0  0  0  0  0  0  0  0  0  # atno 17370 bound_to 10713
  157.7340  131.0585  150.5546 LP  0  0  0  0  0  0  0  0  0  0  0  0  # atno 17371 bound_to 10713
  140.3994  134.2099  155.7164 LP  0  0  0  0  0  0  0  0  0  0  0  0  # atno 17394 bound_to 11000
  141.1907  133.8212  157.0909 LP  0  0  0  0  0  0  0  0  0  0  0  0  # atno 17395 bound_to 11000

$$$$
