AV-unprocessed.smi:2078|AV-procd|sdf|8474|dock2
  -GOLD-   2272011173D 1   1.00000     0.00000
 Structure written by MMmdl.
 41 42  0  0  0  0  0  0  0  0  3 V2000
  150.3489  132.8278  155.2997 C   0  0  0  0  0  0  0  0  0  0  0  0
  151.0361  134.1306  155.5249 C   0  0  0  0  0  0  0  0  0  0  0  0
  150.6867  135.4250  155.2609 C   0  0  0  0  0  0  0  0  0  0  0  0
  151.8039  136.1626  155.7351 C   0  0  0  0  0  0  0  0  0  0  0  0
  151.8330  137.5786  155.6342 N   0  0  0  0  0  0  0  0  0  0  0  0
  152.9002  138.3959  155.5836 C   0  0  0  0  0  0  0  0  0  0  0  0
  154.0452  137.9354  155.6695 O   0  0  0  0  0  0  0  0  0  0  0  0
  152.5471  139.7015  155.4214 N   0  5  0  0  0  0  0  0  0  0  0  0
  151.3740  140.3402  156.0267 C   0  0  0  0  0  0  0  0  0  0  0  0
  151.3371  140.0831  157.5486 C   0  0  0  0  0  0  0  0  0  0  0  0
  152.0499  141.1438  158.3102 N   0  3  2  0  0  0  0  0  0  0  0  0
  152.5902  140.6894  159.6187 C   0  0  0  0  0  0  0  0  0  0  0  0
  153.4838  141.7728  160.2419 C   0  0  0  0  0  0  0  0  0  0  0  0
  152.7196  143.0955  160.3896 C   0  0  0  0  0  0  0  0  0  0  0  0
  152.1358  143.5312  159.0341 C   0  0  2  0  0  0  0  0  0  0  0  0
  151.3445  144.8406  159.1567 C   0  0  0  0  0  0  0  0  0  0  0  0
  151.2719  142.4026  158.4365 C   0  0  0  0  0  0  0  0  0  0  0  0
  152.7522  135.3864  156.2389 N   0  0  0  0  0  0  0  0  0  0  0  0
  152.2644  134.0809  156.1082 O   0  0  0  0  0  0  0  0  0  0  0  0
  149.4003  132.9719  154.7823 H   0  0  0  0  0  0  0  0  0  0  0  0
  150.1450  132.3300  156.2479 H   0  0  0  0  0  0  0  0  0  0  0  0
  150.9670  132.1647  154.6943 H   0  0  0  0  0  0  0  0  0  0  0  0
  149.7769  135.7846  154.8038 H   0  0  0  0  0  0  0  0  0  0  0  0
  150.9319  138.0301  155.5797 H   0  0  0  0  0  0  0  0  0  0  0  0
  151.3946  141.4172  155.8617 H   0  0  0  0  0  0  0  0  0  0  0  0
  150.4376  140.0005  155.5822 H   0  0  0  0  0  0  0  0  0  0  0  0
  150.2946  140.0197  157.8648 H   0  0  0  0  0  0  0  0  0  0  0  0
  151.7708  139.1079  157.7751 H   0  0  0  0  0  0  0  0  0  0  0  0
  151.7660  140.4453  160.2906 H   0  0  0  0  0  0  0  0  0  0  0  0
  153.1722  139.7768  159.4846 H   0  0  0  0  0  0  0  0  0  0  0  0
  153.8497  141.4421  161.2143 H   0  0  0  0  0  0  0  0  0  0  0  0
  154.3636  141.9251  159.6146 H   0  0  0  0  0  0  0  0  0  0  0  0
  151.9180  142.9757  161.1199 H   0  0  0  0  0  0  0  0  0  0  0  0
  153.3852  143.8659  160.7804 H   0  0  0  0  0  0  0  0  0  0  0  0
  152.9678  143.7130  158.3512 H   0  0  0  0  0  0  0  0  0  0  0  0
  150.4902  144.7272  159.8250 H   0  0  0  0  0  0  0  0  0  0  0  0
  150.9673  145.1630  158.1856 H   0  0  0  0  0  0  0  0  0  0  0  0
  151.9707  145.6425  159.5488 H   0  0  0  0  0  0  0  0  0  0  0  0
  150.9201  142.7074  157.4498 H   0  0  0  0  0  0  0  0  0  0  0  0
  150.3881  142.2251  159.0512 H   0  0  0  0  0  0  0  0  0  0  0  0
  152.8486  141.3765  157.7349 H   0  0  0  0  0  0  0  0  0  0  0  0
  1  2  1  0  0  0  0
  1 20  1  0  0  0  0
  1 21  1  0  0  0  0
  1 22  1  0  0  0  0
  2 19  1  0  0  0  0
  2  3  2  0  0  0  0
  3  4  1  0  0  0  0
  3 23  1  0  0  0  0
  4  5  1  0  0  0  0
  4 18  2  0  0  0  0
  5  6  1  0  0  0  0
  5 24  1  0  0  0  0
  6  7  2  0  0  0  0
  6  8  1  0  0  0  0
  8  9  1  0  0  0  0
  9 10  1  0  0  0  0
  9 25  1  0  0  0  0
  9 26  1  0  0  0  0
 10 11  1  0  0  0  0
 10 27  1  0  0  0  0
 10 28  1  0  0  0  0
 11 17  1  0  0  0  0
 11 12  1  0  0  0  0
 11 41  1  0  0  0  0
 12 13  1  0  0  0  0
 12 29  1  0  0  0  0
 12 30  1  0  0  0  0
 13 14  1  0  0  0  0
 13 31  1  0  0  0  0
 13 32  1  0  0  0  0
 14 15  1  0  0  0  0
 14 33  1  0  0  0  0
 14 34  1  0  0  0  0
 15 16  1  0  0  0  0
 15 17  1  0  0  0  0
 15 35  1  0  0  0  0
 16 36  1  0  0  0  0
 16 37  1  0  0  0  0
 16 38  1  0  0  0  0
 17 39  1  0  0  0  0
 17 40  1  0  0  0  0
 18 19  1  0  0  0  0
M  CHG  1   8  -1
M  CHG  1  11   1
M  END
> <s_m_source_file>
AV-unprocessed.smi

> <i_m_source_file_index>
2078

> <i_lp_mmshare_version>
43012

> <i_f3d_flags>
0

> <s_epik_input>
W0NIM11jMVtjSF1jKG5vMSlbTkhdQyg9TylbTkhdW0NIMl1bQ0gyXU4yW0NIMl1bQ0gyXVtDSDJdW0NAQEhdKFtDSDNdKVtDSDJdMg==

> <s_epik_cmdline>
J2VwaWtfcHl0aG9uJywgJy1waCcsICc3LjAnLCAnLXRuJywgJzgnLCAnLW1hJywgJzIwMCcsICctbWV0YWxfYmluZGluZycsICctaW1hZScsICc8aW5maWxlLm1hZT4nLCAnLW9tYWUnLCAnPG91dGZpbGUubWFlPic=

> <r_epik_Ionization_Penalty>
6.76934

> <r_epik_Ionization_Penalty_Charging>
6.76934

> <r_epik_Ionization_Penalty_Neutral>
5.77849e-06

> <r_epik_State_Penalty>
6.79457

> <r_epik_Charging_Adjusted_Penalty>
13.5639

> <i_epik_Tot_Q>
0

> <i_epik_Tot_abs_Q>
2

> <r_epik_Metal_State_Penalty>
2.72837

> <b_epik_Metal_Only>
1

> <s_lp_Force_Field>
OPLS_2005

> <r_lp_Energy>
9.58201

> <b_lp_Chiralities_Consistent>
1

> <s_lp_Variant>
AV-unprocessed.smi:2078-12

> <Gold.Version>
5.8.1

> <Gold.Id.Protein>
6NUR|6NUR_protein|mol2

> <Gold.PLP.Fitness>
46.3606

> <Gold.PLP.PLP>
-38.9865

> <Gold.PLP.part.hbond>
-3.5032

> <Gold.PLP.part.metal>
0.0000

> <Gold.PLP.part.buried>
-4.1604

> <Gold.PLP.part.nonpolar>
-31.9861

> <Gold.PLP.part.repulsive>
0.1880

> <Gold.PLP.ligand.clash>
0.0000

> <Gold.PLP.ligand.torsion>
0.8441

> <Gold.PLP.Chemscore.Hbond>
3.0000

> <Gold.PLP.Chemscore.CHOScore>
0.0000

> <Gold.PLP.Chemscore.Metal>
0.0000

> <Gold.Chemscore.Hbonds>
donor molecule, donor type, donor heavy atom, donor atom, acceptor molecule, acceptor atom, score
      P1  H  7997  8008       L1     8  0.70
      P1  H 10752 10763       L1    18  0.03

> <Gold.PLP.Chemscore.Internal.Correction>
0.0623

> <Gold.Rescore>
     Score         DG    S(hbond)    S(metal)    S(lipo)     H(rot)  DE(clash)    DE(int)     intcor
     13.71     -16.17       1.47        0.00      82.99       1.54       0.03       2.43       ----

> <Gold.Chemscore.Fitness>
13.7061

> <Gold.Chemscore.DG>
-16.1680

> <Gold.Chemscore.ZeroCoef>
-5.4800

> <Gold.Chemscore.Hbond>
1.4740

> <Gold.Chemscore.Metal>
0.0000

> <Gold.Chemscore.Lipo>
82.9877

> <Gold.Chemscore.Internal_Hbond>
0.0000

> <Gold.Chemscore.DEClash>
0.0291

> <Gold.Chemscore.DEInternal>
2.4328

> <Gold.Chemscore.Rot>
1.5409

> <Gold.Chemscore.Internal.Correction>
   9.000000E+99

> <Gold.Chemscore.Hbonds>
donor molecule, donor type, donor heavy atom, donor atom, acceptor molecule, acceptor atom, score
      P1  H  7997  8008       L1     8  0.01

> <Gold.Chemscore.Hbond.Weighted>
-4.9231

> <Gold.Chemscore.Metal.Weighted>
-0.0000

> <Gold.Chemscore.Lipo.Weighted>
-9.7096

> <Gold.Chemscore.Internal_Hbond.Weighted>
0.0000

> <Gold.Chemscore.DEClash.Weighted>
0.0291

> <Gold.Chemscore.DEInternal.Weighted>
2.4328

> <Gold.Chemscore.Rot.Weighted>
3.9446

> <Gold.Chemscore.Internal.Correction.Weighted>
   9.000000E+99

> <Gold.Protein.RotatedTorsions>
[ 6907 6896 6895 6894 ] final   71.86 input  -60.11 | X-H torsion
[ 7974 7965 7964 7962 ] final  163.01 input  175.53 | X-H torsion
[ 8008 7997 7996 7995 ] final  -27.54 input   59.86 | X-H torsion
[ 10167 10162 10161 10158 ] final  -74.88 input  -65.29 | X-H torsion
[ 10718 10713 10712 10709 ] final   63.13 input   66.30 | X-H torsion
[ 10763 10752 10751 10750 ] final  104.50 input  -60.55 | X-H torsion
[ 11005 11000 10999 10996 ] final   96.00 input  -57.11 | X-H torsion

> <Gold.Protein.ActiveResidues>
 VAL166  LYS551  ARG553  GLY616  TRP617  ASP618  TYR619  PRO620  LYS621  CYS622 
 ASP623  PHE694  ASN695  SER759  ASP760  ASP761  ALA762  ILE779  LEU786  VAL792 
 PHE793  MET794  SER795  GLU796  ALA797  LYS798  CYS799  TRP800  GLU811  SER814 

> <Gold.Protein.RotatedAtoms>
  152.4835  134.4657  159.9619 H   0  0  0  0  0  0  0  0  0  0  0  0  # atno 6907 bound_to 6896
  151.4658  133.3575  159.2824 H   0  0  0  0  0  0  0  0  0  0  0  0  # atno 6908 bound_to 6896
  150.8926  134.8356  159.7364 H   0  0  0  0  0  0  0  0  0  0  0  0  # atno 6909 bound_to 6896
  144.7610  139.8121  143.6332 H   0  0  0  0  0  0  0  0  0  0  0  0  # atno 7974 bound_to 7965
  154.4372  140.1869  156.0949 H   0  0  0  0  0  0  0  0  0  0  0  0  # atno 8008 bound_to 7997
  156.0337  140.3327  155.7141 H   0  0  0  0  0  0  0  0  0  0  0  0  # atno 8009 bound_to 7997
  155.5802  140.0621  157.2776 H   0  0  0  0  0  0  0  0  0  0  0  0  # atno 8010 bound_to 7997
  140.4990  143.2365  151.7783 H   0  0  0  0  0  0  0  0  0  0  0  0  # atno 10167 bound_to 10162
  157.5949  130.9088  149.9676 H   0  0  0  0  0  0  0  0  0  0  0  0  # atno 10718 bound_to 10713
  153.3667  135.3941  155.1759 H   0  0  0  0  0  0  0  0  0  0  0  0  # atno 10763 bound_to 10752
  154.8688  135.3692  154.5029 H   0  0  0  0  0  0  0  0  0  0  0  0  # atno 10764 bound_to 10752
  153.5493  135.7083  153.5659 H   0  0  0  0  0  0  0  0  0  0  0  0  # atno 10765 bound_to 10752
  139.8784  134.8928  156.4095 H   0  0  0  0  0  0  0  0  0  0  0  0  # atno 11005 bound_to 11000
  146.1672  139.4808  142.9951 LP  0  0  0  0  0  0  0  0  0  0  0  0  # atno 17320 bound_to 7965
  145.6621  141.0238  143.1703 LP  0  0  0  0  0  0  0  0  0  0  0  0  # atno 17321 bound_to 7965
  139.4868  144.4548  151.9612 LP  0  0  0  0  0  0  0  0  0  0  0  0  # atno 17342 bound_to 10162
  140.3636  144.2942  150.5930 LP  0  0  0  0  0  0  0  0  0  0  0  0  # atno 17343 bound_to 10162
  156.1010  130.3656  150.0218 LP  0  0  0  0  0  0  0  0  0  0  0  0  # atno 17370 bound_to 10713
  156.8333  130.9400  151.3636 LP  0  0  0  0  0  0  0  0  0  0  0  0  # atno 17371 bound_to 10713
  140.9211  133.7644  155.9907 LP  0  0  0  0  0  0  0  0  0  0  0  0  # atno 17394 bound_to 11000
  140.8439  134.3034  157.5303 LP  0  0  0  0  0  0  0  0  0  0  0  0  # atno 17395 bound_to 11000

$$$$
