AV-unprocessed.smi:3047|AV-procd|sdf|11623|dock6
  -GOLD-   2272017 13D 1   1.00000     0.00000
 Structure written by MMmdl.
 37 38  0  0  0  0  0  0  0  0  1 V2000
  144.5575  138.7077  155.3251 C   0  0  0  0  0  0  0  0  0  0  0  0
  146.3873  138.5310  155.3501 S   0  0  0  0  0  0  0  0  0  0  0  0
  146.7898  138.1116  156.7013 O   0  0  0  0  0  0  0  0  0  0  0  0
  146.8142  137.7472  154.1810 O   0  0  0  0  0  0  0  0  0  0  0  0
  146.9322  140.1576  155.1250 N   0  0  0  0  0  0  0  0  0  0  0  0
  145.9484  141.2485  155.1683 C   0  0  0  0  0  0  0  0  0  0  0  0
  146.5625  142.3903  154.3620 C   0  0  0  0  0  0  0  0  0  0  0  0
  147.4234  141.6645  153.3369 C   0  0  0  0  0  0  0  0  0  0  0  0
  147.9434  140.4285  154.0908 C   0  0  1  0  0  0  0  0  0  0  0  0
  149.3476  140.6219  154.6803 C   0  0  0  0  0  0  0  0  0  0  0  0
  150.2831  139.9040  154.3245 O   0  0  0  0  0  0  0  0  0  0  0  0
  149.4841  141.6136  155.5740 N   0  0  0  0  0  0  0  0  0  0  0  0
  150.7335  141.9874  156.2251 C   0  0  0  0  0  0  0  0  0  0  0  0
  150.6301  141.8891  157.7562 C   0  0  0  0  0  0  0  0  0  0  0  0
  151.3849  142.9411  158.4059 N   0  0  0  0  0  0  0  0  0  0  0  0
  151.3371  144.2999  158.1238 C   0  0  0  0  0  0  0  0  0  0  0  0
  152.2160  144.9116  158.9889 C   0  0  0  0  0  0  0  0  0  0  0  0
  152.8121  143.9539  159.8067 N   0  0  0  0  0  0  0  0  0  0  0  0
  152.2707  142.8117  159.4032 C   0  0  0  0  0  0  0  0  0  0  0  0
  144.0982  137.7336  155.4907 H   0  0  0  0  0  0  0  0  0  0  0  0
  144.2377  139.0970  154.3588 H   0  0  0  0  0  0  0  0  0  0  0  0
  144.2477  139.3927  156.1142 H   0  0  0  0  0  0  0  0  0  0  0  0
  145.0192  140.9194  154.7018 H   0  0  0  0  0  0  0  0  0  0  0  0
  145.7319  141.5359  156.1973 H   0  0  0  0  0  0  0  0  0  0  0  0
  145.8126  143.0357  153.9039 H   0  0  0  0  0  0  0  0  0  0  0  0
  147.1891  143.0074  155.0073 H   0  0  0  0  0  0  0  0  0  0  0  0
  146.8057  141.3458  152.4961 H   0  0  0  0  0  0  0  0  0  0  0  0
  148.2132  142.3009  152.9350 H   0  0  0  0  0  0  0  0  0  0  0  0
  147.9783  139.5916  153.3908 H   0  0  0  0  0  0  0  0  0  0  0  0
  148.6679  142.1641  155.7997 H   0  0  0  0  0  0  0  0  0  0  0  0
  151.5465  141.3612  155.8533 H   0  0  0  0  0  0  0  0  0  0  0  0
  150.9728  143.0104  155.9334 H   0  0  0  0  0  0  0  0  0  0  0  0
  149.5889  141.9561  158.0748 H   0  0  0  0  0  0  0  0  0  0  0  0
  151.0099  140.9295  158.1099 H   0  0  0  0  0  0  0  0  0  0  0  0
  150.6987  144.7074  157.3535 H   0  0  0  0  0  0  0  0  0  0  0  0
  152.4633  145.9585  159.0854 H   0  0  0  0  0  0  0  0  0  0  0  0
  152.5245  141.8589  159.8446 H   0  0  0  0  0  0  0  0  0  0  0  0
  1  2  1  0  0  0  0
  1 20  1  0  0  0  0
  1 21  1  0  0  0  0
  1 22  1  0  0  0  0
  2  3  2  0  0  0  0
  2  4  2  0  0  0  0
  2  5  1  0  0  0  0
  5  9  1  0  0  0  0
  5  6  1  0  0  0  0
  6  7  1  0  0  0  0
  6 23  1  0  0  0  0
  6 24  1  0  0  0  0
  7  8  1  0  0  0  0
  7 25  1  0  0  0  0
  7 26  1  0  0  0  0
  8  9  1  0  0  0  0
  8 27  1  0  0  0  0
  8 28  1  0  0  0  0
  9 10  1  0  0  0  0
  9 29  1  0  0  0  0
 10 11  2  0  0  0  0
 10 12  1  0  0  0  0
 12 13  1  0  0  0  0
 12 30  1  0  0  0  0
 13 14  1  0  0  0  0
 13 31  1  0  0  0  0
 13 32  1  0  0  0  0
 14 15  1  0  0  0  0
 14 33  1  0  0  0  0
 14 34  1  0  0  0  0
 15 19  1  0  0  0  0
 15 16  1  0  0  0  0
 16 17  2  0  0  0  0
 16 35  1  0  0  0  0
 17 18  1  0  0  0  0
 17 36  1  0  0  0  0
 18 19  2  0  0  0  0
 19 37  1  0  0  0  0
M  END
> <s_m_source_file>
AV-unprocessed.smi

> <i_m_source_file_index>
3047

> <i_lp_mmshare_version>
43012

> <i_f3d_flags>
0

> <s_epik_input>
W0NIM11TKD1PKSg9TylOMVtDSDJdW0NIMl1bQ0gyXVtDQEhdMUMoPU8pW05IXVtDSDJdW0NIMl1uMltjSF1bY0hdbltjSF0y

> <s_epik_cmdline>
J2VwaWtfcHl0aG9uJywgJy1waCcsICc3LjAnLCAnLXRuJywgJzgnLCAnLW1hJywgJzIwMCcsICctbWV0YWxfYmluZGluZycsICctaW1hZScsICc8aW5maWxlLm1hZT4nLCAnLW9tYWUnLCAnPG91dGZpbGUubWFlPic=

> <r_lp_tautomer_probability>
1

> <r_epik_Ionization_Penalty>
0.575721

> <r_epik_Ionization_Penalty_Charging>
0.575721

> <r_epik_Ionization_Penalty_Neutral>
1.33078e-07

> <r_epik_State_Penalty>
0.588056

> <r_epik_Charging_Adjusted_Penalty>
1.16378

> <i_epik_Tot_Q>
0

> <i_epik_Tot_abs_Q>
0

> <r_epik_Metal_State_Penalty>
0.294357

> <b_epik_Metal_Only>
0

> <s_lp_Force_Field>
OPLS_2005

> <r_lp_Energy>
8.50144

> <b_lp_Chiralities_Consistent>
1

> <s_lp_Variant>
AV-unprocessed.smi:3047-3

> <Gold.Version>
5.8.1

> <Gold.Id.Protein>
6NUR|6NUR_protein|mol2

> <Gold.PLP.Fitness>
38.9036

> <Gold.PLP.PLP>
-33.6021

> <Gold.PLP.part.hbond>
-1.6610

> <Gold.PLP.part.metal>
0.0000

> <Gold.PLP.part.buried>
-5.8785

> <Gold.PLP.part.nonpolar>
-27.3739

> <Gold.PLP.part.repulsive>
0.4214

> <Gold.PLP.ligand.clash>
0.0000

> <Gold.PLP.ligand.torsion>
0.6348

> <Gold.PLP.Chemscore.Hbond>
1.0000

> <Gold.PLP.Chemscore.CHOScore>
1.0000

> <Gold.PLP.Chemscore.Metal>
0.0000

> <Gold.Chemscore.Hbonds>
donor molecule, donor type, donor heavy atom, donor atom, acceptor molecule, acceptor atom, score
      P1  H  7989  7998       L1    11  1.00
      L1  C    16    35       P1  8028  1.00

> <Gold.PLP.Chemscore.Internal.Correction>
0.5711

> <Gold.Rescore>
     Score         DG    S(hbond)    S(metal)    S(lipo)     H(rot)  DE(clash)    DE(int)     intcor
      9.06     -10.12       0.97        0.00      64.09       2.39       0.41       0.65       ----

> <Gold.Chemscore.Fitness>
9.0585

> <Gold.Chemscore.DG>
-10.1161

> <Gold.Chemscore.ZeroCoef>
-5.4800

> <Gold.Chemscore.Hbond>
0.9714

> <Gold.Chemscore.Metal>
0.0000

> <Gold.Chemscore.Lipo>
64.0929

> <Gold.Chemscore.Internal_Hbond>
0.0000

> <Gold.Chemscore.DEClash>
0.4069

> <Gold.Chemscore.DEInternal>
0.6507

> <Gold.Chemscore.Rot>
2.3857

> <Gold.Chemscore.Internal.Correction>
   9.000000E+99

> <Gold.Chemscore.Hbonds>
donor molecule, donor type, donor heavy atom, donor atom, acceptor molecule, acceptor atom, score
      P1  H  7989  7998       L1    11  0.81

> <Gold.Chemscore.Hbond.Weighted>
-3.2446

> <Gold.Chemscore.Metal.Weighted>
-0.0000

> <Gold.Chemscore.Lipo.Weighted>
-7.4989

> <Gold.Chemscore.Internal_Hbond.Weighted>
0.0000

> <Gold.Chemscore.DEClash.Weighted>
0.4069

> <Gold.Chemscore.DEInternal.Weighted>
0.6507

> <Gold.Chemscore.Rot.Weighted>
6.1074

> <Gold.Chemscore.Internal.Correction.Weighted>
   9.000000E+99

> <Gold.Protein.RotatedTorsions>
[ 6907 6896 6895 6894 ] final  -31.17 input  -60.11 | X-H torsion
[ 7974 7965 7964 7962 ] final -116.83 input  175.53 | X-H torsion
[ 8008 7997 7996 7995 ] final   25.78 input   59.86 | X-H torsion
[ 10167 10162 10161 10158 ] final    2.51 input  -65.29 | X-H torsion
[ 10718 10713 10712 10709 ] final   57.80 input   66.30 | X-H torsion
[ 10763 10752 10751 10750 ] final  -66.16 input  -60.55 | X-H torsion
[ 11005 11000 10999 10996 ] final -147.60 input  -57.11 | X-H torsion

> <Gold.Protein.ActiveResidues>
 VAL166  LYS551  ARG553  GLY616  TRP617  ASP618  TYR619  PRO620  LYS621  CYS622 
 ASP623  PHE694  ASN695  SER759  ASP760  ASP761  ALA762  ILE779  LEU786  VAL792 
 PHE793  MET794  SER795  GLU796  ALA797  LYS798  CYS799  TRP800  GLU811  SER814 

> <Gold.Protein.RotatedAtoms>
  151.0956  134.9942  159.8423 H   0  0  0  0  0  0  0  0  0  0  0  0  # atno 6907 bound_to 6896
  152.5433  134.2012  159.8723 H   0  0  0  0  0  0  0  0  0  0  0  0  # atno 6908 bound_to 6896
  151.2051  133.4544  159.2630 H   0  0  0  0  0  0  0  0  0  0  0  0  # atno 6909 bound_to 6896
  145.0922  140.8497  143.3976 H   0  0  0  0  0  0  0  0  0  0  0  0  # atno 7974 bound_to 7965
  155.0171  140.3143  155.4807 H   0  0  0  0  0  0  0  0  0  0  0  0  # atno 8008 bound_to 7997
  156.2899  140.2204  156.5229 H   0  0  0  0  0  0  0  0  0  0  0  0  # atno 8009 bound_to 7997
  154.7484  140.0468  157.0860 H   0  0  0  0  0  0  0  0  0  0  0  0  # atno 8010 bound_to 7997
  140.6631  143.7250  150.7776 H   0  0  0  0  0  0  0  0  0  0  0  0  # atno 10167 bound_to 10162
  157.5544  130.8789  149.9013 H   0  0  0  0  0  0  0  0  0  0  0  0  # atno 10718 bound_to 10713
  154.3558  135.6127  153.5665 H   0  0  0  0  0  0  0  0  0  0  0  0  # atno 10763 bound_to 10752
  152.9796  135.5803  154.4691 H   0  0  0  0  0  0  0  0  0  0  0  0  # atno 10764 bound_to 10752
  154.4420  135.2850  155.1818 H   0  0  0  0  0  0  0  0  0  0  0  0  # atno 10765 bound_to 10752
  140.7700  134.3200  157.5077 H   0  0  0  0  0  0  0  0  0  0  0  0  # atno 11005 bound_to 11000
  145.1053  139.2794  143.5665 LP  0  0  0  0  0  0  0  0  0  0  0  0  # atno 17320 bound_to 7965
  146.3531  140.0632  142.8628 LP  0  0  0  0  0  0  0  0  0  0  0  0  # atno 17321 bound_to 7965
  140.0923  143.4866  152.2472 LP  0  0  0  0  0  0  0  0  0  0  0  0  # atno 17342 bound_to 10162
  139.5871  144.7535  151.3492 LP  0  0  0  0  0  0  0  0  0  0  0  0  # atno 17343 bound_to 10162
  156.0605  130.3700  150.0992 LP  0  0  0  0  0  0  0  0  0  0  0  0  # atno 17370 bound_to 10713
  156.9162  130.9668  151.3555 LP  0  0  0  0  0  0  0  0  0  0  0  0  # atno 17371 bound_to 10713
  139.8757  134.9255  156.3376 LP  0  0  0  0  0  0  0  0  0  0  0  0  # atno 17394 bound_to 11000
  140.9583  133.7405  156.0365 LP  0  0  0  0  0  0  0  0  0  0  0  0  # atno 17395 bound_to 11000

$$$$
