AV-unprocessed.smi:1372|AV-procd|sdf|5583|dock9
  -GOLD-   22720 5183D 1   1.00000     0.00000
 Structure written by MMmdl.
 41 43  0  0  0  0  0  0  0  0  1 V2000
  154.8587  137.0682  158.0963 C   0  0  0  0  0  0  0  0  0  0  0  0
  153.0784  136.6984  157.8210 S   0  0  0  0  0  0  0  0  0  0  0  0
  152.9853  135.5146  156.9528 O   0  0  0  0  0  0  0  0  0  0  0  0
  152.3976  136.6986  159.1248 O   0  0  0  0  0  0  0  0  0  0  0  0
  152.5308  138.1821  156.8654 C   0  0  0  0  0  0  0  0  0  0  0  0
  152.5571  139.4149  157.7254 C   0  0  0  0  0  0  0  0  0  0  0  0
  153.5926  139.6920  158.5203 N   0  0  0  0  0  0  0  0  0  0  0  0
  153.2248  140.8865  159.1050 C   0  0  0  0  0  0  0  0  0  0  0  0
  153.9057  141.7015  160.0374 C   0  0  0  0  0  0  0  0  0  0  0  0
  153.3206  142.8984  160.5000 C   0  0  0  0  0  0  0  0  0  0  0  0
  152.0492  143.2961  160.0380 C   0  0  0  0  0  0  0  0  0  0  0  0
  151.3535  142.4970  159.1102 C   0  0  0  0  0  0  0  0  0  0  0  0
  151.9424  141.3031  158.6517 C   0  0  0  0  0  0  0  0  0  0  0  0
  151.5345  140.3108  157.7654 N   0  0  0  0  0  0  0  0  0  0  0  0
  150.2596  140.2893  157.0585 C   0  0  0  0  0  0  0  0  0  0  0  0
  150.3091  141.0377  155.7115 C   0  0  1  0  0  0  0  0  0  0  0  0
  151.0723  140.3058  154.7732 O   0  0  0  0  0  0  0  0  0  0  0  0
  148.9098  141.3403  155.1998 C   0  0  0  0  0  0  0  0  0  0  0  0
  147.9459  141.8941  156.0697 C   0  0  0  0  0  0  0  0  0  0  0  0
  146.6444  142.1674  155.6056 C   0  0  0  0  0  0  0  0  0  0  0  0
  146.2987  141.8866  154.2698 C   0  0  0  0  0  0  0  0  0  0  0  0
  147.2549  141.3313  153.3981 C   0  0  0  0  0  0  0  0  0  0  0  0
  148.5564  141.0574  153.8617 C   0  0  0  0  0  0  0  0  0  0  0  0
  155.3130  136.2556  158.6627 H   0  0  0  0  0  0  0  0  0  0  0  0
  154.9555  137.9979  158.6570 H   0  0  0  0  0  0  0  0  0  0  0  0
  155.3641  137.1668  157.1358 H   0  0  0  0  0  0  0  0  0  0  0  0
  153.1885  138.2740  156.0044 H   0  0  0  0  0  0  0  0  0  0  0  0
  151.5185  138.0098  156.5004 H   0  0  0  0  0  0  0  0  0  0  0  0
  154.8800  141.4048  160.3964 H   0  0  0  0  0  0  0  0  0  0  0  0
  153.8499  143.5142  161.2124 H   0  0  0  0  0  0  0  0  0  0  0  0
  151.6081  144.2145  160.3968 H   0  0  0  0  0  0  0  0  0  0  0  0
  150.3794  142.7989  158.7550 H   0  0  0  0  0  0  0  0  0  0  0  0
  149.9214  139.2615  156.9319 H   0  0  0  0  0  0  0  0  0  0  0  0
  149.5162  140.7589  157.7041 H   0  0  0  0  0  0  0  0  0  0  0  0
  150.8288  141.9854  155.8600 H   0  0  0  0  0  0  0  0  0  0  0  0
  150.5186  139.6439  154.3878 H   0  0  0  0  0  0  0  0  0  0  0  0
  148.2002  142.1097  157.0973 H   0  0  0  0  0  0  0  0  0  0  0  0
  145.9107  142.5916  156.2752 H   0  0  0  0  0  0  0  0  0  0  0  0
  145.3004  142.0959  153.9142 H   0  0  0  0  0  0  0  0  0  0  0  0
  146.9895  141.1144  152.3740 H   0  0  0  0  0  0  0  0  0  0  0  0
  149.2826  140.6273  153.1873 H   0  0  0  0  0  0  0  0  0  0  0  0
  1  2  1  0  0  0  0
  1 24  1  0  0  0  0
  1 25  1  0  0  0  0
  1 26  1  0  0  0  0
  2  3  2  0  0  0  0
  2  4  2  0  0  0  0
  2  5  1  0  0  0  0
  5  6  1  0  0  0  0
  5 27  1  0  0  0  0
  5 28  1  0  0  0  0
  6 14  1  0  0  0  0
  6  7  2  0  0  0  0
  7  8  1  0  0  0  0
  8 13  2  0  0  0  0
  8  9  1  0  0  0  0
  9 10  2  0  0  0  0
  9 29  1  0  0  0  0
 10 11  1  0  0  0  0
 10 30  1  0  0  0  0
 11 12  2  0  0  0  0
 11 31  1  0  0  0  0
 12 13  1  0  0  0  0
 12 32  1  0  0  0  0
 13 14  1  0  0  0  0
 14 15  1  0  0  0  0
 15 16  1  0  0  0  0
 15 33  1  0  0  0  0
 15 34  1  0  0  0  0
 16 17  1  0  0  0  0
 16 18  1  0  0  0  0
 16 35  1  0  0  0  0
 17 36  1  0  0  0  0
 18 23  1  0  0  0  0
 18 19  2  0  0  0  0
 19 20  1  0  0  0  0
 19 37  1  0  0  0  0
 20 21  2  0  0  0  0
 20 38  1  0  0  0  0
 21 22  1  0  0  0  0
 21 39  1  0  0  0  0
 22 23  2  0  0  0  0
 22 40  1  0  0  0  0
 23 41  1  0  0  0  0
M  END
> <s_m_source_file>
AV-unprocessed.smi

> <i_m_source_file_index>
1372

> <i_lp_mmshare_version>
43012

> <i_f3d_flags>
0

> <s_epik_input>
W2NIXTFbY0hdW2NIXVtjSF1jKGMxMiluKGMobjIpW0NIMl1TKD1PKSg9TylbQ0gzXSlbQ0gyXVtDQEhdKFtPSF0pYzNbY0hdW2NIXVtjSF1bY0hdW2NIXTM=

> <s_epik_cmdline>
J2VwaWtfcHl0aG9uJywgJy1waCcsICc3LjAnLCAnLXRuJywgJzgnLCAnLW1hJywgJzIwMCcsICctbWV0YWxfYmluZGluZycsICctaW1hZScsICc8aW5maWxlLm1hZT4nLCAnLW9tYWUnLCAnPG91dGZpbGUubWFlPic=

> <r_epik_Ionization_Penalty>
0.0151431

> <r_epik_Ionization_Penalty_Charging>
0

> <r_epik_Ionization_Penalty_Neutral>
0.0151431

> <r_epik_State_Penalty>
0.0118835

> <r_epik_Charging_Adjusted_Penalty>
0.0118835

> <i_epik_Tot_Q>
0

> <i_epik_Tot_abs_Q>
0

> <r_epik_Metal_State_Penalty>
1.20034e-05

> <b_epik_Metal_Only>
0

> <s_lp_Force_Field>
OPLS_2005

> <r_lp_Energy>
10.2865

> <b_lp_Chiralities_Consistent>
1

> <s_lp_Variant>
AV-unprocessed.smi:1372-2

> <Gold.Version>
5.8.1

> <Gold.Id.Protein>
6NUR|6NUR_protein|mol2

> <Gold.PLP.Fitness>
51.3998

> <Gold.PLP.PLP>
-41.1992

> <Gold.PLP.part.hbond>
-4.0000

> <Gold.PLP.part.metal>
0.0000

> <Gold.PLP.part.buried>
-4.1004

> <Gold.PLP.part.nonpolar>
-32.4041

> <Gold.PLP.part.repulsive>
0.0000

> <Gold.PLP.ligand.clash>
0.0000

> <Gold.PLP.ligand.torsion>
0.9672

> <Gold.PLP.Chemscore.Hbond>
4.0000

> <Gold.PLP.Chemscore.CHOScore>
0.0000

> <Gold.PLP.Chemscore.Metal>
0.0000

> <Gold.Chemscore.Hbonds>
donor molecule, donor type, donor heavy atom, donor atom, acceptor molecule, acceptor atom, score
      P1  H  6896  6909       L1     4  0.93
      P1  H  7989  7998       L1    17  0.83
      P1  H  7997  8008       L1     7  0.90
      P1  H 10752 10763       L1     3  1.00

> <Gold.PLP.Chemscore.Internal.Correction>
0.1351

> <Gold.Rescore>
     Score         DG    S(hbond)    S(metal)    S(lipo)     H(rot)  DE(clash)    DE(int)     intcor
     20.71     -23.18       3.23        0.00     109.95       2.33       0.01       2.47       ----

> <Gold.Chemscore.Fitness>
20.7065

> <Gold.Chemscore.DG>
-23.1817

> <Gold.Chemscore.ZeroCoef>
-5.4800

> <Gold.Chemscore.Hbond>
3.2348

> <Gold.Chemscore.Metal>
0.0000

> <Gold.Chemscore.Lipo>
109.9491

> <Gold.Chemscore.Internal_Hbond>
0.0000

> <Gold.Chemscore.DEClash>
0.0089

> <Gold.Chemscore.DEInternal>
2.4664

> <Gold.Chemscore.Rot>
2.3306

> <Gold.Chemscore.Internal.Correction>
   9.000000E+99

> <Gold.Chemscore.Hbonds>
donor molecule, donor type, donor heavy atom, donor atom, acceptor molecule, acceptor atom, score
      P1  H  6896  6909       L1     4  0.89
      P1  H  7989  7998       L1    17  0.16
      P1  H  7997  8008       L1     7  0.12
      P1  H 10752 10763       L1     3  1.00

> <Gold.Chemscore.Hbond.Weighted>
-10.8041

> <Gold.Chemscore.Metal.Weighted>
-0.0000

> <Gold.Chemscore.Lipo.Weighted>
-12.8640

> <Gold.Chemscore.Internal_Hbond.Weighted>
0.0000

> <Gold.Chemscore.DEClash.Weighted>
0.0089

> <Gold.Chemscore.DEInternal.Weighted>
2.4664

> <Gold.Chemscore.Rot.Weighted>
5.9664

> <Gold.Chemscore.Internal.Correction.Weighted>
   9.000000E+99

> <Gold.Protein.RotatedTorsions>
[ 6907 6896 6895 6894 ] final  128.94 input  -60.11 | X-H torsion
[ 7974 7965 7964 7962 ] final -129.33 input  175.53 | X-H torsion
[ 8008 7997 7996 7995 ] final -102.98 input   59.86 | X-H torsion
[ 10167 10162 10161 10158 ] final  145.53 input  -65.29 | X-H torsion
[ 10718 10713 10712 10709 ] final  -64.64 input   66.30 | X-H torsion
[ 10763 10752 10751 10750 ] final  106.74 input  -60.55 | X-H torsion
[ 11005 11000 10999 10996 ] final  118.33 input  -57.11 | X-H torsion

> <Gold.Protein.ActiveResidues>
 VAL166  LYS551  ARG553  GLY616  TRP617  ASP618  TYR619  PRO620  LYS621  CYS622 
 ASP623  PHE694  ASN695  SER759  ASP760  ASP761  ALA762  ILE779  LEU786  VAL792 
 PHE793  MET794  SER795  GLU796  ALA797  LYS798  CYS799  TRP800  GLU811  SER814 

> <Gold.Protein.RotatedAtoms>
  152.3671  133.6371  159.6058 H   0  0  0  0  0  0  0  0  0  0  0  0  # atno 6907 bound_to 6896
  150.7642  133.9330  159.3441 H   0  0  0  0  0  0  0  0  0  0  0  0  # atno 6908 bound_to 6896
  151.7158  135.0905  160.0327 H   0  0  0  0  0  0  0  0  0  0  0  0  # atno 6909 bound_to 6896
  144.9582  140.7418  143.4745 H   0  0  0  0  0  0  0  0  0  0  0  0  # atno 7974 bound_to 7965
  154.8644  140.0425  157.1685 H   0  0  0  0  0  0  0  0  0  0  0  0  # atno 8008 bound_to 7997
  154.8805  140.2972  155.5407 H   0  0  0  0  0  0  0  0  0  0  0  0  # atno 8009 bound_to 7997
  156.2999  140.2412  156.3807 H   0  0  0  0  0  0  0  0  0  0  0  0  # atno 8010 bound_to 7997
  139.4924  144.5895  151.6710 H   0  0  0  0  0  0  0  0  0  0  0  0  # atno 10167 bound_to 10162
  156.0717  130.4236  150.1449 H   0  0  0  0  0  0  0  0  0  0  0  0  # atno 10718 bound_to 10713
  153.3971  135.3867  155.1962 H   0  0  0  0  0  0  0  0  0  0  0  0  # atno 10763 bound_to 10752
  154.8725  135.3762  154.4665 H   0  0  0  0  0  0  0  0  0  0  0  0  # atno 10764 bound_to 10752
  153.5158  135.7087  153.5818 H   0  0  0  0  0  0  0  0  0  0  0  0  # atno 10765 bound_to 10752
  139.9106  134.9619  156.7486 H   0  0  0  0  0  0  0  0  0  0  0  0  # atno 11005 bound_to 11000
  145.2740  139.1943  143.4826 LP  0  0  0  0  0  0  0  0  0  0  0  0  # atno 17320 bound_to 7965
  146.3344  140.2691  142.8605 LP  0  0  0  0  0  0  0  0  0  0  0  0  # atno 17321 bound_to 7965
  140.5519  144.0412  150.6130 LP  0  0  0  0  0  0  0  0  0  0  0  0  # atno 17342 bound_to 10162
  140.3469  143.2986  152.0529 LP  0  0  0  0  0  0  0  0  0  0  0  0  # atno 17343 bound_to 10162
  156.9499  130.9771  151.3500 LP  0  0  0  0  0  0  0  0  0  0  0  0  # atno 17370 bound_to 10713
  157.5791  130.8364  149.8497 LP  0  0  0  0  0  0  0  0  0  0  0  0  # atno 17371 bound_to 10713
  140.6791  133.9490  155.7900 LP  0  0  0  0  0  0  0  0  0  0  0  0  # atno 17394 bound_to 11000
  141.0523  134.0467  157.3768 LP  0  0  0  0  0  0  0  0  0  0  0  0  # atno 17395 bound_to 11000

$$$$
