#       Name:                AV-unprocessed.smi:1440
#       Creating user name   scv26
#       Creation time:       Fri Mar 27 05:55:13 2020


#       File generated by GOLD software.
#

@<TRIPOS>MOLECULE
AV-unprocessed.smi:1440
    47    48     1
SMALL
NO_CHARGES


@<TRIPOS>ATOM
      1 ****        -1.8834  -5.1491  -0.3110 C.3            1 S1                 0.0000
      2 ****        -2.5142  -3.7500  -0.3523 C.3            1 S1                 0.0000
      3 ****        -2.1520  -3.0068  -1.6525 C.3            1 S1                 0.0000
      4 ****        -2.7759  -1.5999  -1.6973 C.3            1 S1                 0.0000
      5 ****        -2.4019  -0.7542  -0.4647 C.3            1 S1                 0.0000
      6 ****        -0.9895  -0.3797  -0.5189 N.am           1 S1                 0.0000
      7 ****        -0.4301   0.6514   0.1318 C.2            1 S1                 0.0000
      8 ****        -1.0650   1.4096   0.8667 O.2            1 S1                 0.0000
      9 ****         1.0788   0.8297  -0.0787 C.3            1 S1                 0.0000
     10 ****         1.6105   2.0474   0.5284 N.am           1 S1                 0.0000
     11 ****         1.5901   3.2677  -0.0315 C.2            1 S1                 0.0000
     12 ****         1.1150   3.4968  -1.1434 O.2            1 S1                 0.0000
     13 ****         2.1982   4.4050   0.7901 C.3            1 S1                 0.0000
     14 ****         3.6467   4.3141   0.8156 N.pl3          1 S1                 0.0000
     15 ****         4.5541   4.6635  -0.0984 C.2            1 S1                 0.0000
     16 ****         5.8048   4.4228   0.2699 N.2            1 S1                 0.0000
     17 ****         5.5798   3.8892   1.5075 C.2            1 S1                 0.0000
     18 ****         4.3037   3.8014   1.8832 N.2            1 S1                 0.0000
     19 ****        -2.7394  -1.5101   0.8383 C.3            1 S1                 0.0000
     20 ****        -2.1099  -2.9137   0.8767 C.3            1 S1                 0.0000
     21 ****        -0.7946  -5.0947  -0.3366 H              1 S1                 0.0000
     22 ****        -2.2071  -5.7505  -1.1609 H              1 S1                 0.0000
     23 ****        -2.1691  -5.6817   0.5966 H              1 S1                 0.0000
     24 ****        -3.5974  -3.8777  -0.3291 H              1 S1                 0.0000
     25 ****        -1.0678  -2.9307  -1.7445 H              1 S1                 0.0000
     26 ****        -2.4915  -3.5811  -2.5151 H              1 S1                 0.0000
     27 ****        -2.4767  -1.0872  -2.6123 H              1 S1                 0.0000
     28 ****        -3.8613  -1.6961  -1.7472 H              1 S1                 0.0000
     29 ****        -2.9925   0.1632  -0.4977 H              1 S1                 0.0000
     30 ****        -0.3919  -0.9528  -1.0970 H              1 S1                 0.0000
     31 ****         1.5939  -0.0231   0.3642 H              1 S1                 0.0000
     32 ****         1.3042   0.8111  -1.1465 H              1 S1                 0.0000
     33 ****         2.0183   1.9566   1.4479 H              1 S1                 0.0000
     34 ****         1.9158   5.3681   0.3628 H              1 S1                 0.0000
     35 ****         1.8108   4.3789   1.8099 H              1 S1                 0.0000
     36 ****         4.2937   5.0980  -1.0525 H              1 S1                 0.0000
     37 ****         6.3805   3.5548   2.1507 H              1 S1                 0.0000
     38 ****        -2.4228  -0.9353   1.7093 H              1 S1                 0.0000
     39 ****        -3.8225  -1.6058   0.9220 H              1 S1                 0.0000
     40 ****        -2.4169  -3.4232   1.7905 H              1 S1                 0.0000
     41 ****        -1.0236  -2.8272   0.9249 H              1 S1                 0.0000
     42 ****        -2.0462   1.2705   1.0009 LP             1 S1                 0.0000
     43 ****        -0.5992   2.1641   1.3290 LP             1 S1                 0.0000
     44 ****         0.7165   2.7529  -1.6798 LP             1 S1                 0.0000
     45 ****         1.1273   4.4269  -1.5104 LP             1 S1                 0.0000
     46 ****         6.6633   4.5848  -0.2166 LP             1 S1                 0.0000
     47 ****         3.9263   3.4462   2.7385 LP             1 S1                 0.0000
@<TRIPOS>BOND
    1    1    2 1     
    2    1   21 1     
    3    1   22 1     
    4    1   23 1     
    5    2   20 1     
    6    2    3 1     
    7    2   24 1     
    8    3    4 1     
    9    3   25 1     
   10    3   26 1     
   11    4    5 1     
   12    4   27 1     
   13    4   28 1     
   14    5    6 1     
   15    5   19 1     
   16    5   29 1     
   17    6    7 am    
   18    6   30 1     
   19    7    8 2     
   20    7    9 1     
   21    9   10 1     
   22    9   31 1     
   23    9   32 1     
   24   10   11 am    
   25   10   33 1     
   26   11   12 2     
   27   11   13 1     
   28   13   14 1     
   29   13   34 1     
   30   13   35 1     
   31   14   18 1     
   32   14   15 1     
   33   15   16 2     
   34   15   36 1     
   35   16   17 1     
   36   17   18 2     
   37   17   37 1     
   38   19   20 1     
   39   19   38 1     
   40   19   39 1     
   41   20   40 1     
   42   20   41 1     
   43    8   42 1     
   44    8   43 1     
   45   12   44 1     
   46   12   45 1     
   47   16   46 1     
   48   18   47 1     
@<TRIPOS>SUBSTRUCTURE
      1 S1             1
@<TRIPOS>SET
LONE_PAIRS      STATIC     ATOMS    <user>   **** ""
6 42 43 44 45 46 47
DONOR_HYDROGENS      STATIC     ATOMS    <user>   **** ""
2 30 33
ATOM$BLUE        STATIC     ATOMS    COLORGROUP SYSTEM
6 42 43 44 45 46 47
ATOM$RED        STATIC     ATOMS    COLORGROUP SYSTEM
2 30 33
