AV-unprocessed.smi:2519|AV-procd|sdf|9906|dock9
  -GOLD-   2272013543D 1   1.00000     0.00000
 Structure written by MMmdl.
 43 44  0  0  0  0  0  0  0  0  1 V2000
  152.8746  138.2146  160.4592 C   0  0  0  0  0  0  0  0  0  0  0  0
  152.5078  138.2604  159.0526 N   0  0  0  0  0  0  0  0  0  0  0  0
  151.4257  137.6617  158.5281 C   0  0  0  0  0  0  0  0  0  0  0  0
  150.6332  137.0004  159.2005 O   0  0  0  0  0  0  0  0  0  0  0  0
  151.2366  137.8234  157.0420 C   0  0  0  0  0  0  0  0  0  0  0  0
  152.1325  138.6223  156.2968 C   0  0  0  0  0  0  0  0  0  0  0  0
  151.9330  138.7487  154.9106 C   0  0  0  0  0  0  0  0  0  0  0  0
  150.8499  138.0767  154.3149 C   0  0  0  0  0  0  0  0  0  0  0  0
  149.9942  137.2956  155.1206 C   0  0  0  0  0  0  0  0  0  0  0  0
  148.9255  136.6645  154.4324 N   0  0  0  0  0  0  0  0  0  0  0  0
  147.7173  136.3080  154.9128 C   0  0  0  0  0  0  0  0  0  0  0  0
  147.3703  136.4173  156.0877 O   0  0  0  0  0  0  0  0  0  0  0  0
  146.8828  135.7994  153.9876 N   0  0  0  0  0  0  0  0  0  0  0  0
  145.5084  135.3152  154.1572 C   0  0  1  0  0  0  0  0  0  0  0  0
  144.5126  136.4652  153.9133 C   0  0  0  0  0  0  0  0  0  0  0  0
  144.4510  136.8749  152.4318 C   0  0  0  0  0  0  0  0  0  0  0  0
  144.1382  135.6712  151.5289 C   0  0  0  0  0  0  0  0  0  0  0  0
  145.1504  134.5246  151.7340 C   0  0  2  0  0  0  0  0  0  0  0  0
  144.8523  133.3175  150.8210 C   0  0  0  0  0  0  0  0  0  0  0  0
  145.8579  132.4424  150.8470 F   0  0  0  0  0  0  0  0  0  0  0  0
  143.7378  132.7054  151.2217 F   0  0  0  0  0  0  0  0  0  0  0  0
  144.6715  133.7292  149.5660 F   0  0  0  0  0  0  0  0  0  0  0  0
  145.1973  134.1218  153.2248 C   0  0  0  0  0  0  0  0  0  0  0  0
  150.1989  137.1796  156.4550 N   0  0  0  0  0  0  0  0  0  0  0  0
  153.7948  138.7758  160.6207 H   0  0  0  0  0  0  0  0  0  0  0  0
  153.0398  137.1866  160.7842 H   0  0  0  0  0  0  0  0  0  0  0  0
  152.0925  138.6554  161.0788 H   0  0  0  0  0  0  0  0  0  0  0  0
  153.1094  138.7816  158.4301 H   0  0  0  0  0  0  0  0  0  0  0  0
  152.9589  139.1325  156.7703 H   0  0  0  0  0  0  0  0  0  0  0  0
  152.5996  139.3530  154.3133 H   0  0  0  0  0  0  0  0  0  0  0  0
  150.6805  138.1653  153.2515 H   0  0  0  0  0  0  0  0  0  0  0  0
  149.0804  136.4986  153.4490 H   0  0  0  0  0  0  0  0  0  0  0  0
  147.2515  135.7315  153.0499 H   0  0  0  0  0  0  0  0  0  0  0  0
  145.3856  134.9939  155.1929 H   0  0  0  0  0  0  0  0  0  0  0  0
  143.5188  136.1510  154.2353 H   0  0  0  0  0  0  0  0  0  0  0  0
  144.7709  137.3272  154.5299 H   0  0  0  0  0  0  0  0  0  0  0  0
  143.6931  137.6463  152.2935 H   0  0  0  0  0  0  0  0  0  0  0  0
  145.3997  137.3211  152.1309 H   0  0  0  0  0  0  0  0  0  0  0  0
  143.1290  135.3148  151.7379 H   0  0  0  0  0  0  0  0  0  0  0  0
  144.1412  135.9925  150.4871 H   0  0  0  0  0  0  0  0  0  0  0  0
  146.1368  134.8998  151.4566 H   0  0  0  0  0  0  0  0  0  0  0  0
  145.9251  133.3243  153.3739 H   0  0  0  0  0  0  0  0  0  0  0  0
  144.2337  133.6977  153.5100 H   0  0  0  0  0  0  0  0  0  0  0  0
  1  2  1  0  0  0  0
  1 25  1  0  0  0  0
  1 26  1  0  0  0  0
  1 27  1  0  0  0  0
  2  3  1  0  0  0  0
  2 28  1  0  0  0  0
  3  4  2  0  0  0  0
  3  5  1  0  0  0  0
  5 24  1  0  0  0  0
  5  6  2  0  0  0  0
  6  7  1  0  0  0  0
  6 29  1  0  0  0  0
  7  8  2  0  0  0  0
  7 30  1  0  0  0  0
  8  9  1  0  0  0  0
  8 31  1  0  0  0  0
  9 10  1  0  0  0  0
  9 24  2  0  0  0  0
 10 11  1  0  0  0  0
 10 32  1  0  0  0  0
 11 12  2  0  0  0  0
 11 13  1  0  0  0  0
 13 14  1  0  0  0  0
 13 33  1  0  0  0  0
 14 23  1  0  0  0  0
 14 15  1  0  0  0  0
 14 34  1  0  0  0  0
 15 16  1  0  0  0  0
 15 35  1  0  0  0  0
 15 36  1  0  0  0  0
 16 17  1  0  0  0  0
 16 37  1  0  0  0  0
 16 38  1  0  0  0  0
 17 18  1  0  0  0  0
 17 39  1  0  0  0  0
 17 40  1  0  0  0  0
 18 19  1  0  0  0  0
 18 23  1  0  0  0  0
 18 41  1  0  0  0  0
 19 20  1  0  0  0  0
 19 21  1  0  0  0  0
 19 22  1  0  0  0  0
 23 42  1  0  0  0  0
 23 43  1  0  0  0  0
M  END
> <s_m_source_file>
AV-unprocessed.smi

> <i_m_source_file_index>
2519

> <i_lp_mmshare_version>
43012

> <i_f3d_flags>
0

> <s_epik_input>
W0NIM11bTkhdQyg9TyljMVtjSF1bY0hdW2NIXWMobjEpW05IXUMoPU8pW05IXVtDQEBIXTJbQ0gyXVtDSDJdW0NIMl1bQ0BASF0oQyhGKShGKUYpW0NIMl0y

> <s_epik_cmdline>
J2VwaWtfcHl0aG9uJywgJy1waCcsICc3LjAnLCAnLXRuJywgJzgnLCAnLW1hJywgJzIwMCcsICctbWV0YWxfYmluZGluZycsICctaW1hZScsICc8aW5maWxlLm1hZT4nLCAnLW9tYWUnLCAnPG91dGZpbGUubWFlPic=

> <r_lp_tautomer_probability>
1

> <r_epik_Ionization_Penalty>
3.74915e-05

> <r_epik_Ionization_Penalty_Charging>
0

> <r_epik_Ionization_Penalty_Neutral>
3.74915e-05

> <r_epik_State_Penalty>
-0

> <r_epik_Charging_Adjusted_Penalty>
0

> <i_epik_Tot_Q>
0

> <i_epik_Tot_abs_Q>
0

> <r_epik_Metal_State_Penalty>
-0

> <b_epik_Metal_Only>
0

> <s_lp_Force_Field>
OPLS_2005

> <r_lp_Energy>
26.6361

> <b_lp_Chiralities_Consistent>
1

> <s_lp_Variant>
AV-unprocessed.smi:2519-4

> <Gold.Version>
5.8.1

> <Gold.Id.Protein>
6NUR|6NUR_protein|mol2

> <Gold.PLP.Fitness>
39.3134

> <Gold.PLP.PLP>
-31.9392

> <Gold.PLP.part.hbond>
-3.0000

> <Gold.PLP.part.metal>
0.0000

> <Gold.PLP.part.buried>
-3.3921

> <Gold.PLP.part.nonpolar>
-25.3882

> <Gold.PLP.part.repulsive>
0.1226

> <Gold.PLP.ligand.clash>
0.0000

> <Gold.PLP.ligand.torsion>
0.6452

> <Gold.PLP.Chemscore.Hbond>
2.8800

> <Gold.PLP.Chemscore.CHOScore>
0.0000

> <Gold.PLP.Chemscore.Metal>
0.0000

> <Gold.Chemscore.Hbonds>
donor molecule, donor type, donor heavy atom, donor atom, acceptor molecule, acceptor atom, score
      L1  H    10    32       P1  7948  1.00
      L1  H    13    33       P1  7948  0.66
      P1  H  6896  6909       L1     4  0.76

> <Gold.PLP.Chemscore.Internal.Correction>
0.0247

> <Gold.Rescore>
     Score         DG    S(hbond)    S(metal)    S(lipo)     H(rot)  DE(clash)    DE(int)     intcor
     16.74     -19.35       2.89        0.00      57.95       1.00       0.85       1.76       ----

> <Gold.Chemscore.Fitness>
16.7376

> <Gold.Chemscore.DG>
-19.3495

> <Gold.Chemscore.ZeroCoef>
-5.4800

> <Gold.Chemscore.Hbond>
2.8889

> <Gold.Chemscore.Metal>
0.0000

> <Gold.Chemscore.Lipo>
57.9539

> <Gold.Chemscore.Internal_Hbond>
0.0000

> <Gold.Chemscore.DEClash>
0.8542

> <Gold.Chemscore.DEInternal>
1.7577

> <Gold.Chemscore.Rot>
1.0000

> <Gold.Chemscore.Internal.Correction>
   9.000000E+99

> <Gold.Chemscore.Hbonds>
donor molecule, donor type, donor heavy atom, donor atom, acceptor molecule, acceptor atom, score
      L1  H    10    32       P1  7948  0.97
      L1  H    13    33       P1  7948  0.63
      P1  H  6896  6909       L1     4  0.66

> <Gold.Chemscore.Hbond.Weighted>
-9.6489

> <Gold.Chemscore.Metal.Weighted>
-0.0000

> <Gold.Chemscore.Lipo.Weighted>
-6.7806

> <Gold.Chemscore.Internal_Hbond.Weighted>
0.0000

> <Gold.Chemscore.DEClash.Weighted>
0.8542

> <Gold.Chemscore.DEInternal.Weighted>
1.7577

> <Gold.Chemscore.Rot.Weighted>
2.5600

> <Gold.Chemscore.Internal.Correction.Weighted>
   9.000000E+99

> <Gold.Protein.RotatedTorsions>
[ 6907 6896 6895 6894 ] final  110.68 input  -60.11 | X-H torsion
[ 7974 7965 7964 7962 ] final -132.81 input  175.53 | X-H torsion
[ 8008 7997 7996 7995 ] final  155.36 input   59.86 | X-H torsion
[ 10167 10162 10161 10158 ] final  122.98 input  -65.29 | X-H torsion
[ 10718 10713 10712 10709 ] final  144.52 input   66.30 | X-H torsion
[ 10763 10752 10751 10750 ] final -163.70 input  -60.55 | X-H torsion
[ 11005 11000 10999 10996 ] final -149.07 input  -57.11 | X-H torsion

> <Gold.Protein.ActiveResidues>
 VAL166  LYS551  ARG553  GLY616  TRP617  ASP618  TYR619  PRO620  LYS621  CYS622 
 ASP623  PHE694  ASN695  SER759  ASP760  ASP761  ALA762  ILE779  LEU786  VAL792 
 PHE793  MET794  SER795  GLU796  ALA797  LYS798  CYS799  TRP800  GLU811  SER814 

> <Gold.Protein.RotatedAtoms>
  152.5008  133.8766  159.7324 H   0  0  0  0  0  0  0  0  0  0  0  0  # atno 6907 bound_to 6896
  150.9239  133.6838  159.2832 H   0  0  0  0  0  0  0  0  0  0  0  0  # atno 6908 bound_to 6896
  151.4206  135.1002  159.9665 H   0  0  0  0  0  0  0  0  0  0  0  0  # atno 6909 bound_to 6896
  144.9251  140.7061  143.4941 H   0  0  0  0  0  0  0  0  0  0  0  0  # atno 7974 bound_to 7965
  156.2482  140.1941  156.6789 H   0  0  0  0  0  0  0  0  0  0  0  0  # atno 8008 bound_to 7997
  154.6336  140.0592  156.9788 H   0  0  0  0  0  0  0  0  0  0  0  0  # atno 8009 bound_to 7997
  155.1671  140.3265  155.4402 H   0  0  0  0  0  0  0  0  0  0  0  0  # atno 8010 bound_to 7997
  139.5826  144.6993  151.3489 H   0  0  0  0  0  0  0  0  0  0  0  0  # atno 10167 bound_to 10162
  157.3562  131.0958  151.0956 H   0  0  0  0  0  0  0  0  0  0  0  0  # atno 10718 bound_to 10713
  154.7098  135.3004  154.9214 H   0  0  0  0  0  0  0  0  0  0  0  0  # atno 10763 bound_to 10752
  154.0120  135.6693  153.4770 H   0  0  0  0  0  0  0  0  0  0  0  0  # atno 10764 bound_to 10752
  153.0746  135.5042  154.8290 H   0  0  0  0  0  0  0  0  0  0  0  0  # atno 10765 bound_to 10752
  140.7546  134.3368  157.5117 H   0  0  0  0  0  0  0  0  0  0  0  0  # atno 11005 bound_to 11000
  145.3233  139.1782  143.4576 LP  0  0  0  0  0  0  0  0  0  0  0  0  # atno 17320 bound_to 7965
  146.3222  140.3253  142.8636 LP  0  0  0  0  0  0  0  0  0  0  0  0  # atno 17321 bound_to 7965
  140.7102  143.7409  150.7554 LP  0  0  0  0  0  0  0  0  0  0  0  0  # atno 17342 bound_to 10162
  140.0945  143.4846  152.2460 LP  0  0  0  0  0  0  0  0  0  0  0  0  # atno 17343 bound_to 10162
  157.2113  130.6439  149.5775 LP  0  0  0  0  0  0  0  0  0  0  0  0  # atno 17370 bound_to 10713
  155.9729  130.4659  150.6270 LP  0  0  0  0  0  0  0  0  0  0  0  0  # atno 17371 bound_to 10713
  139.8781  134.9163  156.3152 LP  0  0  0  0  0  0  0  0  0  0  0  0  # atno 17394 bound_to 11000
  140.9720  133.7321  156.0547 LP  0  0  0  0  0  0  0  0  0  0  0  0  # atno 17395 bound_to 11000

$$$$
