AV-unprocessed.smi:283|AV-procd|sdf|2152|dock3
  -GOLD-   2262021493D 1   1.00000     0.00000
 Structure written by MMmdl.
 48 51  0  0  0  0  0  0  0  0  1 V2000
  149.0244  135.5273  158.0653 C   0  0  0  0  0  0  0  0  0  0  0  0
  147.8696  134.5224  158.2443 C   0  0  1  0  0  0  0  0  0  0  0  0
  148.0790  133.2994  157.4717 N   0  0  0  0  0  0  0  0  0  0  0  0
  148.1763  133.3173  156.1241 C   0  0  0  0  0  0  0  0  0  0  0  0
  149.2380  132.7611  155.4847 N   0  0  0  0  0  0  0  0  0  0  0  0
  149.3069  132.7963  154.1510 C   0  0  0  0  0  0  0  0  0  0  0  0
  148.4420  133.3282  153.2849 N   0  0  0  0  0  0  0  0  0  0  0  0
  147.3756  133.8943  153.9207 C   0  0  0  0  0  0  0  0  0  0  0  0
  147.1744  133.9308  155.3291 C   0  0  0  0  0  0  0  0  0  0  0  0
  145.9868  134.5883  155.6187 N   0  0  0  0  0  0  0  0  0  0  0  0
  145.5168  134.9197  154.4465 C   0  0  0  0  0  0  0  0  0  0  0  0
  146.2833  134.5350  153.3684 N   0  0  0  0  0  0  0  0  0  0  0  0
  145.9925  134.7844  151.9214 C   0  0  1  0  0  0  0  0  0  0  0  0
  145.7060  133.5557  151.3165 O   0  0  0  0  0  0  0  0  0  0  0  0
  144.3994  133.5912  150.7524 C   0  0  2  0  0  0  0  0  0  0  0  0
  144.1998  132.5658  149.6163 C   0  0  0  0  0  0  0  0  0  0  0  0
  142.8540  132.1787  149.4320 O   0  0  0  0  0  0  0  0  0  0  0  0
  144.0808  135.0761  150.5284 C   0  0  2  0  0  0  0  0  0  0  0  0
  144.6205  135.5583  149.3086 O   0  0  0  0  0  0  0  0  0  0  0  0
  144.7680  135.7007  151.7406 C   0  0  2  0  0  0  0  0  0  0  0  0
  145.1057  137.0553  151.5097 O   0  0  0  0  0  0  0  0  0  0  0  0
  147.6021  134.2482  159.7236 C   0  0  0  0  0  0  0  0  0  0  0  0
  147.1438  135.3189  160.5239 C   0  0  0  0  0  0  0  0  0  0  0  0
  146.8755  135.1335  161.8930 C   0  0  0  0  0  0  0  0  0  0  0  0
  147.0675  133.8711  162.4810 C   0  0  0  0  0  0  0  0  0  0  0  0
  147.5293  132.7979  161.6978 C   0  0  0  0  0  0  0  0  0  0  0  0
  147.7986  132.9749  160.3253 C   0  0  0  0  0  0  0  0  0  0  0  0
  148.3705  131.6069  159.4334 Cl  0  0  0  0  0  0  0  0  0  0  0  0
  146.9135  135.1929  151.5029 H   0  0  0  0  0  0  0  0  0  0  0  0
  143.7349  133.2618  151.5508 H   0  0  0  0  0  0  0  0  0  0  0  0
  143.0065  135.2632  150.5281 H   0  0  0  0  0  0  0  0  0  0  0  0
  144.1165  135.6265  152.6119 H   0  0  0  0  0  0  0  0  0  0  0  0
  148.8231  136.4493  158.6113 H   0  0  0  0  0  0  0  0  0  0  0  0
  149.1664  135.7980  157.0193 H   0  0  0  0  0  0  0  0  0  0  0  0
  149.9715  135.1299  158.4287 H   0  0  0  0  0  0  0  0  0  0  0  0
  146.9662  134.9929  157.8542 H   0  0  0  0  0  0  0  0  0  0  0  0
  148.2817  132.4744  158.0182 H   0  0  0  0  0  0  0  0  0  0  0  0
  150.1796  132.3324  153.7157 H   0  0  0  0  0  0  0  0  0  0  0  0
  144.5862  135.4574  154.3357 H   0  0  0  0  0  0  0  0  0  0  0  0
  144.5795  132.9720  148.6784 H   0  0  0  0  0  0  0  0  0  0  0  0
  144.7809  131.6681  149.8287 H   0  0  0  0  0  0  0  0  0  0  0  0
  142.3004  132.9247  149.6060 H   0  0  0  0  0  0  0  0  0  0  0  0
  144.9071  134.8175  148.7954 H   0  0  0  0  0  0  0  0  0  0  0  0
  144.4291  137.4404  150.9734 H   0  0  0  0  0  0  0  0  0  0  0  0
  146.9913  136.2955  160.0879 H   0  0  0  0  0  0  0  0  0  0  0  0
  146.5220  135.9605  162.4913 H   0  0  0  0  0  0  0  0  0  0  0  0
  146.8620  133.7257  163.5313 H   0  0  0  0  0  0  0  0  0  0  0  0
  147.6787  131.8306  162.1548 H   0  0  0  0  0  0  0  0  0  0  0  0
  1  2  1  0  0  0  0
  1 33  1  0  0  0  0
  1 34  1  0  0  0  0
  1 35  1  0  0  0  0
  2  3  1  0  0  0  0
  2 22  1  0  0  0  0
  2 36  1  0  0  0  0
  3  4  1  0  0  0  0
  3 37  1  0  0  0  0
  4  9  1  0  0  0  0
  4  5  2  0  0  0  0
  5  6  1  0  0  0  0
  6  7  2  0  0  0  0
  6 38  1  0  0  0  0
  7  8  1  0  0  0  0
  8 12  1  0  0  0  0
  8  9  2  0  0  0  0
  9 10  1  0  0  0  0
 10 11  2  0  0  0  0
 11 12  1  0  0  0  0
 11 39  1  0  0  0  0
 12 13  1  0  0  0  0
 13 29  1  0  0  0  0
 13 20  1  0  0  0  0
 13 14  1  0  0  0  0
 14 15  1  0  0  0  0
 15 30  1  0  0  0  0
 15 16  1  0  0  0  0
 15 18  1  0  0  0  0
 16 17  1  0  0  0  0
 16 40  1  0  0  0  0
 16 41  1  0  0  0  0
 17 42  1  0  0  0  0
 18 31  1  0  0  0  0
 18 19  1  0  0  0  0
 18 20  1  0  0  0  0
 19 43  1  0  0  0  0
 20 32  1  0  0  0  0
 20 21  1  0  0  0  0
 21 44  1  0  0  0  0
 22 27  1  0  0  0  0
 22 23  2  0  0  0  0
 23 24  1  0  0  0  0
 23 45  1  0  0  0  0
 24 25  2  0  0  0  0
 24 46  1  0  0  0  0
 25 26  1  0  0  0  0
 25 47  1  0  0  0  0
 26 27  2  0  0  0  0
 26 48  1  0  0  0  0
 27 28  1  0  0  0  0
M  END
> <s_m_source_file>
AV-unprocessed.smi

> <i_m_source_file_index>
283

> <i_lp_mmshare_version>
43012

> <i_f3d_flags>
0

> <s_epik_input>
Q2xjMVtjSF1bY0hdW2NIXVtjSF1jMVtDQEhdKFtDSDNdKVtOSF1jKG5bY0hdbjIpYyhjMjMpbltjSF1uM1tDQEBIXTRPW0NASF0oW0NIMl1bT0hdKVtDQEBIXShbT0hdKVtDQEhdNFtPSF0=

> <s_epik_cmdline>
J2VwaWtfcHl0aG9uJywgJy1waCcsICc3LjAnLCAnLXRuJywgJzgnLCAnLW1hJywgJzIwMCcsICctbWV0YWxfYmluZGluZycsICctaW1hZScsICc8aW5maWxlLm1hZT4nLCAnLW9tYWUnLCAnPG91dGZpbGUubWFlPic=

> <r_lp_tautomer_probability>
1

> <r_epik_Ionization_Penalty>
0.000266407

> <r_epik_Ionization_Penalty_Charging>
0

> <r_epik_Ionization_Penalty_Neutral>
0.000266407

> <r_epik_State_Penalty>
-0

> <r_epik_Charging_Adjusted_Penalty>
0

> <i_epik_Tot_Q>
0

> <i_epik_Tot_abs_Q>
0

> <r_epik_Metal_State_Penalty>
-0

> <b_epik_Metal_Only>
0

> <s_epik_Chemistry_Notes>
This compound contains an acetal/aminal-like group ( X-CH(R)-Y where X, Y are N, S, or O) that may be acid/base labile, releasing an aldehyde.

> <s_lp_Force_Field>
OPLS_2005

> <r_lp_Energy>
54.2889

> <b_lp_Chiralities_Consistent>
1

> <s_lp_Variant>
AV-unprocessed.smi:283-28

> <Gold.Version>
5.8.1

> <Gold.Id.Protein>
6NUR|6NUR_protein|mol2

> <Gold.PLP.Fitness>
49.8609

> <Gold.PLP.PLP>
-42.1006

> <Gold.PLP.part.hbond>
-4.6308

> <Gold.PLP.part.metal>
0.0000

> <Gold.PLP.part.buried>
-8.5696

> <Gold.PLP.part.nonpolar>
-30.2676

> <Gold.PLP.part.repulsive>
0.4063

> <Gold.PLP.ligand.clash>
0.0000

> <Gold.PLP.ligand.torsion>
1.0040

> <Gold.PLP.Chemscore.Hbond>
3.2183

> <Gold.PLP.Chemscore.CHOScore>
0.0000

> <Gold.PLP.Chemscore.Metal>
0.0000

> <Gold.Chemscore.Hbonds>
donor molecule, donor type, donor heavy atom, donor atom, acceptor molecule, acceptor atom, score
      L1  H    17    42       P1 10186  1.00
      L1  H    19    43       P1  7921  0.53
      L1  H    21    44       P1 10171  1.00
      P1  H 10785 10796       L1    17  0.60

> <Gold.PLP.Chemscore.Internal.Correction>
0.1136

> <Gold.Rescore>
     Score         DG    S(hbond)    S(metal)    S(lipo)     H(rot)  DE(clash)    DE(int)     intcor
     10.86     -13.49       2.99        0.00      72.74       4.10       0.05       2.58       ----

> <Gold.Chemscore.Fitness>
10.8591

> <Gold.Chemscore.DG>
-13.4938

> <Gold.Chemscore.ZeroCoef>
-5.4800

> <Gold.Chemscore.Hbond>
2.9912

> <Gold.Chemscore.Metal>
0.0000

> <Gold.Chemscore.Lipo>
72.7435

> <Gold.Chemscore.Internal_Hbond>
0.0000

> <Gold.Chemscore.DEClash>
0.0530

> <Gold.Chemscore.DEInternal>
2.5817

> <Gold.Chemscore.Rot>
4.0968

> <Gold.Chemscore.Internal.Correction>
   9.000000E+99

> <Gold.Chemscore.Hbonds>
donor molecule, donor type, donor heavy atom, donor atom, acceptor molecule, acceptor atom, score
      L1  H    17    42       P1 10186  0.98
      L1  H    19    43       P1  7921  0.52
      L1  H    21    44       P1 10171  0.97
      P1  H 10785 10796       L1    17  0.13

> <Gold.Chemscore.Hbond.Weighted>
-9.9907

> <Gold.Chemscore.Metal.Weighted>
-0.0000

> <Gold.Chemscore.Lipo.Weighted>
-8.5110

> <Gold.Chemscore.Internal_Hbond.Weighted>
0.0000

> <Gold.Chemscore.DEClash.Weighted>
0.0530

> <Gold.Chemscore.DEInternal.Weighted>
2.5817

> <Gold.Chemscore.Rot.Weighted>
10.4879

> <Gold.Chemscore.Internal.Correction.Weighted>
   9.000000E+99

> <Gold.Protein.RotatedTorsions>
[ 6907 6896 6895 6894 ] final    6.76 input  -60.11 | X-H torsion
[ 7974 7965 7964 7962 ] final -112.42 input  175.53 | X-H torsion
[ 8008 7997 7996 7995 ] final  -13.30 input   59.86 | X-H torsion
[ 10167 10162 10161 10158 ] final -118.53 input  -65.29 | X-H torsion
[ 10718 10713 10712 10709 ] final  -11.37 input   66.30 | X-H torsion
[ 10763 10752 10751 10750 ] final  -37.70 input  -60.55 | X-H torsion
[ 11005 11000 10999 10996 ] final  148.18 input  -57.11 | X-H torsion

> <Gold.Protein.ActiveResidues>
 VAL166  LYS551  ARG553  GLY616  TRP617  ASP618  TYR619  PRO620  LYS621  CYS622 
 ASP623  PHE694  ASN695  SER759  ASP760  ASP761  ALA762  ILE779  LEU786  VAL792 
 PHE793  MET794  SER795  GLU796  ALA797  LYS798  CYS799  TRP800  GLU811  SER814 

> <Gold.Protein.RotatedAtoms>
  151.6790  135.0965  160.0212 H   0  0  0  0  0  0  0  0  0  0  0  0  # atno 6907 bound_to 6896
  152.3847  133.6590  159.6197 H   0  0  0  0  0  0  0  0  0  0  0  0  # atno 6908 bound_to 6896
  150.7775  133.8972  159.3372 H   0  0  0  0  0  0  0  0  0  0  0  0  # atno 6909 bound_to 6896
  145.1443  140.8794  143.3684 H   0  0  0  0  0  0  0  0  0  0  0  0  # atno 7974 bound_to 7965
  154.5304  140.2253  155.8815 H   0  0  0  0  0  0  0  0  0  0  0  0  # atno 8008 bound_to 7997
  156.1757  140.3111  155.9019 H   0  0  0  0  0  0  0  0  0  0  0  0  # atno 8009 bound_to 7997
  155.3463  140.0453  157.3036 H   0  0  0  0  0  0  0  0  0  0  0  0  # atno 8010 bound_to 7997
  140.0565  143.5010  152.2055 H   0  0  0  0  0  0  0  0  0  0  0  0  # atno 10167 bound_to 10162
  156.6600  130.4979  149.6033 H   0  0  0  0  0  0  0  0  0  0  0  0  # atno 10718 bound_to 10713
  153.9006  135.6802  153.4755 H   0  0  0  0  0  0  0  0  0  0  0  0  # atno 10763 bound_to 10752
  153.1131  135.4774  154.9067 H   0  0  0  0  0  0  0  0  0  0  0  0  # atno 10764 bound_to 10752
  154.7577  135.3202  154.8393 H   0  0  0  0  0  0  0  0  0  0  0  0  # atno 10765 bound_to 10752
  140.0938  134.9025  157.1692 H   0  0  0  0  0  0  0  0  0  0  0  0  # atno 11005 bound_to 11000
  145.0499  139.3190  143.5934 LP  0  0  0  0  0  0  0  0  0  0  0  0  # atno 17320 bound_to 7965
  146.3502  139.9903  142.8686 LP  0  0  0  0  0  0  0  0  0  0  0  0  # atno 17321 bound_to 7965
  139.5920  144.7553  151.3376 LP  0  0  0  0  0  0  0  0  0  0  0  0  # atno 17342 bound_to 10162
  140.7192  143.7182  150.7716 LP  0  0  0  0  0  0  0  0  0  0  0  0  # atno 17343 bound_to 10162
  156.2018  130.6624  151.1175 LP  0  0  0  0  0  0  0  0  0  0  0  0  # atno 17370 bound_to 10713
  157.7113  131.0733  150.6491 LP  0  0  0  0  0  0  0  0  0  0  0  0  # atno 17371 bound_to 10713
  140.3315  134.2805  155.7227 LP  0  0  0  0  0  0  0  0  0  0  0  0  # atno 17394 bound_to 11000
  141.2086  133.7773  157.0050 LP  0  0  0  0  0  0  0  0  0  0  0  0  # atno 17395 bound_to 11000

$$$$
