AV-unprocessed.smi:1586|AV-procd|sdf|6384|dock7
  -GOLD-   22720 7 23D 1   1.00000     0.00000
 Structure written by MMmdl.
 46 47  0  0  0  0  0  0  0  0  3 V2000
  144.1485  132.2242  149.4893 C   0  0  0  0  0  0  0  0  0  0  0  0
  144.3474  133.1629  150.6880 C   0  0  0  0  0  0  0  0  0  0  0  0
  145.4542  134.0980  150.4736 N   0  0  0  0  0  0  0  0  0  0  0  0
  145.4570  135.2672  151.3612 C   0  0  0  0  0  0  0  0  0  0  0  0
  145.8014  134.8970  152.8199 C   0  0  0  0  0  0  0  0  0  0  0  0
  147.1162  134.2151  152.8732 N   0  3  0  0  0  0  0  0  0  0  0  0
  147.6426  134.0008  154.2528 C   0  0  1  0  0  0  0  0  0  0  0  0
  146.8346  132.9691  155.0633 C   0  0  0  0  0  0  0  0  0  0  0  0
  149.1516  133.6692  154.2414 C   0  0  0  0  0  0  0  0  0  0  0  0
  149.9747  134.8769  154.2065 N   0  0  0  0  0  0  0  0  0  0  0  0
  149.9863  135.8604  155.1182 C   0  0  0  0  0  0  0  0  0  0  0  0
  149.2082  135.8241  156.0736 O   0  0  0  0  0  0  0  0  0  0  0  0
  150.9179  136.8096  154.8799 N   0  5  0  0  0  0  0  0  0  0  0  0
  150.5821  138.1082  154.9206 C   0  0  0  0  0  0  0  0  0  0  0  0
  149.2585  138.6277  154.9217 C   0  0  0  0  0  0  0  0  0  0  0  0
  149.4540  139.9782  154.9824 C   0  0  0  0  0  0  0  0  0  0  0  0
  148.5184  141.1381  155.0103 C   0  0  0  0  0  0  0  0  0  0  0  0
  150.7837  140.2613  155.0222 O   0  0  0  0  0  0  0  0  0  0  0  0
  151.4989  139.0582  154.9889 N   0  0  0  0  0  0  0  0  0  0  0  0
  147.1188  133.0235  151.9877 C   0  0  0  0  0  0  0  0  0  0  0  0
  146.7629  133.4413  150.5457 C   0  0  0  0  0  0  0  0  0  0  0  0
  143.4139  131.4546  149.7274 H   0  0  0  0  0  0  0  0  0  0  0  0
  145.0779  131.7200  149.2222 H   0  0  0  0  0  0  0  0  0  0  0  0
  143.7842  132.7540  148.6096 H   0  0  0  0  0  0  0  0  0  0  0  0
  143.4181  133.6833  150.9169 H   0  0  0  0  0  0  0  0  0  0  0  0
  144.5800  132.5489  151.5589 H   0  0  0  0  0  0  0  0  0  0  0  0
  146.1975  135.9763  150.9877 H   0  0  0  0  0  0  0  0  0  0  0  0
  144.5002  135.7860  151.3166 H   0  0  0  0  0  0  0  0  0  0  0  0
  145.8422  135.8118  153.4121 H   0  0  0  0  0  0  0  0  0  0  0  0
  145.0277  134.2711  153.2648 H   0  0  0  0  0  0  0  0  0  0  0  0
  147.5535  134.9542  154.7763 H   0  0  0  0  0  0  0  0  0  0  0  0
  147.1764  132.9409  156.0982 H   0  0  0  0  0  0  0  0  0  0  0  0
  146.9430  131.9609  154.6627 H   0  0  0  0  0  0  0  0  0  0  0  0
  145.7725  133.2142  155.0798 H   0  0  0  0  0  0  0  0  0  0  0  0
  149.4116  133.1210  155.1472 H   0  0  0  0  0  0  0  0  0  0  0  0
  149.4006  133.0064  153.4114 H   0  0  0  0  0  0  0  0  0  0  0  0
  150.6199  134.9627  153.4342 H   0  0  0  0  0  0  0  0  0  0  0  0
  148.3195  138.0964  154.8808 H   0  0  0  0  0  0  0  0  0  0  0  0
  147.5486  140.8448  155.4126 H   0  0  0  0  0  0  0  0  0  0  0  0
  148.3635  141.5320  154.0059 H   0  0  0  0  0  0  0  0  0  0  0  0
  148.9123  141.9419  155.6327 H   0  0  0  0  0  0  0  0  0  0  0  0
  148.1053  132.5606  151.9926 H   0  0  0  0  0  0  0  0  0  0  0  0
  146.4197  132.2699  152.3505 H   0  0  0  0  0  0  0  0  0  0  0  0
  146.7788  132.5750  149.8836 H   0  0  0  0  0  0  0  0  0  0  0  0
  147.5210  134.1291  150.1677 H   0  0  0  0  0  0  0  0  0  0  0  0
  147.7644  134.8666  152.4521 H   0  0  0  0  0  0  0  0  0  0  0  0
  1  2  1  0  0  0  0
  1 22  1  0  0  0  0
  1 23  1  0  0  0  0
  1 24  1  0  0  0  0
  2  3  1  0  0  0  0
  2 25  1  0  0  0  0
  2 26  1  0  0  0  0
  3 21  1  0  0  0  0
  3  4  1  0  0  0  0
  4  5  1  0  0  0  0
  4 27  1  0  0  0  0
  4 28  1  0  0  0  0
  5  6  1  0  0  0  0
  5 29  1  0  0  0  0
  5 30  1  0  0  0  0
  6  7  1  0  0  0  0
  6 20  1  0  0  0  0
  6 46  1  0  0  0  0
  7  8  1  0  0  0  0
  7  9  1  0  0  0  0
  7 31  1  0  0  0  0
  8 32  1  0  0  0  0
  8 33  1  0  0  0  0
  8 34  1  0  0  0  0
  9 10  1  0  0  0  0
  9 35  1  0  0  0  0
  9 36  1  0  0  0  0
 10 11  1  0  0  0  0
 10 37  1  0  0  0  0
 11 12  2  0  0  0  0
 11 13  1  0  0  0  0
 13 14  1  0  0  0  0
 14 19  2  0  0  0  0
 14 15  1  0  0  0  0
 15 16  2  0  0  0  0
 15 38  1  0  0  0  0
 16 17  1  0  0  0  0
 16 18  1  0  0  0  0
 17 39  1  0  0  0  0
 17 40  1  0  0  0  0
 17 41  1  0  0  0  0
 18 19  1  0  0  0  0
 20 21  1  0  0  0  0
 20 42  1  0  0  0  0
 20 43  1  0  0  0  0
 21 44  1  0  0  0  0
 21 45  1  0  0  0  0
M  CHG  1   6   1
M  CHG  1  13  -1
M  END
> <s_m_source_file>
AV-unprocessed.smi

> <i_m_source_file_index>
1586

> <i_lp_mmshare_version>
43012

> <i_f3d_flags>
0

> <s_epik_input>
W0NIM11bQ0gyXU4xW0NIMl1bQ0gyXU4oW0NIMl1bQ0gyXTEpW0NASF0oW0NIM10pW0NIMl1bTkhdQyg9TylbTkhdYzJbY0hdYyhbQ0gzXSlvbjI=

> <s_epik_cmdline>
J2VwaWtfcHl0aG9uJywgJy1waCcsICc3LjAnLCAnLXRuJywgJzgnLCAnLW1hJywgJzIwMCcsICctbWV0YWxfYmluZGluZycsICctaW1hZScsICc8aW5maWxlLm1hZT4nLCAnLW9tYWUnLCAnPG91dGZpbGUubWFlPic=

> <r_epik_Ionization_Penalty>
6.35599

> <r_epik_Ionization_Penalty_Charging>
6.35441

> <r_epik_Ionization_Penalty_Neutral>
0.00158318

> <r_epik_State_Penalty>
7.1902

> <r_epik_Charging_Adjusted_Penalty>
13.5446

> <i_epik_Tot_Q>
0

> <i_epik_Tot_abs_Q>
2

> <r_epik_Metal_State_Penalty>
3.12491

> <b_epik_Metal_Only>
1

> <s_lp_Force_Field>
OPLS_2005

> <r_lp_Energy>
11.5798

> <b_lp_Chiralities_Consistent>
1

> <s_lp_Variant>
AV-unprocessed.smi:1586-12

> <Gold.Version>
5.8.1

> <Gold.Id.Protein>
6NUR|6NUR_protein|mol2

> <Gold.PLP.Fitness>
49.8442

> <Gold.PLP.PLP>
-36.6129

> <Gold.PLP.part.hbond>
-4.5941

> <Gold.PLP.part.metal>
0.0000

> <Gold.PLP.part.buried>
-4.8465

> <Gold.PLP.part.nonpolar>
-27.8122

> <Gold.PLP.part.repulsive>
1.2570

> <Gold.PLP.ligand.clash>
0.0000

> <Gold.PLP.ligand.torsion>
1.0339

> <Gold.PLP.Chemscore.Hbond>
5.0367

> <Gold.PLP.Chemscore.CHOScore>
0.0000

> <Gold.PLP.Chemscore.Metal>
0.0000

> <Gold.Chemscore.Hbonds>
donor molecule, donor type, donor heavy atom, donor atom, acceptor molecule, acceptor atom, score
      L1  H     6    46       P1  7948  2.00
      L1  H    10    37       P1  7949  0.10
      P1  H  7989  7998       L1    18  0.60
      P1  H 10752 10764       L1    13  0.23

> <Gold.PLP.Chemscore.Internal.Correction>
0.1891

> <Gold.Rescore>
     Score         DG    S(hbond)    S(metal)    S(lipo)     H(rot)  DE(clash)    DE(int)     intcor
     16.87     -18.02       2.62        0.00      70.08       1.73       0.09       1.05       ----

> <Gold.Chemscore.Fitness>
16.8736

> <Gold.Chemscore.DG>
-18.0187

> <Gold.Chemscore.ZeroCoef>
-5.4800

> <Gold.Chemscore.Hbond>
2.6215

> <Gold.Chemscore.Metal>
0.0000

> <Gold.Chemscore.Lipo>
70.0765

> <Gold.Chemscore.Internal_Hbond>
0.0000

> <Gold.Chemscore.DEClash>
0.0927

> <Gold.Chemscore.DEInternal>
1.0524

> <Gold.Chemscore.Rot>
1.7250

> <Gold.Chemscore.Internal.Correction>
   9.000000E+99

> <Gold.Chemscore.Hbonds>
donor molecule, donor type, donor heavy atom, donor atom, acceptor molecule, acceptor atom, score
      L1  H     6    46       P1  7948  0.88
      P1  H  7989  7998       L1    18  0.04
      P1  H 10752 10764       L1    13  0.06

> <Gold.Chemscore.Hbond.Weighted>
-8.7559

> <Gold.Chemscore.Metal.Weighted>
-0.0000

> <Gold.Chemscore.Lipo.Weighted>
-8.1989

> <Gold.Chemscore.Internal_Hbond.Weighted>
0.0000

> <Gold.Chemscore.DEClash.Weighted>
0.0927

> <Gold.Chemscore.DEInternal.Weighted>
1.0524

> <Gold.Chemscore.Rot.Weighted>
4.4161

> <Gold.Chemscore.Internal.Correction.Weighted>
   9.000000E+99

> <Gold.Protein.RotatedTorsions>
[ 6907 6896 6895 6894 ] final -174.25 input  -60.11 | X-H torsion
[ 7974 7965 7964 7962 ] final  -33.17 input  175.53 | X-H torsion
[ 8008 7997 7996 7995 ] final  159.55 input   59.86 | X-H torsion
[ 10167 10162 10161 10158 ] final   71.95 input  -65.29 | X-H torsion
[ 10718 10713 10712 10709 ] final  -69.76 input   66.30 | X-H torsion
[ 10763 10752 10751 10750 ] final  -55.24 input  -60.55 | X-H torsion
[ 11005 11000 10999 10996 ] final -112.62 input  -57.11 | X-H torsion

> <Gold.Protein.ActiveResidues>
 VAL166  LYS551  ARG553  GLY616  TRP617  ASP618  TYR619  PRO620  LYS621  CYS622 
 ASP623  PHE694  ASN695  SER759  ASP760  ASP761  ALA762  ILE779  LEU786  VAL792 
 PHE793  MET794  SER795  GLU796  ALA797  LYS798  CYS799  TRP800  GLU811  SER814 

> <Gold.Protein.RotatedAtoms>
  151.5694  133.3392  159.2986 H   0  0  0  0  0  0  0  0  0  0  0  0  # atno 6907 bound_to 6896
  150.8376  134.7659  159.6917 H   0  0  0  0  0  0  0  0  0  0  0  0  # atno 6908 bound_to 6896
  152.4450  134.5520  159.9921 H   0  0  0  0  0  0  0  0  0  0  0  0  # atno 6909 bound_to 6896
  146.0932  140.5883  142.8855 H   0  0  0  0  0  0  0  0  0  0  0  0  # atno 7974 bound_to 7965
  156.2231  140.1828  156.7428 H   0  0  0  0  0  0  0  0  0  0  0  0  # atno 8008 bound_to 7997
  154.5898  140.0652  156.9250 H   0  0  0  0  0  0  0  0  0  0  0  0  # atno 8009 bound_to 7997
  155.2357  140.3318  155.4300 H   0  0  0  0  0  0  0  0  0  0  0  0  # atno 8010 bound_to 7997
  140.0406  144.5392  150.7437 H   0  0  0  0  0  0  0  0  0  0  0  0  # atno 10167 bound_to 10162
  156.0440  130.4318  150.2196 H   0  0  0  0  0  0  0  0  0  0  0  0  # atno 10718 bound_to 10713
  154.1876  135.6432  153.5051 H   0  0  0  0  0  0  0  0  0  0  0  0  # atno 10763 bound_to 10752
  153.0043  135.5421  154.6448 H   0  0  0  0  0  0  0  0  0  0  0  0  # atno 10764 bound_to 10752
  154.5829  135.2927  155.0687 H   0  0  0  0  0  0  0  0  0  0  0  0  # atno 10765 bound_to 10752
  141.0664  133.9452  157.2570 H   0  0  0  0  0  0  0  0  0  0  0  0  # atno 11005 bound_to 11000
  144.7375  140.4851  143.6893 LP  0  0  0  0  0  0  0  0  0  0  0  0  # atno 17320 bound_to 7965
  145.5999  139.1503  143.3135 LP  0  0  0  0  0  0  0  0  0  0  0  0  # atno 17321 bound_to 7965
  140.7262  143.2638  151.4113 LP  0  0  0  0  0  0  0  0  0  0  0  0  # atno 17342 bound_to 10162
  139.6016  144.1283  152.2204 LP  0  0  0  0  0  0  0  0  0  0  0  0  # atno 17343 bound_to 10162
  157.0287  131.0001  151.3318 LP  0  0  0  0  0  0  0  0  0  0  0  0  # atno 17370 bound_to 10713
  157.5292  130.8048  149.7898 LP  0  0  0  0  0  0  0  0  0  0  0  0  # atno 17371 bound_to 10713
  139.9481  135.0180  156.8911 LP  0  0  0  0  0  0  0  0  0  0  0  0  # atno 17394 bound_to 11000
  140.5764  134.0394  155.7448 LP  0  0  0  0  0  0  0  0  0  0  0  0  # atno 17395 bound_to 11000

$$$$
