AV-unprocessed.smi:2636|AV-procd|sdf|10259|dock1
  -GOLD-   2272014273D 1   1.00000     0.00000
 Structure written by MMmdl.
 35 36  0  0  0  0  0  0  0  0  2 V2000
  147.2694  138.7760  155.7765 C   0  0  0  0  0  0  0  0  0  0  0  0
  148.6047  138.0623  155.6689 C   0  0  0  0  0  0  0  0  0  0  0  0
  149.7145  138.6609  155.1892 C   0  0  0  0  0  0  0  0  0  0  0  0
  150.9457  137.9916  155.0970 N   0  0  0  0  0  0  0  0  0  0  0  0
  152.1060  138.7258  154.6222 C   0  0  0  0  0  0  0  0  0  0  0  0
  152.4023  139.7345  155.5312 O   0  0  0  0  0  0  0  0  0  0  0  0
  152.1148  139.3760  156.8733 C   0  0  0  0  0  0  0  0  0  0  0  0
  152.2026  140.5642  157.8123 C   0  0  0  0  0  0  0  0  0  0  0  0
  151.4574  141.6827  157.7239 C   0  0  0  0  0  0  0  0  0  0  0  0
  151.5207  142.8523  158.6194 C   0  0  0  0  0  0  0  0  0  0  0  0
  152.2911  142.8648  159.8067 C   0  0  0  0  0  0  0  0  0  0  0  0
  152.3203  144.0077  160.6296 C   0  0  0  0  0  0  0  0  0  0  0  0
  151.5823  145.1520  160.2754 C   0  0  0  0  0  0  0  0  0  0  0  0
  150.8140  145.1513  159.0965 C   0  0  0  0  0  0  0  0  0  0  0  0
  150.7844  144.0073  158.2754 C   0  0  0  0  0  0  0  0  0  0  0  0
  151.0644  136.7032  155.5357 C   0  0  0  0  0  0  0  0  0  0  0  0
  152.1621  136.1467  155.4809 O   0  0  0  0  0  0  0  0  0  0  0  0
  149.9495  136.0728  156.0173 N   0  5  0  0  0  0  0  0  0  0  0  0
  148.7244  136.6689  156.1064 C   0  0  0  0  0  0  0  0  0  0  0  0
  147.7345  136.0790  156.5383 O   0  0  0  0  0  0  0  0  0  0  0  0
  147.3375  139.7978  155.4024 H   0  0  0  0  0  0  0  0  0  0  0  0
  146.9427  138.8166  156.8161 H   0  0  0  0  0  0  0  0  0  0  0  0
  146.5092  138.2526  155.1960 H   0  0  0  0  0  0  0  0  0  0  0  0
  149.7267  139.6876  154.8538 H   0  0  0  0  0  0  0  0  0  0  0  0
  152.9437  138.0330  154.5165 H   0  0  0  0  0  0  0  0  0  0  0  0
  151.8918  139.1533  153.6412 H   0  0  0  0  0  0  0  0  0  0  0  0
  151.1102  138.9561  156.9397 H   0  0  0  0  0  0  0  0  0  0  0  0
  152.8153  138.6135  157.2168 H   0  0  0  0  0  0  0  0  0  0  0  0
  152.9355  140.4591  158.5971 H   0  0  0  0  0  0  0  0  0  0  0  0
  150.7334  141.7526  156.9246 H   0  0  0  0  0  0  0  0  0  0  0  0
  152.8690  142.0044  160.1064 H   0  0  0  0  0  0  0  0  0  0  0  0
  152.9106  144.0058  161.5343 H   0  0  0  0  0  0  0  0  0  0  0  0
  151.6054  146.0281  160.9067 H   0  0  0  0  0  0  0  0  0  0  0  0
  150.2457  146.0276  158.8217 H   0  0  0  0  0  0  0  0  0  0  0  0
  150.1889  144.0213  157.3738 H   0  0  0  0  0  0  0  0  0  0  0  0
  1  2  1  0  0  0  0
  1 21  1  0  0  0  0
  1 22  1  0  0  0  0
  1 23  1  0  0  0  0
  2 19  1  0  0  0  0
  2  3  2  0  0  0  0
  3  4  1  0  0  0  0
  3 24  1  0  0  0  0
  4  5  1  0  0  0  0
  4 16  1  0  0  0  0
  5  6  1  0  0  0  0
  5 25  1  0  0  0  0
  5 26  1  0  0  0  0
  6  7  1  0  0  0  0
  7  8  1  0  0  0  0
  7 27  1  0  0  0  0
  7 28  1  0  0  0  0
  8  9  2  0  0  0  0
  8 29  1  0  0  0  0
  9 10  1  0  0  0  0
  9 30  1  0  0  0  0
 10 15  1  0  0  0  0
 10 11  2  0  0  0  0
 11 12  1  0  0  0  0
 11 31  1  0  0  0  0
 12 13  2  0  0  0  0
 12 32  1  0  0  0  0
 13 14  1  0  0  0  0
 13 33  1  0  0  0  0
 14 15  2  0  0  0  0
 14 34  1  0  0  0  0
 15 35  1  0  0  0  0
 16 17  2  0  0  0  0
 16 18  1  0  0  0  0
 18 19  1  0  0  0  0
 19 20  2  0  0  0  0
M  CHG  1  18  -1
M  END
> <s_m_source_file>
AV-unprocessed.smi

> <i_m_source_file_index>
2636

> <i_lp_mmshare_version>
43012

> <i_f3d_flags>
0

> <s_epik_input>
Tz1jMVtuSF1jKD1PKW4oW2NIXWMxW0NIM10pW0NIMl1PW0NIMl0vW0NIXT1bQ0hdL2MyW2NIXVtjSF1bY0hdW2NIXVtjSF0y

> <s_epik_cmdline>
J2VwaWtfcHl0aG9uJywgJy1waCcsICc3LjAnLCAnLXRuJywgJzgnLCAnLW1hJywgJzIwMCcsICctbWV0YWxfYmluZGluZycsICctaW1hZScsICc8aW5maWxlLm1hZT4nLCAnLW9tYWUnLCAnPG91dGZpbGUubWFlPic=

> <r_lp_tautomer_probability>
0.999537

> <r_epik_Ionization_Penalty>
3.43625

> <r_epik_Ionization_Penalty_Charging>
7.29021e-08

> <r_epik_Ionization_Penalty_Neutral>
3.43625

> <r_epik_State_Penalty>
3.43567

> <r_epik_Charging_Adjusted_Penalty>
3.43567

> <i_epik_Tot_Q>
-1

> <i_epik_Tot_abs_Q>
1

> <r_epik_Metal_State_Penalty>
0.168611

> <b_epik_Metal_Only>
1

> <s_epik_Chemistry_Notes>
This compound contains an acetal/aminal-like group ( X-CH(R)-Y where X, Y are N, S, or O) that may be acid/base labile, releasing an aldehyde.

> <s_lp_Force_Field>
OPLS_2005

> <r_lp_Energy>
15.3134

> <b_lp_Chiralities_Consistent>
1

> <s_lp_Variant>
AV-unprocessed.smi:2636-3

> <Gold.Version>
5.8.1

> <Gold.Id.Protein>
6NUR|6NUR_protein|mol2

> <Gold.PLP.Fitness>
50.6647

> <Gold.PLP.PLP>
-45.0719

> <Gold.PLP.part.hbond>
-2.0000

> <Gold.PLP.part.metal>
0.0000

> <Gold.PLP.part.buried>
-5.3656

> <Gold.PLP.part.nonpolar>
-38.1329

> <Gold.PLP.part.repulsive>
0.3242

> <Gold.PLP.ligand.clash>
0.0000

> <Gold.PLP.ligand.torsion>
0.2441

> <Gold.PLP.Chemscore.Hbond>
2.0000

> <Gold.PLP.Chemscore.CHOScore>
0.0000

> <Gold.PLP.Chemscore.Metal>
0.0000

> <Gold.Chemscore.Hbonds>
donor molecule, donor type, donor heavy atom, donor atom, acceptor molecule, acceptor atom, score
      P1  H 10752 10763       L1    17  0.32

> <Gold.PLP.Chemscore.Internal.Correction>
0.0810

> <Gold.Rescore>
     Score         DG    S(hbond)    S(metal)    S(lipo)     H(rot)  DE(clash)    DE(int)     intcor
     19.07     -19.41       1.87        0.00     106.75       1.88       0.01       0.33       ----

> <Gold.Chemscore.Fitness>
19.0689

> <Gold.Chemscore.DG>
-19.4121

> <Gold.Chemscore.ZeroCoef>
-5.4800

> <Gold.Chemscore.Hbond>
1.8730

> <Gold.Chemscore.Metal>
0.0000

> <Gold.Chemscore.Lipo>
106.7456

> <Gold.Chemscore.Internal_Hbond>
0.0000

> <Gold.Chemscore.DEClash>
0.0097

> <Gold.Chemscore.DEInternal>
0.3336

> <Gold.Chemscore.Rot>
1.8800

> <Gold.Chemscore.Internal.Correction>
   9.000000E+99

> <Gold.Chemscore.Hbonds>
donor molecule, donor type, donor heavy atom, donor atom, acceptor molecule, acceptor atom, score
      P1  H 10752 10763       L1    17  0.33

> <Gold.Chemscore.Hbond.Weighted>
-6.2558

> <Gold.Chemscore.Metal.Weighted>
-0.0000

> <Gold.Chemscore.Lipo.Weighted>
-12.4892

> <Gold.Chemscore.Internal_Hbond.Weighted>
0.0000

> <Gold.Chemscore.DEClash.Weighted>
0.0097

> <Gold.Chemscore.DEInternal.Weighted>
0.3336

> <Gold.Chemscore.Rot.Weighted>
4.8129

> <Gold.Chemscore.Internal.Correction.Weighted>
   9.000000E+99

> <Gold.Protein.RotatedTorsions>
[ 6907 6896 6895 6894 ] final  -85.57 input  -60.11 | X-H torsion
[ 7974 7965 7964 7962 ] final  159.44 input  175.53 | X-H torsion
[ 8008 7997 7996 7995 ] final   66.92 input   59.86 | X-H torsion
[ 10167 10162 10161 10158 ] final  -31.55 input  -65.29 | X-H torsion
[ 10718 10713 10712 10709 ] final  -94.27 input   66.30 | X-H torsion
[ 10763 10752 10751 10750 ] final   63.93 input  -60.55 | X-H torsion
[ 11005 11000 10999 10996 ] final   52.06 input  -57.11 | X-H torsion

> <Gold.Protein.ActiveResidues>
 VAL166  LYS551  ARG553  GLY616  TRP617  ASP618  TYR619  PRO620  LYS621  CYS622 
 ASP623  PHE694  ASN695  SER759  ASP760  ASP761  ALA762  ILE779  LEU786  VAL792 
 PHE793  MET794  SER795  GLU796  ALA797  LYS798  CYS799  TRP800  GLU811  SER814 

> <Gold.Protein.RotatedAtoms>
  150.6870  134.3184  159.4775 H   0  0  0  0  0  0  0  0  0  0  0  0  # atno 6907 bound_to 6896
  152.1062  134.9304  160.0577 H   0  0  0  0  0  0  0  0  0  0  0  0  # atno 6908 bound_to 6896
  152.0564  133.4007  159.4436 H   0  0  0  0  0  0  0  0  0  0  0  0  # atno 6909 bound_to 6896
  144.7790  139.7618  143.6267 H   0  0  0  0  0  0  0  0  0  0  0  0  # atno 7974 bound_to 7965
  155.6848  140.3496  155.4870 H   0  0  0  0  0  0  0  0  0  0  0  0  # atno 8008 bound_to 7997
  155.9575  140.1131  157.0946 H   0  0  0  0  0  0  0  0  0  0  0  0  # atno 8009 bound_to 7997
  154.4135  140.1182  156.5121 H   0  0  0  0  0  0  0  0  0  0  0  0  # atno 8010 bound_to 7997
  140.7234  143.3762  151.1685 H   0  0  0  0  0  0  0  0  0  0  0  0  # atno 10167 bound_to 10162
  156.0024  130.5061  150.5901 H   0  0  0  0  0  0  0  0  0  0  0  0  # atno 10718 bound_to 10713
  153.0036  135.5411  154.6429 H   0  0  0  0  0  0  0  0  0  0  0  0  # atno 10763 bound_to 10752
  154.5680  135.2839  155.0857 H   0  0  0  0  0  0  0  0  0  0  0  0  # atno 10764 bound_to 10752
  154.2034  135.6480  153.5146 H   0  0  0  0  0  0  0  0  0  0  0  0  # atno 10765 bound_to 10752
  140.0881  134.5247  155.8879 H   0  0  0  0  0  0  0  0  0  0  0  0  # atno 11005 bound_to 11000
  146.1987  139.5269  142.9757 LP  0  0  0  0  0  0  0  0  0  0  0  0  # atno 17320 bound_to 7965
  145.6104  141.0340  143.1970 LP  0  0  0  0  0  0  0  0  0  0  0  0  # atno 17321 bound_to 7965
  139.7343  143.9024  152.3029 LP  0  0  0  0  0  0  0  0  0  0  0  0  # atno 17342 bound_to 10162
  139.8823  144.7011  150.8863 LP  0  0  0  0  0  0  0  0  0  0  0  0  # atno 17343 bound_to 10162
  157.3767  131.0774  151.1512 LP  0  0  0  0  0  0  0  0  0  0  0  0  # atno 17370 bound_to 10713
  157.2248  130.6498  149.5825 LP  0  0  0  0  0  0  0  0  0  0  0  0  # atno 17371 bound_to 10713
  141.2069  133.6659  156.6271 LP  0  0  0  0  0  0  0  0  0  0  0  0  # atno 17394 bound_to 11000
  140.3391  134.7864  157.4384 LP  0  0  0  0  0  0  0  0  0  0  0  0  # atno 17395 bound_to 11000

$$$$
