AV-unprocessed.smi:2056|AV-procd|sdf|8338|dock6
  -GOLD-   2272011 03D 1   1.00000     0.00000
 Structure written by MMmdl.
 34 34  0  0  0  0  0  0  0  0  1 V2000
  144.5635  132.9484  149.0594 C   0  0  0  0  0  0  0  0  0  0  0  0
  145.3601  133.1479  150.3665 C   0  0  0  0  0  0  0  0  0  0  0  0
  144.8251  134.4080  151.0746 C   0  0  0  0  0  0  0  0  0  0  0  0
  145.1273  131.9359  151.2936 C   0  0  0  0  0  0  0  0  0  0  0  0
  146.8720  133.3670  150.0723 C   0  0  0  0  0  0  0  0  0  0  0  0
  147.7307  133.7941  151.2716 C   0  0  0  0  0  0  0  0  0  0  0  0
  147.5235  134.8798  151.8137 O   0  0  0  0  0  0  0  0  0  0  0  0
  148.6961  132.9292  151.6357 N   0  0  0  0  0  0  0  0  0  0  0  0
  149.6288  133.0455  152.6987 C   0  0  0  0  0  0  0  0  0  0  0  0
  150.2556  134.1789  153.0335 N   0  0  0  0  0  0  0  0  0  0  0  0
  151.1258  134.0039  154.1150 C   0  0  0  0  0  0  0  0  0  0  0  0
  151.9225  135.1664  154.6322 C   0  0  0  0  0  0  0  0  0  0  0  0
  151.8968  136.3171  153.6242 C   0  0  0  0  0  0  0  0  0  0  0  0
  150.7010  136.7130  153.1794 N   0  0  0  0  0  0  0  0  0  0  0  0
  152.9430  136.8417  153.2488 O   0  0  0  0  0  0  0  0  0  0  0  0
  151.1346  132.7174  154.5993 C   0  0  0  0  0  0  0  0  0  0  0  0
  150.0646  131.6728  153.7039 S   0  0  0  0  0  0  0  0  0  0  0  0
  143.4933  132.8754  149.2562 H   0  0  0  0  0  0  0  0  0  0  0  0
  144.8554  132.0354  148.5394 H   0  0  0  0  0  0  0  0  0  0  0  0
  144.7135  133.7815  148.3720 H   0  0  0  0  0  0  0  0  0  0  0  0
  144.9480  135.2963  150.4540 H   0  0  0  0  0  0  0  0  0  0  0  0
  145.3497  134.5891  152.0136 H   0  0  0  0  0  0  0  0  0  0  0  0
  143.7632  134.3168  151.3059 H   0  0  0  0  0  0  0  0  0  0  0  0
  144.0778  131.8530  151.5784 H   0  0  0  0  0  0  0  0  0  0  0  0
  145.7100  132.0205  152.2115 H   0  0  0  0  0  0  0  0  0  0  0  0
  145.3996  130.9953  150.8146 H   0  0  0  0  0  0  0  0  0  0  0  0
  147.2968  132.4572  149.6446 H   0  0  0  0  0  0  0  0  0  0  0  0
  146.9856  134.1301  149.3009 H   0  0  0  0  0  0  0  0  0  0  0  0
  148.7571  132.0776  151.0974 H   0  0  0  0  0  0  0  0  0  0  0  0
  151.5231  135.5178  155.5848 H   0  0  0  0  0  0  0  0  0  0  0  0
  152.9547  134.8706  154.8242 H   0  0  0  0  0  0  0  0  0  0  0  0
  150.6341  137.4670  152.5114 H   0  0  0  0  0  0  0  0  0  0  0  0
  149.8663  136.2527  153.5128 H   0  0  0  0  0  0  0  0  0  0  0  0
  151.7091  132.3212  155.4233 H   0  0  0  0  0  0  0  0  0  0  0  0
  1  2  1  0  0  0  0
  1 18  1  0  0  0  0
  1 19  1  0  0  0  0
  1 20  1  0  0  0  0
  2  3  1  0  0  0  0
  2  4  1  0  0  0  0
  2  5  1  0  0  0  0
  3 21  1  0  0  0  0
  3 22  1  0  0  0  0
  3 23  1  0  0  0  0
  4 24  1  0  0  0  0
  4 25  1  0  0  0  0
  4 26  1  0  0  0  0
  5  6  1  0  0  0  0
  5 27  1  0  0  0  0
  5 28  1  0  0  0  0
  6  7  2  0  0  0  0
  6  8  1  0  0  0  0
  8  9  1  0  0  0  0
  8 29  1  0  0  0  0
  9 17  1  0  0  0  0
  9 10  2  0  0  0  0
 10 11  1  0  0  0  0
 11 12  1  0  0  0  0
 11 16  2  0  0  0  0
 12 13  1  0  0  0  0
 12 30  1  0  0  0  0
 12 31  1  0  0  0  0
 13 14  1  0  0  0  0
 13 15  2  0  0  0  0
 14 32  1  0  0  0  0
 14 33  1  0  0  0  0
 16 17  1  0  0  0  0
 16 34  1  0  0  0  0
M  END
> <s_m_source_file>
AV-unprocessed.smi

> <i_m_source_file_index>
2056

> <i_lp_mmshare_version>
43012

> <i_f3d_flags>
0

> <s_epik_input>
W0NIM11DKFtDSDNdKShbQ0gzXSlbQ0gyXUMoPU8pW05IXWMxbmMoW2NIXXMxKVtDSDJdQyg9TylbTkgyXQ==

> <s_epik_cmdline>
J2VwaWtfcHl0aG9uJywgJy1waCcsICc3LjAnLCAnLXRuJywgJzgnLCAnLW1hJywgJzIwMCcsICctbWV0YWxfYmluZGluZycsICctaW1hZScsICc8aW5maWxlLm1hZT4nLCAnLW9tYWUnLCAnPG91dGZpbGUubWFlPic=

> <r_lp_tautomer_probability>
1

> <r_epik_Ionization_Penalty>
0.000211791

> <r_epik_Ionization_Penalty_Charging>
0

> <r_epik_Ionization_Penalty_Neutral>
0.000211791

> <r_epik_State_Penalty>
-0

> <r_epik_Charging_Adjusted_Penalty>
0

> <i_epik_Tot_Q>
0

> <i_epik_Tot_abs_Q>
0

> <r_epik_Metal_State_Penalty>
0.129621

> <b_epik_Metal_Only>
0

> <s_lp_Force_Field>
OPLS_2005

> <r_lp_Energy>
3.85365

> <b_lp_Chiralities_Consistent>
1

> <s_lp_Variant>
AV-unprocessed.smi:2056-1

> <Gold.Version>
5.8.1

> <Gold.Id.Protein>
6NUR|6NUR_protein|mol2

> <Gold.PLP.Fitness>
40.1045

> <Gold.PLP.PLP>
-35.3039

> <Gold.PLP.part.hbond>
-3.0000

> <Gold.PLP.part.metal>
0.0000

> <Gold.PLP.part.buried>
-6.7910

> <Gold.PLP.part.nonpolar>
-25.8992

> <Gold.PLP.part.repulsive>
0.4577

> <Gold.PLP.ligand.clash>
0.0000

> <Gold.PLP.ligand.torsion>
0.6226

> <Gold.PLP.Chemscore.Hbond>
2.0065

> <Gold.PLP.Chemscore.CHOScore>
0.0000

> <Gold.PLP.Chemscore.Metal>
0.0000

> <Gold.Chemscore.Hbonds>
donor molecule, donor type, donor heavy atom, donor atom, acceptor molecule, acceptor atom, score
      L1  H     8    29       P1 10747  0.84
      P1  H 10752 10764       L1    15  0.31

> <Gold.PLP.Chemscore.Internal.Correction>
0.0262

> <Gold.Rescore>
     Score         DG    S(hbond)    S(metal)    S(lipo)     H(rot)  DE(clash)    DE(int)     intcor
     12.11     -14.69       2.06        0.00      67.96       2.20       0.00       2.58       ----

> <Gold.Chemscore.Fitness>
12.1139

> <Gold.Chemscore.DG>
-14.6917

> <Gold.Chemscore.ZeroCoef>
-5.4800

> <Gold.Chemscore.Hbond>
2.0629

> <Gold.Chemscore.Metal>
0.0000

> <Gold.Chemscore.Lipo>
67.9596

> <Gold.Chemscore.Internal_Hbond>
0.0000

> <Gold.Chemscore.DEClash>
0.0013

> <Gold.Chemscore.DEInternal>
2.5765

> <Gold.Chemscore.Rot>
2.1991

> <Gold.Chemscore.Internal.Correction>
   9.000000E+99

> <Gold.Chemscore.Hbonds>
donor molecule, donor type, donor heavy atom, donor atom, acceptor molecule, acceptor atom, score
      L1  H     8    29       P1 10747  0.82
      P1  H 10752 10764       L1    15  0.10

> <Gold.Chemscore.Hbond.Weighted>
-6.8901

> <Gold.Chemscore.Metal.Weighted>
-0.0000

> <Gold.Chemscore.Lipo.Weighted>
-7.9513

> <Gold.Chemscore.Internal_Hbond.Weighted>
0.0000

> <Gold.Chemscore.DEClash.Weighted>
0.0013

> <Gold.Chemscore.DEInternal.Weighted>
2.5765

> <Gold.Chemscore.Rot.Weighted>
5.6297

> <Gold.Chemscore.Internal.Correction.Weighted>
   9.000000E+99

> <Gold.Protein.RotatedTorsions>
[ 6907 6896 6895 6894 ] final  -27.93 input  -60.11 | X-H torsion
[ 7974 7965 7964 7962 ] final  146.37 input  175.53 | X-H torsion
[ 8008 7997 7996 7995 ] final  -70.62 input   59.86 | X-H torsion
[ 10167 10162 10161 10158 ] final -159.79 input  -65.29 | X-H torsion
[ 10718 10713 10712 10709 ] final -111.07 input   66.30 | X-H torsion
[ 10763 10752 10751 10750 ] final -162.17 input  -60.55 | X-H torsion
[ 11005 11000 10999 10996 ] final   -5.70 input  -57.11 | X-H torsion

> <Gold.Protein.ActiveResidues>
 VAL166  LYS551  ARG553  GLY616  TRP617  ASP618  TYR619  PRO620  LYS621  CYS622 
 ASP623  PHE694  ASN695  SER759  ASP760  ASP761  ALA762  ILE779  LEU786  VAL792 
 PHE793  MET794  SER795  GLU796  ALA797  LYS798  CYS799  TRP800  GLU811  SER814 

> <Gold.Protein.RotatedAtoms>
  151.1400  135.0174  159.8620 H   0  0  0  0  0  0  0  0  0  0  0  0  # atno 6907 bound_to 6896
  152.5452  134.1510  159.8528 H   0  0  0  0  0  0  0  0  0  0  0  0  # atno 6908 bound_to 6896
  151.1585  133.4815  159.2627 H   0  0  0  0  0  0  0  0  0  0  0  0  # atno 6909 bound_to 6896
  144.8677  139.5897  143.5901 H   0  0  0  0  0  0  0  0  0  0  0  0  # atno 7974 bound_to 7965
  154.5026  140.0831  156.7829 H   0  0  0  0  0  0  0  0  0  0  0  0  # atno 8008 bound_to 7997
  155.3968  140.3435  155.4236 H   0  0  0  0  0  0  0  0  0  0  0  0  # atno 8009 bound_to 7997
  156.1475  140.1548  156.8810 H   0  0  0  0  0  0  0  0  0  0  0  0  # atno 8010 bound_to 7997
  139.6588  143.9950  152.2212 H   0  0  0  0  0  0  0  0  0  0  0  0  # atno 10167 bound_to 10162
  156.0626  130.5848  150.8324 H   0  0  0  0  0  0  0  0  0  0  0  0  # atno 10718 bound_to 10713
  154.7238  135.3031  154.9004 H   0  0  0  0  0  0  0  0  0  0  0  0  # atno 10763 bound_to 10752
  153.9868  135.6723  153.4756 H   0  0  0  0  0  0  0  0  0  0  0  0  # atno 10764 bound_to 10752
  153.0857  135.4985  154.8510 H   0  0  0  0  0  0  0  0  0  0  0  0  # atno 10765 bound_to 10752
  140.6940  133.9046  155.8637 H   0  0  0  0  0  0  0  0  0  0  0  0  # atno 11005 bound_to 11000
  146.2907  139.7132  142.9163 LP  0  0  0  0  0  0  0  0  0  0  0  0  # atno 17320 bound_to 7965
  145.4191  141.0404  143.2974 LP  0  0  0  0  0  0  0  0  0  0  0  0  # atno 17321 bound_to 7965
  139.9683  144.6511  150.8013 LP  0  0  0  0  0  0  0  0  0  0  0  0  # atno 17342 bound_to 10162
  140.7571  143.3079  151.2916 LP  0  0  0  0  0  0  0  0  0  0  0  0  # atno 17343 bound_to 10162
  157.5646  131.0946  150.9509 LP  0  0  0  0  0  0  0  0  0  0  0  0  # atno 17370 bound_to 10713
  156.9738  130.5501  149.5292 LP  0  0  0  0  0  0  0  0  0  0  0  0  # atno 17371 bound_to 10713
  141.0218  134.0879  157.4112 LP  0  0  0  0  0  0  0  0  0  0  0  0  # atno 17394 bound_to 11000
  139.8915  135.0119  156.6796 LP  0  0  0  0  0  0  0  0  0  0  0  0  # atno 17395 bound_to 11000

$$$$
