#       Name:                AV-unprocessed.smi:3248
#       Creating user name   scv26
#       Creation time:       Fri Mar 27 18:29:41 2020


#       File generated by GOLD software.
#

@<TRIPOS>MOLECULE
AV-unprocessed.smi:3248
    43    44     1
SMALL
NO_CHARGES


@<TRIPOS>ATOM
      1 ****        -2.4197   0.5637   1.6098 C.3            1 S1                 0.0000
      2 ****        -1.5863   0.2319   0.3610 C.3            1 S1                 0.0000
      3 ****        -1.8100  -1.2087  -0.1528 C.3            1 S1                 0.0000
      4 ****        -3.2047  -1.5092  -0.4221 N.pl3          1 S1                 0.0000
      5 ****        -4.0236  -2.4195   0.2129 C.2            1 S1                 0.0000
      6 ****        -5.2449  -2.3605  -0.3947 C.2            1 S1                 0.0000
      7 ****        -5.0714  -1.3752  -1.4069 C.2            1 S1                 0.0000
      8 ****        -3.8480  -0.8715  -1.4241 N.2            1 S1                 0.0000
      9 ****        -0.1733   0.4473   0.6593 N.am           1 S1                 0.0000
     10 ****         0.7891   0.6976  -0.2454 C.2            1 S1                 0.0000
     11 ****         0.5490   0.8180  -1.4466 O.2            1 S1                 0.0000
     12 ****         2.0056   0.9187   0.3121 N.am           1 S1                 0.0000
     13 ****         2.5549   0.0042   1.3248 C.3            1 S1                 0.0000
     14 ****         3.4652  -1.0165   0.6141 C.3            1 S1                 0.0000
     15 ****         4.5007  -0.3353  -0.0907 O.3            1 S1                 0.0000
     16 ****         4.0125   0.6038  -1.0468 C.3            1 S1                 0.0000
     17 ****         3.1207   1.6399  -0.3335 C.3            1 S1                 0.0000
     18 ****         2.7159   2.8103  -1.2542 C.3            1 S1                 0.0000
     19 ****        -3.4888   0.5013   1.4056 H              1 S1                 0.0000
     20 ****        -2.2171   1.5772   1.9574 H              1 S1                 0.0000
     21 ****        -2.1963  -0.1205   2.4290 H              1 S1                 0.0000
     22 ****        -1.8816   0.9327  -0.4223 H              1 S1                 0.0000
     23 ****        -1.2451  -1.3811  -1.0700 H              1 S1                 0.0000
     24 ****        -1.4403  -1.9287   0.5788 H              1 S1                 0.0000
     25 ****        -3.6734  -3.0260   1.0353 H              1 S1                 0.0000
     26 ****        -6.1274  -2.9345  -0.1542 H              1 S1                 0.0000
     27 ****        -5.7922  -1.0156  -2.1263 H              1 S1                 0.0000
     28 ****         0.0955   0.4099   1.6317 H              1 S1                 0.0000
     29 ****         3.1256   0.5694   2.0631 H              1 S1                 0.0000
     30 ****         1.7883  -0.5270   1.8898 H              1 S1                 0.0000
     31 ****         3.9186  -1.6893   1.3421 H              1 S1                 0.0000
     32 ****         2.8907  -1.6349  -0.0777 H              1 S1                 0.0000
     33 ****         4.8653   1.0937  -1.5170 H              1 S1                 0.0000
     34 ****         3.4643   0.0868  -1.8362 H              1 S1                 0.0000
     35 ****         3.7112   2.0933   0.4646 H              1 S1                 0.0000
     36 ****         3.5899   3.4075  -1.5154 H              1 S1                 0.0000
     37 ****         2.0039   3.4741  -0.7627 H              1 S1                 0.0000
     38 ****         2.2778   2.4715  -2.1926 H              1 S1                 0.0000
     39 ****        -3.4817  -0.1747  -2.0408 LP             1 S1                 0.0000
     40 ****        -0.3896   0.7297  -1.7802 LP             1 S1                 0.0000
     41 ****         1.2925   1.0041  -2.0889 LP             1 S1                 0.0000
     42 ****         5.0580  -1.0139  -0.5690 LP             1 S1                 0.0000
     43 ****         5.0672   0.1534   0.5728 LP             1 S1                 0.0000
@<TRIPOS>BOND
    1    1    2 1     
    2    1   19 1     
    3    1   20 1     
    4    1   21 1     
    5    2    3 1     
    6    2    9 1     
    7    2   22 1     
    8    3    4 1     
    9    3   23 1     
   10    3   24 1     
   11    4    8 1     
   12    4    5 1     
   13    5    6 2     
   14    5   25 1     
   15    6    7 1     
   16    6   26 1     
   17    7    8 2     
   18    7   27 1     
   19    9   10 am    
   20    9   28 1     
   21   10   11 2     
   22   10   12 am    
   23   12   17 1     
   24   12   13 1     
   25   13   14 1     
   26   13   29 1     
   27   13   30 1     
   28   14   15 1     
   29   14   31 1     
   30   14   32 1     
   31   15   16 1     
   32   16   17 1     
   33   16   33 1     
   34   16   34 1     
   35   17   18 1     
   36   17   35 1     
   37   18   36 1     
   38   18   37 1     
   39   18   38 1     
   40    8   39 1     
   41   11   40 1     
   42   11   41 1     
   43   15   42 1     
   44   15   43 1     
@<TRIPOS>SUBSTRUCTURE
      1 S1             1
@<TRIPOS>SET
LONE_PAIRS      STATIC     ATOMS    <user>   **** ""
5 39 40 41 42 43
DONOR_HYDROGENS      STATIC     ATOMS    <user>   **** ""
1 28
ATOM$BLUE        STATIC     ATOMS    COLORGROUP SYSTEM
5 39 40 41 42 43
ATOM$RED        STATIC     ATOMS    COLORGROUP SYSTEM
1 28
