AV-unprocessed.smi:334|AV-procd|sdf|2362|dock9
  -GOLD-   2262022273D 1   1.00000     0.00000
 Structure written by MMmdl.
 44 46  0  0  0  0  0  0  0  0  3 V2000
  150.3764  136.0814  155.3246 C   0  0  0  0  0  0  0  0  0  0  0  0
  149.9628  137.3261  156.1275 C   0  0  2  0  0  0  0  0  0  0  0  0
  148.8066  136.9728  156.9504 N   0  0  0  0  0  0  0  0  0  0  0  0
  148.8450  136.4839  158.1999 C   0  0  0  0  0  0  0  0  0  0  0  0
  149.8911  136.2879  158.8199 O   0  0  0  0  0  0  0  0  0  0  0  0
  147.4813  136.2005  158.8459 C   0  0  0  0  0  0  0  0  0  0  0  0
  147.5705  135.3775  160.0637 N   0  0  0  0  0  0  0  0  0  0  0  0
  147.8388  134.0052  159.8901 C   0  0  0  0  0  0  0  0  0  0  0  0
  147.9356  133.1571  160.9327 C   0  0  0  0  0  0  0  0  0  0  0  0
  148.2057  131.7498  160.7354 N   0  3  0  0  0  0  0  0  0  0  0  0
  148.2946  131.0240  161.7204 O   0  0  0  0  0  0  0  0  0  0  0  0
  148.3386  131.3231  159.5923 O   0  5  0  0  0  0  0  0  0  0  0  0
  147.7551  133.7023  162.2642 C   0  0  0  0  0  0  0  0  0  0  0  0
  147.4943  135.0131  162.4366 C   0  0  0  0  0  0  0  0  0  0  0  0
  147.3841  135.9332  161.3000 C   0  0  0  0  0  0  0  0  0  0  0  0
  147.1383  137.1303  161.4505 O   0  0  0  0  0  0  0  0  0  0  0  0
  149.6285  138.5318  155.2126 C   0  0  2  0  0  0  0  0  0  0  0  0
  150.7684  139.5772  155.1305 C   0  0  0  0  0  0  0  0  0  0  0  0
  150.0708  140.8965  155.5061 C   0  0  1  0  0  0  0  0  0  0  0  0
  149.1093  141.3113  154.3778 C   0  0  0  0  0  0  0  0  0  0  0  0
  147.9645  140.2915  154.5199 C   0  0  0  0  0  0  0  0  0  0  0  0
  148.4391  139.4071  155.6891 C   0  0  2  0  0  0  0  0  0  0  0  0
  149.1098  140.4353  156.5936 C   0  0  0  0  0  0  0  0  0  0  0  0
  151.2687  136.2650  154.7263 H   0  0  0  0  0  0  0  0  0  0  0  0
  149.5832  135.7640  154.6468 H   0  0  0  0  0  0  0  0  0  0  0  0
  150.6000  135.2456  155.9884 H   0  0  0  0  0  0  0  0  0  0  0  0
  150.8044  137.5961  156.7672 H   0  0  0  0  0  0  0  0  0  0  0  0
  147.8986  137.1084  156.5296 H   0  0  0  0  0  0  0  0  0  0  0  0
  147.0043  137.1567  159.0661 H   0  0  0  0  0  0  0  0  0  0  0  0
  146.8295  135.7210  158.1130 H   0  0  0  0  0  0  0  0  0  0  0  0
  147.9494  133.6972  158.8601 H   0  0  0  0  0  0  0  0  0  0  0  0
  147.8270  133.0642  163.1324 H   0  0  0  0  0  0  0  0  0  0  0  0
  147.3624  135.3981  163.4371 H   0  0  0  0  0  0  0  0  0  0  0  0
  149.4120  138.1457  154.2152 H   0  0  0  0  0  0  0  0  0  0  0  0
  151.5595  139.3655  155.8507 H   0  0  0  0  0  0  0  0  0  0  0  0
  151.2259  139.6154  154.1412 H   0  0  0  0  0  0  0  0  0  0  0  0
  150.7612  141.6857  155.8051 H   0  0  0  0  0  0  0  0  0  0  0  0
  148.7407  142.3260  154.5329 H   0  0  0  0  0  0  0  0  0  0  0  0
  149.5829  141.2723  153.3961 H   0  0  0  0  0  0  0  0  0  0  0  0
  147.0320  140.7978  154.7727 H   0  0  0  0  0  0  0  0  0  0  0  0
  147.7953  139.7222  153.6053 H   0  0  0  0  0  0  0  0  0  0  0  0
  147.6215  138.8574  156.1542 H   0  0  0  0  0  0  0  0  0  0  0  0
  149.6092  139.9961  157.4589 H   0  0  0  0  0  0  0  0  0  0  0  0
  148.4318  141.2203  156.9336 H   0  0  0  0  0  0  0  0  0  0  0  0
  1  2  1  0  0  0  0
  1 24  1  0  0  0  0
  1 25  1  0  0  0  0
  1 26  1  0  0  0  0
  2  3  1  0  0  0  0
  2 17  1  0  0  0  0
  2 27  1  0  0  0  0
  3  4  1  0  0  0  0
  3 28  1  0  0  0  0
  4  5  2  0  0  0  0
  4  6  1  0  0  0  0
  6  7  1  0  0  0  0
  6 29  1  0  0  0  0
  6 30  1  0  0  0  0
  7 15  1  0  0  0  0
  7  8  1  0  0  0  0
  8  9  2  0  0  0  0
  8 31  1  0  0  0  0
  9 10  1  0  0  0  0
  9 13  1  0  0  0  0
 10 11  2  0  0  0  0
 10 12  1  0  0  0  0
 13 14  2  0  0  0  0
 13 32  1  0  0  0  0
 14 15  1  0  0  0  0
 14 33  1  0  0  0  0
 15 16  2  0  0  0  0
 17 22  1  0  0  0  0
 17 18  1  0  0  0  0
 17 34  1  0  0  0  0
 18 19  1  0  0  0  0
 18 35  1  0  0  0  0
 18 36  1  0  0  0  0
 19 23  1  0  0  0  0
 19 20  1  0  0  0  0
 19 37  1  0  0  0  0
 20 21  1  0  0  0  0
 20 38  1  0  0  0  0
 20 39  1  0  0  0  0
 21 22  1  0  0  0  0
 21 40  1  0  0  0  0
 21 41  1  0  0  0  0
 22 23  1  0  0  0  0
 22 42  1  0  0  0  0
 23 43  1  0  0  0  0
 23 44  1  0  0  0  0
M  CHG  1  10   1
M  CHG  1  12  -1
M  END
> <s_m_source_file>
AV-unprocessed.smi

> <i_m_source_file_index>
334

> <i_lp_mmshare_version>
43012

> <i_f3d_flags>
0

> <s_epik_input>
W0NIMl0xW0NIMl1bQ0BIXShbQ0gyXTIpW0NAQEhdKFtDSDJdW0NAQEhdMTIpW0NASF0oW0NIM10pW05IXUMoPU8pW0NIMl1uM1tjSF1jKFtOK10oPU8pW08tXSlbY0hdW2NIXWMzPU8=

> <s_epik_cmdline>
J2VwaWtfcHl0aG9uJywgJy1waCcsICc3LjAnLCAnLXRuJywgJzgnLCAnLW1hJywgJzIwMCcsICctbWV0YWxfYmluZGluZycsICctaW1hZScsICc8aW5maWxlLm1hZT4nLCAnLW9tYWUnLCAnPG91dGZpbGUubWFlPic=

> <r_lp_tautomer_probability>
1

> <r_epik_Ionization_Penalty>
2.17081e-08

> <r_epik_Ionization_Penalty_Charging>
8.1195e-11

> <r_epik_Ionization_Penalty_Neutral>
2.16269e-08

> <r_epik_State_Penalty>
-0

> <r_epik_Charging_Adjusted_Penalty>
8.1195e-11

> <i_epik_Tot_Q>
0

> <i_epik_Tot_abs_Q>
2

> <r_epik_Metal_State_Penalty>
-0

> <b_epik_Metal_Only>
0

> <s_lp_Force_Field>
OPLS_2005

> <r_lp_Energy>
62.1866

> <b_lp_Chiralities_Consistent>
1

> <s_lp_Variant>
AV-unprocessed.smi:334-1

> <Gold.Version>
5.8.1

> <Gold.Id.Protein>
6NUR|6NUR_protein|mol2

> <Gold.PLP.Fitness>
40.1021

> <Gold.PLP.PLP>
-35.5274

> <Gold.PLP.part.hbond>
-3.0000

> <Gold.PLP.part.metal>
0.0000

> <Gold.PLP.part.buried>
-3.6080

> <Gold.PLP.part.nonpolar>
-28.3638

> <Gold.PLP.part.repulsive>
0.0005

> <Gold.PLP.ligand.clash>
0.0000

> <Gold.PLP.ligand.torsion>
1.8416

> <Gold.PLP.Chemscore.Hbond>
2.7440

> <Gold.PLP.Chemscore.CHOScore>
0.0000

> <Gold.PLP.Chemscore.Metal>
0.0000

> <Gold.Chemscore.Hbonds>
donor molecule, donor type, donor heavy atom, donor atom, acceptor molecule, acceptor atom, score
      P1  H  6896  6909       L1     5  1.00
      P1  H  6931  6943       L1    16  0.41
      P1  H  6934  6947       L1    16  1.00

> <Gold.PLP.Chemscore.Internal.Correction>
0.0259

> <Gold.Rescore>
     Score         DG    S(hbond)    S(metal)    S(lipo)     H(rot)  DE(clash)    DE(int)     intcor
     16.79     -19.03       2.69        0.00      77.19       1.75       0.14       2.10       ----

> <Gold.Chemscore.Fitness>
16.7950

> <Gold.Chemscore.DG>
-19.0283

> <Gold.Chemscore.ZeroCoef>
-5.4800

> <Gold.Chemscore.Hbond>
2.6918

> <Gold.Chemscore.Metal>
0.0000

> <Gold.Chemscore.Lipo>
77.1890

> <Gold.Chemscore.Internal_Hbond>
0.0000

> <Gold.Chemscore.DEClash>
0.1361

> <Gold.Chemscore.DEInternal>
2.0973

> <Gold.Chemscore.Rot>
1.7474

> <Gold.Chemscore.Internal.Correction>
   9.000000E+99

> <Gold.Chemscore.Hbonds>
donor molecule, donor type, donor heavy atom, donor atom, acceptor molecule, acceptor atom, score
      P1  H  6896  6909       L1     5  0.97
      P1  H  6931  6943       L1    16  0.30
      P1  H  6934  6947       L1    16  0.94

> <Gold.Chemscore.Hbond.Weighted>
-8.9905

> <Gold.Chemscore.Metal.Weighted>
-0.0000

> <Gold.Chemscore.Lipo.Weighted>
-9.0311

> <Gold.Chemscore.Internal_Hbond.Weighted>
0.0000

> <Gold.Chemscore.DEClash.Weighted>
0.1361

> <Gold.Chemscore.DEInternal.Weighted>
2.0973

> <Gold.Chemscore.Rot.Weighted>
4.4733

> <Gold.Chemscore.Internal.Correction.Weighted>
   9.000000E+99

> <Gold.Protein.RotatedTorsions>
[ 6907 6896 6895 6894 ] final   56.70 input  -60.11 | X-H torsion
[ 7974 7965 7964 7962 ] final   14.27 input  175.53 | X-H torsion
[ 8008 7997 7996 7995 ] final   15.72 input   59.86 | X-H torsion
[ 10167 10162 10161 10158 ] final   96.52 input  -65.29 | X-H torsion
[ 10718 10713 10712 10709 ] final -118.95 input   66.30 | X-H torsion
[ 10763 10752 10751 10750 ] final   98.98 input  -60.55 | X-H torsion
[ 11005 11000 10999 10996 ] final  -91.29 input  -57.11 | X-H torsion

> <Gold.Protein.ActiveResidues>
 VAL166  LYS551  ARG553  GLY616  TRP617  ASP618  TYR619  PRO620  LYS621  CYS622 
 ASP623  PHE694  ASN695  SER759  ASP760  ASP761  ALA762  ILE779  LEU786  VAL792 
 PHE793  MET794  SER795  GLU796  ALA797  LYS798  CYS799  TRP800  GLU811  SER814 

> <Gold.Protein.RotatedAtoms>
  152.3661  134.6802  160.0191 H   0  0  0  0  0  0  0  0  0  0  0  0  # atno 6907 bound_to 6896
  151.7110  133.3307  159.3298 H   0  0  0  0  0  0  0  0  0  0  0  0  # atno 6908 bound_to 6896
  150.7639  134.6467  159.6311 H   0  0  0  0  0  0  0  0  0  0  0  0  # atno 6909 bound_to 6896
  146.2309  139.9066  142.8531 H   0  0  0  0  0  0  0  0  0  0  0  0  # atno 7974 bound_to 7965
  154.8667  140.2952  155.5506 H   0  0  0  0  0  0  0  0  0  0  0  0  # atno 8008 bound_to 7997
  156.3021  140.2468  156.3583 H   0  0  0  0  0  0  0  0  0  0  0  0  # atno 8009 bound_to 7997
  154.8860  140.0396  157.1799 H   0  0  0  0  0  0  0  0  0  0  0  0  # atno 8010 bound_to 7997
  139.7886  144.6861  150.9923 H   0  0  0  0  0  0  0  0  0  0  0  0  # atno 10167 bound_to 10162
  156.1144  130.6274  150.9355 H   0  0  0  0  0  0  0  0  0  0  0  0  # atno 10718 bound_to 10713
  153.2958  135.4129  155.1208 H   0  0  0  0  0  0  0  0  0  0  0  0  # atno 10763 bound_to 10752
  154.8534  135.3529  154.5919 H   0  0  0  0  0  0  0  0  0  0  0  0  # atno 10764 bound_to 10752
  153.6343  135.7059  153.5322 H   0  0  0  0  0  0  0  0  0  0  0  0  # atno 10765 bound_to 10752
  141.1548  133.7746  156.9858 H   0  0  0  0  0  0  0  0  0  0  0  0  # atno 11005 bound_to 11000
  145.2270  140.9958  143.4012 LP  0  0  0  0  0  0  0  0  0  0  0  0  # atno 17320 bound_to 7965
  144.9562  139.4029  143.6378 LP  0  0  0  0  0  0  0  0  0  0  0  0  # atno 17321 bound_to 7965
  140.7820  143.4405  151.0559 LP  0  0  0  0  0  0  0  0  0  0  0  0  # atno 17342 bound_to 10162
  139.8082  143.7988  152.3169 LP  0  0  0  0  0  0  0  0  0  0  0  0  # atno 17343 bound_to 10162
  157.6327  131.0919  150.8409 LP  0  0  0  0  0  0  0  0  0  0  0  0  # atno 17370 bound_to 10713
  156.8515  130.5082  149.5311 LP  0  0  0  0  0  0  0  0  0  0  0  0  # atno 17371 bound_to 10713
  140.1036  134.9520  157.1960 LP  0  0  0  0  0  0  0  0  0  0  0  0  # atno 17394 bound_to 11000
  140.3286  134.2835  155.7232 LP  0  0  0  0  0  0  0  0  0  0  0  0  # atno 17395 bound_to 11000

$$$$
