AV-unprocessed.smi:1102|AV-procd|sdf|4768|dock1
  -GOLD-   22720 3303D 1   1.00000     0.00000
 Structure written by MMmdl.
 40 41  0  0  0  0  0  0  0  0  2 V2000
  146.0555  138.5128  150.4338 C   0  0  0  0  0  0  0  0  0  0  0  0
  146.1740  138.2744  151.8680 N   0  0  0  0  0  0  0  0  0  0  0  0
  145.5964  137.0775  152.4653 C   0  0  0  0  0  0  0  0  0  0  0  0
  146.8391  139.2160  152.6828 C   0  0  0  0  0  0  0  0  0  0  0  0
  146.3024  140.4892  152.9946 C   0  0  0  0  0  0  0  0  0  0  0  0
  147.0290  141.3747  153.8166 C   0  0  0  0  0  0  0  0  0  0  0  0
  148.2832  140.9870  154.3325 C   0  0  0  0  0  0  0  0  0  0  0  0
  148.9827  141.9204  155.1455 N   0  0  0  0  0  0  0  0  0  0  0  0
  150.0828  141.7251  155.8929 C   0  0  0  0  0  0  0  0  0  0  0  0
  150.6748  140.6540  156.0214 O   0  0  0  0  0  0  0  0  0  0  0  0
  150.4540  142.8553  156.5107 N   0  0  0  0  0  0  0  0  0  0  0  0
  151.5954  142.9934  157.4102 C   0  0  0  0  0  0  0  0  0  0  0  0
  151.1675  143.4655  158.8102 C   0  0  1  0  0  0  0  0  0  0  0  0
  152.1938  143.2290  159.9189 C   0  0  0  0  0  0  0  0  0  0  0  0
  151.7923  144.2771  160.9306 C   0  0  0  0  0  0  0  0  0  0  0  0
  151.4111  145.4484  160.0299 C   0  0  0  0  0  0  0  0  0  0  0  0
  150.9500  144.8741  158.8088 O   0  0  0  0  0  0  0  0  0  0  0  0
  148.7816  139.7090  153.9843 C   0  0  0  0  0  0  0  0  0  0  0  0
  148.0527  138.8930  153.1923 N   0  3  0  0  0  0  0  0  0  0  0  0
  145.5224  139.4450  150.2437 H   0  0  0  0  0  0  0  0  0  0  0  0
  145.5078  137.7094  149.9409 H   0  0  0  0  0  0  0  0  0  0  0  0
  147.0418  138.5762  149.9729 H   0  0  0  0  0  0  0  0  0  0  0  0
  144.8247  137.3439  153.1883 H   0  0  0  0  0  0  0  0  0  0  0  0
  146.3643  136.4928  152.9727 H   0  0  0  0  0  0  0  0  0  0  0  0
  145.1388  136.4389  151.7096 H   0  0  0  0  0  0  0  0  0  0  0  0
  145.3425  140.8049  152.6140 H   0  0  0  0  0  0  0  0  0  0  0  0
  146.6187  142.3463  154.0509 H   0  0  0  0  0  0  0  0  0  0  0  0
  148.5733  142.8418  155.1974 H   0  0  0  0  0  0  0  0  0  0  0  0
  149.9049  143.6872  156.3499 H   0  0  0  0  0  0  0  0  0  0  0  0
  152.1613  142.0626  157.4760 H   0  0  0  0  0  0  0  0  0  0  0  0
  152.2714  143.7283  156.9731 H   0  0  0  0  0  0  0  0  0  0  0  0
  150.2241  142.9935  159.0895 H   0  0  0  0  0  0  0  0  0  0  0  0
  152.1661  142.2147  160.3180 H   0  0  0  0  0  0  0  0  0  0  0  0
  153.2039  143.4282  159.5583 H   0  0  0  0  0  0  0  0  0  0  0  0
  150.9232  143.9378  161.4959 H   0  0  0  0  0  0  0  0  0  0  0  0
  152.5865  144.5218  161.6364 H   0  0  0  0  0  0  0  0  0  0  0  0
  150.6520  146.0878  160.4811 H   0  0  0  0  0  0  0  0  0  0  0  0
  152.2857  146.0630  159.8134 H   0  0  0  0  0  0  0  0  0  0  0  0
  149.7338  139.3047  154.2920 H   0  0  0  0  0  0  0  0  0  0  0  0
  148.4422  137.9785  152.9627 H   0  0  0  0  0  0  0  0  0  0  0  0
  1  2  1  0  0  0  0
  1 20  1  0  0  0  0
  1 21  1  0  0  0  0
  1 22  1  0  0  0  0
  2  3  1  0  0  0  0
  2  4  1  0  0  0  0
  3 23  1  0  0  0  0
  3 24  1  0  0  0  0
  3 25  1  0  0  0  0
  4 19  1  0  0  0  0
  4  5  2  0  0  0  0
  5  6  1  0  0  0  0
  5 26  1  0  0  0  0
  6  7  2  0  0  0  0
  6 27  1  0  0  0  0
  7  8  1  0  0  0  0
  7 18  1  0  0  0  0
  8  9  1  0  0  0  0
  8 28  1  0  0  0  0
  9 10  2  0  0  0  0
  9 11  1  0  0  0  0
 11 12  1  0  0  0  0
 11 29  1  0  0  0  0
 12 13  1  0  0  0  0
 12 30  1  0  0  0  0
 12 31  1  0  0  0  0
 13 17  1  0  0  0  0
 13 14  1  0  0  0  0
 13 32  1  0  0  0  0
 14 15  1  0  0  0  0
 14 33  1  0  0  0  0
 14 34  1  0  0  0  0
 15 16  1  0  0  0  0
 15 35  1  0  0  0  0
 15 36  1  0  0  0  0
 16 17  1  0  0  0  0
 16 37  1  0  0  0  0
 16 38  1  0  0  0  0
 18 19  2  0  0  0  0
 18 39  1  0  0  0  0
 19 40  1  0  0  0  0
M  CHG  1  19   1
M  END
> <s_m_source_file>
AV-unprocessed.smi

> <i_m_source_file_index>
1102

> <i_lp_mmshare_version>
43012

> <i_f3d_flags>
0

> <s_epik_input>
W0NIM11OKFtDSDNdKWMxW2NIXVtjSF1jKFtjSF1uMSlbTkhdQyg9TylbTkhdW0NIMl1bQ0BASF0yW0NIMl1bQ0gyXVtDSDJdTzI=

> <s_epik_cmdline>
J2VwaWtfcHl0aG9uJywgJy1waCcsICc3LjAnLCAnLXRuJywgJzgnLCAnLW1hJywgJzIwMCcsICctbWV0YWxfYmluZGluZycsICctaW1hZScsICc8aW5maWxlLm1hZT4nLCAnLW9tYWUnLCAnPG91dGZpbGUubWFlPic=

> <r_lp_tautomer_probability>
0.999994

> <r_epik_Ionization_Penalty>
0.265123

> <r_epik_Ionization_Penalty_Charging>
0.265104

> <r_epik_Ionization_Penalty_Neutral>
1.89079e-05

> <r_epik_State_Penalty>
0.257001

> <r_epik_Charging_Adjusted_Penalty>
0.522106

> <i_epik_Tot_Q>
1

> <i_epik_Tot_abs_Q>
1

> <r_epik_Metal_State_Penalty>
0.543599

> <b_epik_Metal_Only>
0

> <s_lp_Force_Field>
OPLS_2005

> <r_lp_Energy>
27.717

> <b_lp_Chiralities_Consistent>
1

> <s_lp_Variant>
AV-unprocessed.smi:1102-2

> <Gold.Version>
5.8.1

> <Gold.Id.Protein>
6NUR|6NUR_protein|mol2

> <Gold.PLP.Fitness>
46.5583

> <Gold.PLP.PLP>
-37.6991

> <Gold.PLP.part.hbond>
-4.0000

> <Gold.PLP.part.metal>
0.0000

> <Gold.PLP.part.buried>
5.5682

> <Gold.PLP.part.nonpolar>
-39.7845

> <Gold.PLP.part.repulsive>
0.4608

> <Gold.PLP.ligand.clash>
0.0000

> <Gold.PLP.ligand.torsion>
1.5492

> <Gold.PLP.Chemscore.Hbond>
3.9825

> <Gold.PLP.Chemscore.CHOScore>
0.0000

> <Gold.PLP.Chemscore.Metal>
0.0000

> <Gold.Chemscore.Hbonds>
donor molecule, donor type, donor heavy atom, donor atom, acceptor molecule, acceptor atom, score
      L1  H     8    28       P1  8028  0.93
      L1  H    11    29       P1  8028  1.00
      L1  H    19    40       P1  7948  1.62

> <Gold.PLP.Chemscore.Internal.Correction>
0.0102

> <Gold.Rescore>
     Score         DG    S(hbond)    S(metal)    S(lipo)     H(rot)  DE(clash)    DE(int)     intcor
     16.37     -23.56       2.77        0.00     102.30       1.23       4.44       2.76       ----

> <Gold.Chemscore.Fitness>
16.3654

> <Gold.Chemscore.DG>
-23.5643

> <Gold.Chemscore.ZeroCoef>
-5.4800

> <Gold.Chemscore.Hbond>
2.7711

> <Gold.Chemscore.Metal>
0.0000

> <Gold.Chemscore.Lipo>
102.3039

> <Gold.Chemscore.Internal_Hbond>
0.0000

> <Gold.Chemscore.DEClash>
4.4426

> <Gold.Chemscore.DEInternal>
2.7564

> <Gold.Chemscore.Rot>
1.2268

> <Gold.Chemscore.Internal.Correction>
   9.000000E+99

> <Gold.Chemscore.Hbonds>
donor molecule, donor type, donor heavy atom, donor atom, acceptor molecule, acceptor atom, score
      L1  H     8    28       P1  8028  0.89
      L1  H    11    29       P1  8028  0.98
      L1  H    19    40       P1  7948  0.78

> <Gold.Chemscore.Hbond.Weighted>
-9.2554

> <Gold.Chemscore.Metal.Weighted>
-0.0000

> <Gold.Chemscore.Lipo.Weighted>
-11.9696

> <Gold.Chemscore.Internal_Hbond.Weighted>
0.0000

> <Gold.Chemscore.DEClash.Weighted>
4.4426

> <Gold.Chemscore.DEInternal.Weighted>
2.7564

> <Gold.Chemscore.Rot.Weighted>
3.1406

> <Gold.Chemscore.Internal.Correction.Weighted>
   9.000000E+99

> <Gold.Protein.RotatedTorsions>
[ 6907 6896 6895 6894 ] final -173.96 input  -60.11 | X-H torsion
[ 7974 7965 7964 7962 ] final  -82.23 input  175.53 | X-H torsion
[ 8008 7997 7996 7995 ] final -140.30 input   59.86 | X-H torsion
[ 10167 10162 10161 10158 ] final  -97.08 input  -65.29 | X-H torsion
[ 10718 10713 10712 10709 ] final -101.78 input   66.30 | X-H torsion
[ 10763 10752 10751 10750 ] final  113.49 input  -60.55 | X-H torsion
[ 11005 11000 10999 10996 ] final  -93.25 input  -57.11 | X-H torsion

> <Gold.Protein.ActiveResidues>
 VAL166  LYS551  ARG553  GLY616  TRP617  ASP618  TYR619  PRO620  LYS621  CYS622 
 ASP623  PHE694  ASN695  SER759  ASP760  ASP761  ALA762  ILE779  LEU786  VAL792 
 PHE793  MET794  SER795  GLU796  ALA797  LYS798  CYS799  TRP800  GLU811  SER814 

> <Gold.Protein.RotatedAtoms>
  151.5646  133.3398  159.2977 H   0  0  0  0  0  0  0  0  0  0  0  0  # atno 6907 bound_to 6896
  150.8402  134.7694  159.6937 H   0  0  0  0  0  0  0  0  0  0  0  0  # atno 6908 bound_to 6896
  152.4471  134.5478  159.9909 H   0  0  0  0  0  0  0  0  0  0  0  0  # atno 6909 bound_to 6896
  145.5361  140.9515  143.1576 H   0  0  0  0  0  0  0  0  0  0  0  0  # atno 7974 bound_to 7965
  155.4591  140.0544  157.2993 H   0  0  0  0  0  0  0  0  0  0  0  0  # atno 8008 bound_to 7997
  154.4745  140.2055  155.9868 H   0  0  0  0  0  0  0  0  0  0  0  0  # atno 8009 bound_to 7997
  156.1109  140.3204  155.8076 H   0  0  0  0  0  0  0  0  0  0  0  0  # atno 8010 bound_to 7997
  140.2872  143.3244  152.0382 H   0  0  0  0  0  0  0  0  0  0  0  0  # atno 10167 bound_to 10162
  156.0206  130.5389  150.7012 H   0  0  0  0  0  0  0  0  0  0  0  0  # atno 10718 bound_to 10713
  153.4933  135.3654  155.2503 H   0  0  0  0  0  0  0  0  0  0  0  0  # atno 10763 bound_to 10752
  154.8751  135.3982  154.3564 H   0  0  0  0  0  0  0  0  0  0  0  0  # atno 10764 bound_to 10752
  153.4187  135.7079  153.6375 H   0  0  0  0  0  0  0  0  0  0  0  0  # atno 10765 bound_to 10752
  141.1502  133.7875  157.0133 H   0  0  0  0  0  0  0  0  0  0  0  0  # atno 11005 bound_to 11000
  144.7601  139.6978  143.7238 LP  0  0  0  0  0  0  0  0  0  0  0  0  # atno 17320 bound_to 7965
  146.2012  139.5308  142.9742 LP  0  0  0  0  0  0  0  0  0  0  0  0  # atno 17321 bound_to 7965
  139.4947  144.6550  151.6591 LP  0  0  0  0  0  0  0  0  0  0  0  0  # atno 17342 bound_to 10162
  140.5763  144.0023  150.6243 LP  0  0  0  0  0  0  0  0  0  0  0  0  # atno 17343 bound_to 10162
  157.4672  131.0889  151.0682 LP  0  0  0  0  0  0  0  0  0  0  0  0  # atno 17370 bound_to 10713
  157.1153  130.6039  149.5492 LP  0  0  0  0  0  0  0  0  0  0  0  0  # atno 17371 bound_to 10713
  140.0863  134.9619  157.1705 LP  0  0  0  0  0  0  0  0  0  0  0  0  # atno 17394 bound_to 11000
  140.3507  134.2602  155.7199 LP  0  0  0  0  0  0  0  0  0  0  0  0  # atno 17395 bound_to 11000

$$$$
