AV-unprocessed.smi:2036|AV-procd|sdf|8274|dock1
  -GOLD-   2272010543D 1   1.00000     0.00000
 Structure written by MMmdl.
 41 42  0  0  0  0  0  0  0  0  1 V2000
  145.5508  136.5381  151.6685 C   0  0  0  0  0  0  0  0  0  0  0  0
  146.1197  137.4665  152.5745 O   0  0  0  0  0  0  0  0  0  0  0  0
  146.6740  138.5963  151.9186 C   0  0  0  0  0  0  0  0  0  0  0  0
  147.3147  139.5208  152.9553 C   0  0  0  0  0  0  0  0  0  0  0  0
  146.7801  140.5950  153.2288 O   0  0  0  0  0  0  0  0  0  0  0  0
  148.4615  139.0727  153.4997 N   0  0  0  0  0  0  0  0  0  0  0  0
  149.2874  139.6851  154.4823 C   0  0  0  0  0  0  0  0  0  0  0  0
  150.5756  139.2294  154.8484 C   0  0  0  0  0  0  0  0  0  0  0  0
  151.2986  139.9400  155.8258 C   0  0  0  0  0  0  0  0  0  0  0  0
  150.7258  141.0941  156.4097 C   0  0  0  0  0  0  0  0  0  0  0  0
  151.4392  141.8204  157.3871 N   0  0  0  0  0  0  0  0  0  0  0  0
  150.7756  143.0230  157.8827 C   0  0  0  0  0  0  0  0  0  0  0  0
  151.7520  143.9044  158.6864 C   0  0  2  0  0  0  0  0  0  0  0  0
  152.7438  144.6819  157.8030 C   0  0  0  0  0  0  0  0  0  0  0  0
  152.4139  143.1264  159.6863 O   0  0  0  0  0  0  0  0  0  0  0  0
  153.1092  141.9833  159.1901 C   0  0  1  0  0  0  0  0  0  0  0  0
  153.7547  141.2666  160.3806 C   0  0  0  0  0  0  0  0  0  0  0  0
  152.1268  141.0706  158.4348 C   0  0  0  0  0  0  0  0  0  0  0  0
  149.4933  141.5312  156.0531 N   0  0  0  0  0  0  0  0  0  0  0  0
  148.8044  140.8478  155.1155 C   0  0  0  0  0  0  0  0  0  0  0  0
  145.1384  135.6934  152.2204 H   0  0  0  0  0  0  0  0  0  0  0  0
  146.3006  136.1537  150.9756 H   0  0  0  0  0  0  0  0  0  0  0  0
  144.7424  136.9920  151.0939 H   0  0  0  0  0  0  0  0  0  0  0  0
  147.4368  138.2858  151.2032 H   0  0  0  0  0  0  0  0  0  0  0  0
  145.8954  139.1298  151.3699 H   0  0  0  0  0  0  0  0  0  0  0  0
  148.8124  138.2031  153.1255 H   0  0  0  0  0  0  0  0  0  0  0  0
  151.0305  138.3617  154.3979 H   0  0  0  0  0  0  0  0  0  0  0  0
  152.2759  139.5885  156.1215 H   0  0  0  0  0  0  0  0  0  0  0  0
  150.3376  143.6106  157.0768 H   0  0  0  0  0  0  0  0  0  0  0  0
  149.9501  142.7135  158.5252 H   0  0  0  0  0  0  0  0  0  0  0  0
  151.1612  144.6473  159.2229 H   0  0  0  0  0  0  0  0  0  0  0  0
  152.2147  145.3701  157.1435 H   0  0  0  0  0  0  0  0  0  0  0  0
  153.3395  144.0241  157.1707 H   0  0  0  0  0  0  0  0  0  0  0  0
  153.4283  145.2710  158.4133 H   0  0  0  0  0  0  0  0  0  0  0  0
  153.9057  142.3009  158.5168 H   0  0  0  0  0  0  0  0  0  0  0  0
  154.3161  140.3911  160.0536 H   0  0  0  0  0  0  0  0  0  0  0  0
  153.0025  140.9342  161.0965 H   0  0  0  0  0  0  0  0  0  0  0  0
  154.4453  141.9276  160.9049 H   0  0  0  0  0  0  0  0  0  0  0  0
  151.3887  140.6583  159.1243 H   0  0  0  0  0  0  0  0  0  0  0  0
  152.6732  140.2319  158.0013 H   0  0  0  0  0  0  0  0  0  0  0  0
  147.8311  141.2442  154.8650 H   0  0  0  0  0  0  0  0  0  0  0  0
  1  2  1  0  0  0  0
  1 21  1  0  0  0  0
  1 22  1  0  0  0  0
  1 23  1  0  0  0  0
  2  3  1  0  0  0  0
  3  4  1  0  0  0  0
  3 24  1  0  0  0  0
  3 25  1  0  0  0  0
  4  5  2  0  0  0  0
  4  6  1  0  0  0  0
  6  7  1  0  0  0  0
  6 26  1  0  0  0  0
  7 20  1  0  0  0  0
  7  8  2  0  0  0  0
  8  9  1  0  0  0  0
  8 27  1  0  0  0  0
  9 10  2  0  0  0  0
  9 28  1  0  0  0  0
 10 11  1  0  0  0  0
 10 19  1  0  0  0  0
 11 18  1  0  0  0  0
 11 12  1  0  0  0  0
 12 13  1  0  0  0  0
 12 29  1  0  0  0  0
 12 30  1  0  0  0  0
 13 14  1  0  0  0  0
 13 15  1  0  0  0  0
 13 31  1  0  0  0  0
 14 32  1  0  0  0  0
 14 33  1  0  0  0  0
 14 34  1  0  0  0  0
 15 16  1  0  0  0  0
 16 17  1  0  0  0  0
 16 18  1  0  0  0  0
 16 35  1  0  0  0  0
 17 36  1  0  0  0  0
 17 37  1  0  0  0  0
 17 38  1  0  0  0  0
 18 39  1  0  0  0  0
 18 40  1  0  0  0  0
 19 20  2  0  0  0  0
 20 41  1  0  0  0  0
M  END
> <s_m_source_file>
AV-unprocessed.smi

> <i_m_source_file_index>
2036

> <i_lp_mmshare_version>
43012

> <i_f3d_flags>
0

> <s_epik_input>
W0NIM11PW0NIMl1DKD1PKVtOSF1jMVtjSF1bY0hdYyhuW2NIXTEpTjJbQ0gyXVtDQEBIXShbQ0gzXSlPW0NAQEhdKFtDSDNdKVtDSDJdMg==

> <s_epik_cmdline>
J2VwaWtfcHl0aG9uJywgJy1waCcsICc3LjAnLCAnLXRuJywgJzgnLCAnLW1hJywgJzIwMCcsICctbWV0YWxfYmluZGluZycsICctaW1hZScsICc8aW5maWxlLm1hZT4nLCAnLW9tYWUnLCAnPG91dGZpbGUubWFlPic=

> <r_lp_tautomer_probability>
1

> <r_epik_Ionization_Penalty>
0.000662619

> <r_epik_Ionization_Penalty_Charging>
0

> <r_epik_Ionization_Penalty_Neutral>
0.000662619

> <r_epik_State_Penalty>
0.000419321

> <r_epik_Charging_Adjusted_Penalty>
0.000419321

> <i_epik_Tot_Q>
0

> <i_epik_Tot_abs_Q>
0

> <r_epik_Metal_State_Penalty>
-0

> <b_epik_Metal_Only>
0

> <s_lp_Force_Field>
OPLS_2005

> <r_lp_Energy>
27.1062

> <b_lp_Chiralities_Consistent>
1

> <s_lp_Variant>
AV-unprocessed.smi:2036-2

> <Gold.Version>
5.8.1

> <Gold.Id.Protein>
6NUR|6NUR_protein|mol2

> <Gold.PLP.Fitness>
42.1746

> <Gold.PLP.PLP>
-41.7400

> <Gold.PLP.part.hbond>
-1.1253

> <Gold.PLP.part.metal>
0.0000

> <Gold.PLP.part.buried>
-2.3812

> <Gold.PLP.part.nonpolar>
-39.0211

> <Gold.PLP.part.repulsive>
0.9339

> <Gold.PLP.ligand.clash>
0.0000

> <Gold.PLP.ligand.torsion>
0.3612

> <Gold.PLP.Chemscore.Hbond>
0.2763

> <Gold.PLP.Chemscore.CHOScore>
0.0000

> <Gold.PLP.Chemscore.Metal>
0.0000

> <Gold.Chemscore.Hbonds>
donor molecule, donor type, donor heavy atom, donor atom, acceptor molecule, acceptor atom, score
      L1  H     6    26       P1  7948  0.28

> <Gold.PLP.Chemscore.Internal.Correction>
0.3282

> <Gold.Rescore>
     Score         DG    S(hbond)    S(metal)    S(lipo)     H(rot)  DE(clash)    DE(int)     intcor
     13.11     -16.56       0.71        0.00     105.36       1.41       1.72       1.73       ----

> <Gold.Chemscore.Fitness>
13.1121

> <Gold.Chemscore.DG>
-16.5634

> <Gold.Chemscore.ZeroCoef>
-5.4800

> <Gold.Chemscore.Hbond>
0.7064

> <Gold.Chemscore.Metal>
0.0000

> <Gold.Chemscore.Lipo>
105.3634

> <Gold.Chemscore.Internal_Hbond>
0.0000

> <Gold.Chemscore.DEClash>
1.7224

> <Gold.Chemscore.DEInternal>
1.7288

> <Gold.Chemscore.Rot>
1.4077

> <Gold.Chemscore.Internal.Correction>
   9.000000E+99

> <Gold.Chemscore.Hbonds>
donor molecule, donor type, donor heavy atom, donor atom, acceptor molecule, acceptor atom, score
      L1  H     6    26       P1  7948  0.27

> <Gold.Chemscore.Hbond.Weighted>
-2.3594

> <Gold.Chemscore.Metal.Weighted>
-0.0000

> <Gold.Chemscore.Lipo.Weighted>
-12.3275

> <Gold.Chemscore.Internal_Hbond.Weighted>
0.0000

> <Gold.Chemscore.DEClash.Weighted>
1.7224

> <Gold.Chemscore.DEInternal.Weighted>
1.7288

> <Gold.Chemscore.Rot.Weighted>
3.6036

> <Gold.Chemscore.Internal.Correction.Weighted>
   9.000000E+99

> <Gold.Protein.RotatedTorsions>
[ 6907 6896 6895 6894 ] final   85.12 input  -60.11 | X-H torsion
[ 7974 7965 7964 7962 ] final   96.61 input  175.53 | X-H torsion
[ 8008 7997 7996 7995 ] final  177.61 input   59.86 | X-H torsion
[ 10167 10162 10161 10158 ] final   -8.53 input  -65.29 | X-H torsion
[ 10718 10713 10712 10709 ] final  -31.31 input   66.30 | X-H torsion
[ 10763 10752 10751 10750 ] final  -55.90 input  -60.55 | X-H torsion
[ 11005 11000 10999 10996 ] final  113.07 input  -57.11 | X-H torsion

> <Gold.Protein.ActiveResidues>
 VAL166  LYS551  ARG553  GLY616  TRP617  ASP618  TYR619  PRO620  LYS621  CYS622 
 ASP623  PHE694  ASN695  SER759  ASP760  ASP761  ALA762  ILE779  LEU786  VAL792 
 PHE793  MET794  SER795  GLU796  ALA797  LYS798  CYS799  TRP800  GLU811  SER814 

> <Gold.Protein.RotatedAtoms>
  152.5368  134.2636  159.8944 H   0  0  0  0  0  0  0  0  0  0  0  0  # atno 6907 bound_to 6896
  151.2595  133.4302  159.2623 H   0  0  0  0  0  0  0  0  0  0  0  0  # atno 6908 bound_to 6896
  151.0466  134.9658  159.8246 H   0  0  0  0  0  0  0  0  0  0  0  0  # atno 6909 bound_to 6896
  145.4365  139.2305  143.3115 H   0  0  0  0  0  0  0  0  0  0  0  0  # atno 7974 bound_to 7965
  156.0638  140.1354  156.9910 H   0  0  0  0  0  0  0  0  0  0  0  0  # atno 8008 bound_to 7997
  154.4495  140.0986  156.6627 H   0  0  0  0  0  0  0  0  0  0  0  0  # atno 8009 bound_to 7997
  155.5336  140.3459  155.4433 H   0  0  0  0  0  0  0  0  0  0  0  0  # atno 8010 bound_to 7997
  140.7062  143.5958  150.8847 H   0  0  0  0  0  0  0  0  0  0  0  0  # atno 10167 bound_to 10162
  156.3888  130.4369  149.7411 H   0  0  0  0  0  0  0  0  0  0  0  0  # atno 10718 bound_to 10713
  154.1981  135.6415  153.5079 H   0  0  0  0  0  0  0  0  0  0  0  0  # atno 10763 bound_to 10752
  153.0018  135.5445  154.6344 H   0  0  0  0  0  0  0  0  0  0  0  0  # atno 10764 bound_to 10752
  154.5750  135.2920  155.0763 H   0  0  0  0  0  0  0  0  0  0  0  0  # atno 10765 bound_to 10752
  139.8943  134.9543  156.6683 H   0  0  0  0  0  0  0  0  0  0  0  0  # atno 11005 bound_to 11000
  146.2579  140.5108  142.8866 LP  0  0  0  0  0  0  0  0  0  0  0  0  # atno 17320 bound_to 7965
  144.8149  140.6450  143.6391 LP  0  0  0  0  0  0  0  0  0  0  0  0  # atno 17321 bound_to 7965
  139.9683  143.6085  152.2981 LP  0  0  0  0  0  0  0  0  0  0  0  0  # atno 17342 bound_to 10162
  139.6663  144.7662  151.1867 LP  0  0  0  0  0  0  0  0  0  0  0  0  # atno 17343 bound_to 10162
  156.4472  130.7889  151.2911 LP  0  0  0  0  0  0  0  0  0  0  0  0  # atno 17370 bound_to 10713
  157.7497  131.0106  150.3314 LP  0  0  0  0  0  0  0  0  0  0  0  0  # atno 17371 bound_to 10713
  140.7393  133.8991  155.8266 LP  0  0  0  0  0  0  0  0  0  0  0  0  # atno 17394 bound_to 11000
  141.0090  134.1046  157.4240 LP  0  0  0  0  0  0  0  0  0  0  0  0  # atno 17395 bound_to 11000

$$$$
