AV-unprocessed.smi:1574|AV-procd|sdf|6335|dock8
  -GOLD-   22720 6543D 1   1.00000     0.00000
 Structure written by MMmdl.
 40 41  0  0  0  0  0  0  0  0  1 V2000
  151.3906  144.9456  159.0120 C   0  0  0  0  0  0  0  0  0  0  0  0
  151.6208  143.6150  159.7462 C   0  0  2  0  0  0  0  0  0  0  0  0
  152.4928  143.8290  160.9998 C   0  0  0  0  0  0  0  0  0  0  0  0
  152.7429  142.5131  161.7520 C   0  0  0  0  0  0  0  0  0  0  0  0
  153.3778  141.4647  160.8288 C   0  0  0  0  0  0  0  0  0  0  0  0
  152.5115  141.2361  159.5830 C   0  0  0  0  0  0  0  0  0  0  0  0
  152.2479  142.5505  158.8178 C   0  0  1  0  0  0  0  0  0  0  0  0
  151.3282  142.2908  157.7661 O   0  0  0  0  0  0  0  0  0  0  0  0
  150.0551  141.8332  158.1985 C   0  0  0  0  0  0  0  0  0  0  0  0
  149.0396  142.0706  157.0714 C   0  0  0  0  0  0  0  0  0  0  0  0
  149.0972  141.0062  156.0756 N   0  0  0  0  0  0  0  0  0  0  0  0
  149.0969  141.1889  154.7459 C   0  0  0  0  0  0  0  0  0  0  0  0
  148.9681  142.2900  154.2119 O   0  0  0  0  0  0  0  0  0  0  0  0
  149.2869  139.9399  153.8855 C   0  0  0  0  0  0  0  0  0  0  0  0
  150.6491  139.4474  153.9766 N   0  0  0  0  0  0  0  0  0  0  0  0
  151.1968  138.3021  153.5651 C   0  0  0  0  0  0  0  0  0  0  0  0
  152.4892  138.2477  153.8485 N   0  0  0  0  0  0  0  0  0  0  0  0
  152.7234  139.4570  154.4817 N   0  0  0  0  0  0  0  0  0  0  0  0
  151.6349  140.1722  154.5622 N   0  0  0  0  0  0  0  0  0  0  0  0
  152.3280  145.3619  158.6417 H   0  0  0  0  0  0  0  0  0  0  0  0
  150.9363  145.6847  159.6727 H   0  0  0  0  0  0  0  0  0  0  0  0
  150.7238  144.8181  158.1590 H   0  0  0  0  0  0  0  0  0  0  0  0
  150.6484  143.2455  160.0762 H   0  0  0  0  0  0  0  0  0  0  0  0
  153.4490  144.2689  160.7129 H   0  0  0  0  0  0  0  0  0  0  0  0
  152.0139  144.5438  161.6697 H   0  0  0  0  0  0  0  0  0  0  0  0
  153.3894  142.6923  162.6115 H   0  0  0  0  0  0  0  0  0  0  0  0
  151.8006  142.1311  162.1469 H   0  0  0  0  0  0  0  0  0  0  0  0
  154.3732  141.7931  160.5280 H   0  0  0  0  0  0  0  0  0  0  0  0
  153.5086  140.5256  161.3670 H   0  0  0  0  0  0  0  0  0  0  0  0
  152.9925  140.4996  158.9401 H   0  0  0  0  0  0  0  0  0  0  0  0
  151.5592  140.8018  159.8841 H   0  0  0  0  0  0  0  0  0  0  0  0
  153.1843  142.9426  158.4156 H   0  0  0  0  0  0  0  0  0  0  0  0
  150.1156  140.7710  158.4379 H   0  0  0  0  0  0  0  0  0  0  0  0
  149.7298  142.3448  159.1044 H   0  0  0  0  0  0  0  0  0  0  0  0
  148.0302  142.1034  157.4821 H   0  0  0  0  0  0  0  0  0  0  0  0
  149.2169  143.0369  156.5967 H   0  0  0  0  0  0  0  0  0  0  0  0
  149.2033  140.0651  156.4259 H   0  0  0  0  0  0  0  0  0  0  0  0
  148.6035  139.1540  154.2099 H   0  0  0  0  0  0  0  0  0  0  0  0
  149.0536  140.1607  152.8428 H   0  0  0  0  0  0  0  0  0  0  0  0
  150.6534  137.5151  153.0635 H   0  0  0  0  0  0  0  0  0  0  0  0
  1  2  1  0  0  0  0
  1 20  1  0  0  0  0
  1 21  1  0  0  0  0
  1 22  1  0  0  0  0
  2  7  1  0  0  0  0
  2  3  1  0  0  0  0
  2 23  1  0  0  0  0
  3  4  1  0  0  0  0
  3 24  1  0  0  0  0
  3 25  1  0  0  0  0
  4  5  1  0  0  0  0
  4 26  1  0  0  0  0
  4 27  1  0  0  0  0
  5  6  1  0  0  0  0
  5 28  1  0  0  0  0
  5 29  1  0  0  0  0
  6  7  1  0  0  0  0
  6 30  1  0  0  0  0
  6 31  1  0  0  0  0
  7  8  1  0  0  0  0
  7 32  1  0  0  0  0
  8  9  1  0  0  0  0
  9 10  1  0  0  0  0
  9 33  1  0  0  0  0
  9 34  1  0  0  0  0
 10 11  1  0  0  0  0
 10 35  1  0  0  0  0
 10 36  1  0  0  0  0
 11 12  1  0  0  0  0
 11 37  1  0  0  0  0
 12 13  2  0  0  0  0
 12 14  1  0  0  0  0
 14 15  1  0  0  0  0
 14 38  1  0  0  0  0
 14 39  1  0  0  0  0
 15 19  1  0  0  0  0
 15 16  1  0  0  0  0
 16 17  2  0  0  0  0
 16 40  1  0  0  0  0
 17 18  1  0  0  0  0
 18 19  2  0  0  0  0
M  END
> <s_m_source_file>
AV-unprocessed.smi

> <i_m_source_file_index>
1574

> <i_lp_mmshare_version>
43012

> <i_f3d_flags>
0

> <s_epik_input>
W0NIM11bQ0BASF0xW0NIMl1bQ0gyXVtDSDJdW0NIMl1bQ0BIXTFPW0NIMl1bQ0gyXVtOSF1DKD1PKVtDSDJdbjJbY0hdbm5uMg==

> <s_epik_cmdline>
J2VwaWtfcHl0aG9uJywgJy1waCcsICc3LjAnLCAnLXRuJywgJzgnLCAnLW1hJywgJzIwMCcsICctbWV0YWxfYmluZGluZycsICctaW1hZScsICc8aW5maWxlLm1hZT4nLCAnLW9tYWUnLCAnPG91dGZpbGUubWFlPic=

> <r_lp_tautomer_probability>
1

> <r_epik_Ionization_Penalty>
1.44269e-06

> <r_epik_Ionization_Penalty_Charging>
0

> <r_epik_Ionization_Penalty_Neutral>
1.44269e-06

> <r_epik_State_Penalty>
-0

> <r_epik_Charging_Adjusted_Penalty>
0

> <i_epik_Tot_Q>
0

> <i_epik_Tot_abs_Q>
0

> <r_epik_Metal_State_Penalty>
-0

> <b_epik_Metal_Only>
0

> <s_lp_Force_Field>
OPLS_2005

> <r_lp_Energy>
11.219

> <b_lp_Chiralities_Consistent>
1

> <s_lp_Variant>
AV-unprocessed.smi:1574-1

> <Gold.Version>
5.8.1

> <Gold.Id.Protein>
6NUR|6NUR_protein|mol2

> <Gold.PLP.Fitness>
52.6797

> <Gold.PLP.PLP>
-44.3537

> <Gold.PLP.part.hbond>
-4.7081

> <Gold.PLP.part.metal>
0.0000

> <Gold.PLP.part.buried>
-6.1198

> <Gold.PLP.part.nonpolar>
-34.1357

> <Gold.PLP.part.repulsive>
0.3641

> <Gold.PLP.ligand.clash>
0.0000

> <Gold.PLP.ligand.torsion>
0.5360

> <Gold.PLP.Chemscore.Hbond>
2.1256

> <Gold.PLP.Chemscore.CHOScore>
0.9958

> <Gold.PLP.Chemscore.Metal>
0.0000

> <Gold.Chemscore.Hbonds>
donor molecule, donor type, donor heavy atom, donor atom, acceptor molecule, acceptor atom, score
      P1  H  7989  7998       L1    19  0.12
      P1  H  7997  8010       L1    18  0.06
      P1  H  8011  8017       L1    13  0.23
      L1  C    16    40       P1  7948  0.31
      L1  C    16    40       P1  7949  0.62

> <Gold.PLP.Chemscore.Internal.Correction>
0.0339

> <Gold.Rescore>
     Score         DG    S(hbond)    S(metal)    S(lipo)     H(rot)  DE(clash)    DE(int)     intcor
     15.20     -16.17       2.16        0.00      93.17       2.90       0.18       0.78       ----

> <Gold.Chemscore.Fitness>
15.2044

> <Gold.Chemscore.DG>
-16.1665

> <Gold.Chemscore.ZeroCoef>
-5.4800

> <Gold.Chemscore.Hbond>
2.1624

> <Gold.Chemscore.Metal>
0.0000

> <Gold.Chemscore.Lipo>
93.1685

> <Gold.Chemscore.Internal_Hbond>
0.0000

> <Gold.Chemscore.DEClash>
0.1819

> <Gold.Chemscore.DEInternal>
0.7802

> <Gold.Chemscore.Rot>
2.9050

> <Gold.Chemscore.Internal.Correction>
   9.000000E+99

> <Gold.Chemscore.Hbonds>
donor molecule, donor type, donor heavy atom, donor atom, acceptor molecule, acceptor atom, score
      P1  H  7997  8010       L1    18  0.09
      P1  H  8011  8017       L1    13  0.20

> <Gold.Chemscore.Hbond.Weighted>
-7.2225

> <Gold.Chemscore.Metal.Weighted>
-0.0000

> <Gold.Chemscore.Lipo.Weighted>
-10.9007

> <Gold.Chemscore.Internal_Hbond.Weighted>
0.0000

> <Gold.Chemscore.DEClash.Weighted>
0.1819

> <Gold.Chemscore.DEInternal.Weighted>
0.7802

> <Gold.Chemscore.Rot.Weighted>
7.4367

> <Gold.Chemscore.Internal.Correction.Weighted>
   9.000000E+99

> <Gold.Protein.RotatedTorsions>
[ 6907 6896 6895 6894 ] final -112.55 input  -60.11 | X-H torsion
[ 7974 7965 7964 7962 ] final  161.01 input  175.53 | X-H torsion
[ 8008 7997 7996 7995 ] final   90.99 input   59.86 | X-H torsion
[ 10167 10162 10161 10158 ] final  112.00 input  -65.29 | X-H torsion
[ 10718 10713 10712 10709 ] final   54.26 input   66.30 | X-H torsion
[ 10763 10752 10751 10750 ] final  169.53 input  -60.55 | X-H torsion
[ 11005 11000 10999 10996 ] final -141.94 input  -57.11 | X-H torsion

> <Gold.Protein.ActiveResidues>
 VAL166  LYS551  ARG553  GLY616  TRP617  ASP618  TYR619  PRO620  LYS621  CYS622 
 ASP623  PHE694  ASN695  SER759  ASP760  ASP761  ALA762  ILE779  LEU786  VAL792 
 PHE793  MET794  SER795  GLU796  ALA797  LYS798  CYS799  TRP800  GLU811  SER814 

> <Gold.Protein.RotatedAtoms>
  150.7766  133.9073  159.3358 H   0  0  0  0  0  0  0  0  0  0  0  0  # atno 6907 bound_to 6896
  151.6947  135.0938  160.0249 H   0  0  0  0  0  0  0  0  0  0  0  0  # atno 6908 bound_to 6896
  152.3804  133.6500  159.6192 H   0  0  0  0  0  0  0  0  0  0  0  0  # atno 6909 bound_to 6896
  144.7707  139.7837  143.6298 H   0  0  0  0  0  0  0  0  0  0  0  0  # atno 7974 bound_to 7965
  156.0186  140.3343  155.7014 H   0  0  0  0  0  0  0  0  0  0  0  0  # atno 8008 bound_to 7997
  155.6056  140.0660  157.2738 H   0  0  0  0  0  0  0  0  0  0  0  0  # atno 8009 bound_to 7997
  154.4307  140.1802  156.1206 H   0  0  0  0  0  0  0  0  0  0  0  0  # atno 8010 bound_to 7997
  139.6568  144.7129  151.1941 H   0  0  0  0  0  0  0  0  0  0  0  0  # atno 10167 bound_to 10162
  157.5241  130.8585  149.8598 H   0  0  0  0  0  0  0  0  0  0  0  0  # atno 10718 bound_to 10713
  154.3845  135.2753  155.2191 H   0  0  0  0  0  0  0  0  0  0  0  0  # atno 10763 bound_to 10752
  154.4284  135.5983  153.6057 H   0  0  0  0  0  0  0  0  0  0  0  0  # atno 10764 bound_to 10752
  152.9833  135.5989  154.4092 H   0  0  0  0  0  0  0  0  0  0  0  0  # atno 10765 bound_to 10752
  140.8274  134.2557  157.4872 H   0  0  0  0  0  0  0  0  0  0  0  0  # atno 11005 bound_to 11000
  146.1852  139.5063  142.9841 LP  0  0  0  0  0  0  0  0  0  0  0  0  # atno 17320 bound_to 7965
  145.6332  141.0300  143.1852 LP  0  0  0  0  0  0  0  0  0  0  0  0  # atno 17321 bound_to 7965
  140.7563  143.6059  150.8654 LP  0  0  0  0  0  0  0  0  0  0  0  0  # atno 17342 bound_to 10162
  139.9712  143.6054  152.2973 LP  0  0  0  0  0  0  0  0  0  0  0  0  # atno 17343 bound_to 10162
  156.0374  130.3747  150.1524 LP  0  0  0  0  0  0  0  0  0  0  0  0  # atno 17370 bound_to 10713
  156.9711  130.9835  151.3458 LP  0  0  0  0  0  0  0  0  0  0  0  0  # atno 17371 bound_to 10713
  139.8706  134.9568  156.4249 LP  0  0  0  0  0  0  0  0  0  0  0  0  # atno 17394 bound_to 11000
  140.9034  133.7763  155.9707 LP  0  0  0  0  0  0  0  0  0  0  0  0  # atno 17395 bound_to 11000

$$$$
