AV-unprocessed.smi:1205|AV-procd|sdf|5040|dock3
  -GOLD-   22720 4 63D 1   1.00000     0.00000
 Structure written by MMmdl.
 49 50  0  0  0  0  0  0  0  0  2 V2000
  148.9233  141.4909  154.7690 C   0  0  0  0  0  0  0  0  0  0  0  0
  149.6232  140.1680  154.6632 C   0  0  0  0  0  0  0  0  0  0  0  0
  149.0399  138.8705  154.5756 C   0  0  0  0  0  0  0  0  0  0  0  0
  150.1344  138.0528  154.5039 C   0  0  0  0  0  0  0  0  0  0  0  0
  150.1840  136.6971  154.4126 N   0  0  0  0  0  0  0  0  0  0  0  0
  149.1991  135.8051  154.6166 C   0  0  0  0  0  0  0  0  0  0  0  0
  148.0403  136.0762  154.9324 O   0  0  0  0  0  0  0  0  0  0  0  0
  149.6327  134.5513  154.4231 N   0  0  0  0  0  0  0  0  0  0  0  0
  148.8087  133.3542  154.5578 C   0  0  0  0  0  0  0  0  0  0  0  0
  149.1779  132.2595  153.5235 C   0  0  1  0  0  0  0  0  0  0  0  0
  149.9182  131.0677  154.1602 C   0  0  0  0  0  0  0  0  0  0  0  0
  148.0092  131.7879  152.7244 N   0  3  1  0  0  0  0  0  0  0  0  0
  147.2565  130.6440  153.3080 C   0  0  0  0  0  0  0  0  0  0  0  0
  146.2400  130.0915  152.2969 C   0  0  0  0  0  0  0  0  0  0  0  0
  145.2813  131.1940  151.8278 C   0  0  0  0  0  0  0  0  0  0  0  0
  146.0721  132.3867  151.2627 C   0  0  1  0  0  0  0  0  0  0  0  0
  145.1364  133.5157  150.8087 C   0  0  0  0  0  0  0  0  0  0  0  0
  147.0998  132.8858  152.2988 C   0  0  0  0  0  0  0  0  0  0  0  0
  151.2725  138.8271  154.5493 N   0  0  0  0  0  0  0  0  0  0  0  0
  152.6649  138.4240  154.5118 C   0  0  0  0  0  0  0  0  0  0  0  0
  150.9510  140.1350  154.6474 N   0  0  0  0  0  0  0  0  0  0  0  0
  147.8402  141.3661  154.7541 H   0  0  0  0  0  0  0  0  0  0  0  0
  149.1926  142.1457  153.9403 H   0  0  0  0  0  0  0  0  0  0  0  0
  149.1854  142.0003  155.6967 H   0  0  0  0  0  0  0  0  0  0  0  0
  147.9928  138.6077  154.5716 H   0  0  0  0  0  0  0  0  0  0  0  0
  151.0800  136.3184  154.1431 H   0  0  0  0  0  0  0  0  0  0  0  0
  150.6000  134.4149  154.1676 H   0  0  0  0  0  0  0  0  0  0  0  0
  148.9521  132.9844  155.5729 H   0  0  0  0  0  0  0  0  0  0  0  0
  147.7574  133.6333  154.4764 H   0  0  0  0  0  0  0  0  0  0  0  0
  149.8818  132.6934  152.8118 H   0  0  0  0  0  0  0  0  0  0  0  0
  150.8692  131.3784  154.5933 H   0  0  0  0  0  0  0  0  0  0  0  0
  150.1402  130.3015  153.4167 H   0  0  0  0  0  0  0  0  0  0  0  0
  149.3368  130.6030  154.9562 H   0  0  0  0  0  0  0  0  0  0  0  0
  147.9387  129.8454  153.5974 H   0  0  0  0  0  0  0  0  0  0  0  0
  146.7336  130.9604  154.2113 H   0  0  0  0  0  0  0  0  0  0  0  0
  146.7659  129.6712  151.4385 H   0  0  0  0  0  0  0  0  0  0  0  0
  145.6753  129.2737  152.7454 H   0  0  0  0  0  0  0  0  0  0  0  0
  144.6011  130.7977  151.0729 H   0  0  0  0  0  0  0  0  0  0  0  0
  144.6623  131.5206  152.6645 H   0  0  0  0  0  0  0  0  0  0  0  0
  146.6200  132.0425  150.3839 H   0  0  0  0  0  0  0  0  0  0  0  0
  144.5500  133.9045  151.6418 H   0  0  0  0  0  0  0  0  0  0  0  0
  144.4400  133.1650  150.0464 H   0  0  0  0  0  0  0  0  0  0  0  0
  145.6999  134.3459  150.3820 H   0  0  0  0  0  0  0  0  0  0  0  0
  146.5857  133.2990  153.1676 H   0  0  0  0  0  0  0  0  0  0  0  0
  147.6831  133.6969  151.8609 H   0  0  0  0  0  0  0  0  0  0  0  0
  152.8190  137.7029  153.7087 H   0  0  0  0  0  0  0  0  0  0  0  0
  152.9379  137.9650  155.4624 H   0  0  0  0  0  0  0  0  0  0  0  0
  153.3087  139.2870  154.3364 H   0  0  0  0  0  0  0  0  0  0  0  0
  148.4104  131.4393  151.8655 H   0  0  0  0  0  0  0  0  0  0  0  0
  1  2  1  0  0  0  0
  1 22  1  0  0  0  0
  1 23  1  0  0  0  0
  1 24  1  0  0  0  0
  2 21  2  0  0  0  0
  2  3  1  0  0  0  0
  3  4  2  0  0  0  0
  3 25  1  0  0  0  0
  4  5  1  0  0  0  0
  4 19  1  0  0  0  0
  5  6  1  0  0  0  0
  5 26  1  0  0  0  0
  6  7  2  0  0  0  0
  6  8  1  0  0  0  0
  8  9  1  0  0  0  0
  8 27  1  0  0  0  0
  9 10  1  0  0  0  0
  9 28  1  0  0  0  0
  9 29  1  0  0  0  0
 10 11  1  0  0  0  0
 10 12  1  0  0  0  0
 10 30  1  0  0  0  0
 11 31  1  0  0  0  0
 11 32  1  0  0  0  0
 11 33  1  0  0  0  0
 12 18  1  0  0  0  0
 12 13  1  0  0  0  0
 12 49  1  0  0  0  0
 13 14  1  0  0  0  0
 13 34  1  0  0  0  0
 13 35  1  0  0  0  0
 14 15  1  0  0  0  0
 14 36  1  0  0  0  0
 14 37  1  0  0  0  0
 15 16  1  0  0  0  0
 15 38  1  0  0  0  0
 15 39  1  0  0  0  0
 16 17  1  0  0  0  0
 16 18  1  0  0  0  0
 16 40  1  0  0  0  0
 17 41  1  0  0  0  0
 17 42  1  0  0  0  0
 17 43  1  0  0  0  0
 18 44  1  0  0  0  0
 18 45  1  0  0  0  0
 19 20  1  0  0  0  0
 19 21  1  0  0  0  0
 20 46  1  0  0  0  0
 20 47  1  0  0  0  0
 20 48  1  0  0  0  0
M  CHG  1  12   1
M  END
> <s_m_source_file>
AV-unprocessed.smi

> <i_m_source_file_index>
1205

> <i_lp_mmshare_version>
43012

> <i_f3d_flags>
0

> <s_epik_input>
W0NIM11jMVtjSF1jKG4objEpW0NIM10pW05IXUMoPU8pW05IXVtDSDJdW0NASF0oW0NIM10pTjJbQ0gyXVtDSDJdW0NIMl1bQ0BASF0oW0NIM10pW0NIMl0y

> <s_epik_cmdline>
J2VwaWtfcHl0aG9uJywgJy1waCcsICc3LjAnLCAnLXRuJywgJzgnLCAnLW1hJywgJzIwMCcsICctbWV0YWxfYmluZGluZycsICctaW1hZScsICc8aW5maWxlLm1hZT4nLCAnLW9tYWUnLCAnPG91dGZpbGUubWFlPic=

> <r_lp_tautomer_probability>
1

> <r_epik_Ionization_Penalty>
0.0020309

> <r_epik_Ionization_Penalty_Charging>
0.00195276

> <r_epik_Ionization_Penalty_Neutral>
7.81448e-05

> <r_epik_State_Penalty>
0.00133177

> <r_epik_Charging_Adjusted_Penalty>
0.00328452

> <i_epik_Tot_Q>
1

> <i_epik_Tot_abs_Q>
1

> <r_epik_Metal_State_Penalty>
-0

> <b_epik_Metal_Only>
0

> <s_lp_Force_Field>
OPLS_2005

> <r_lp_Energy>
21.6269

> <b_lp_Chiralities_Consistent>
1

> <s_lp_Variant>
AV-unprocessed.smi:1205-2

> <Gold.Version>
5.8.1

> <Gold.Id.Protein>
6NUR|6NUR_protein|mol2

> <Gold.PLP.Fitness>
44.5065

> <Gold.PLP.PLP>
-41.0271

> <Gold.PLP.part.hbond>
-4.2904

> <Gold.PLP.part.metal>
0.0000

> <Gold.PLP.part.buried>
-2.5089

> <Gold.PLP.part.nonpolar>
-34.5264

> <Gold.PLP.part.repulsive>
0.4083

> <Gold.PLP.ligand.clash>
0.0000

> <Gold.PLP.ligand.torsion>
1.3209

> <Gold.PLP.Chemscore.Hbond>
2.0000

> <Gold.PLP.Chemscore.CHOScore>
0.0000

> <Gold.PLP.Chemscore.Metal>
0.0000

> <Gold.Chemscore.Hbonds>
donor molecule, donor type, donor heavy atom, donor atom, acceptor molecule, acceptor atom, score
      L1  H    12    49       P1 10747  1.00
      P1  H  7989  7998       L1    21  0.99

> <Gold.PLP.Chemscore.Internal.Correction>
0.1213

> <Gold.Rescore>
     Score         DG    S(hbond)    S(metal)    S(lipo)     H(rot)  DE(clash)    DE(int)     intcor
     14.64     -18.39       1.79        0.00      91.28       1.47       1.56       2.18       ----

> <Gold.Chemscore.Fitness>
14.6437

> <Gold.Chemscore.DG>
-18.3869

> <Gold.Chemscore.ZeroCoef>
-5.4800

> <Gold.Chemscore.Hbond>
1.7903

> <Gold.Chemscore.Metal>
0.0000

> <Gold.Chemscore.Lipo>
91.2808

> <Gold.Chemscore.Internal_Hbond>
0.0000

> <Gold.Chemscore.DEClash>
1.5611

> <Gold.Chemscore.DEInternal>
2.1821

> <Gold.Chemscore.Rot>
1.4658

> <Gold.Chemscore.Internal.Correction>
   9.000000E+99

> <Gold.Chemscore.Hbonds>
donor molecule, donor type, donor heavy atom, donor atom, acceptor molecule, acceptor atom, score
      L1  H    12    49       P1 10747  1.00
      P1  H  7989  7998       L1    21  0.56

> <Gold.Chemscore.Hbond.Weighted>
-5.9796

> <Gold.Chemscore.Metal.Weighted>
-0.0000

> <Gold.Chemscore.Lipo.Weighted>
-10.6799

> <Gold.Chemscore.Internal_Hbond.Weighted>
0.0000

> <Gold.Chemscore.DEClash.Weighted>
1.5611

> <Gold.Chemscore.DEInternal.Weighted>
2.1821

> <Gold.Chemscore.Rot.Weighted>
3.7526

> <Gold.Chemscore.Internal.Correction.Weighted>
   9.000000E+99

> <Gold.Protein.RotatedTorsions>
[ 6907 6896 6895 6894 ] final   88.92 input  -60.11 | X-H torsion
[ 7974 7965 7964 7962 ] final  -16.09 input  175.53 | X-H torsion
[ 8008 7997 7996 7995 ] final   -0.29 input   59.86 | X-H torsion
[ 10167 10162 10161 10158 ] final  165.18 input  -65.29 | X-H torsion
[ 10718 10713 10712 10709 ] final  124.98 input   66.30 | X-H torsion
[ 10763 10752 10751 10750 ] final -126.45 input  -60.55 | X-H torsion
[ 11005 11000 10999 10996 ] final   83.12 input  -57.11 | X-H torsion

> <Gold.Protein.ActiveResidues>
 VAL166  LYS551  ARG553  GLY616  TRP617  ASP618  TYR619  PRO620  LYS621  CYS622 
 ASP623  PHE694  ASN695  SER759  ASP760  ASP761  ALA762  ILE779  LEU786  VAL792 
 PHE793  MET794  SER795  GLU796  ALA797  LYS798  CYS799  TRP800  GLU811  SER814 

> <Gold.Protein.RotatedAtoms>
  152.5431  134.2046  159.8725 H   0  0  0  0  0  0  0  0  0  0  0  0  # atno 6907 bound_to 6896
  151.2033  133.4591  159.2604 H   0  0  0  0  0  0  0  0  0  0  0  0  # atno 6908 bound_to 6896
  151.0968  134.9961  159.8485 H   0  0  0  0  0  0  0  0  0  0  0  0  # atno 6909 bound_to 6896
  146.2003  140.3587  142.8426 H   0  0  0  0  0  0  0  0  0  0  0  0  # atno 7974 bound_to 7965
  154.6598  140.2588  155.7122 H   0  0  0  0  0  0  0  0  0  0  0  0  # atno 8008 bound_to 7997
  156.2613  140.2851  156.0987 H   0  0  0  0  0  0  0  0  0  0  0  0  # atno 8009 bound_to 7997
  155.1326  140.0379  157.2769 H   0  0  0  0  0  0  0  0  0  0  0  0  # atno 8010 bound_to 7997
  139.4901  144.4158  151.9245 H   0  0  0  0  0  0  0  0  0  0  0  0  # atno 10167 bound_to 10162
  157.5540  131.1093  150.8653 H   0  0  0  0  0  0  0  0  0  0  0  0  # atno 10718 bound_to 10713
  154.8745  135.3995  154.3434 H   0  0  0  0  0  0  0  0  0  0  0  0  # atno 10763 bound_to 10752
  153.4230  135.7023  153.6287 H   0  0  0  0  0  0  0  0  0  0  0  0  # atno 10764 bound_to 10752
  153.4941  135.3742  155.2477 H   0  0  0  0  0  0  0  0  0  0  0  0  # atno 10765 bound_to 10752
  139.9041  134.8121  156.2266 H   0  0  0  0  0  0  0  0  0  0  0  0  # atno 11005 bound_to 11000
  144.8669  140.7218  143.6072 LP  0  0  0  0  0  0  0  0  0  0  0  0  # atno 17320 bound_to 7965
  145.3506  139.1707  143.4436 LP  0  0  0  0  0  0  0  0  0  0  0  0  # atno 17321 bound_to 7965
  140.3601  144.2984  150.5935 LP  0  0  0  0  0  0  0  0  0  0  0  0  # atno 17342 bound_to 10162
  140.5410  143.2223  151.8084 LP  0  0  0  0  0  0  0  0  0  0  0  0  # atno 17343 bound_to 10162
  156.9170  130.5301  149.5279 LP  0  0  0  0  0  0  0  0  0  0  0  0  # atno 17370 bound_to 10713
  156.0602  130.5656  150.9177 LP  0  0  0  0  0  0  0  0  0  0  0  0  # atno 17371 bound_to 10713
  141.0372  133.6957  156.1533 LP  0  0  0  0  0  0  0  0  0  0  0  0  # atno 17394 bound_to 11000
  140.7009  134.4565  157.5586 LP  0  0  0  0  0  0  0  0  0  0  0  0  # atno 17395 bound_to 11000

$$$$
