AV-unprocessed.smi:1965|AV-procd|sdf|7944|dock4
  -GOLD-   2272010113D 1   1.00000     0.00000
 Structure written by MMmdl.
 36 38  0  0  0  0  0  0  0  0  3 V2000
  150.1811  134.0816  156.4441 O   0  0  0  0  0  0  0  0  0  0  0  0
  150.3335  134.9149  155.5523 C   0  0  0  0  0  0  0  0  0  0  0  0
  151.3060  135.8634  155.5676 N   0  5  0  0  0  0  0  0  0  0  0  0
  151.0522  137.1624  155.3217 C   0  0  0  0  0  0  0  0  0  0  0  0
  150.1628  137.5744  154.4106 N   0  0  0  0  0  0  0  0  0  0  0  0
  150.0537  138.9638  154.3296 C   0  0  0  0  0  0  0  0  0  0  0  0
  150.8792  139.6254  155.1995 C   0  0  0  0  0  0  0  0  0  0  0  0
  151.8284  138.5165  156.1476 S   0  0  0  0  0  0  0  0  0  0  0  0
  149.5002  134.8971  154.4960 N   0  0  0  0  0  0  0  0  0  0  0  0
  148.3861  133.9802  154.2817 C   0  0  2  0  0  0  0  0  0  0  0  0
  148.5995  133.0151  153.0954 C   0  0  0  0  0  0  0  0  0  0  0  0
  147.2880  133.0615  152.3050 C   0  0  0  0  0  0  0  0  0  0  0  0
  146.8012  134.4254  152.5447 N   0  3  1  0  0  0  0  0  0  0  0  0
  145.4163  134.7537  152.1482 C   0  0  0  0  0  0  0  0  0  0  0  0
  145.1870  136.2662  152.3574 C   0  0  0  0  0  0  0  0  0  0  0  0
  145.5614  136.7220  153.7858 C   0  0  0  0  0  0  0  0  0  0  0  0
  146.9762  136.2489  154.1797 C   0  0  0  0  0  0  0  0  0  0  0  0
  147.0753  134.7276  153.9594 C   0  0  2  0  0  0  0  0  0  0  0  0
  149.3620  139.3971  153.6225 H   0  0  0  0  0  0  0  0  0  0  0  0
  150.9905  140.6904  155.3369 H   0  0  0  0  0  0  0  0  0  0  0  0
  149.6563  135.5936  153.7820 H   0  0  0  0  0  0  0  0  0  0  0  0
  148.2362  133.4070  155.1986 H   0  0  0  0  0  0  0  0  0  0  0  0
  149.4144  133.3679  152.4609 H   0  0  0  0  0  0  0  0  0  0  0  0
  148.8523  132.0051  153.4195 H   0  0  0  0  0  0  0  0  0  0  0  0
  147.4288  132.8583  151.2429 H   0  0  0  0  0  0  0  0  0  0  0  0
  146.5741  132.3396  152.7052 H   0  0  0  0  0  0  0  0  0  0  0  0
  145.2614  134.4908  151.1013 H   0  0  0  0  0  0  0  0  0  0  0  0
  144.7089  134.1686  152.7378 H   0  0  0  0  0  0  0  0  0  0  0  0
  145.7910  136.8213  151.6382 H   0  0  0  0  0  0  0  0  0  0  0  0
  144.1482  136.5198  152.1443 H   0  0  0  0  0  0  0  0  0  0  0  0
  145.4944  137.8076  153.8630 H   0  0  0  0  0  0  0  0  0  0  0  0
  144.8360  136.3183  154.4934 H   0  0  0  0  0  0  0  0  0  0  0  0
  147.7212  136.7726  153.5785 H   0  0  0  0  0  0  0  0  0  0  0  0
  147.1782  136.4977  155.2222 H   0  0  0  0  0  0  0  0  0  0  0  0
  146.2929  134.2490  154.5529 H   0  0  0  0  0  0  0  0  0  0  0  0
  147.4094  135.0280  152.0088 H   0  0  0  0  0  0  0  0  0  0  0  0
  1  2  2  0  0  0  0
  2  3  1  0  0  0  0
  2  9  1  0  0  0  0
  3  4  1  0  0  0  0
  4  8  1  0  0  0  0
  4  5  2  0  0  0  0
  5  6  1  0  0  0  0
  6  7  2  0  0  0  0
  6 19  1  0  0  0  0
  7  8  1  0  0  0  0
  7 20  1  0  0  0  0
  9 10  1  0  0  0  0
  9 21  1  0  0  0  0
 10 18  1  0  0  0  0
 10 11  1  0  0  0  0
 10 22  1  0  0  0  0
 11 12  1  0  0  0  0
 11 23  1  0  0  0  0
 11 24  1  0  0  0  0
 12 13  1  0  0  0  0
 12 25  1  0  0  0  0
 12 26  1  0  0  0  0
 13 18  1  0  0  0  0
 13 14  1  0  0  0  0
 13 36  1  0  0  0  0
 14 15  1  0  0  0  0
 14 27  1  0  0  0  0
 14 28  1  0  0  0  0
 15 16  1  0  0  0  0
 15 29  1  0  0  0  0
 15 30  1  0  0  0  0
 16 17  1  0  0  0  0
 16 31  1  0  0  0  0
 16 32  1  0  0  0  0
 17 18  1  0  0  0  0
 17 33  1  0  0  0  0
 17 34  1  0  0  0  0
 18 35  1  0  0  0  0
M  CHG  1   3  -1
M  CHG  1  13   1
M  END
> <s_m_source_file>
AV-unprocessed.smi

> <i_m_source_file_index>
1965

> <i_lp_mmshare_version>
43012

> <i_f3d_flags>
0

> <s_epik_input>
czFbY0hdW2NIXW5jMVtOSF1DKD1PKVtOSF1bQ0BIXShbQ0gyXVtDSDJdMilbQ0BASF0oTjIzKVtDSDJdW0NIMl1bQ0gyXVtDSDJdMw==

> <s_epik_cmdline>
J2VwaWtfcHl0aG9uJywgJy1waCcsICc3LjAnLCAnLXRuJywgJzgnLCAnLW1hJywgJzIwMCcsICctbWV0YWxfYmluZGluZycsICctaW1hZScsICc8aW5maWxlLm1hZT4nLCAnLW9tYWUnLCAnPG91dGZpbGUubWFlPic=

> <r_lp_tautomer_probability>
1

> <r_epik_Ionization_Penalty>
7.4116

> <r_epik_Ionization_Penalty_Charging>
6.13869

> <r_epik_Ionization_Penalty_Neutral>
1.27291

> <r_epik_State_Penalty>
6.13761

> <r_epik_Charging_Adjusted_Penalty>
12.2763

> <i_epik_Tot_Q>
0

> <i_epik_Tot_abs_Q>
2

> <r_epik_Metal_State_Penalty>
2.08142

> <b_epik_Metal_Only>
1

> <s_lp_Force_Field>
OPLS_2005

> <r_lp_Energy>
32.5811

> <b_lp_Chiralities_Consistent>
1

> <s_lp_Variant>
AV-unprocessed.smi:1965-13

> <Gold.Version>
5.8.1

> <Gold.Id.Protein>
6NUR|6NUR_protein|mol2

> <Gold.PLP.Fitness>
39.9443

> <Gold.PLP.PLP>
-24.2051

> <Gold.PLP.part.hbond>
-3.0000

> <Gold.PLP.part.metal>
0.0000

> <Gold.PLP.part.buried>
-1.3286

> <Gold.PLP.part.nonpolar>
-21.0868

> <Gold.PLP.part.repulsive>
0.9002

> <Gold.PLP.ligand.clash>
0.0000

> <Gold.PLP.ligand.torsion>
0.7550

> <Gold.PLP.Chemscore.Hbond>
4.7455

> <Gold.PLP.Chemscore.CHOScore>
1.0000

> <Gold.PLP.Chemscore.Metal>
0.0000

> <Gold.Chemscore.Hbonds>
donor molecule, donor type, donor heavy atom, donor atom, acceptor molecule, acceptor atom, score
      L1  H     9    21       P1  7948  0.63
      L1  H    13    36       P1  7948  2.00
      P1  H 10752 10764       L1     3  2.00
      L1  C     6    19       P1  7957  0.94

> <Gold.PLP.Chemscore.Internal.Correction>
0.0128

> <Gold.Rescore>
     Score         DG    S(hbond)    S(metal)    S(lipo)     H(rot)  DE(clash)    DE(int)     intcor
     14.71     -15.48       2.03        0.00      49.29       1.00       0.01       0.76       ----

> <Gold.Chemscore.Fitness>
14.7106

> <Gold.Chemscore.DG>
-15.4819

> <Gold.Chemscore.ZeroCoef>
-5.4800

> <Gold.Chemscore.Hbond>
2.0346

> <Gold.Chemscore.Metal>
0.0000

> <Gold.Chemscore.Lipo>
49.2851

> <Gold.Chemscore.Internal_Hbond>
0.0000

> <Gold.Chemscore.DEClash>
0.0129

> <Gold.Chemscore.DEInternal>
0.7584

> <Gold.Chemscore.Rot>
1.0000

> <Gold.Chemscore.Internal.Correction>
   9.000000E+99

> <Gold.Chemscore.Hbonds>
donor molecule, donor type, donor heavy atom, donor atom, acceptor molecule, acceptor atom, score
      L1  H     9    21       P1  7948  0.12
      L1  H    13    36       P1  7948  0.91
      P1  H 10752 10764       L1     3  0.39

> <Gold.Chemscore.Hbond.Weighted>
-6.7955

> <Gold.Chemscore.Metal.Weighted>
-0.0000

> <Gold.Chemscore.Lipo.Weighted>
-5.7664

> <Gold.Chemscore.Internal_Hbond.Weighted>
0.0000

> <Gold.Chemscore.DEClash.Weighted>
0.0129

> <Gold.Chemscore.DEInternal.Weighted>
0.7584

> <Gold.Chemscore.Rot.Weighted>
2.5600

> <Gold.Chemscore.Internal.Correction.Weighted>
   9.000000E+99

> <Gold.Protein.RotatedTorsions>
[ 6907 6896 6895 6894 ] final  -82.78 input  -60.11 | X-H torsion
[ 7974 7965 7964 7962 ] final -177.66 input  175.53 | X-H torsion
[ 8008 7997 7996 7995 ] final  121.54 input   59.86 | X-H torsion
[ 10167 10162 10161 10158 ] final  -85.72 input  -65.29 | X-H torsion
[ 10718 10713 10712 10709 ] final   30.86 input   66.30 | X-H torsion
[ 10763 10752 10751 10750 ] final  -56.40 input  -60.55 | X-H torsion
[ 11005 11000 10999 10996 ] final  -21.29 input  -57.11 | X-H torsion

> <Gold.Protein.ActiveResidues>
 VAL166  LYS551  ARG553  GLY616  TRP617  ASP618  TYR619  PRO620  LYS621  CYS622 
 ASP623  PHE694  ASN695  SER759  ASP760  ASP761  ALA762  ILE779  LEU786  VAL792 
 PHE793  MET794  SER795  GLU796  ALA797  LYS798  CYS799  TRP800  GLU811  SER814 

> <Gold.Protein.RotatedAtoms>
  150.6893  134.3613  159.4951 H   0  0  0  0  0  0  0  0  0  0  0  0  # atno 6907 bound_to 6896
  152.1441  134.9037  160.0561 H   0  0  0  0  0  0  0  0  0  0  0  0  # atno 6908 bound_to 6896
  152.0159  133.3845  159.4275 H   0  0  0  0  0  0  0  0  0  0  0  0  # atno 6909 bound_to 6896
  144.7128  140.0985  143.6417 H   0  0  0  0  0  0  0  0  0  0  0  0  # atno 7974 bound_to 7965
  156.2691  140.2806  156.1324 H   0  0  0  0  0  0  0  0  0  0  0  0  # atno 8008 bound_to 7997
  155.1040  140.0390  157.2722 H   0  0  0  0  0  0  0  0  0  0  0  0  # atno 8009 bound_to 7997
  154.6793  140.2605  155.6930 H   0  0  0  0  0  0  0  0  0  0  0  0  # atno 8010 bound_to 7997
  140.4010  143.2662  151.9142 H   0  0  0  0  0  0  0  0  0  0  0  0  # atno 10167 bound_to 10162
  157.2651  130.7180  149.6474 H   0  0  0  0  0  0  0  0  0  0  0  0  # atno 10718 bound_to 10713
  154.2060  135.6403  153.5101 H   0  0  0  0  0  0  0  0  0  0  0  0  # atno 10763 bound_to 10752
  153.0001  135.5463  154.6265 H   0  0  0  0  0  0  0  0  0  0  0  0  # atno 10764 bound_to 10752
  154.5690  135.2915  155.0819 H   0  0  0  0  0  0  0  0  0  0  0  0  # atno 10765 bound_to 10752
  140.8546  133.7831  156.0005 H   0  0  0  0  0  0  0  0  0  0  0  0  # atno 11005 bound_to 11000
  145.9558  139.2765  143.1185 LP  0  0  0  0  0  0  0  0  0  0  0  0  # atno 17320 bound_to 7965
  145.9274  140.9073  143.0374 LP  0  0  0  0  0  0  0  0  0  0  0  0  # atno 17321 bound_to 7965
  139.4785  144.5633  151.8205 LP  0  0  0  0  0  0  0  0  0  0  0  0  # atno 17342 bound_to 10162
  140.4739  144.1547  150.5922 LP  0  0  0  0  0  0  0  0  0  0  0  0  # atno 17343 bound_to 10162
  155.9663  130.4385  150.5221 LP  0  0  0  0  0  0  0  0  0  0  0  0  # atno 17370 bound_to 10713
  157.3133  131.0668  151.1985 LP  0  0  0  0  0  0  0  0  0  0  0  0  # atno 17371 bound_to 10713
  140.8751  134.2679  157.5172 LP  0  0  0  0  0  0  0  0  0  0  0  0  # atno 17394 bound_to 11000
  139.8705  134.9587  156.4308 LP  0  0  0  0  0  0  0  0  0  0  0  0  # atno 17395 bound_to 11000

$$$$
