#       Name:                AV-unprocessed.smi:2839
#       Creating user name   scv26
#       Creation time:       Fri Mar 27 15:37:50 2020


#       File generated by GOLD software.
#

@<TRIPOS>MOLECULE
AV-unprocessed.smi:2839
    37    38     1
SMALL
NO_CHARGES


@<TRIPOS>ATOM
      1 ****        -4.8854   0.3348  -2.4600 C.3            1 S1                 0.0000
      2 ****        -3.5253   0.8325  -2.2993 N.am           1 S1                 0.0000
      3 ****        -3.1604   2.1352  -2.5505 C.2            1 S1                 0.0000
      4 ****        -1.9016   2.3273  -2.3500 N.2            1 S1                 0.0000
      5 ****        -1.4652   1.1004  -1.9591 N.am           1 S1                 0.0000
      6 ****        -0.0538   0.9156  -1.6170 C.3            1 S1                 0.0000
      7 ****         0.1971   0.8145  -0.1062 C.2            1 S1                 0.0000
      8 ****        -0.6377   1.2203   0.7039 O.2            1 S1                 0.0000
      9 ****         1.3716   0.2779   0.2573 N.am           1 S1                 0.0000
     10 ****         1.8174   0.0865   1.6350 C.3            1 S1                 0.0000
     11 ****         3.3480  -0.0815   1.6976 C.3            1 S1                 0.0000
     12 ****         3.6049  -1.3173   2.5620 C.3            1 S1                 0.0000
     13 ****         2.3750  -2.1927   2.3449 C.3            1 S1                 0.0000
     14 ****         1.2201  -1.1959   2.2484 C.3            1 S1                 0.0000
     15 ****        -2.4331   0.1732  -1.9291 C.2            1 S1                 0.0000
     16 ****        -2.3334  -1.0163  -1.6290 O.2            1 S1                 0.0000
     17 ****        -5.6180   1.1426  -2.4272 H              1 S1                 0.0000
     18 ****        -5.1330  -0.3710  -1.6660 H              1 S1                 0.0000
     19 ****        -4.9869  -0.1796  -3.4161 H              1 S1                 0.0000
     20 ****        -3.9123   2.8550  -2.8783 H              1 S1                 0.0000
     21 ****         0.3134   0.0115  -2.1056 H              1 S1                 0.0000
     22 ****         0.5375   1.7427  -2.0126 H              1 S1                 0.0000
     23 ****         2.0008  -0.0254  -0.4717 H              1 S1                 0.0000
     24 ****         1.5231   0.9485   2.2369 H              1 S1                 0.0000
     25 ****         3.7582  -0.2552   0.7015 H              1 S1                 0.0000
     26 ****         3.8428   0.8040   2.0977 H              1 S1                 0.0000
     27 ****         4.5340  -1.8258   2.3032 H              1 S1                 0.0000
     28 ****         3.6656  -1.0262   3.6114 H              1 S1                 0.0000
     29 ****         2.4715  -2.7358   1.4037 H              1 S1                 0.0000
     30 ****         2.2330  -2.9243   3.1407 H              1 S1                 0.0000
     31 ****         0.8525  -0.9746   3.2511 H              1 S1                 0.0000
     32 ****         0.3790  -1.5999   1.6830 H              1 S1                 0.0000
     33 ****        -1.3755   3.1711  -2.4559 LP             1 S1                 0.0000
     34 ****        -1.4940   1.6228   0.3802 LP             1 S1                 0.0000
     35 ****        -0.4590   1.1471   1.6851 LP             1 S1                 0.0000
     36 ****        -3.1406  -1.6063  -1.6486 LP             1 S1                 0.0000
     37 ****        -1.4452  -1.3928  -1.3656 LP             1 S1                 0.0000
@<TRIPOS>BOND
    1    1    2 1     
    2    1   17 1     
    3    1   18 1     
    4    1   19 1     
    5    2   15 am    
    6    2    3 1     
    7    3    4 2     
    8    3   20 1     
    9    4    5 1     
   10    5    6 1     
   11    5   15 am    
   12    6    7 1     
   13    6   21 1     
   14    6   22 1     
   15    7    8 2     
   16    7    9 am    
   17    9   10 1     
   18    9   23 1     
   19   10   14 1     
   20   10   11 1     
   21   10   24 1     
   22   11   12 1     
   23   11   25 1     
   24   11   26 1     
   25   12   13 1     
   26   12   27 1     
   27   12   28 1     
   28   13   14 1     
   29   13   29 1     
   30   13   30 1     
   31   14   31 1     
   32   14   32 1     
   33   15   16 2     
   34    4   33 1     
   35    8   34 1     
   36    8   35 1     
   37   16   36 1     
   38   16   37 1     
@<TRIPOS>SUBSTRUCTURE
      1 S1             1
@<TRIPOS>SET
LONE_PAIRS      STATIC     ATOMS    <user>   **** ""
5 33 34 35 36 37
DONOR_HYDROGENS      STATIC     ATOMS    <user>   **** ""
1 23
ATOM$BLUE        STATIC     ATOMS    COLORGROUP SYSTEM
5 33 34 35 36 37
ATOM$RED        STATIC     ATOMS    COLORGROUP SYSTEM
1 23
