AV-unprocessed.smi:2594|AV-procd|sdf|10166|dock3
  -GOLD-   2272014183D 1   1.00000     0.00000
 Structure written by MMmdl.
 29 30  0  0  0  0  0  0  0  0  1 V2000
  147.4303  145.5668  161.9160 O   0  0  0  0  0  0  0  0  0  0  0  0
  147.4118  145.4494  160.6897 C   0  0  0  0  0  0  0  0  0  0  0  0
  146.1048  145.6222  159.9046 C   0  0  0  0  0  0  0  0  0  0  0  0
  145.0634  144.6808  160.3180 N   0  0  0  0  0  0  0  0  0  0  0  0
  143.7650  145.0768  160.2289 N   0  0  0  0  0  0  0  0  0  0  0  0
  142.9667  144.1625  160.6395 C   0  0  0  0  0  0  0  0  0  0  0  0
  143.7188  142.6619  161.1967 S   0  0  0  0  0  0  0  0  0  0  0  0
  145.2977  143.4001  160.8115 C   0  0  0  0  0  0  0  0  0  0  0  0
  146.3735  142.8274  160.9769 O   0  0  0  0  0  0  0  0  0  0  0  0
  148.5072  145.1851  159.9618 N   0  0  0  0  0  0  0  0  0  0  0  0
  149.8399  144.9598  160.5093 C   0  0  0  0  0  0  0  0  0  0  0  0
  150.6546  143.9972  159.6291 C   0  0  2  0  0  0  0  0  0  0  0  0
  151.9823  143.5697  160.2485 C   0  0  0  0  0  0  0  0  0  0  0  0
  152.7633  143.1516  159.0234 C   0  0  0  0  0  0  0  0  0  0  0  0
  152.3129  144.1822  157.9901 C   0  0  0  0  0  0  0  0  0  0  0  0
  151.0217  144.6242  158.4033 O   0  0  0  0  0  0  0  0  0  0  0  0
  145.7577  146.6489  160.0308 H   0  0  0  0  0  0  0  0  0  0  0  0
  146.2976  145.4907  158.8386 H   0  0  0  0  0  0  0  0  0  0  0  0
  141.8793  144.2264  160.6753 H   0  0  0  0  0  0  0  0  0  0  0  0
  148.4067  145.1084  158.9601 H   0  0  0  0  0  0  0  0  0  0  0  0
  150.3495  145.9206  160.5861 H   0  0  0  0  0  0  0  0  0  0  0  0
  149.7610  144.5688  161.5249 H   0  0  0  0  0  0  0  0  0  0  0  0
  150.0728  143.1044  159.3927 H   0  0  0  0  0  0  0  0  0  0  0  0
  152.4722  144.4147  160.7347 H   0  0  0  0  0  0  0  0  0  0  0  0
  151.8719  142.7686  160.9800 H   0  0  0  0  0  0  0  0  0  0  0  0
  153.8420  143.1477  159.1812 H   0  0  0  0  0  0  0  0  0  0  0  0
  152.4593  142.1510  158.7122 H   0  0  0  0  0  0  0  0  0  0  0  0
  152.9858  145.0403  157.9844 H   0  0  0  0  0  0  0  0  0  0  0  0
  152.2852  143.7675  156.9824 H   0  0  0  0  0  0  0  0  0  0  0  0
  1  2  2  0  0  0  0
  2  3  1  0  0  0  0
  2 10  1  0  0  0  0
  3  4  1  0  0  0  0
  3 17  1  0  0  0  0
  3 18  1  0  0  0  0
  4  8  1  0  0  0  0
  4  5  1  0  0  0  0
  5  6  2  0  0  0  0
  6  7  1  0  0  0  0
  6 19  1  0  0  0  0
  7  8  1  0  0  0  0
  8  9  2  0  0  0  0
 10 11  1  0  0  0  0
 10 20  1  0  0  0  0
 11 12  1  0  0  0  0
 11 21  1  0  0  0  0
 11 22  1  0  0  0  0
 12 16  1  0  0  0  0
 12 13  1  0  0  0  0
 12 23  1  0  0  0  0
 13 14  1  0  0  0  0
 13 24  1  0  0  0  0
 13 25  1  0  0  0  0
 14 15  1  0  0  0  0
 14 26  1  0  0  0  0
 14 27  1  0  0  0  0
 15 16  1  0  0  0  0
 15 28  1  0  0  0  0
 15 29  1  0  0  0  0
M  END
> <s_m_source_file>
AV-unprocessed.smi

> <i_m_source_file_index>
2594

> <i_lp_mmshare_version>
43012

> <i_f3d_flags>
0

> <s_epik_input>
TzFbQ0gyXVtDSDJdW0NIMl1bQ0BIXTFbQ0gyXVtOSF1DKD1PKVtDSDJdbjJuW2NIXXNjMj1P

> <s_epik_cmdline>
J2VwaWtfcHl0aG9uJywgJy1waCcsICc3LjAnLCAnLXRuJywgJzgnLCAnLW1hJywgJzIwMCcsICctbWV0YWxfYmluZGluZycsICctaW1hZScsICc8aW5maWxlLm1hZT4nLCAnLW9tYWUnLCAnPG91dGZpbGUubWFlPic=

> <r_lp_tautomer_probability>
1

> <r_epik_Ionization_Penalty>
2.49222e-07

> <r_epik_Ionization_Penalty_Charging>
1.4085e-08

> <r_epik_Ionization_Penalty_Neutral>
2.35137e-07

> <r_epik_State_Penalty>
-0

> <r_epik_Charging_Adjusted_Penalty>
1.4085e-08

> <i_epik_Tot_Q>
0

> <i_epik_Tot_abs_Q>
0

> <r_epik_Metal_State_Penalty>
-0

> <b_epik_Metal_Only>
0

> <s_lp_Force_Field>
OPLS_2005

> <r_lp_Energy>
18.2258

> <b_lp_Chiralities_Consistent>
1

> <s_lp_Variant>
AV-unprocessed.smi:2594-1

> <Gold.Version>
5.8.1

> <Gold.Id.Protein>
6NUR|6NUR_protein|mol2

> <Gold.PLP.Fitness>
40.3971

> <Gold.PLP.PLP>
-33.5435

> <Gold.PLP.part.hbond>
-5.0000

> <Gold.PLP.part.metal>
0.0000

> <Gold.PLP.part.buried>
-6.5306

> <Gold.PLP.part.nonpolar>
-23.0145

> <Gold.PLP.part.repulsive>
0.7679

> <Gold.PLP.ligand.clash>
0.0000

> <Gold.PLP.ligand.torsion>
0.6093

> <Gold.PLP.Chemscore.Hbond>
2.6848

> <Gold.PLP.Chemscore.CHOScore>
0.0000

> <Gold.PLP.Chemscore.Metal>
0.0000

> <Gold.Chemscore.Hbonds>
donor molecule, donor type, donor heavy atom, donor atom, acceptor molecule, acceptor atom, score
      L1  H    10    20       P1  8029  0.96
      P1  H  6933  6944       L1     9  0.45
      P1  H  6934  6946       L1     9  0.91

> <Gold.PLP.Chemscore.Internal.Correction>
0.0177

> <Gold.Rescore>
     Score         DG    S(hbond)    S(metal)    S(lipo)     H(rot)  DE(clash)    DE(int)     intcor
     14.28     -17.57       2.64        0.00      71.48       2.00       1.12       2.17       ----

> <Gold.Chemscore.Fitness>
14.2811

> <Gold.Chemscore.DG>
-17.5693

> <Gold.Chemscore.ZeroCoef>
-5.4800

> <Gold.Chemscore.Hbond>
2.6448

> <Gold.Chemscore.Metal>
0.0000

> <Gold.Chemscore.Lipo>
71.4822

> <Gold.Chemscore.Internal_Hbond>
0.0000

> <Gold.Chemscore.DEClash>
1.1188

> <Gold.Chemscore.DEInternal>
2.1693

> <Gold.Chemscore.Rot>
1.9952

> <Gold.Chemscore.Internal.Correction>
   9.000000E+99

> <Gold.Chemscore.Hbonds>
donor molecule, donor type, donor heavy atom, donor atom, acceptor molecule, acceptor atom, score
      L1  H    10    20       P1  8029  0.91
      P1  H  6933  6944       L1     9  0.44
      P1  H  6934  6946       L1     9  0.83

> <Gold.Chemscore.Hbond.Weighted>
-8.8336

> <Gold.Chemscore.Metal.Weighted>
-0.0000

> <Gold.Chemscore.Lipo.Weighted>
-8.3634

> <Gold.Chemscore.Internal_Hbond.Weighted>
0.0000

> <Gold.Chemscore.DEClash.Weighted>
1.1188

> <Gold.Chemscore.DEInternal.Weighted>
2.1693

> <Gold.Chemscore.Rot.Weighted>
5.1077

> <Gold.Chemscore.Internal.Correction.Weighted>
   9.000000E+99

> <Gold.Protein.RotatedTorsions>
[ 6907 6896 6895 6894 ] final  -51.90 input  -60.11 | X-H torsion
[ 7974 7965 7964 7962 ] final  -77.24 input  175.53 | X-H torsion
[ 8008 7997 7996 7995 ] final  -13.94 input   59.86 | X-H torsion
[ 10167 10162 10161 10158 ] final   -2.76 input  -65.29 | X-H torsion
[ 10718 10713 10712 10709 ] final   84.21 input   66.30 | X-H torsion
[ 10763 10752 10751 10750 ] final  -59.00 input  -60.55 | X-H torsion
[ 11005 11000 10999 10996 ] final  -33.93 input  -57.11 | X-H torsion

> <Gold.Protein.ActiveResidues>
 VAL166  LYS551  ARG553  GLY616  TRP617  ASP618  TYR619  PRO620  LYS621  CYS622 
 ASP623  PHE694  ASN695  SER759  ASP760  ASP761  ALA762  ILE779  LEU786  VAL792 
 PHE793  MET794  SER795  GLU796  ALA797  LYS798  CYS799  TRP800  GLU811  SER814 

> <Gold.Protein.RotatedAtoms>
  150.8568  134.7909  159.7051 H   0  0  0  0  0  0  0  0  0  0  0  0  # atno 6907 bound_to 6896
  152.4617  134.5165  159.9779 H   0  0  0  0  0  0  0  0  0  0  0  0  # atno 6908 bound_to 6896
  151.5276  133.3417  159.2948 H   0  0  0  0  0  0  0  0  0  0  0  0  # atno 6909 bound_to 6896
  145.6023  140.9406  143.1234 H   0  0  0  0  0  0  0  0  0  0  0  0  # atno 7974 bound_to 7965
  154.5251  140.2236  155.8905 H   0  0  0  0  0  0  0  0  0  0  0  0  # atno 8008 bound_to 7997
  156.1704  140.3123  155.8928 H   0  0  0  0  0  0  0  0  0  0  0  0  # atno 8009 bound_to 7997
  155.3569  140.0459  157.3037 H   0  0  0  0  0  0  0  0  0  0  0  0  # atno 8010 bound_to 7997
  140.6864  143.6619  150.8259 H   0  0  0  0  0  0  0  0  0  0  0  0  # atno 10167 bound_to 10162
  157.6894  131.0123  150.2638 H   0  0  0  0  0  0  0  0  0  0  0  0  # atno 10718 bound_to 10713
  154.2469  135.6333  153.5226 H   0  0  0  0  0  0  0  0  0  0  0  0  # atno 10763 bound_to 10752
  152.9919  135.5555  154.5850 H   0  0  0  0  0  0  0  0  0  0  0  0  # atno 10764 bound_to 10752
  154.5368  135.2892  155.1106 H   0  0  0  0  0  0  0  0  0  0  0  0  # atno 10765 bound_to 10752
  140.9675  133.7128  156.1469 H   0  0  0  0  0  0  0  0  0  0  0  0  # atno 11005 bound_to 11000
  144.7305  139.7741  143.7349 LP  0  0  0  0  0  0  0  0  0  0  0  0  # atno 17320 bound_to 7965
  146.1567  139.4667  143.0014 LP  0  0  0  0  0  0  0  0  0  0  0  0  # atno 17321 bound_to 7965
  140.0326  143.5428  152.2753 LP  0  0  0  0  0  0  0  0  0  0  0  0  # atno 17342 bound_to 10162
  139.6226  144.7632  151.2707 LP  0  0  0  0  0  0  0  0  0  0  0  0  # atno 17343 bound_to 10162
  156.3213  130.3786  149.7573 LP  0  0  0  0  0  0  0  0  0  0  0  0  # atno 17370 bound_to 10713
  156.5142  130.8186  151.3180 LP  0  0  0  0  0  0  0  0  0  0  0  0  # atno 17371 bound_to 10713
  140.7378  134.4184  157.5558 LP  0  0  0  0  0  0  0  0  0  0  0  0  # atno 17394 bound_to 11000
  139.8900  134.8816  156.2393 LP  0  0  0  0  0  0  0  0  0  0  0  0  # atno 17395 bound_to 11000

$$$$
