AV-unprocessed.smi:765|AV-procd|sdf|3648|dock2
  -GOLD-   22720 1 53D 1   1.00000     0.00000
 Structure written by MMmdl.
 39 40  0  0  0  0  0  0  0  0  1 V2000
  148.3356  141.2260  154.1300 C   0  0  0  0  0  0  0  0  0  0  0  0
  149.2214  140.4791  155.1373 C   0  0  1  0  0  0  0  0  0  0  0  0
  150.2471  139.5808  154.4232 C   0  0  0  0  0  0  0  0  0  0  0  0
  151.1489  138.8462  155.4248 C   0  0  0  0  0  0  0  0  0  0  0  0
  151.8467  139.8361  156.3713 C   0  0  0  0  0  0  0  0  0  0  0  0
  150.8370  140.7376  157.1237 C   0  0  1  0  0  0  0  0  0  0  0  0
  149.9903  139.9312  158.0262 C   0  0  0  0  0  0  0  0  0  0  0  0
  149.3272  139.2981  158.7323 N   0  0  0  0  0  0  0  0  0  0  0  0
  151.5579  141.7746  157.8646 N   0  0  0  0  0  0  0  0  0  0  0  0
  151.0270  142.7161  158.6636 C   0  0  0  0  0  0  0  0  0  0  0  0
  149.8168  142.8347  158.8552 O   0  0  0  0  0  0  0  0  0  0  0  0
  152.0275  143.6585  159.3518 C   0  0  1  0  0  0  0  0  0  0  0  0
  151.4573  145.0727  159.5846 C   0  0  0  0  0  0  0  0  0  0  0  0
  152.5233  143.0550  160.5835 N   0  0  0  0  0  0  0  0  0  0  0  0
  152.4176  143.5439  161.8700 C   0  0  0  0  0  0  0  0  0  0  0  0
  153.0626  142.6695  162.6969 C   0  0  0  0  0  0  0  0  0  0  0  0
  153.5490  141.6661  161.8137 C   0  0  0  0  0  0  0  0  0  0  0  0
  153.2328  141.9027  160.5514 N   0  0  0  0  0  0  0  0  0  0  0  0
  149.9415  141.4568  156.0887 C   0  0  0  0  0  0  0  0  0  0  0  0
  148.9266  141.8859  153.4939 H   0  0  0  0  0  0  0  0  0  0  0  0
  147.5891  141.8360  154.6394 H   0  0  0  0  0  0  0  0  0  0  0  0
  147.8039  140.5285  153.4822 H   0  0  0  0  0  0  0  0  0  0  0  0
  148.5676  139.8394  155.7318 H   0  0  0  0  0  0  0  0  0  0  0  0
  149.7333  138.8540  153.7930 H   0  0  0  0  0  0  0  0  0  0  0  0
  150.8644  140.1846  153.7565 H   0  0  0  0  0  0  0  0  0  0  0  0
  150.5562  138.1357  156.0021 H   0  0  0  0  0  0  0  0  0  0  0  0
  151.8952  138.2592  154.8886 H   0  0  0  0  0  0  0  0  0  0  0  0
  152.4623  139.2782  157.0778 H   0  0  0  0  0  0  0  0  0  0  0  0
  152.5341  140.4560  155.7934 H   0  0  0  0  0  0  0  0  0  0  0  0
  152.5632  141.7637  157.7738 H   0  0  0  0  0  0  0  0  0  0  0  0
  152.8815  143.7653  158.6809 H   0  0  0  0  0  0  0  0  0  0  0  0
  151.1416  145.5282  158.6455 H   0  0  0  0  0  0  0  0  0  0  0  0
  152.2098  145.7262  160.0266 H   0  0  0  0  0  0  0  0  0  0  0  0
  150.5952  145.0637  160.2528 H   0  0  0  0  0  0  0  0  0  0  0  0
  151.8976  144.4650  162.0882 H   0  0  0  0  0  0  0  0  0  0  0  0
  153.1738  142.7382  163.7688 H   0  0  0  0  0  0  0  0  0  0  0  0
  154.1220  140.7815  162.0495 H   0  0  0  0  0  0  0  0  0  0  0  0
  150.5464  142.1469  155.4974 H   0  0  0  0  0  0  0  0  0  0  0  0
  149.2032  142.0704  156.6075 H   0  0  0  0  0  0  0  0  0  0  0  0
  1  2  1  0  0  0  0
  1 20  1  0  0  0  0
  1 21  1  0  0  0  0
  1 22  1  0  0  0  0
  2 19  1  0  0  0  0
  2  3  1  0  0  0  0
  2 23  1  0  0  0  0
  3  4  1  0  0  0  0
  3 24  1  0  0  0  0
  3 25  1  0  0  0  0
  4  5  1  0  0  0  0
  4 26  1  0  0  0  0
  4 27  1  0  0  0  0
  5  6  1  0  0  0  0
  5 28  1  0  0  0  0
  5 29  1  0  0  0  0
  6  7  1  0  0  0  0
  6  9  1  0  0  0  0
  6 19  1  0  0  0  0
  7  8  3  0  0  0  0
  9 10  1  0  0  0  0
  9 30  1  0  0  0  0
 10 11  2  0  0  0  0
 10 12  1  0  0  0  0
 12 13  1  0  0  0  0
 12 14  1  0  0  0  0
 12 31  1  0  0  0  0
 13 32  1  0  0  0  0
 13 33  1  0  0  0  0
 13 34  1  0  0  0  0
 14 18  1  0  0  0  0
 14 15  1  0  0  0  0
 15 16  2  0  0  0  0
 15 35  1  0  0  0  0
 16 17  1  0  0  0  0
 16 36  1  0  0  0  0
 17 18  2  0  0  0  0
 17 37  1  0  0  0  0
 19 38  1  0  0  0  0
 19 39  1  0  0  0  0
M  END
> <s_m_source_file>
AV-unprocessed.smi

> <i_m_source_file_index>
765

> <i_lp_mmshare_version>
43012

> <i_f3d_flags>
0

> <s_epik_input>
W0NIM11bQ0BASF0oW0NIMl0xKVtDSDJdW0NIMl1bQ0gyXVtDQEBdMShDI04pW05IXUMoPU8pW0NASF0oW0NIM10pbjJbY0hdW2NIXVtjSF1uMg==

> <s_epik_cmdline>
J2VwaWtfcHl0aG9uJywgJy1waCcsICc3LjAnLCAnLXRuJywgJzgnLCAnLW1hJywgJzIwMCcsICctbWV0YWxfYmluZGluZycsICctaW1hZScsICc8aW5maWxlLm1hZT4nLCAnLW9tYWUnLCAnPG91dGZpbGUubWFlPic=

> <r_lp_tautomer_probability>
1

> <r_epik_Ionization_Penalty>
2.71142e-05

> <r_epik_Ionization_Penalty_Charging>
0

> <r_epik_Ionization_Penalty_Neutral>
2.71142e-05

> <r_epik_State_Penalty>
-0

> <r_epik_Charging_Adjusted_Penalty>
0

> <i_epik_Tot_Q>
0

> <i_epik_Tot_abs_Q>
0

> <r_epik_Metal_State_Penalty>
-0

> <b_epik_Metal_Only>
0

> <s_lp_Force_Field>
OPLS_2005

> <r_lp_Energy>
11.5189

> <b_lp_Chiralities_Consistent>
1

> <s_lp_Variant>
AV-unprocessed.smi:765-6

> <Gold.Version>
5.8.1

> <Gold.Id.Protein>
6NUR|6NUR_protein|mol2

> <Gold.PLP.Fitness>
43.8778

> <Gold.PLP.PLP>
-45.4034

> <Gold.PLP.part.hbond>
-1.4038

> <Gold.PLP.part.metal>
0.0000

> <Gold.PLP.part.buried>
-4.2491

> <Gold.PLP.part.nonpolar>
-40.7028

> <Gold.PLP.part.repulsive>
0.1681

> <Gold.PLP.ligand.clash>
0.0000

> <Gold.PLP.ligand.torsion>
0.8132

> <Gold.PLP.Chemscore.Hbond>
0.0000

> <Gold.PLP.Chemscore.CHOScore>
0.0000

> <Gold.PLP.Chemscore.Metal>
0.0000

> <Gold.PLP.Chemscore.Internal.Correction>
0.1008

> <Gold.Rescore>
     Score         DG    S(hbond)    S(metal)    S(lipo)     H(rot)  DE(clash)    DE(int)     intcor
     12.26     -14.03       0.00        0.00     104.13       1.42       0.01       1.77       ----

> <Gold.Chemscore.Fitness>
12.2579

> <Gold.Chemscore.DG>
-14.0319

> <Gold.Chemscore.ZeroCoef>
-5.4800

> <Gold.Chemscore.Hbond>
0.0000

> <Gold.Chemscore.Metal>
0.0000

> <Gold.Chemscore.Lipo>
104.1262

> <Gold.Chemscore.Internal_Hbond>
0.0000

> <Gold.Chemscore.DEClash>
0.0077

> <Gold.Chemscore.DEInternal>
1.7663

> <Gold.Chemscore.Rot>
1.4183

> <Gold.Chemscore.Internal.Correction>
   9.000000E+99

> <Gold.Chemscore.Hbond.Weighted>
-0.0000

> <Gold.Chemscore.Metal.Weighted>
-0.0000

> <Gold.Chemscore.Lipo.Weighted>
-12.1828

> <Gold.Chemscore.Internal_Hbond.Weighted>
0.0000

> <Gold.Chemscore.DEClash.Weighted>
0.0077

> <Gold.Chemscore.DEInternal.Weighted>
1.7663

> <Gold.Chemscore.Rot.Weighted>
3.6309

> <Gold.Chemscore.Internal.Correction.Weighted>
   9.000000E+99

> <Gold.Protein.RotatedTorsions>
[ 6907 6896 6895 6894 ] final   14.56 input  -60.11 | X-H torsion
[ 7974 7965 7964 7962 ] final   88.79 input  175.53 | X-H torsion
[ 8008 7997 7996 7995 ] final   13.74 input   59.86 | X-H torsion
[ 10167 10162 10161 10158 ] final   56.90 input  -65.29 | X-H torsion
[ 10718 10713 10712 10709 ] final -141.54 input   66.30 | X-H torsion
[ 10763 10752 10751 10750 ] final -121.10 input  -60.55 | X-H torsion
[ 11005 11000 10999 10996 ] final  -46.66 input  -57.11 | X-H torsion

> <Gold.Protein.ActiveResidues>
 VAL166  LYS551  ARG553  GLY616  TRP617  ASP618  TYR619  PRO620  LYS621  CYS622 
 ASP623  PHE694  ASN695  SER759  ASP760  ASP761  ALA762  ILE779  LEU786  VAL792 
 PHE793  MET794  SER795  GLU796  ALA797  LYS798  CYS799  TRP800  GLU811  SER814 

> <Gold.Protein.RotatedAtoms>
  151.8041  135.0700  160.0403 H   0  0  0  0  0  0  0  0  0  0  0  0  # atno 6907 bound_to 6896
  152.3068  133.5707  159.5662 H   0  0  0  0  0  0  0  0  0  0  0  0  # atno 6908 bound_to 6896
  150.7300  134.0127  159.3717 H   0  0  0  0  0  0  0  0  0  0  0  0  # atno 6909 bound_to 6896
  145.5409  139.2288  143.2566 H   0  0  0  0  0  0  0  0  0  0  0  0  # atno 7974 bound_to 7965
  154.8387  140.2911  155.5674 H   0  0  0  0  0  0  0  0  0  0  0  0  # atno 8008 bound_to 7997
  156.3010  140.2518  156.3257 H   0  0  0  0  0  0  0  0  0  0  0  0  # atno 8009 bound_to 7997
  154.9149  140.0387  157.1956 H   0  0  0  0  0  0  0  0  0  0  0  0  # atno 8010 bound_to 7997
  140.2037  144.3961  150.6518 H   0  0  0  0  0  0  0  0  0  0  0  0  # atno 10167 bound_to 10162
  156.3353  130.7608  151.1734 H   0  0  0  0  0  0  0  0  0  0  0  0  # atno 10718 bound_to 10713
  154.8660  135.4179  154.2566 H   0  0  0  0  0  0  0  0  0  0  0  0  # atno 10763 bound_to 10752
  153.3502  135.6998  153.6800 H   0  0  0  0  0  0  0  0  0  0  0  0  # atno 10764 bound_to 10752
  153.5743  135.3585  155.2823 H   0  0  0  0  0  0  0  0  0  0  0  0  # atno 10765 bound_to 10752
  141.0592  133.6715  156.3186 H   0  0  0  0  0  0  0  0  0  0  0  0  # atno 11005 bound_to 11000
  146.1981  140.6229  142.9115 LP  0  0  0  0  0  0  0  0  0  0  0  0  # atno 17320 bound_to 7965
  144.7577  140.5348  143.6757 LP  0  0  0  0  0  0  0  0  0  0  0  0  # atno 17321 bound_to 7965
  140.6372  143.2197  151.6369 LP  0  0  0  0  0  0  0  0  0  0  0  0  # atno 17342 bound_to 10162
  139.5207  144.3216  152.0906 LP  0  0  0  0  0  0  0  0  0  0  0  0  # atno 17343 bound_to 10162
  157.7437  131.0470  150.4921 LP  0  0  0  0  0  0  0  0  0  0  0  0  # atno 17370 bound_to 10713
  156.5093  130.4135  149.6310 LP  0  0  0  0  0  0  0  0  0  0  0  0  # atno 17371 bound_to 10713
  140.5902  134.5658  157.5498 LP  0  0  0  0  0  0  0  0  0  0  0  0  # atno 17394 bound_to 11000
  139.9418  134.7774  156.0661 LP  0  0  0  0  0  0  0  0  0  0  0  0  # atno 17395 bound_to 11000

$$$$
