#       Name:                AV-unprocessed.smi:2424
#       Creating user name   scv26
#       Creation time:       Fri Mar 27 13:20:21 2020


#       File generated by GOLD software.
#

@<TRIPOS>MOLECULE
AV-unprocessed.smi:2424
    56    57     1
SMALL
NO_CHARGES


@<TRIPOS>ATOM
      1 ****        -0.8094  -0.2385   2.7800 C.3            1 S1                 0.0000
      2 ****        -1.0061  -1.4303   1.8275 C.3            1 S1                 0.0000
      3 ****        -1.9029  -1.1466   0.5986 C.3            1 S1                 0.0000
      4 ****        -3.3238  -0.7544   1.0855 C.3            1 S1                 0.0000
      5 ****        -4.0119  -1.7327   2.0560 C.3            1 S1                 0.0000
      6 ****        -1.3478  -0.1717  -0.4836 C.3            1 S1                 0.0000
      7 ****         0.1156  -0.0941  -0.5204 N.am           1 S1                 0.0000
      8 ****         0.8377   1.0273  -0.3982 C.2            1 S1                 0.0000
      9 ****         0.3391   2.1379  -0.2196 O.2            1 S1                 0.0000
     10 ****         2.1506   0.7572  -0.5010 N.am           1 S1                 0.0000
     11 ****         3.2357   1.6377  -0.4110 C.2            1 S1                 0.0000
     12 ****         4.5202   1.1817  -0.6262 C.2            1 S1                 0.0000
     13 ****         5.6816   1.8696  -0.5857 N.pl3          1 S1                -1.0000
     14 ****         5.6298   3.2008  -0.2943 C.2            1 S1                 0.0000
     15 ****         6.6462   3.8925  -0.2454 O.2            1 S1                 0.0000
     16 ****         4.3159   3.8216  -0.0306 C.2            1 S1                 0.0000
     17 ****         4.2634   5.3020   0.3072 C.3            1 S1                 0.0000
     18 ****         3.1920   3.0642  -0.0909 C.2            1 S1                 0.0000
     19 ****        -1.8849  -1.1062  -1.5826 C.3            1 S1                 0.0000
     20 ****        -1.1303  -1.2694  -2.9002 C.3            1 S1                 0.0000
     21 ****        -1.8385  -2.2183  -0.5236 C.3            1 S1                 0.0000
     22 ****        -2.9509  -3.0991  -0.5453 O.3            1 S1                 0.0000
     23 ****        -2.8511  -4.1040  -1.5392 C.3            1 S1                 0.0000
     24 ****        -0.0892  -0.4871   3.5594 H              1 S1                 0.0000
     25 ****        -1.7373   0.0414   3.2774 H              1 S1                 0.0000
     26 ****        -0.4347   0.6399   2.2556 H              1 S1                 0.0000
     27 ****        -0.0195  -1.7590   1.5003 H              1 S1                 0.0000
     28 ****        -1.3870  -2.2807   2.3920 H              1 S1                 0.0000
     29 ****        -3.2995   0.2321   1.5488 H              1 S1                 0.0000
     30 ****        -3.9868  -0.6318   0.2292 H              1 S1                 0.0000
     31 ****        -5.0404  -1.4218   2.2394 H              1 S1                 0.0000
     32 ****        -3.5143  -1.7641   3.0248 H              1 S1                 0.0000
     33 ****        -4.0457  -2.7478   1.6634 H              1 S1                 0.0000
     34 ****        -1.8470   0.7989  -0.4860 H              1 S1                 0.0000
     35 ****         0.6126  -0.9611  -0.6606 H              1 S1                 0.0000
     36 ****         2.4008  -0.2064  -0.6679 H              1 S1                 0.0000
     37 ****         4.6306   0.1036  -0.8732 H              1 S1                 0.0000
     38 ****         3.2402   5.6334   0.4863 H              1 S1                 0.0000
     39 ****         4.6709   5.8944  -0.5127 H              1 S1                 0.0000
     40 ****         4.8462   5.5090   1.2053 H              1 S1                 0.0000
     41 ****         2.2518   3.5491   0.1143 H              1 S1                 0.0000
     42 ****        -2.9235  -0.8388  -1.7830 H              1 S1                 0.0000
     43 ****        -0.1543  -1.7325  -2.7532 H              1 S1                 0.0000
     44 ****        -0.9690  -0.3052  -3.3824 H              1 S1                 0.0000
     45 ****        -1.6851  -1.8939  -3.5997 H              1 S1                 0.0000
     46 ****        -0.8840  -2.7500  -0.5184 H              1 S1                 0.0000
     47 ****        -3.7160  -4.7642  -1.4768 H              1 S1                 0.0000
     48 ****        -1.9555  -4.7104  -1.3990 H              1 S1                 0.0000
     49 ****        -2.8323  -3.6758  -2.5409 H              1 S1                 0.0000
     50 ****        -0.6542   2.2362  -0.1588 LP             1 S1                 0.0000
     51 ****         0.9271   2.9423  -0.1353 LP             1 S1                 0.0000
     52 ****         6.5546   1.4158  -0.7643 LP             1 S1                 0.0000
     53 ****         7.5402   3.4807  -0.4218 LP             1 S1                 0.0000
     54 ****         6.5782   4.8665  -0.0292 LP             1 S1                 0.0000
     55 ****        -3.7771  -2.5627  -0.7181 LP             1 S1                 0.0000
     56 ****        -3.0222  -3.5424   0.3482 LP             1 S1                 0.0000
@<TRIPOS>BOND
    1    1    2 1     
    2    1   24 1     
    3    1   25 1     
    4    1   26 1     
    5    2    3 1     
    6    2   27 1     
    7    2   28 1     
    8    3   21 1     
    9    3    4 1     
   10    3    6 1     
   11    4    5 1     
   12    4   29 1     
   13    4   30 1     
   14    5   31 1     
   15    5   32 1     
   16    5   33 1     
   17    6    7 1     
   18    6   19 1     
   19    6   34 1     
   20    7    8 am    
   21    7   35 1     
   22    8    9 2     
   23    8   10 am    
   24   10   11 1     
   25   10   36 1     
   26   11   18 1     
   27   11   12 2     
   28   12   13 1     
   29   12   37 1     
   30   13   14 1     
   31   14   15 2     
   32   14   16 1     
   33   16   17 1     
   34   16   18 2     
   35   17   38 1     
   36   17   39 1     
   37   17   40 1     
   38   18   41 1     
   39   19   20 1     
   40   19   21 1     
   41   19   42 1     
   42   20   43 1     
   43   20   44 1     
   44   20   45 1     
   45   21   22 1     
   46   21   46 1     
   47   22   23 1     
   48   23   47 1     
   49   23   48 1     
   50   23   49 1     
   51    9   50 1     
   52    9   51 1     
   53   13   52 1     
   54   15   53 1     
   55   15   54 1     
   56   22   55 1     
   57   22   56 1     
@<TRIPOS>SUBSTRUCTURE
      1 S1             1
@<TRIPOS>SET
LONE_PAIRS      STATIC     ATOMS    <user>   **** ""
7 50 51 52 53 54 55 56
DONOR_HYDROGENS      STATIC     ATOMS    <user>   **** ""
2 35 36
ATOM$BLUE        STATIC     ATOMS    COLORGROUP SYSTEM
7 50 51 52 53 54 55 56
ATOM$RED        STATIC     ATOMS    COLORGROUP SYSTEM
2 35 36
