#       Name:                AV-unprocessed.smi:3289
#       Creating user name   scv26
#       Creation time:       Fri Mar 27 18:53:45 2020


#       File generated by GOLD software.
#

@<TRIPOS>MOLECULE
AV-unprocessed.smi:3289
    44    45     1
SMALL
NO_CHARGES


@<TRIPOS>ATOM
      1 ****        -2.0590   1.6389   0.1592 C.3            1 S1                 0.0000
      2 ****        -0.8725   1.6983  -0.8164 C.3            1 S1                 0.0000
      3 ****        -0.6435   3.1247  -1.3355 C.3            1 S1                 0.0000
      4 ****        -1.0209   0.7241  -1.9532 C.2            1 S1                 0.0000
      5 ****        -2.1721   0.4227  -2.5679 N.pl3          1 S1                 1.0000
      6 ****        -1.9584  -0.4704  -3.5810 C.2            1 S1                 0.0000
      7 ****        -0.6111  -0.7142  -3.6017 C.2            1 S1                 0.0000
      8 ****        -0.0561   0.0409  -2.5992 N.pl3          1 S1                 0.0000
      9 ****         1.3733   0.0979  -2.2585 C.3            1 S1                 0.0000
     10 ****         1.7062  -0.8393  -1.0959 C.2            1 S1                 0.0000
     11 ****         1.4337  -2.0372  -1.1727 O.2            1 S1                 0.0000
     12 ****         2.2625  -0.2727  -0.0145 N.am           1 S1                 0.0000
     13 ****         2.5413  -0.9494   1.2472 C.3            1 S1                 0.0000
     14 ****         1.3753  -0.7877   2.2379 C.3            1 S1                 0.0000
     15 ****         0.0937  -1.5269   1.8603 C.3            1 S1                 0.0000
     16 ****        -0.6311  -1.5875   3.1877 C.3            1 S1                 0.0000
     17 ****         0.5102  -1.6666   4.2057 C.3            1 S1                 0.0000
     18 ****         1.7074  -1.3559   3.4959 O.3            1 S1                 0.0000
     19 ****        -2.1973   0.6311   0.5514 H              1 S1                 0.0000
     20 ****        -2.9900   1.9408  -0.3214 H              1 S1                 0.0000
     21 ****        -1.8981   2.3013   1.0102 H              1 S1                 0.0000
     22 ****         0.0119   1.3902  -0.2612 H              1 S1                 0.0000
     23 ****         0.2399   3.1772  -1.9724 H              1 S1                 0.0000
     24 ****        -0.4955   3.8234  -0.5114 H              1 S1                 0.0000
     25 ****        -1.4952   3.4749  -1.9195 H              1 S1                 0.0000
     26 ****        -2.7592  -0.8525  -4.1973 H              1 S1                 0.0000
     27 ****        -0.0190  -1.3525  -4.2416 H              1 S1                 0.0000
     28 ****         1.9463  -0.1996  -3.1375 H              1 S1                 0.0000
     29 ****         1.6429   1.1309  -2.0345 H              1 S1                 0.0000
     30 ****         2.4642   0.7161  -0.0485 H              1 S1                 0.0000
     31 ****         2.7697  -2.0044   1.0876 H              1 S1                 0.0000
     32 ****         3.4413  -0.5029   1.6701 H              1 S1                 0.0000
     33 ****         1.1578   0.2709   2.3916 H              1 S1                 0.0000
     34 ****        -0.4810  -1.0228   1.0836 H              1 S1                 0.0000
     35 ****         0.3245  -2.5359   1.5150 H              1 S1                 0.0000
     36 ****        -1.2031  -0.6713   3.3402 H              1 S1                 0.0000
     37 ****        -1.3191  -2.4308   3.2545 H              1 S1                 0.0000
     38 ****         0.3579  -0.9609   5.0228 H              1 S1                 0.0000
     39 ****         0.5970  -2.6657   4.6334 H              1 S1                 0.0000
     40 ****        -3.0748   0.8026  -2.3120 H              1 S1                 0.0000
     41 ****         0.9945  -2.3983  -1.9953 LP             1 S1                 0.0000
     42 ****         1.6515  -2.6493  -0.4125 LP             1 S1                 0.0000
     43 ****         2.2488  -0.7023   4.0248 LP             1 S1                 0.0000
     44 ****         2.2382  -2.1916   3.3549 LP             1 S1                 0.0000
@<TRIPOS>BOND
    1    1    2 1     
    2    1   19 1     
    3    1   20 1     
    4    1   21 1     
    5    2    3 1     
    6    2    4 1     
    7    2   22 1     
    8    3   23 1     
    9    3   24 1     
   10    3   25 1     
   11    4    8 1     
   12    4    5 2     
   13    5    6 1     
   14    5   40 1     
   15    6    7 2     
   16    6   26 1     
   17    7    8 1     
   18    7   27 1     
   19    8    9 1     
   20    9   10 1     
   21    9   28 1     
   22    9   29 1     
   23   10   11 2     
   24   10   12 am    
   25   12   13 1     
   26   12   30 1     
   27   13   14 1     
   28   13   31 1     
   29   13   32 1     
   30   14   18 1     
   31   14   15 1     
   32   14   33 1     
   33   15   16 1     
   34   15   34 1     
   35   15   35 1     
   36   16   17 1     
   37   16   36 1     
   38   16   37 1     
   39   17   18 1     
   40   17   38 1     
   41   17   39 1     
   42   11   41 1     
   43   11   42 1     
   44   18   43 1     
   45   18   44 1     
@<TRIPOS>SUBSTRUCTURE
      1 S1             1
@<TRIPOS>SET
LONE_PAIRS      STATIC     ATOMS    <user>   **** ""
4 41 42 43 44
DONOR_HYDROGENS      STATIC     ATOMS    <user>   **** ""
2 40 30
ATOM$BLUE        STATIC     ATOMS    COLORGROUP SYSTEM
4 41 42 43 44
ATOM$RED        STATIC     ATOMS    COLORGROUP SYSTEM
2 40 30
