AV-unprocessed.smi:1813|AV-procd|sdf|7342|dock4
  -GOLD-   22720 9 03D 1   1.00000     0.00000
 Structure written by MMmdl.
 40 41  0  0  0  0  0  0  0  0  2 V2000
  145.9060  135.0341  152.3895 C   0  0  0  0  0  0  0  0  0  0  0  0
  147.0480  135.3501  153.2342 N   0  0  0  0  0  0  0  0  0  0  0  0
  147.2161  134.8842  154.4797 C   0  0  0  0  0  0  0  0  0  0  0  0
  146.4083  134.1400  155.0369 O   0  0  0  0  0  0  0  0  0  0  0  0
  148.4812  135.3444  155.2110 C   0  0  0  0  0  0  0  0  0  0  0  0
  149.0945  136.5543  154.6050 N   0  3  2  0  0  0  0  0  0  0  0  0
  150.5197  136.7204  154.9878 C   0  0  0  0  0  0  0  0  0  0  0  0
  151.1687  137.8921  154.2280 C   0  0  0  0  0  0  0  0  0  0  0  0
  150.3936  139.2078  154.4186 C   0  0  2  0  0  0  0  0  0  0  0  0
  150.5813  139.7226  155.7751 N   0  0  0  0  0  0  0  0  0  0  0  0
  151.7661  139.8885  156.3818 C   0  0  0  0  0  0  0  0  0  0  0  0
  152.8434  139.6305  155.8445 O   0  0  0  0  0  0  0  0  0  0  0  0
  151.6134  140.3676  157.6288 N   0  0  0  0  0  0  0  0  0  0  0  0
  152.6231  140.6886  158.5740 C   0  0  0  0  0  0  0  0  0  0  0  0
  153.7302  139.9631  158.7709 N   0  0  0  0  0  0  0  0  0  0  0  0
  154.5493  140.5141  159.7595 C   0  0  0  0  0  0  0  0  0  0  0  0
  154.0470  141.6678  160.3082 C   0  0  0  0  0  0  0  0  0  0  0  0
  152.5154  142.1099  159.6024 S   0  0  0  0  0  0  0  0  0  0  0  0
  148.9039  138.9865  154.0869 C   0  0  0  0  0  0  0  0  0  0  0  0
  148.3129  137.7940  154.8581 C   0  0  0  0  0  0  0  0  0  0  0  0
  146.0496  135.4582  151.3959 H   0  0  0  0  0  0  0  0  0  0  0  0
  144.9889  135.4499  152.8084 H   0  0  0  0  0  0  0  0  0  0  0  0
  145.7829  133.9554  152.2836 H   0  0  0  0  0  0  0  0  0  0  0  0
  147.7506  135.9642  152.8473 H   0  0  0  0  0  0  0  0  0  0  0  0
  148.2728  135.5192  156.2679 H   0  0  0  0  0  0  0  0  0  0  0  0
  149.1856  134.5129  155.1640 H   0  0  0  0  0  0  0  0  0  0  0  0
  150.5926  136.8767  156.0650 H   0  0  0  0  0  0  0  0  0  0  0  0
  151.0697  135.8057  154.7636 H   0  0  0  0  0  0  0  0  0  0  0  0
  152.2063  138.0144  154.5414 H   0  0  0  0  0  0  0  0  0  0  0  0
  151.2014  137.6495  153.1649 H   0  0  0  0  0  0  0  0  0  0  0  0
  150.8032  139.9436  153.7239 H   0  0  0  0  0  0  0  0  0  0  0  0
  149.7478  139.9534  156.2957 H   0  0  0  0  0  0  0  0  0  0  0  0
  150.6662  140.5269  157.9382 H   0  0  0  0  0  0  0  0  0  0  0  0
  155.4753  140.0183  160.0099 H   0  0  0  0  0  0  0  0  0  0  0  0
  154.4839  142.2814  161.0820 H   0  0  0  0  0  0  0  0  0  0  0  0
  148.3242  139.8876  154.2900 H   0  0  0  0  0  0  0  0  0  0  0  0
  148.8009  138.8007  153.0170 H   0  0  0  0  0  0  0  0  0  0  0  0
  147.2759  137.6535  154.5523 H   0  0  0  0  0  0  0  0  0  0  0  0
  148.2969  138.0057  155.9284 H   0  0  0  0  0  0  0  0  0  0  0  0
  149.0856  136.4005  153.6063 H   0  0  0  0  0  0  0  0  0  0  0  0
  1  2  1  0  0  0  0
  1 21  1  0  0  0  0
  1 22  1  0  0  0  0
  1 23  1  0  0  0  0
  2  3  1  0  0  0  0
  2 24  1  0  0  0  0
  3  4  2  0  0  0  0
  3  5  1  0  0  0  0
  5  6  1  0  0  0  0
  5 25  1  0  0  0  0
  5 26  1  0  0  0  0
  6 20  1  0  0  0  0
  6  7  1  0  0  0  0
  6 40  1  0  0  0  0
  7  8  1  0  0  0  0
  7 27  1  0  0  0  0
  7 28  1  0  0  0  0
  8  9  1  0  0  0  0
  8 29  1  0  0  0  0
  8 30  1  0  0  0  0
  9 10  1  0  0  0  0
  9 19  1  0  0  0  0
  9 31  1  0  0  0  0
 10 11  1  0  0  0  0
 10 32  1  0  0  0  0
 11 12  2  0  0  0  0
 11 13  1  0  0  0  0
 13 14  1  0  0  0  0
 13 33  1  0  0  0  0
 14 18  1  0  0  0  0
 14 15  2  0  0  0  0
 15 16  1  0  0  0  0
 16 17  2  0  0  0  0
 16 34  1  0  0  0  0
 17 18  1  0  0  0  0
 17 35  1  0  0  0  0
 19 20  1  0  0  0  0
 19 36  1  0  0  0  0
 19 37  1  0  0  0  0
 20 38  1  0  0  0  0
 20 39  1  0  0  0  0
M  CHG  1   6   1
M  END
> <s_m_source_file>
AV-unprocessed.smi

> <i_m_source_file_index>
1813

> <i_lp_mmshare_version>
43012

> <i_f3d_flags>
0

> <s_epik_input>
W0NIM11bTkhdQyg9TylbQ0gyXU4xW0NIMl1bQ0gyXVtDSF0oW0NIMl1bQ0gyXTEpW05IXUMoPU8pW05IXWMybltjSF1bY0hdczI=

> <s_epik_cmdline>
J2VwaWtfcHl0aG9uJywgJy1waCcsICc3LjAnLCAnLXRuJywgJzgnLCAnLW1hJywgJzIwMCcsICctbWV0YWxfYmluZGluZycsICctaW1hZScsICc8aW5maWxlLm1hZT4nLCAnLW9tYWUnLCAnPG91dGZpbGUubWFlPic=

> <r_lp_tautomer_probability>
0.999

> <r_epik_Ionization_Penalty>
0.862509

> <r_epik_Ionization_Penalty_Charging>
0.862349

> <r_epik_Ionization_Penalty_Neutral>
0.000159522

> <r_epik_State_Penalty>
0.898939

> <r_epik_Charging_Adjusted_Penalty>
1.76129

> <i_epik_Tot_Q>
1

> <i_epik_Tot_abs_Q>
1

> <r_epik_Metal_State_Penalty>
0.936827

> <b_epik_Metal_Only>
0

> <s_lp_Force_Field>
OPLS_2005

> <r_lp_Energy>
11.766

> <b_lp_Chiralities_Consistent>
1

> <s_lp_Variant>
AV-unprocessed.smi:1813-3

> <Gold.Version>
5.8.1

> <Gold.Id.Protein>
6NUR|6NUR_protein|mol2

> <Gold.PLP.Fitness>
42.1459

> <Gold.PLP.PLP>
-31.6570

> <Gold.PLP.part.hbond>
-3.8709

> <Gold.PLP.part.metal>
0.0000

> <Gold.PLP.part.buried>
-2.9856

> <Gold.PLP.part.nonpolar>
-24.3998

> <Gold.PLP.part.repulsive>
0.1830

> <Gold.PLP.ligand.clash>
0.0000

> <Gold.PLP.ligand.torsion>
0.7673

> <Gold.PLP.Chemscore.Hbond>
3.9962

> <Gold.PLP.Chemscore.CHOScore>
0.0000

> <Gold.PLP.Chemscore.Metal>
0.0000

> <Gold.Chemscore.Hbonds>
donor molecule, donor type, donor heavy atom, donor atom, acceptor molecule, acceptor atom, score
      L1  H     2    24       P1  7948  0.99
      L1  H     6    40       P1  7948  2.00
      P1  H  7997  8008       L1    12  1.00
      P1  H  7997  8010       L1    15  0.01

> <Gold.PLP.Chemscore.Internal.Correction>
0.0351

> <Gold.Rescore>
     Score         DG    S(hbond)    S(metal)    S(lipo)     H(rot)  DE(clash)    DE(int)     intcor
     16.61     -18.62       2.98        0.00      66.25       1.79       0.01       2.00       ----

> <Gold.Chemscore.Fitness>
16.6091

> <Gold.Chemscore.DG>
-18.6162

> <Gold.Chemscore.ZeroCoef>
-5.4800

> <Gold.Chemscore.Hbond>
2.9813

> <Gold.Chemscore.Metal>
0.0000

> <Gold.Chemscore.Lipo>
66.2493

> <Gold.Chemscore.Internal_Hbond>
0.0000

> <Gold.Chemscore.DEClash>
0.0064

> <Gold.Chemscore.DEInternal>
2.0007

> <Gold.Chemscore.Rot>
1.7862

> <Gold.Chemscore.Internal.Correction>
   9.000000E+99

> <Gold.Chemscore.Hbonds>
donor molecule, donor type, donor heavy atom, donor atom, acceptor molecule, acceptor atom, score
      L1  H     2    24       P1  7948  0.91
      L1  H     6    40       P1  7948  0.98
      P1  H  7997  8008       L1    12  0.99

> <Gold.Chemscore.Hbond.Weighted>
-9.9577

> <Gold.Chemscore.Metal.Weighted>
-0.0000

> <Gold.Chemscore.Lipo.Weighted>
-7.7512

> <Gold.Chemscore.Internal_Hbond.Weighted>
0.0000

> <Gold.Chemscore.DEClash.Weighted>
0.0064

> <Gold.Chemscore.DEInternal.Weighted>
2.0007

> <Gold.Chemscore.Rot.Weighted>
4.5726

> <Gold.Chemscore.Internal.Correction.Weighted>
   9.000000E+99

> <Gold.Protein.RotatedTorsions>
[ 6907 6896 6895 6894 ] final   80.64 input  -60.11 | X-H torsion
[ 7974 7965 7964 7962 ] final   23.97 input  175.53 | X-H torsion
[ 8008 7997 7996 7995 ] final  -30.90 input   59.86 | X-H torsion
[ 10167 10162 10161 10158 ] final  -63.28 input  -65.29 | X-H torsion
[ 10718 10713 10712 10709 ] final -166.07 input   66.30 | X-H torsion
[ 10763 10752 10751 10750 ] final -178.20 input  -60.55 | X-H torsion
[ 11005 11000 10999 10996 ] final  169.88 input  -57.11 | X-H torsion

> <Gold.Protein.ActiveResidues>
 VAL166  LYS551  ARG553  GLY616  TRP617  ASP618  TYR619  PRO620  LYS621  CYS622 
 ASP623  PHE694  ASN695  SER759  ASP760  ASP761  ALA762  ILE779  LEU786  VAL792 
 PHE793  MET794  SER795  GLU796  ALA797  LYS798  CYS799  TRP800  GLU811  SER814 

> <Gold.Protein.RotatedAtoms>
  152.5242  134.3326  159.9188 H   0  0  0  0  0  0  0  0  0  0  0  0  # atno 6907 bound_to 6896
  151.3275  133.4008  159.2667 H   0  0  0  0  0  0  0  0  0  0  0  0  # atno 6908 bound_to 6896
  150.9908  134.9260  159.7956 H   0  0  0  0  0  0  0  0  0  0  0  0  # atno 6909 bound_to 6896
  146.1960  139.7670  142.8797 H   0  0  0  0  0  0  0  0  0  0  0  0  # atno 7974 bound_to 7965
  154.4233  140.1779  156.1480 H   0  0  0  0  0  0  0  0  0  0  0  0  # atno 8008 bound_to 7997
  155.9938  140.3366  155.6754 H   0  0  0  0  0  0  0  0  0  0  0  0  # atno 8009 bound_to 7997
  155.6336  140.0672  157.2632 H   0  0  0  0  0  0  0  0  0  0  0  0  # atno 8010 bound_to 7997
  140.5881  143.2337  151.6199 H   0  0  0  0  0  0  0  0  0  0  0  0  # atno 10167 bound_to 10162
  156.6626  130.9052  151.3031 H   0  0  0  0  0  0  0  0  0  0  0  0  # atno 10718 bound_to 10713
  154.5507  135.2812  155.1011 H   0  0  0  0  0  0  0  0  0  0  0  0  # atno 10763 bound_to 10752
  154.2458  135.6348  153.5226 H   0  0  0  0  0  0  0  0  0  0  0  0  # atno 10764 bound_to 10752
  153.0002  135.5571  154.6073 H   0  0  0  0  0  0  0  0  0  0  0  0  # atno 10765 bound_to 10752
  140.3025  134.7584  157.3927 H   0  0  0  0  0  0  0  0  0  0  0  0  # atno 11005 bound_to 11000
  145.3643  141.0331  143.3267 LP  0  0  0  0  0  0  0  0  0  0  0  0  # atno 17320 bound_to 7965
  144.8581  139.5219  143.6825 LP  0  0  0  0  0  0  0  0  0  0  0  0  # atno 17321 bound_to 7965
  139.5210  144.3205  152.0914 LP  0  0  0  0  0  0  0  0  0  0  0  0  # atno 17342 bound_to 10162
  140.2365  144.4314  150.6278 LP  0  0  0  0  0  0  0  0  0  0  0  0  # atno 17343 bound_to 10162
  157.7104  130.9434  150.1071 LP  0  0  0  0  0  0  0  0  0  0  0  0  # atno 17370 bound_to 10713
  156.1999  130.3659  149.8801 LP  0  0  0  0  0  0  0  0  0  0  0  0  # atno 17371 bound_to 10713
  140.1097  134.5362  155.8277 LP  0  0  0  0  0  0  0  0  0  0  0  0  # atno 17394 bound_to 11000
  141.2125  133.6720  156.6665 LP  0  0  0  0  0  0  0  0  0  0  0  0  # atno 17395 bound_to 11000

$$$$
