#       Name:                AV-unprocessed.smi:1593
#       Creating user name   scv26
#       Creation time:       Fri Mar 27 07:04:42 2020


#       File generated by GOLD software.
#

@<TRIPOS>MOLECULE
AV-unprocessed.smi:1593
    44    45     1
SMALL
NO_CHARGES


@<TRIPOS>ATOM
      1 ****        -6.3989   2.4214   1.2647 C.3            1 S1                 0.0000
      2 ****        -4.9820   2.3008   1.7101 C.2            1 S1                 0.0000
      3 ****        -4.0929   1.2636   1.7150 C.2            1 S1                 0.0000
      4 ****        -2.9195   1.8445   2.2689 C.2            1 S1                 0.0000
      5 ****        -1.7566   1.2126   2.4911 N.pl3          1 S1                -1.0000
      6 ****        -0.8364   1.1142   1.5052 C.2            1 S1                 0.0000
      7 ****        -0.9421   1.5529   0.3574 O.2            1 S1                 0.0000
      8 ****         0.2764   0.4614   1.8699 N.am           1 S1                 0.0000
      9 ****         1.4277   0.2008   1.0141 C.3            1 S1                 0.0000
     10 ****         1.1530  -0.9638   0.0441 C.3            1 S1                 0.0000
     11 ****         2.3249  -1.2745  -0.8108 N.4            1 S1                 1.0000
     12 ****         2.2735  -2.6501  -1.3612 C.3            1 S1                 0.0000
     13 ****         3.5311  -2.9438  -2.1965 C.3            1 S1                 0.0000
     14 ****         3.6510  -1.9795  -3.2347 O.3            1 S1                 0.0000
     15 ****         3.7882  -0.6604  -2.7209 C.3            1 S1                 0.0000
     16 ****         2.5408  -0.2901  -1.9006 C.3            1 S1                 0.0000
     17 ****        -3.0874   3.1168   2.5883 N.2            1 S1                 0.0000
     18 ****        -4.4054   3.4192   2.2259 O.3            1 S1                 0.0000
     19 ****        -6.8394   1.4384   1.0976 H              1 S1                 0.0000
     20 ****        -6.4631   2.9844   0.3335 H              1 S1                 0.0000
     21 ****        -6.9985   2.9366   2.0152 H              1 S1                 0.0000
     22 ****        -4.2535   0.2522   1.3733 H              1 S1                 0.0000
     23 ****         0.3238   0.1228   2.8200 H              1 S1                 0.0000
     24 ****         1.6909   1.1152   0.4818 H              1 S1                 0.0000
     25 ****         2.2762  -0.0410   1.6546 H              1 S1                 0.0000
     26 ****         0.8993  -1.8442   0.6368 H              1 S1                 0.0000
     27 ****         0.2864  -0.7576  -0.5861 H              1 S1                 0.0000
     28 ****         2.1986  -3.3732  -0.5480 H              1 S1                 0.0000
     29 ****         1.3796  -2.7653  -1.9765 H              1 S1                 0.0000
     30 ****         4.4254  -2.9358  -1.5709 H              1 S1                 0.0000
     31 ****         3.4633  -3.9364  -2.6420 H              1 S1                 0.0000
     32 ****         4.6912  -0.5854  -2.1127 H              1 S1                 0.0000
     33 ****         3.9079   0.0321  -3.5544 H              1 S1                 0.0000
     34 ****         1.6642  -0.2632  -2.5499 H              1 S1                 0.0000
     35 ****         2.6655   0.7123  -1.4929 H              1 S1                 0.0000
     36 ****         3.1367  -1.2386  -0.2108 H              1 S1                 0.0000
     37 ****        -1.5700   0.8132   3.3887 LP             1 S1                 0.0000
     38 ****        -1.7726   2.0368   0.0816 LP             1 S1                 0.0000
     39 ****        -0.1973   1.4247  -0.2974 LP             1 S1                 0.0000
     40 ****         2.8332  -2.0193  -3.8087 LP             1 S1                 0.0000
     41 ****         4.4563  -2.1969  -3.7862 LP             1 S1                 0.0000
     42 ****        -2.4157   3.7321   3.0010 LP             1 S1                 0.0000
     43 ****        -4.9156   3.7201   3.0317 LP             1 S1                 0.0000
     44 ****        -4.4075   4.1463   1.5394 LP             1 S1                 0.0000
@<TRIPOS>BOND
    1    1    2 1     
    2    1   19 1     
    3    1   20 1     
    4    1   21 1     
    5    2   18 1     
    6    2    3 2     
    7    3    4 1     
    8    3   22 1     
    9    4    5 1     
   10    4   17 2     
   11    5    6 1     
   12    6    7 2     
   13    6    8 am    
   14    8    9 1     
   15    8   23 1     
   16    9   10 1     
   17    9   24 1     
   18    9   25 1     
   19   10   11 1     
   20   10   26 1     
   21   10   27 1     
   22   11   16 1     
   23   11   12 1     
   24   11   36 1     
   25   12   13 1     
   26   12   28 1     
   27   12   29 1     
   28   13   14 1     
   29   13   30 1     
   30   13   31 1     
   31   14   15 1     
   32   15   16 1     
   33   15   32 1     
   34   15   33 1     
   35   16   34 1     
   36   16   35 1     
   37   17   18 1     
   38    5   37 1     
   39    7   38 1     
   40    7   39 1     
   41   14   40 1     
   42   14   41 1     
   43   17   42 1     
   44   18   43 1     
   45   18   44 1     
@<TRIPOS>SUBSTRUCTURE
      1 S1             1
@<TRIPOS>SET
LONE_PAIRS      STATIC     ATOMS    <user>   **** ""
8 37 38 39 40 41 42 43 44
DONOR_HYDROGENS      STATIC     ATOMS    <user>   **** ""
2 23 36
ATOM$BLUE        STATIC     ATOMS    COLORGROUP SYSTEM
8 37 38 39 40 41 42 43 44
ATOM$RED        STATIC     ATOMS    COLORGROUP SYSTEM
2 23 36
