#       Name:                AV-unprocessed.smi:2804
#       Creating user name   scv26
#       Creation time:       Fri Mar 27 15:24:54 2020


#       File generated by GOLD software.
#

@<TRIPOS>MOLECULE
AV-unprocessed.smi:2804
    36    37     1
SMALL
NO_CHARGES


@<TRIPOS>ATOM
      1 ****        -4.7138   0.8312  -0.1287 C.3            1 S1                 0.0000
      2 ****        -3.1821   0.8202  -0.1043 C.3            1 S1                 0.0000
      3 ****        -2.6059  -0.6040  -0.0917 C.3            1 S1                 0.0000
      4 ****        -1.1452  -0.5829  -0.0728 N.am           1 S1                 0.0000
      5 ****        -0.3552  -0.5407   1.0255 C.2            1 S1                 0.0000
      6 ****        -0.7475  -0.5393   2.1929 O.2            1 S1                 0.0000
      7 ****         0.9399  -0.5105   0.6178 N.am           1 S1                 0.0000
      8 ****         2.1377  -0.5082   1.4748 C.3            1 S1                 0.0000
      9 ****         2.6197   0.9094   1.9019 C.3            1 S1                 0.0000
     10 ****         3.1263   1.4828   0.8361 O.co2          1 S1                -1.0000
     11 ****         3.7422   0.8292   2.9655 C.3            1 S1                 0.0000
     12 ****         4.1228   2.0546   3.3320 F              1 S1                 0.0000
     13 ****         3.2864   0.2043   4.0522 F              1 S1                 0.0000
     14 ****         4.8044   0.1588   2.5125 F              1 S1                 0.0000
     15 ****         0.9704  -0.5616  -0.7874 C.ar           1 S1                 0.0000
     16 ****         2.0490  -0.5718  -1.6900 C.ar           1 S1                 0.0000
     17 ****         1.7407  -0.6173  -3.0695 C.ar           1 S1                 0.0000
     18 ****         0.3931  -0.6498  -3.5120 C.ar           1 S1                 0.0000
     19 ****        -0.6741  -0.6399  -2.5838 C.ar           1 S1                 0.0000
     20 ****        -0.3391  -0.5979  -1.2189 C.ar           1 S1                 0.0000
     21 ****        -5.0948   1.8527  -0.1371 H              1 S1                 0.0000
     22 ****        -5.1241   0.3291   0.7479 H              1 S1                 0.0000
     23 ****        -5.0965   0.3256  -1.0156 H              1 S1                 0.0000
     24 ****        -2.8048   1.3611  -0.9728 H              1 S1                 0.0000
     25 ****        -2.8342   1.3660   0.7736 H              1 S1                 0.0000
     26 ****        -2.9756  -1.1487   0.7783 H              1 S1                 0.0000
     27 ****        -2.9533  -1.1598  -0.9629 H              1 S1                 0.0000
     28 ****         1.9085  -1.0934   2.3664 H              1 S1                 0.0000
     29 ****         2.9412  -1.0558   0.9798 H              1 S1                 0.0000
     30 ****         1.7720   1.3641   2.4172 H              1 S1                 0.0000
     31 ****         3.0727  -0.5383  -1.3477 H              1 S1                 0.0000
     32 ****         2.5415  -0.6234  -3.7940 H              1 S1                 0.0000
     33 ****         0.1796  -0.6812  -4.5702 H              1 S1                 0.0000
     34 ****        -1.7014  -0.6631  -2.9154 H              1 S1                 0.0000
     35 ****        -1.7271  -0.5713   2.3912 LP             1 S1                 0.0000
     36 ****        -0.0864  -0.5062   2.9425 LP             1 S1                 0.0000
@<TRIPOS>BOND
    1    1    2 1     
    2    1   21 1     
    3    1   22 1     
    4    1   23 1     
    5    2    3 1     
    6    2   24 1     
    7    2   25 1     
    8    3    4 1     
    9    3   26 1     
   10    3   27 1     
   11    4   20 1     
   12    4    5 am    
   13    5    6 2     
   14    5    7 am    
   15    7    8 1     
   16    7   15 1     
   17    8    9 1     
   18    8   28 1     
   19    8   29 1     
   20    9   10 1     
   21    9   11 1     
   22    9   30 1     
   23   11   12 1     
   24   11   13 1     
   25   11   14 1     
   26   15   20 ar    
   27   15   16 ar    
   28   16   17 ar    
   29   16   31 1     
   30   17   18 ar    
   31   17   32 1     
   32   18   19 ar    
   33   18   33 1     
   34   19   20 ar    
   35   19   34 1     
   36    6   35 1     
   37    6   36 1     
@<TRIPOS>SUBSTRUCTURE
      1 S1             1
@<TRIPOS>SET
LONE_PAIRS      STATIC     ATOMS    <user>   **** ""
3 35 36 10
ATOM$BLUE        STATIC     ATOMS    COLORGROUP SYSTEM
3 35 36 10
