#       Name:                AV-unprocessed.smi:491
#       Creating user name   scv26
#       Creation time:       Thu Mar 26 23:14:55 2020


#       File generated by GOLD software.
#

@<TRIPOS>MOLECULE
AV-unprocessed.smi:491
    52    53     1
SMALL
NO_CHARGES


@<TRIPOS>ATOM
      1 ****        -2.0459  -3.2406   3.6723 C.3            1 S1                 0.0000
      2 ****        -1.9679  -2.4879   2.3357 C.3            1 S1                 0.0000
      3 ****        -1.3611  -1.1878   2.4571 N.am           1 S1                 0.0000
      4 ****        -2.1193  -0.0401   2.5569 C.2            1 S1                 0.0000
      5 ****        -1.5691   1.1860   2.6712 C.2            1 S1                 0.0000
      6 ****        -2.3690   2.3618   2.7694 C.1            1 S1                 0.0000
      7 ****        -3.0388   3.3025   2.8455 N.1            1 S1                 0.0000
      8 ****        -0.1193   1.3620   2.6954 C.2            1 S1                 0.0000
      9 ****         0.4298   2.4621   2.7732 O.2            1 S1                 0.0000
     10 ****         0.6436   0.1693   2.6079 N.am           1 S1                 0.0000
     11 ****         2.1224   0.2744   2.5989 C.3            1 S1                 0.0000
     12 ****         2.7462   0.4466   1.2016 C.2            1 S1                 0.0000
     13 ****         3.9580   0.6339   1.1018 O.2            1 S1                 0.0000
     14 ****         1.9295   0.3918   0.1383 N.am           1 S1                 0.0000
     15 ****         2.3343   0.5584  -1.2494 C.3            1 S1                 0.0000
     16 ****         1.1625   0.2622  -2.2053 C.3            1 S1                 0.0000
     17 ****         1.6103   0.3731  -3.6769 C.3            1 S1                 0.0000
     18 ****         0.4588   0.0645  -4.6476 C.3            1 S1                 0.0000
     19 ****        -0.7503   0.9743  -4.3831 C.3            1 S1                 0.0000
     20 ****        -1.2106   0.8683  -2.9214 C.3            1 S1                 0.0000
     21 ****        -0.0601   1.1738  -1.9488 C.3            1 S1                 0.0000
     22 ****         0.0507  -1.1113   2.4870 C.2            1 S1                 0.0000
     23 ****         0.7482  -2.1250   2.3998 O.2            1 S1                 0.0000
     24 ****        -2.5405  -4.2033   3.5435 H              1 S1                 0.0000
     25 ****        -2.6130  -2.6728   4.4105 H              1 S1                 0.0000
     26 ****        -1.0552  -3.4318   4.0853 H              1 S1                 0.0000
     27 ****        -1.4152  -3.0405   1.5735 H              1 S1                 0.0000
     28 ****        -2.9669  -2.3156   1.9330 H              1 S1                 0.0000
     29 ****        -3.1966  -0.1251   2.5425 H              1 S1                 0.0000
     30 ****         2.4557   1.1040   3.2241 H              1 S1                 0.0000
     31 ****         2.5784  -0.5997   3.0660 H              1 S1                 0.0000
     32 ****         0.9470   0.2334   0.3072 H              1 S1                 0.0000
     33 ****         2.6960   1.5774  -1.3956 H              1 S1                 0.0000
     34 ****         3.1681  -0.1122  -1.4641 H              1 S1                 0.0000
     35 ****         0.8505  -0.7694  -2.0325 H              1 S1                 0.0000
     36 ****         1.9890   1.3776  -3.8721 H              1 S1                 0.0000
     37 ****         2.4386  -0.3103  -3.8678 H              1 S1                 0.0000
     38 ****         0.7977   0.1876  -5.6766 H              1 S1                 0.0000
     39 ****         0.1615  -0.9799  -4.5427 H              1 S1                 0.0000
     40 ****        -0.4872   2.0082  -4.6101 H              1 S1                 0.0000
     41 ****        -1.5695   0.7090  -5.0520 H              1 S1                 0.0000
     42 ****        -2.0394   1.5538  -2.7422 H              1 S1                 0.0000
     43 ****        -1.5929  -0.1353  -2.7304 H              1 S1                 0.0000
     44 ****        -0.4222   1.0541  -0.9272 H              1 S1                 0.0000
     45 ****         0.2332   2.2196  -2.0497 H              1 S1                 0.0000
     46 ****        -3.6176   4.1153   2.9112 LP             1 S1                 0.0000
     47 ****        -0.1226   3.2941   2.8236 LP             1 S1                 0.0000
     48 ****         1.4279   2.5230   2.7858 LP             1 S1                 0.0000
     49 ****         4.5272   0.6730   1.9230 LP             1 S1                 0.0000
     50 ****         4.3738   0.7470   0.1994 LP             1 S1                 0.0000
     51 ****         0.3168  -3.0223   2.3059 LP             1 S1                 0.0000
     52 ****         1.7451  -2.0495   2.4229 LP             1 S1                 0.0000
@<TRIPOS>BOND
    1    1    2 1     
    2    1   24 1     
    3    1   25 1     
    4    1   26 1     
    5    2    3 1     
    6    2   27 1     
    7    2   28 1     
    8    3   22 am    
    9    3    4 1     
   10    4    5 2     
   11    4   29 1     
   12    5    6 1     
   13    5    8 1     
   14    6    7 3     
   15    8    9 2     
   16    8   10 am    
   17   10   11 1     
   18   10   22 am    
   19   11   12 1     
   20   11   30 1     
   21   11   31 1     
   22   12   13 2     
   23   12   14 am    
   24   14   15 1     
   25   14   32 1     
   26   15   16 1     
   27   15   33 1     
   28   15   34 1     
   29   16   21 1     
   30   16   17 1     
   31   16   35 1     
   32   17   18 1     
   33   17   36 1     
   34   17   37 1     
   35   18   19 1     
   36   18   38 1     
   37   18   39 1     
   38   19   20 1     
   39   19   40 1     
   40   19   41 1     
   41   20   21 1     
   42   20   42 1     
   43   20   43 1     
   44   21   44 1     
   45   21   45 1     
   46   22   23 2     
   47    7   46 1     
   48    9   47 1     
   49    9   48 1     
   50   13   49 1     
   51   13   50 1     
   52   23   51 1     
   53   23   52 1     
@<TRIPOS>SUBSTRUCTURE
      1 S1             1
@<TRIPOS>SET
LONE_PAIRS      STATIC     ATOMS    <user>   **** ""
7 46 47 48 49 50 51 52
DONOR_HYDROGENS      STATIC     ATOMS    <user>   **** ""
1 32
ATOM$BLUE        STATIC     ATOMS    COLORGROUP SYSTEM
7 46 47 48 49 50 51 52
ATOM$RED        STATIC     ATOMS    COLORGROUP SYSTEM
1 32
