AV-unprocessed.smi:2819|AV-procd|sdf|10853|dock10
  -GOLD-   2272015293D 1   1.00000     0.00000
 Structure written by MMmdl.
 50 51  0  0  0  0  0  0  0  0  2 V2000
  152.1718  143.9802  161.6956 C   0  0  0  0  0  0  0  0  0  0  0  0
  151.8469  143.5537  160.3385 N   0  0  0  0  0  0  0  0  0  0  0  0
  150.8928  144.3116  159.5395 C   0  0  0  0  0  0  0  0  0  0  0  0
  152.4596  142.3999  159.8022 C   0  0  0  0  0  0  0  0  0  0  0  0
  153.6018  141.8090  160.3950 C   0  0  0  0  0  0  0  0  0  0  0  0
  154.1238  140.6619  159.7658 C   0  0  0  0  0  0  0  0  0  0  0  0
  153.5682  140.1442  158.6502 N   0  0  0  0  0  0  0  0  0  0  0  0
  152.4925  140.7648  158.1609 C   0  0  0  0  0  0  0  0  0  0  0  0
  151.9764  140.1925  157.0185 N   0  0  0  0  0  0  0  0  0  0  0  0
  151.7671  138.9007  156.7014 C   0  0  0  0  0  0  0  0  0  0  0  0
  152.0452  137.9347  157.4134 O   0  0  0  0  0  0  0  0  0  0  0  0
  151.2007  138.7828  155.4909 N   0  0  0  0  0  0  0  0  0  0  0  0
  150.8410  137.5217  154.8428 C   0  0  0  0  0  0  0  0  0  0  0  0
  149.4099  137.0194  155.2047 C   0  0  0  0  0  0  0  0  0  0  0  0
  149.2718  136.8147  156.7344 C   0  0  0  0  0  0  0  0  0  0  0  0
  148.3672  138.0998  154.8229 C   0  0  0  0  0  0  0  0  0  0  0  0
  149.0872  135.7282  154.4964 N   0  3  0  0  0  0  0  0  0  0  0  0
  150.0805  134.6291  154.6612 C   0  0  0  0  0  0  0  0  0  0  0  0
  149.7339  133.4441  153.7441 C   0  0  0  0  0  0  0  0  0  0  0  0
  148.4216  132.9832  154.0312 O   0  0  0  0  0  0  0  0  0  0  0  0
  147.4484  133.9903  153.7938 C   0  0  0  0  0  0  0  0  0  0  0  0
  147.7130  135.1925  154.7154 C   0  0  0  0  0  0  0  0  0  0  0  0
  151.9215  141.8587  158.6828 N   0  0  0  0  0  0  0  0  0  0  0  0
  151.9258  143.1964  162.4128 H   0  0  0  0  0  0  0  0  0  0  0  0
  151.6161  144.8751  161.9760 H   0  0  0  0  0  0  0  0  0  0  0  0
  153.2353  144.2062  161.7817 H   0  0  0  0  0  0  0  0  0  0  0  0
  150.0420  143.6873  159.2651 H   0  0  0  0  0  0  0  0  0  0  0  0
  151.3645  144.6810  158.6285 H   0  0  0  0  0  0  0  0  0  0  0  0
  150.5108  145.1721  160.0887 H   0  0  0  0  0  0  0  0  0  0  0  0
  154.0695  142.1995  161.2859 H   0  0  0  0  0  0  0  0  0  0  0  0
  154.9936  140.1576  160.1596 H   0  0  0  0  0  0  0  0  0  0  0  0
  151.7070  140.8582  156.3096 H   0  0  0  0  0  0  0  0  0  0  0  0
  151.0084  139.6287  154.9740 H   0  0  0  0  0  0  0  0  0  0  0  0
  150.9203  137.6996  153.7708 H   0  0  0  0  0  0  0  0  0  0  0  0
  151.5926  136.7663  155.0733 H   0  0  0  0  0  0  0  0  0  0  0  0
  149.2795  137.7626  157.2732 H   0  0  0  0  0  0  0  0  0  0  0  0
  150.0890  136.2248  157.1490 H   0  0  0  0  0  0  0  0  0  0  0  0
  148.3355  136.3156  156.9863 H   0  0  0  0  0  0  0  0  0  0  0  0
  148.4503  138.9825  155.4581 H   0  0  0  0  0  0  0  0  0  0  0  0
  147.3486  137.7250  154.9303 H   0  0  0  0  0  0  0  0  0  0  0  0
  148.4896  138.4533  153.7993 H   0  0  0  0  0  0  0  0  0  0  0  0
  151.0877  134.9576  154.4123 H   0  0  0  0  0  0  0  0  0  0  0  0
  150.0981  134.2881  155.6965 H   0  0  0  0  0  0  0  0  0  0  0  0
  149.8133  133.7274  152.6932 H   0  0  0  0  0  0  0  0  0  0  0  0
  150.4361  132.6259  153.9065 H   0  0  0  0  0  0  0  0  0  0  0  0
  147.4636  134.2911  152.7450 H   0  0  0  0  0  0  0  0  0  0  0  0
  146.4591  133.5771  153.9911 H   0  0  0  0  0  0  0  0  0  0  0  0
  147.5872  134.8835  155.7532 H   0  0  0  0  0  0  0  0  0  0  0  0
  146.9503  135.9405  154.5084 H   0  0  0  0  0  0  0  0  0  0  0  0
  149.1203  135.9659  153.5153 H   0  0  0  0  0  0  0  0  0  0  0  0
  1  2  1  0  0  0  0
  1 24  1  0  0  0  0
  1 25  1  0  0  0  0
  1 26  1  0  0  0  0
  2  3  1  0  0  0  0
  2  4  1  0  0  0  0
  3 27  1  0  0  0  0
  3 28  1  0  0  0  0
  3 29  1  0  0  0  0
  4 23  1  0  0  0  0
  4  5  2  0  0  0  0
  5  6  1  0  0  0  0
  5 30  1  0  0  0  0
  6  7  2  0  0  0  0
  6 31  1  0  0  0  0
  7  8  1  0  0  0  0
  8  9  1  0  0  0  0
  8 23  2  0  0  0  0
  9 10  1  0  0  0  0
  9 32  1  0  0  0  0
 10 11  2  0  0  0  0
 10 12  1  0  0  0  0
 12 13  1  0  0  0  0
 12 33  1  0  0  0  0
 13 14  1  0  0  0  0
 13 34  1  0  0  0  0
 13 35  1  0  0  0  0
 14 15  1  0  0  0  0
 14 16  1  0  0  0  0
 14 17  1  0  0  0  0
 15 36  1  0  0  0  0
 15 37  1  0  0  0  0
 15 38  1  0  0  0  0
 16 39  1  0  0  0  0
 16 40  1  0  0  0  0
 16 41  1  0  0  0  0
 17 22  1  0  0  0  0
 17 18  1  0  0  0  0
 17 50  1  0  0  0  0
 18 19  1  0  0  0  0
 18 42  1  0  0  0  0
 18 43  1  0  0  0  0
 19 20  1  0  0  0  0
 19 44  1  0  0  0  0
 19 45  1  0  0  0  0
 20 21  1  0  0  0  0
 21 22  1  0  0  0  0
 21 46  1  0  0  0  0
 21 47  1  0  0  0  0
 22 48  1  0  0  0  0
 22 49  1  0  0  0  0
M  CHG  1  17   1
M  END
> <s_m_source_file>
AV-unprocessed.smi

> <i_m_source_file_index>
2819

> <i_lp_mmshare_version>
43012

> <i_f3d_flags>
0

> <s_epik_input>
W0NIM11OKFtDSDNdKWMxW2NIXVtjSF1uYyhuMSlbTkhdQyg9TylbTkhdW0NIMl1DKFtDSDNdKShbQ0gzXSlOMltDSDJdW0NIMl1PW0NIMl1bQ0gyXTI=

> <s_epik_cmdline>
J2VwaWtfcHl0aG9uJywgJy1waCcsICc3LjAnLCAnLXRuJywgJzgnLCAnLW1hJywgJzIwMCcsICctbWV0YWxfYmluZGluZycsICctaW1hZScsICc8aW5maWxlLm1hZT4nLCAnLW9tYWUnLCAnPG91dGZpbGUubWFlPic=

> <r_epik_Ionization_Penalty>
1.64867

> <r_epik_Ionization_Penalty_Charging>
0.602531

> <r_epik_Ionization_Penalty_Neutral>
1.04614

> <r_epik_State_Penalty>
1.74763

> <r_epik_Charging_Adjusted_Penalty>
2.35016

> <i_epik_Tot_Q>
1

> <i_epik_Tot_abs_Q>
1

> <r_epik_Metal_State_Penalty>
1.04264

> <b_epik_Metal_Only>
0

> <s_lp_Force_Field>
OPLS_2005

> <r_lp_Energy>
22.1801

> <b_lp_Chiralities_Consistent>
1

> <s_lp_Variant>
AV-unprocessed.smi:2819-4

> <Gold.Version>
5.8.1

> <Gold.Id.Protein>
6NUR|6NUR_protein|mol2

> <Gold.PLP.Fitness>
44.8109

> <Gold.PLP.PLP>
-37.0934

> <Gold.PLP.part.hbond>
-2.0000

> <Gold.PLP.part.metal>
0.0000

> <Gold.PLP.part.buried>
-4.6775

> <Gold.PLP.part.nonpolar>
-29.7669

> <Gold.PLP.part.repulsive>
0.3083

> <Gold.PLP.ligand.clash>
0.0000

> <Gold.PLP.ligand.torsion>
0.6903

> <Gold.PLP.Chemscore.Hbond>
2.9920

> <Gold.PLP.Chemscore.CHOScore>
0.0000

> <Gold.PLP.Chemscore.Metal>
0.0000

> <Gold.Chemscore.Hbonds>
donor molecule, donor type, donor heavy atom, donor atom, acceptor molecule, acceptor atom, score
      L1  H    17    50       P1  7948  2.00
      P1  H  7997  8008       L1     7  0.98

> <Gold.PLP.Chemscore.Internal.Correction>
0.1221

> <Gold.Rescore>
     Score         DG    S(hbond)    S(metal)    S(lipo)     H(rot)  DE(clash)    DE(int)     intcor
     13.38     -15.18       1.55        0.00      72.66       1.55       0.03       1.77       ----

> <Gold.Chemscore.Fitness>
13.3844

> <Gold.Chemscore.DG>
-15.1823

> <Gold.Chemscore.ZeroCoef>
-5.4800

> <Gold.Chemscore.Hbond>
1.5482

> <Gold.Chemscore.Metal>
0.0000

> <Gold.Chemscore.Lipo>
72.6573

> <Gold.Chemscore.Internal_Hbond>
0.0000

> <Gold.Chemscore.DEClash>
0.0322

> <Gold.Chemscore.DEInternal>
1.7657

> <Gold.Chemscore.Rot>
1.5506

> <Gold.Chemscore.Internal.Correction>
   9.000000E+99

> <Gold.Chemscore.Hbonds>
donor molecule, donor type, donor heavy atom, donor atom, acceptor molecule, acceptor atom, score
      L1  H    17    50       P1  7948  0.88
      P1  H  7997  8008       L1     7  0.37

> <Gold.Chemscore.Hbond.Weighted>
-5.1709

> <Gold.Chemscore.Metal.Weighted>
-0.0000

> <Gold.Chemscore.Lipo.Weighted>
-8.5009

> <Gold.Chemscore.Internal_Hbond.Weighted>
0.0000

> <Gold.Chemscore.DEClash.Weighted>
0.0322

> <Gold.Chemscore.DEInternal.Weighted>
1.7657

> <Gold.Chemscore.Rot.Weighted>
3.9695

> <Gold.Chemscore.Internal.Correction.Weighted>
   9.000000E+99

> <Gold.Protein.RotatedTorsions>
[ 6907 6896 6895 6894 ] final -166.57 input  -60.11 | X-H torsion
[ 7974 7965 7964 7962 ] final -178.10 input  175.53 | X-H torsion
[ 8008 7997 7996 7995 ] final  -97.41 input   59.86 | X-H torsion
[ 10167 10162 10161 10158 ] final  167.80 input  -65.29 | X-H torsion
[ 10718 10713 10712 10709 ] final -108.21 input   66.30 | X-H torsion
[ 10763 10752 10751 10750 ] final  -63.45 input  -60.55 | X-H torsion
[ 11005 11000 10999 10996 ] final  166.15 input  -57.11 | X-H torsion

> <Gold.Protein.ActiveResidues>
 VAL166  LYS551  ARG553  GLY616  TRP617  ASP618  TYR619  PRO620  LYS621  CYS622 
 ASP623  PHE694  ASN695  SER759  ASP760  ASP761  ALA762  ILE779  LEU786  VAL792 
 PHE793  MET794  SER795  GLU796  ALA797  LYS798  CYS799  TRP800  GLU811  SER814 

> <Gold.Protein.RotatedAtoms>
  151.4457  133.3631  159.2787 H   0  0  0  0  0  0  0  0  0  0  0  0  # atno 6907 bound_to 6896
  150.9126  134.8545  159.7446 H   0  0  0  0  0  0  0  0  0  0  0  0  # atno 6908 bound_to 6896
  152.4940  134.4388  159.9588 H   0  0  0  0  0  0  0  0  0  0  0  0  # atno 6909 bound_to 6896
  144.7129  140.0919  143.6421 H   0  0  0  0  0  0  0  0  0  0  0  0  # atno 7974 bound_to 7965
  154.7874  140.0463  157.1175 H   0  0  0  0  0  0  0  0  0  0  0  0  # atno 8008 bound_to 7997
  154.9631  140.3080  155.5002 H   0  0  0  0  0  0  0  0  0  0  0  0  # atno 8009 bound_to 7997
  156.2945  140.2267  156.4718 H   0  0  0  0  0  0  0  0  0  0  0  0  # atno 8010 bound_to 7997
  139.4953  144.3883  151.9545 H   0  0  0  0  0  0  0  0  0  0  0  0  # atno 10167 bound_to 10162
  156.0474  130.5701  150.7930 H   0  0  0  0  0  0  0  0  0  0  0  0  # atno 10718 bound_to 10713
  154.3152  135.6207  153.5483 H   0  0  0  0  0  0  0  0  0  0  0  0  # atno 10763 bound_to 10752
  152.9825  135.5710  154.5132 H   0  0  0  0  0  0  0  0  0  0  0  0  # atno 10764 bound_to 10752
  154.4790  135.2862  155.1562 H   0  0  0  0  0  0  0  0  0  0  0  0  # atno 10765 bound_to 10752
  140.2635  134.7883  157.3611 H   0  0  0  0  0  0  0  0  0  0  0  0  # atno 11005 bound_to 11000
  145.9612  139.2802  143.1154 LP  0  0  0  0  0  0  0  0  0  0  0  0  # atno 17320 bound_to 7965
  145.9218  140.9110  143.0401 LP  0  0  0  0  0  0  0  0  0  0  0  0  # atno 17321 bound_to 7965
  140.3320  144.3305  150.5985 LP  0  0  0  0  0  0  0  0  0  0  0  0  # atno 17342 bound_to 10162
  140.5637  143.2189  151.7721 LP  0  0  0  0  0  0  0  0  0  0  0  0  # atno 17343 bound_to 10162
  157.5365  131.0939  150.9885 LP  0  0  0  0  0  0  0  0  0  0  0  0  # atno 17370 bound_to 10713
  157.0178  130.5662  149.5328 LP  0  0  0  0  0  0  0  0  0  0  0  0  # atno 17371 bound_to 10713
  140.1442  134.4933  155.8009 LP  0  0  0  0  0  0  0  0  0  0  0  0  # atno 17394 bound_to 11000
  141.2187  133.6837  156.7264 LP  0  0  0  0  0  0  0  0  0  0  0  0  # atno 17395 bound_to 11000

$$$$
