AV-unprocessed.smi:1363|AV-procd|sdf|5566|dock4
  -GOLD-   22720 5163D 1   1.00000     0.00000
 Structure written by MMmdl.
 43 44  0  0  0  0  0  0  0  0  2 V2000
  148.2206  134.7564  158.6994 C   0  0  0  0  0  0  0  0  0  0  0  0
  148.9725  135.5548  157.6561 C   0  0  0  0  0  0  0  0  0  0  0  0
  148.3163  136.2087  156.7751 N   0  0  0  0  0  0  0  0  0  0  0  0
  149.0111  136.9534  155.8069 C   0  0  0  0  0  0  0  0  0  0  0  0
  148.1517  137.7055  154.8057 C   0  0  0  0  0  0  0  0  0  0  0  0
  150.3744  136.9882  155.7874 C   0  0  0  0  0  0  0  0  0  0  0  0
  151.1741  137.7923  154.7620 C   0  0  0  0  0  0  0  0  0  0  0  0
  151.7410  139.1283  155.2491 C   0  0  0  0  0  0  0  0  0  0  0  0
  152.9420  139.3763  155.1398 O   0  0  0  0  0  0  0  0  0  0  0  0
  150.8577  139.9862  155.7819 N   0  0  0  0  0  0  0  0  0  0  0  0
  151.1790  141.3165  156.2844 C   0  0  0  0  0  0  0  0  0  0  0  0
  151.8891  141.2439  157.6506 C   0  0  0  0  0  0  0  0  0  0  0  0
  151.8788  142.5287  158.4732 C   0  0  0  0  0  0  0  0  0  0  0  0
  152.1909  142.5955  159.7854 C   0  0  0  0  0  0  0  0  0  0  0  0
  152.2142  143.8811  160.5939 C   0  0  0  0  0  0  0  0  0  0  0  0
  152.2007  145.1343  159.7045 C   0  0  0  0  0  0  0  0  0  0  0  0
  151.1827  144.9900  158.5684 C   0  0  0  0  0  0  0  0  0  0  0  0
  151.5036  143.7752  157.6795 C   0  0  0  0  0  0  0  0  0  0  0  0
  151.0932  136.2127  156.8142 C   0  0  0  0  0  0  0  0  0  0  0  0
  152.3234  136.1955  156.8322 O   0  0  0  0  0  0  0  0  0  0  0  0
  150.3472  135.5245  157.7250 N   0  5  0  0  0  0  0  0  0  0  0  0
  147.1420  134.8577  158.5715 H   0  0  0  0  0  0  0  0  0  0  0  0
  148.4797  135.1031  159.7001 H   0  0  0  0  0  0  0  0  0  0  0  0
  148.4759  133.6992  158.6223 H   0  0  0  0  0  0  0  0  0  0  0  0
  148.3001  138.7805  154.9070 H   0  0  0  0  0  0  0  0  0  0  0  0
  147.0924  137.4972  154.9599 H   0  0  0  0  0  0  0  0  0  0  0  0
  148.4033  137.4132  153.7860 H   0  0  0  0  0  0  0  0  0  0  0  0
  151.9997  137.1695  154.4165 H   0  0  0  0  0  0  0  0  0  0  0  0
  150.5798  137.9815  153.8678 H   0  0  0  0  0  0  0  0  0  0  0  0
  149.8910  139.6992  155.8329 H   0  0  0  0  0  0  0  0  0  0  0  0
  151.8251  141.7987  155.5503 H   0  0  0  0  0  0  0  0  0  0  0  0
  150.2697  141.9166  156.3501 H   0  0  0  0  0  0  0  0  0  0  0  0
  151.4316  140.4602  158.2562 H   0  0  0  0  0  0  0  0  0  0  0  0
  152.9282  140.9489  157.4989 H   0  0  0  0  0  0  0  0  0  0  0  0
  152.4417  141.7052  160.3410 H   0  0  0  0  0  0  0  0  0  0  0  0
  151.3479  143.8786  161.2559 H   0  0  0  0  0  0  0  0  0  0  0  0
  153.0997  143.8888  161.2300 H   0  0  0  0  0  0  0  0  0  0  0  0
  151.9790  146.0166  160.3056 H   0  0  0  0  0  0  0  0  0  0  0  0
  153.1928  145.2909  159.2788 H   0  0  0  0  0  0  0  0  0  0  0  0
  150.1851  144.8758  158.9948 H   0  0  0  0  0  0  0  0  0  0  0  0
  151.1575  145.8968  157.9636 H   0  0  0  0  0  0  0  0  0  0  0  0
  152.3351  144.0119  157.0146 H   0  0  0  0  0  0  0  0  0  0  0  0
  150.6451  143.5585  157.0429 H   0  0  0  0  0  0  0  0  0  0  0  0
  1  2  1  0  0  0  0
  1 22  1  0  0  0  0
  1 23  1  0  0  0  0
  1 24  1  0  0  0  0
  2 21  1  0  0  0  0
  2  3  2  0  0  0  0
  3  4  1  0  0  0  0
  4  5  1  0  0  0  0
  4  6  2  0  0  0  0
  5 25  1  0  0  0  0
  5 26  1  0  0  0  0
  5 27  1  0  0  0  0
  6  7  1  0  0  0  0
  6 19  1  0  0  0  0
  7  8  1  0  0  0  0
  7 28  1  0  0  0  0
  7 29  1  0  0  0  0
  8  9  2  0  0  0  0
  8 10  1  0  0  0  0
 10 11  1  0  0  0  0
 10 30  1  0  0  0  0
 11 12  1  0  0  0  0
 11 31  1  0  0  0  0
 11 32  1  0  0  0  0
 12 13  1  0  0  0  0
 12 33  1  0  0  0  0
 12 34  1  0  0  0  0
 13 18  1  0  0  0  0
 13 14  2  0  0  0  0
 14 15  1  0  0  0  0
 14 35  1  0  0  0  0
 15 16  1  0  0  0  0
 15 36  1  0  0  0  0
 15 37  1  0  0  0  0
 16 17  1  0  0  0  0
 16 38  1  0  0  0  0
 16 39  1  0  0  0  0
 17 18  1  0  0  0  0
 17 40  1  0  0  0  0
 17 41  1  0  0  0  0
 18 42  1  0  0  0  0
 18 43  1  0  0  0  0
 19 20  2  0  0  0  0
 19 21  1  0  0  0  0
M  CHG  1  21  -1
M  END
> <s_m_source_file>
AV-unprocessed.smi

> <i_m_source_file_index>
1363

> <i_lp_mmshare_version>
43012

> <i_f3d_flags>
0

> <s_epik_input>
W0NIM11jMW5jKFtDSDNdKWMoYyg9TylbbkhdMSlbQ0gyXUMoPU8pW05IXVtDSDJdW0NIMl1DMj1bQ0hdW0NIMl1bQ0gyXVtDSDJdW0NIMl0y

> <s_epik_cmdline>
J2VwaWtfcHl0aG9uJywgJy1waCcsICc3LjAnLCAnLXRuJywgJzgnLCAnLW1hJywgJzIwMCcsICctbWV0YWxfYmluZGluZycsICctaW1hZScsICc8aW5maWxlLm1hZT4nLCAnLW9tYWUnLCAnPG91dGZpbGUubWFlPic=

> <r_lp_tautomer_probability>
0.839158

> <r_epik_Ionization_Penalty>
6.61902

> <r_epik_Ionization_Penalty_Charging>
7.01438e-08

> <r_epik_Ionization_Penalty_Neutral>
6.61902

> <r_epik_State_Penalty>
4.43873

> <r_epik_Charging_Adjusted_Penalty>
4.43873

> <i_epik_Tot_Q>
-1

> <i_epik_Tot_abs_Q>
1

> <r_epik_Metal_State_Penalty>
0.802113

> <b_epik_Metal_Only>
1

> <s_lp_Force_Field>
OPLS_2005

> <r_lp_Energy>
12.6483

> <b_lp_Chiralities_Consistent>
1

> <s_lp_Variant>
AV-unprocessed.smi:1363-3

> <Gold.Version>
5.8.1

> <Gold.Id.Protein>
6NUR|6NUR_protein|mol2

> <Gold.PLP.Fitness>
47.0394

> <Gold.PLP.PLP>
-38.6085

> <Gold.PLP.part.hbond>
-3.3832

> <Gold.PLP.part.metal>
0.0000

> <Gold.PLP.part.buried>
-6.7452

> <Gold.PLP.part.nonpolar>
-29.6717

> <Gold.PLP.part.repulsive>
0.1033

> <Gold.PLP.ligand.clash>
0.0000

> <Gold.PLP.ligand.torsion>
0.6543

> <Gold.PLP.Chemscore.Hbond>
3.2371

> <Gold.PLP.Chemscore.CHOScore>
0.0000

> <Gold.PLP.Chemscore.Metal>
0.0000

> <Gold.Chemscore.Hbonds>
donor molecule, donor type, donor heavy atom, donor atom, acceptor molecule, acceptor atom, score
      P1  H  6896  6908       L1    21  1.19
      P1  H  7997  8008       L1     9  1.00
      P1  H 10752 10763       L1    20  0.94

> <Gold.PLP.Chemscore.Internal.Correction>
0.0282

> <Gold.Rescore>
     Score         DG    S(hbond)    S(metal)    S(lipo)     H(rot)  DE(clash)    DE(int)     intcor
     19.77     -20.55       2.30        0.00     102.70       1.80       0.11       0.68       ----

> <Gold.Chemscore.Fitness>
19.7699

> <Gold.Chemscore.DG>
-20.5519

> <Gold.Chemscore.ZeroCoef>
-5.4800

> <Gold.Chemscore.Hbond>
2.2961

> <Gold.Chemscore.Metal>
0.0000

> <Gold.Chemscore.Lipo>
102.6960

> <Gold.Chemscore.Internal_Hbond>
0.0000

> <Gold.Chemscore.DEClash>
0.1053

> <Gold.Chemscore.DEInternal>
0.6767

> <Gold.Chemscore.Rot>
1.8018

> <Gold.Chemscore.Internal.Correction>
   9.000000E+99

> <Gold.Chemscore.Hbonds>
donor molecule, donor type, donor heavy atom, donor atom, acceptor molecule, acceptor atom, score
      P1  H  6896  6908       L1    21  0.26
      P1  H  7997  8008       L1     9  1.00
      P1  H 10752 10763       L1    20  0.83

> <Gold.Chemscore.Hbond.Weighted>
-7.6690

> <Gold.Chemscore.Metal.Weighted>
-0.0000

> <Gold.Chemscore.Lipo.Weighted>
-12.0154

> <Gold.Chemscore.Internal_Hbond.Weighted>
0.0000

> <Gold.Chemscore.DEClash.Weighted>
0.1053

> <Gold.Chemscore.DEInternal.Weighted>
0.6767

> <Gold.Chemscore.Rot.Weighted>
4.6126

> <Gold.Chemscore.Internal.Correction.Weighted>
   9.000000E+99

> <Gold.Protein.RotatedTorsions>
[ 6907 6896 6895 6894 ] final  174.21 input  -60.11 | X-H torsion
[ 7974 7965 7964 7962 ] final   71.91 input  175.53 | X-H torsion
[ 8008 7997 7996 7995 ] final  -17.98 input   59.86 | X-H torsion
[ 10167 10162 10161 10158 ] final  -74.82 input  -65.29 | X-H torsion
[ 10718 10713 10712 10709 ] final  150.70 input   66.30 | X-H torsion
[ 10763 10752 10751 10750 ] final   97.79 input  -60.55 | X-H torsion
[ 11005 11000 10999 10996 ] final  161.95 input  -57.11 | X-H torsion

> <Gold.Protein.ActiveResidues>
 VAL166  LYS551  ARG553  GLY616  TRP617  ASP618  TYR619  PRO620  LYS621  CYS622 
 ASP623  PHE694  ASN695  SER759  ASP760  ASP761  ALA762  ILE779  LEU786  VAL792 
 PHE793  MET794  SER795  GLU796  ALA797  LYS798  CYS799  TRP800  GLU811  SER814 

> <Gold.Protein.RotatedAtoms>
  151.7559  133.3330  159.3404 H   0  0  0  0  0  0  0  0  0  0  0  0  # atno 6907 bound_to 6896
  150.7517  134.6150  159.6115 H   0  0  0  0  0  0  0  0  0  0  0  0  # atno 6908 bound_to 6896
  152.3438  134.7101  160.0308 H   0  0  0  0  0  0  0  0  0  0  0  0  # atno 6909 bound_to 6896
  145.7599  139.2796  143.1382 H   0  0  0  0  0  0  0  0  0  0  0  0  # atno 7974 bound_to 7965
  154.4939  140.2128  155.9489 H   0  0  0  0  0  0  0  0  0  0  0  0  # atno 8008 bound_to 7997
  156.1343  140.3191  155.8365 H   0  0  0  0  0  0  0  0  0  0  0  0  # atno 8009 bound_to 7997
  155.4239  140.0499  157.3014 H   0  0  0  0  0  0  0  0  0  0  0  0  # atno 8010 bound_to 7997
  140.4994  143.2364  151.7776 H   0  0  0  0  0  0  0  0  0  0  0  0  # atno 10167 bound_to 10162
  157.2802  131.0834  151.1537 H   0  0  0  0  0  0  0  0  0  0  0  0  # atno 10718 bound_to 10713
  153.2811  135.4171  155.1079 H   0  0  0  0  0  0  0  0  0  0  0  0  # atno 10763 bound_to 10752
  154.8489  135.3495  154.6110 H   0  0  0  0  0  0  0  0  0  0  0  0  # atno 10764 bound_to 10752
  153.6531  135.7052  153.5260 H   0  0  0  0  0  0  0  0  0  0  0  0  # atno 10765 bound_to 10752
  140.2209  134.8197  157.3219 H   0  0  0  0  0  0  0  0  0  0  0  0  # atno 11005 bound_to 11000
  146.0274  140.8290  142.9893 LP  0  0  0  0  0  0  0  0  0  0  0  0  # atno 17320 bound_to 7965
  144.6832  140.2718  143.7305 LP  0  0  0  0  0  0  0  0  0  0  0  0  # atno 17321 bound_to 7965
  139.4869  144.4542  151.9618 LP  0  0  0  0  0  0  0  0  0  0  0  0  # atno 17342 bound_to 10162
  140.3630  144.2949  150.5930 LP  0  0  0  0  0  0  0  0  0  0  0  0  # atno 17343 bound_to 10162
  157.2974  130.6826  149.6146 LP  0  0  0  0  0  0  0  0  0  0  0  0  # atno 17370 bound_to 10713
  155.9664  130.4402  150.5291 LP  0  0  0  0  0  0  0  0  0  0  0  0  # atno 17371 bound_to 10713
  140.1851  134.4441  155.7749 LP  0  0  0  0  0  0  0  0  0  0  0  0  # atno 17394 bound_to 11000
  141.2223  133.7001  156.7933 LP  0  0  0  0  0  0  0  0  0  0  0  0  # atno 17395 bound_to 11000

$$$$
