AV-unprocessed.smi:1833|AV-procd|sdf|7467|dock2
  -GOLD-   22720 9163D 1   1.00000     0.00000
 Structure written by MMmdl.
 42 43  0  0  0  0  0  0  0  0  2 V2000
  144.9645  132.7690  150.6318 C   0  0  0  0  0  0  0  0  0  0  0  0
  146.3522  133.4259  150.6677 C   0  0  0  0  0  0  0  0  0  0  0  0
  146.4067  134.5788  151.6008 N   0  3  1  0  0  0  0  0  0  0  0  0
  145.4820  135.6728  151.2045 C   0  0  0  0  0  0  0  0  0  0  0  0
  145.6686  136.9119  152.0976 C   0  0  0  0  0  0  0  0  0  0  0  0
  145.5221  136.5576  153.5870 C   0  0  0  0  0  0  0  0  0  0  0  0
  146.4488  135.3898  153.9689 C   0  0  2  0  0  0  0  0  0  0  0  0
  147.8437  135.8306  153.9383 N   0  0  0  0  0  0  0  0  0  0  0  0
  148.5728  136.1608  155.0130 C   0  0  0  0  0  0  0  0  0  0  0  0
  148.1579  136.0976  156.1700 O   0  0  0  0  0  0  0  0  0  0  0  0
  149.8005  136.5790  154.6727 N   0  0  0  0  0  0  0  0  0  0  0  0
  150.8237  137.0434  155.6067 C   0  0  0  0  0  0  0  0  0  0  0  0
  151.5984  138.2651  155.0762 C   0  0  0  0  0  0  0  0  0  0  0  0
  151.1757  139.5673  155.6771 C   0  0  0  0  0  0  0  0  0  0  0  0
  150.6039  140.5490  154.9743 N   0  0  0  0  0  0  0  0  0  0  0  0
  150.3408  141.6796  155.7514 C   0  0  0  0  0  0  0  0  0  0  0  0
  150.7272  141.5465  157.0608 C   0  0  0  0  0  0  0  0  0  0  0  0
  151.4393  139.9867  157.3679 S   0  0  0  0  0  0  0  0  0  0  0  0
  146.2023  134.1938  153.0228 C   0  0  0  0  0  0  0  0  0  0  0  0
  144.9789  131.8779  150.0039 H   0  0  0  0  0  0  0  0  0  0  0  0
  144.2036  133.4353  150.2267 H   0  0  0  0  0  0  0  0  0  0  0  0
  144.6474  132.4637  151.6293 H   0  0  0  0  0  0  0  0  0  0  0  0
  147.0678  132.6680  150.9888 H   0  0  0  0  0  0  0  0  0  0  0  0
  146.6599  133.7368  149.6682 H   0  0  0  0  0  0  0  0  0  0  0  0
  145.6627  135.9528  150.1658 H   0  0  0  0  0  0  0  0  0  0  0  0
  144.4517  135.3180  151.2621 H   0  0  0  0  0  0  0  0  0  0  0  0
  146.6521  137.3470  151.9159 H   0  0  0  0  0  0  0  0  0  0  0  0
  144.9419  137.6781  151.8260 H   0  0  0  0  0  0  0  0  0  0  0  0
  145.7287  137.4310  154.2070 H   0  0  0  0  0  0  0  0  0  0  0  0
  144.4874  136.2773  153.7890 H   0  0  0  0  0  0  0  0  0  0  0  0
  146.2138  135.0877  154.9912 H   0  0  0  0  0  0  0  0  0  0  0  0
  148.2704  135.9285  153.0285 H   0  0  0  0  0  0  0  0  0  0  0  0
  150.0423  136.5973  153.6926 H   0  0  0  0  0  0  0  0  0  0  0  0
  150.3832  137.2745  156.5779 H   0  0  0  0  0  0  0  0  0  0  0  0
  151.5189  136.2218  155.7792 H   0  0  0  0  0  0  0  0  0  0  0  0
  152.6649  138.1289  155.2592 H   0  0  0  0  0  0  0  0  0  0  0  0
  151.4814  138.3329  153.9943 H   0  0  0  0  0  0  0  0  0  0  0  0
  149.8760  142.5382  155.2896 H   0  0  0  0  0  0  0  0  0  0  0  0
  150.6366  142.2683  157.8588 H   0  0  0  0  0  0  0  0  0  0  0  0
  145.1845  133.8221  153.1522 H   0  0  0  0  0  0  0  0  0  0  0  0
  146.8608  133.3698  153.2940 H   0  0  0  0  0  0  0  0  0  0  0  0
  147.3402  134.9578  151.5303 H   0  0  0  0  0  0  0  0  0  0  0  0
  1  2  1  0  0  0  0
  1 20  1  0  0  0  0
  1 21  1  0  0  0  0
  1 22  1  0  0  0  0
  2  3  1  0  0  0  0
  2 23  1  0  0  0  0
  2 24  1  0  0  0  0
  3 19  1  0  0  0  0
  3  4  1  0  0  0  0
  3 42  1  0  0  0  0
  4  5  1  0  0  0  0
  4 25  1  0  0  0  0
  4 26  1  0  0  0  0
  5  6  1  0  0  0  0
  5 27  1  0  0  0  0
  5 28  1  0  0  0  0
  6  7  1  0  0  0  0
  6 29  1  0  0  0  0
  6 30  1  0  0  0  0
  7  8  1  0  0  0  0
  7 19  1  0  0  0  0
  7 31  1  0  0  0  0
  8  9  1  0  0  0  0
  8 32  1  0  0  0  0
  9 10  2  0  0  0  0
  9 11  1  0  0  0  0
 11 12  1  0  0  0  0
 11 33  1  0  0  0  0
 12 13  1  0  0  0  0
 12 34  1  0  0  0  0
 12 35  1  0  0  0  0
 13 14  1  0  0  0  0
 13 36  1  0  0  0  0
 13 37  1  0  0  0  0
 14 18  1  0  0  0  0
 14 15  2  0  0  0  0
 15 16  1  0  0  0  0
 16 17  2  0  0  0  0
 16 38  1  0  0  0  0
 17 18  1  0  0  0  0
 17 39  1  0  0  0  0
 19 40  1  0  0  0  0
 19 41  1  0  0  0  0
M  CHG  1   3   1
M  END
> <s_m_source_file>
AV-unprocessed.smi

> <i_m_source_file_index>
1833

> <i_lp_mmshare_version>
43012

> <i_f3d_flags>
0

> <s_epik_input>
W0NIM11bQ0gyXU4xW0NIMl1bQ0gyXVtDSDJdW0NASF0oW0NIMl0xKVtOSF1DKD1PKVtOSF1bQ0gyXVtDSDJdYzJuW2NIXVtjSF1zMg==

> <s_epik_cmdline>
J2VwaWtfcHl0aG9uJywgJy1waCcsICc3LjAnLCAnLXRuJywgJzgnLCAnLW1hJywgJzIwMCcsICctbWV0YWxfYmluZGluZycsICctaW1hZScsICc8aW5maWxlLm1hZT4nLCAnLW9tYWUnLCAnPG91dGZpbGUubWFlPic=

> <r_lp_tautomer_probability>
1

> <r_epik_Ionization_Penalty>
0.00269629

> <r_epik_Ionization_Penalty_Charging>
0.00233899

> <r_epik_Ionization_Penalty_Neutral>
0.000357304

> <r_epik_State_Penalty>
-0

> <r_epik_Charging_Adjusted_Penalty>
0.00233899

> <i_epik_Tot_Q>
1

> <i_epik_Tot_abs_Q>
1

> <r_epik_Metal_State_Penalty>
-0

> <b_epik_Metal_Only>
0

> <s_lp_Force_Field>
OPLS_2005

> <r_lp_Energy>
15.7918

> <b_lp_Chiralities_Consistent>
1

> <s_lp_Variant>
AV-unprocessed.smi:1833-3

> <Gold.Version>
5.8.1

> <Gold.Id.Protein>
6NUR|6NUR_protein|mol2

> <Gold.PLP.Fitness>
43.7427

> <Gold.PLP.PLP>
-29.7657

> <Gold.PLP.part.hbond>
-3.4916

> <Gold.PLP.part.metal>
0.0000

> <Gold.PLP.part.buried>
-4.8316

> <Gold.PLP.part.nonpolar>
-22.3937

> <Gold.PLP.part.repulsive>
0.1933

> <Gold.PLP.ligand.clash>
0.0000

> <Gold.PLP.ligand.torsion>
0.7294

> <Gold.PLP.Chemscore.Hbond>
4.1255

> <Gold.PLP.Chemscore.CHOScore>
1.0000

> <Gold.PLP.Chemscore.Metal>
0.0000

> <Gold.Chemscore.Hbonds>
donor molecule, donor type, donor heavy atom, donor atom, acceptor molecule, acceptor atom, score
      L1  H     3    42       P1  7948  2.00
      L1  H     8    32       P1  7948  0.62
      L1  H    11    33       P1  7948  0.51
      P1  H  7989  7998       L1    15  0.99
      L1  C    16    38       P1  8028  1.00

> <Gold.PLP.Chemscore.Internal.Correction>
0.0592

> <Gold.Rescore>
     Score         DG    S(hbond)    S(metal)    S(lipo)     H(rot)  DE(clash)    DE(int)     intcor
     17.79     -18.50       2.86        0.00      67.03       1.71       0.03       0.68       ----

> <Gold.Chemscore.Fitness>
17.7932

> <Gold.Chemscore.DG>
-18.5004

> <Gold.Chemscore.ZeroCoef>
-5.4800

> <Gold.Chemscore.Hbond>
2.8644

> <Gold.Chemscore.Metal>
0.0000

> <Gold.Chemscore.Lipo>
67.0322

> <Gold.Chemscore.Internal_Hbond>
0.0000

> <Gold.Chemscore.DEClash>
0.0275

> <Gold.Chemscore.DEInternal>
0.6797

> <Gold.Chemscore.Rot>
1.7147

> <Gold.Chemscore.Internal.Correction>
   9.000000E+99

> <Gold.Chemscore.Hbonds>
donor molecule, donor type, donor heavy atom, donor atom, acceptor molecule, acceptor atom, score
      L1  H     3    42       P1  7948  0.65
      L1  H     8    32       P1  7948  0.63
      L1  H    11    33       P1  7948  0.10
      P1  H  7989  7998       L1    15  0.58

> <Gold.Chemscore.Hbond.Weighted>
-9.5672

> <Gold.Chemscore.Metal.Weighted>
-0.0000

> <Gold.Chemscore.Lipo.Weighted>
-7.8428

> <Gold.Chemscore.Internal_Hbond.Weighted>
0.0000

> <Gold.Chemscore.DEClash.Weighted>
0.0275

> <Gold.Chemscore.DEInternal.Weighted>
0.6797

> <Gold.Chemscore.Rot.Weighted>
4.3896

> <Gold.Chemscore.Internal.Correction.Weighted>
   9.000000E+99

> <Gold.Protein.RotatedTorsions>
[ 6907 6896 6895 6894 ] final   68.52 input  -60.11 | X-H torsion
[ 7974 7965 7964 7962 ] final  -62.80 input  175.53 | X-H torsion
[ 8008 7997 7996 7995 ] final   23.75 input   59.86 | X-H torsion
[ 10167 10162 10161 10158 ] final  -11.58 input  -65.29 | X-H torsion
[ 10718 10713 10712 10709 ] final  142.52 input   66.30 | X-H torsion
[ 10763 10752 10751 10750 ] final -105.02 input  -60.55 | X-H torsion
[ 11005 11000 10999 10996 ] final -101.71 input  -57.11 | X-H torsion

> <Gold.Protein.ActiveResidues>
 VAL166  LYS551  ARG553  GLY616  TRP617  ASP618  TYR619  PRO620  LYS621  CYS622 
 ASP623  PHE694  ASN695  SER759  ASP760  ASP761  ALA762  ILE779  LEU786  VAL792 
 PHE793  MET794  SER795  GLU796  ALA797  LYS798  CYS799  TRP800  GLU811  SER814 

> <Gold.Protein.RotatedAtoms>
  152.4626  134.5150  159.9764 H   0  0  0  0  0  0  0  0  0  0  0  0  # atno 6907 bound_to 6896
  151.5195  133.3463  159.2907 H   0  0  0  0  0  0  0  0  0  0  0  0  # atno 6908 bound_to 6896
  150.8595  134.7973  159.7134 H   0  0  0  0  0  0  0  0  0  0  0  0  # atno 6909 bound_to 6896
  145.7868  140.8732  143.0301 H   0  0  0  0  0  0  0  0  0  0  0  0  # atno 7974 bound_to 7965
  154.9858  140.3107  155.4927 H   0  0  0  0  0  0  0  0  0  0  0  0  # atno 8008 bound_to 7997
  156.2947  140.2258  156.4899 H   0  0  0  0  0  0  0  0  0  0  0  0  # atno 8009 bound_to 7997
  154.7748  140.0450  157.1068 H   0  0  0  0  0  0  0  0  0  0  0  0  # atno 8010 bound_to 7997
  140.7142  143.5624  150.9181 H   0  0  0  0  0  0  0  0  0  0  0  0  # atno 10167 bound_to 10162
  157.3795  131.0990  151.0752 H   0  0  0  0  0  0  0  0  0  0  0  0  # atno 10718 bound_to 10713
  154.7918  135.4764  154.0070 H   0  0  0  0  0  0  0  0  0  0  0  0  # atno 10763 bound_to 10752
  153.1643  135.6814  153.8705 H   0  0  0  0  0  0  0  0  0  0  0  0  # atno 10764 bound_to 10752
  153.8308  135.3192  155.3396 H   0  0  0  0  0  0  0  0  0  0  0  0  # atno 10765 bound_to 10752
  141.1219  133.8500  157.1267 H   0  0  0  0  0  0  0  0  0  0  0  0  # atno 11005 bound_to 11000
  144.6788  140.0067  143.7484 LP  0  0  0  0  0  0  0  0  0  0  0  0  # atno 17320 bound_to 7965
  146.0018  139.3097  143.0923 LP  0  0  0  0  0  0  0  0  0  0  0  0  # atno 17321 bound_to 7965
  139.9349  143.6449  152.3067 LP  0  0  0  0  0  0  0  0  0  0  0  0  # atno 17342 bound_to 10162
  139.6913  144.7646  151.1433 LP  0  0  0  0  0  0  0  0  0  0  0  0  # atno 17343 bound_to 10162
  157.1826  130.6316  149.5677 LP  0  0  0  0  0  0  0  0  0  0  0  0  # atno 17370 bound_to 10713
  155.9773  130.4748  150.6582 LP  0  0  0  0  0  0  0  0  0  0  0  0  # atno 17371 bound_to 10713
  140.0184  134.9957  157.0542 LP  0  0  0  0  0  0  0  0  0  0  0  0  # atno 17394 bound_to 11000
  140.4480  134.1611  155.7179 LP  0  0  0  0  0  0  0  0  0  0  0  0  # atno 17395 bound_to 11000

$$$$
