#       Name:                AV-unprocessed.smi:2889
#       Creating user name   scv26
#       Creation time:       Fri Mar 27 15:57:34 2020


#       File generated by GOLD software.
#

@<TRIPOS>MOLECULE
AV-unprocessed.smi:2889
    40    41     1
SMALL
NO_CHARGES


@<TRIPOS>ATOM
      1 ****        -0.8075   0.2709  -2.8070 C.3            1 S1                 0.0000
      2 ****        -0.3809  -1.2628  -1.9388 S.3            1 S1                 0.0000
      3 ****        -1.4239  -1.1376  -0.4496 C.3            1 S1                 0.0000
      4 ****        -1.4211  -2.4681   0.3269 C.3            1 S1                 0.0000
      5 ****        -2.3095  -2.4005   1.5774 C.3            1 S1                 0.0000
      6 ****        -1.8795  -1.2501   2.4973 C.3            1 S1                 0.0000
      7 ****        -1.8900   0.0950   1.7534 C.3            1 S1                 0.0000
      8 ****        -1.0507   0.0616   0.4581 C.3            1 S1                 0.0000
      9 ****         0.3871   0.0698   0.7624 N.3            1 S1                 0.0000
     10 ****         1.1288   1.5151   1.3501 S.o2           1 S1                 0.0000
     11 ****         0.4705   2.6593   0.6998 O.2            1 S1                 0.0000
     12 ****         1.1659   1.4148   2.8170 O.2            1 S1                 0.0000
     13 ****         2.8504   1.3641   0.7020 C.3            1 S1                 0.0000
     14 ****         2.8773   1.6507  -0.7729 C.2            1 S1                 0.0000
     15 ****         2.7348   0.7343  -1.8511 C.2            1 S1                 0.0000
     16 ****         2.8295   1.5266  -2.9583 C.2            1 S1                 0.0000
     17 ****         3.0260   2.8205  -2.6006 O.3            1 S1                 0.0000
     18 ****         3.0606   2.8891  -1.2032 N.2            1 S1                 0.0000
     19 ****        -0.3338   0.2853  -3.7883 H              1 S1                 0.0000
     20 ****        -0.4582   1.1409  -2.2514 H              1 S1                 0.0000
     21 ****        -1.8862   0.3482  -2.9428 H              1 S1                 0.0000
     22 ****        -2.4425  -0.9769  -0.8057 H              1 S1                 0.0000
     23 ****        -1.7653  -3.2752  -0.3206 H              1 S1                 0.0000
     24 ****        -0.4015  -2.7230   0.6191 H              1 S1                 0.0000
     25 ****        -3.3506  -2.2654   1.2817 H              1 S1                 0.0000
     26 ****        -2.2609  -3.3460   2.1181 H              1 S1                 0.0000
     27 ****        -2.5417  -1.1990   3.3618 H              1 S1                 0.0000
     28 ****        -0.8798  -1.4456   2.8872 H              1 S1                 0.0000
     29 ****        -2.9208   0.3393   1.4939 H              1 S1                 0.0000
     30 ****        -1.5550   0.8944   2.4147 H              1 S1                 0.0000
     31 ****        -1.2740   0.9737  -0.0939 H              1 S1                 0.0000
     32 ****         0.6472  -0.7355   1.3312 H              1 S1                 0.0000
     33 ****         3.4756   2.0738   1.2442 H              1 S1                 0.0000
     34 ****         3.2211   0.3637   0.9235 H              1 S1                 0.0000
     35 ****         2.5787  -0.3336  -1.8172 H              1 S1                 0.0000
     36 ****         2.7811   1.3285  -4.0188 H              1 S1                 0.0000
     37 ****         0.7779   0.0149  -0.1564 LP             1 S1                 0.0000
     38 ****         2.2775   3.3850  -2.9485 LP             1 S1                 0.0000
     39 ****         3.8928   3.1475  -2.9769 LP             1 S1                 0.0000
     40 ****         3.1961   3.7069  -0.6438 LP             1 S1                 0.0000
@<TRIPOS>BOND
    1    1    2 1     
    2    1   19 1     
    3    1   20 1     
    4    1   21 1     
    5    2    3 1     
    6    3    8 1     
    7    3    4 1     
    8    3   22 1     
    9    4    5 1     
   10    4   23 1     
   11    4   24 1     
   12    5    6 1     
   13    5   25 1     
   14    5   26 1     
   15    6    7 1     
   16    6   27 1     
   17    6   28 1     
   18    7    8 1     
   19    7   29 1     
   20    7   30 1     
   21    8    9 1     
   22    8   31 1     
   23    9   10 1     
   24    9   32 1     
   25   10   11 2     
   26   10   12 2     
   27   10   13 1     
   28   13   14 1     
   29   13   33 1     
   30   13   34 1     
   31   14   18 2     
   32   14   15 1     
   33   15   16 2     
   34   15   35 1     
   35   16   17 1     
   36   16   36 1     
   37   17   18 1     
   38    9   37 1     
   39   17   38 1     
   40   17   39 1     
   41   18   40 1     
@<TRIPOS>SUBSTRUCTURE
      1 S1             1
@<TRIPOS>SET
LONE_PAIRS      STATIC     ATOMS    <user>   **** ""
6 37 11 12 38 39 40
DONOR_HYDROGENS      STATIC     ATOMS    <user>   **** ""
1 32
ATOM$BLUE        STATIC     ATOMS    COLORGROUP SYSTEM
6 37 11 12 38 39 40
ATOM$RED        STATIC     ATOMS    COLORGROUP SYSTEM
1 32
