AV-unprocessed.smi:1203|AV-procd|sdf|5035|dock1
  -GOLD-   22720 4 53D 1   1.00000     0.00000
 Structure written by MMmdl.
 40 41  0  0  0  0  0  0  0  0  2 V2000
  156.5244  139.4765  166.3232 C   0  0  0  0  0  0  0  0  0  0  0  0
  156.8467  138.1500  165.0908 S   0  0  0  0  0  0  0  0  0  0  0  0
  157.9451  138.5858  164.2150 O   0  0  0  0  0  0  0  0  0  0  0  0
  156.9339  136.8580  165.7877 O   0  0  0  0  0  0  0  0  0  0  0  0
  155.3999  138.1426  164.1424 N   0  0  0  0  0  0  0  0  0  0  0  0
  154.4442  137.0421  164.3244 C   0  0  0  0  0  0  0  0  0  0  0  0
  153.6398  136.9786  163.0294 C   0  0  0  0  0  0  0  0  0  0  0  0
  154.6436  137.4370  161.9815 C   0  0  0  0  0  0  0  0  0  0  0  0
  155.5007  138.4848  162.7133 C   0  0  1  0  0  0  0  0  0  0  0  0
  155.0765  139.9291  162.4175 C   0  0  0  0  0  0  0  0  0  0  0  0
  155.5103  140.8626  163.0931 O   0  0  0  0  0  0  0  0  0  0  0  0
  154.2387  140.0980  161.3836 N   0  0  0  0  0  0  0  0  0  0  0  0
  153.7187  141.3797  160.9177 C   0  0  0  0  0  0  0  0  0  0  0  0
  152.7958  141.2481  159.6893 C   0  0  0  0  0  0  0  0  0  0  0  0
  152.2797  142.5775  159.1647 C   0  0  0  0  0  0  0  0  0  0  0  0
  152.6848  143.7925  159.7602 C   0  0  0  0  0  0  0  0  0  0  0  0
  152.1841  145.0108  159.2562 C   0  0  0  0  0  0  0  0  0  0  0  0
  151.2924  144.9871  158.1644 C   0  0  0  0  0  0  0  0  0  0  0  0
  150.9298  143.8057  157.6183 N   0  3  0  0  0  0  0  0  0  0  0  0
  151.3828  142.6177  158.0750 C   0  0  0  0  0  0  0  0  0  0  0  0
  157.4142  139.6265  166.9344 H   0  0  0  0  0  0  0  0  0  0  0  0
  155.6941  139.1840  166.9659 H   0  0  0  0  0  0  0  0  0  0  0  0
  156.2731  140.4025  165.8083 H   0  0  0  0  0  0  0  0  0  0  0  0
  154.9894  136.1089  164.4721 H   0  0  0  0  0  0  0  0  0  0  0  0
  153.8145  137.2130  165.1977 H   0  0  0  0  0  0  0  0  0  0  0  0
  153.2400  135.9845  162.8276 H   0  0  0  0  0  0  0  0  0  0  0  0
  152.8026  137.6764  163.0758 H   0  0  0  0  0  0  0  0  0  0  0  0
  155.2713  136.5971  161.6800 H   0  0  0  0  0  0  0  0  0  0  0  0
  154.1563  137.8151  161.0815 H   0  0  0  0  0  0  0  0  0  0  0  0
  156.5355  138.3599  162.3885 H   0  0  0  0  0  0  0  0  0  0  0  0
  153.9414  139.2751  160.8791 H   0  0  0  0  0  0  0  0  0  0  0  0
  153.1596  141.8176  161.7448 H   0  0  0  0  0  0  0  0  0  0  0  0
  154.5401  142.0658  160.7056 H   0  0  0  0  0  0  0  0  0  0  0  0
  153.3261  140.7359  158.8859 H   0  0  0  0  0  0  0  0  0  0  0  0
  151.9453  140.6121  159.9382 H   0  0  0  0  0  0  0  0  0  0  0  0
  153.3687  143.7918  160.5966 H   0  0  0  0  0  0  0  0  0  0  0  0
  152.4795  145.9498  159.7009 H   0  0  0  0  0  0  0  0  0  0  0  0
  150.8606  145.8699  157.7160 H   0  0  0  0  0  0  0  0  0  0  0  0
  151.0127  141.7423  157.5613 H   0  0  0  0  0  0  0  0  0  0  0  0
  150.2837  143.8106  156.8290 H   0  0  0  0  0  0  0  0  0  0  0  0
  1  2  1  0  0  0  0
  1 21  1  0  0  0  0
  1 22  1  0  0  0  0
  1 23  1  0  0  0  0
  2  3  2  0  0  0  0
  2  4  2  0  0  0  0
  2  5  1  0  0  0  0
  5  9  1  0  0  0  0
  5  6  1  0  0  0  0
  6  7  1  0  0  0  0
  6 24  1  0  0  0  0
  6 25  1  0  0  0  0
  7  8  1  0  0  0  0
  7 26  1  0  0  0  0
  7 27  1  0  0  0  0
  8  9  1  0  0  0  0
  8 28  1  0  0  0  0
  8 29  1  0  0  0  0
  9 10  1  0  0  0  0
  9 30  1  0  0  0  0
 10 11  2  0  0  0  0
 10 12  1  0  0  0  0
 12 13  1  0  0  0  0
 12 31  1  0  0  0  0
 13 14  1  0  0  0  0
 13 32  1  0  0  0  0
 13 33  1  0  0  0  0
 14 15  1  0  0  0  0
 14 34  1  0  0  0  0
 14 35  1  0  0  0  0
 15 20  1  0  0  0  0
 15 16  2  0  0  0  0
 16 17  1  0  0  0  0
 16 36  1  0  0  0  0
 17 18  2  0  0  0  0
 17 37  1  0  0  0  0
 18 19  1  0  0  0  0
 18 38  1  0  0  0  0
 19 20  2  0  0  0  0
 19 40  1  0  0  0  0
 20 39  1  0  0  0  0
M  CHG  1  19   1
M  END
> <s_m_source_file>
AV-unprocessed.smi

> <i_m_source_file_index>
1203

> <i_lp_mmshare_version>
43012

> <i_f3d_flags>
0

> <s_epik_input>
W0NIM11TKD1PKSg9TylOMVtDSDJdW0NIMl1bQ0gyXVtDQEhdMUMoPU8pW05IXVtDSDJdW0NIMl1jMltjSF1bY0hdW2NIXW5bY0hdMg==

> <s_epik_cmdline>
J2VwaWtfcHl0aG9uJywgJy1waCcsICc3LjAnLCAnLXRuJywgJzgnLCAnLW1hJywgJzIwMCcsICctbWV0YWxfYmluZGluZycsICctaW1hZScsICc8aW5maWxlLm1hZT4nLCAnLW9tYWUnLCAnPG91dGZpbGUubWFlPic=

> <r_epik_Ionization_Penalty>
2.2835

> <r_epik_Ionization_Penalty_Charging>
2.2835

> <r_epik_Ionization_Penalty_Neutral>
1.4017e-07

> <r_epik_State_Penalty>
2.43297

> <r_epik_Charging_Adjusted_Penalty>
4.71647

> <i_epik_Tot_Q>
1

> <i_epik_Tot_abs_Q>
1

> <r_epik_Metal_State_Penalty>
2.44558

> <b_epik_Metal_Only>
0

> <s_lp_Force_Field>
OPLS_2005

> <r_lp_Energy>
11.8017

> <b_lp_Chiralities_Consistent>
1

> <s_lp_Variant>
AV-unprocessed.smi:1203-3

> <Gold.Version>
5.8.1

> <Gold.Id.Protein>
6NUR|6NUR_protein|mol2

> <Gold.PLP.Fitness>
47.7039

> <Gold.PLP.PLP>
-42.3770

> <Gold.PLP.part.hbond>
-2.0000

> <Gold.PLP.part.metal>
0.0000

> <Gold.PLP.part.buried>
-6.2648

> <Gold.PLP.part.nonpolar>
-33.9891

> <Gold.PLP.part.repulsive>
0.1303

> <Gold.PLP.ligand.clash>
0.0000

> <Gold.PLP.ligand.torsion>
0.5893

> <Gold.PLP.Chemscore.Hbond>
2.0000

> <Gold.PLP.Chemscore.CHOScore>
0.0000

> <Gold.PLP.Chemscore.Metal>
0.0000

> <Gold.Chemscore.Hbonds>
donor molecule, donor type, donor heavy atom, donor atom, acceptor molecule, acceptor atom, score
      L1  H    19    40       P1  8028  2.00

> <Gold.PLP.Chemscore.Internal.Correction>
0.5056

> <Gold.Rescore>
     Score         DG    S(hbond)    S(metal)    S(lipo)     H(rot)  DE(clash)    DE(int)     intcor
     14.58     -16.32       0.92        0.00     110.22       2.00       1.24       0.50       ----

> <Gold.Chemscore.Fitness>
14.5844

> <Gold.Chemscore.DG>
-16.3219

> <Gold.Chemscore.ZeroCoef>
-5.4800

> <Gold.Chemscore.Hbond>
0.9214

> <Gold.Chemscore.Metal>
0.0000

> <Gold.Chemscore.Lipo>
110.2161

> <Gold.Chemscore.Internal_Hbond>
0.0000

> <Gold.Chemscore.DEClash>
1.2410

> <Gold.Chemscore.DEInternal>
0.4965

> <Gold.Chemscore.Rot>
2.0043

> <Gold.Chemscore.Internal.Correction>
   9.000000E+99

> <Gold.Chemscore.Hbonds>
donor molecule, donor type, donor heavy atom, donor atom, acceptor molecule, acceptor atom, score
      L1  H    19    40       P1  8028  0.90

> <Gold.Chemscore.Hbond.Weighted>
-3.0776

> <Gold.Chemscore.Metal.Weighted>
-0.0000

> <Gold.Chemscore.Lipo.Weighted>
-12.8953

> <Gold.Chemscore.Internal_Hbond.Weighted>
0.0000

> <Gold.Chemscore.DEClash.Weighted>
1.2410

> <Gold.Chemscore.DEInternal.Weighted>
0.4965

> <Gold.Chemscore.Rot.Weighted>
5.1309

> <Gold.Chemscore.Internal.Correction.Weighted>
   9.000000E+99

> <Gold.Protein.RotatedTorsions>
[ 6907 6896 6895 6894 ] final  159.57 input  -60.11 | X-H torsion
[ 7974 7965 7964 7962 ] final  179.92 input  175.53 | X-H torsion
[ 8008 7997 7996 7995 ] final   13.27 input   59.86 | X-H torsion
[ 10167 10162 10161 10158 ] final   94.36 input  -65.29 | X-H torsion
[ 10718 10713 10712 10709 ] final  160.28 input   66.30 | X-H torsion
[ 10763 10752 10751 10750 ] final   45.40 input  -60.55 | X-H torsion
[ 11005 11000 10999 10996 ] final  -23.39 input  -57.11 | X-H torsion

> <Gold.Protein.ActiveResidues>
 VAL166  LYS551  ARG553  GLY616  TRP617  ASP618  TYR619  PRO620  LYS621  CYS622 
 ASP623  PHE694  ASN695  SER759  ASP760  ASP761  ALA762  ILE779  LEU786  VAL792 
 PHE793  MET794  SER795  GLU796  ALA797  LYS798  CYS799  TRP800  GLU811  SER814 

> <Gold.Protein.RotatedAtoms>
  151.9836  133.3766  159.4116 H   0  0  0  0  0  0  0  0  0  0  0  0  # atno 6907 bound_to 6896
  150.6931  134.4012  159.5129 H   0  0  0  0  0  0  0  0  0  0  0  0  # atno 6908 bound_to 6896
  152.1735  134.8814  160.0583 H   0  0  0  0  0  0  0  0  0  0  0  0  # atno 6909 bound_to 6896
  144.7141  140.0621  143.6432 H   0  0  0  0  0  0  0  0  0  0  0  0  # atno 7974 bound_to 7965
  154.8322  140.2901  155.5715 H   0  0  0  0  0  0  0  0  0  0  0  0  # atno 8008 bound_to 7997
  156.3006  140.2530  156.3180 H   0  0  0  0  0  0  0  0  0  0  0  0  # atno 8009 bound_to 7997
  154.9219  140.0385  157.1992 H   0  0  0  0  0  0  0  0  0  0  0  0  # atno 8010 bound_to 7997
  139.8091  144.6781  150.9663 H   0  0  0  0  0  0  0  0  0  0  0  0  # atno 10167 bound_to 10162
  157.1526  131.0568  151.2272 H   0  0  0  0  0  0  0  0  0  0  0  0  # atno 10718 bound_to 10713
  152.9825  135.6041  154.3430 H   0  0  0  0  0  0  0  0  0  0  0  0  # atno 10763 bound_to 10752
  154.3125  135.2771  155.2561 H   0  0  0  0  0  0  0  0  0  0  0  0  # atno 10764 bound_to 10752
  154.4764  135.5928  153.6414 H   0  0  0  0  0  0  0  0  0  0  0  0  # atno 10765 bound_to 10752
  140.8747  133.7696  156.0229 H   0  0  0  0  0  0  0  0  0  0  0  0  # atno 11005 bound_to 11000
  145.9855  139.2974  143.1016 LP  0  0  0  0  0  0  0  0  0  0  0  0  # atno 17320 bound_to 7965
  145.8962  140.9272  143.0526 LP  0  0  0  0  0  0  0  0  0  0  0  0  # atno 17321 bound_to 7965
  140.7818  143.4203  151.0852 LP  0  0  0  0  0  0  0  0  0  0  0  0  # atno 17342 bound_to 10162
  139.7870  143.8272  152.3146 LP  0  0  0  0  0  0  0  0  0  0  0  0  # atno 17343 bound_to 10162
  157.4206  130.7435  149.6910 LP  0  0  0  0  0  0  0  0  0  0  0  0  # atno 17370 bound_to 10713
  155.9768  130.4071  150.3757 LP  0  0  0  0  0  0  0  0  0  0  0  0  # atno 17371 bound_to 10713
  140.8532  134.2929  157.5266 LP  0  0  0  0  0  0  0  0  0  0  0  0  # atno 17394 bound_to 11000
  139.8714  134.9479  156.3980 LP  0  0  0  0  0  0  0  0  0  0  0  0  # atno 17395 bound_to 11000

$$$$
