AV-unprocessed.smi:2856|AV-procd|sdf|10993|dock2
  -GOLD-   2272015443D 1   1.00000     0.00000
 Structure written by MMmdl.
 37 38  0  0  0  0  0  0  0  0  1 V2000
  152.0199  138.4319  154.5773 C   0  0  0  0  0  0  0  0  0  0  0  0
  150.3129  137.8850  154.8538 S   0  0  0  0  0  0  0  0  0  0  0  0
  149.3742  139.2353  154.0695 C   0  0  2  0  0  0  0  0  0  0  0  0
  149.6665  140.5555  154.8079 C   0  0  0  0  0  0  0  0  0  0  0  0
  148.8712  141.7307  154.2220 C   0  0  0  0  0  0  0  0  0  0  0  0
  147.3661  141.4341  154.2393 C   0  0  0  0  0  0  0  0  0  0  0  0
  147.0551  140.1343  153.4837 C   0  0  0  0  0  0  0  0  0  0  0  0
  147.8540  138.9381  154.0418 C   0  0  1  0  0  0  0  0  0  0  0  0
  147.5819  137.7597  153.2220 N   0  0  0  0  0  0  0  0  0  0  0  0
  146.3814  137.1887  153.0498 C   0  0  0  0  0  0  0  0  0  0  0  0
  145.3418  137.6208  153.5484 O   0  0  0  0  0  0  0  0  0  0  0  0
  146.4714  136.0975  152.2707 N   0  0  0  0  0  0  0  0  0  0  0  0
  145.4270  135.2155  151.8939 C   0  0  0  0  0  0  0  0  0  0  0  0
  145.6422  134.2065  150.9177 C   0  0  0  0  0  0  0  0  0  0  0  0
  144.4266  133.5868  150.8426 C   0  0  0  0  0  0  0  0  0  0  0  0
  143.9179  132.4459  150.0302 C   0  0  0  0  0  0  0  0  0  0  0  0
  143.5447  134.1676  151.7006 O   0  0  0  0  0  0  0  0  0  0  0  0
  144.1922  135.2112  152.3722 N   0  0  0  0  0  0  0  0  0  0  0  0
  152.7143  137.7229  155.0276 H   0  0  0  0  0  0  0  0  0  0  0  0
  152.1853  139.4093  155.0299 H   0  0  0  0  0  0  0  0  0  0  0  0
  152.2430  138.4971  153.5128 H   0  0  0  0  0  0  0  0  0  0  0  0
  149.7350  139.3439  153.0456 H   0  0  0  0  0  0  0  0  0  0  0  0
  149.4210  140.4462  155.8652 H   0  0  0  0  0  0  0  0  0  0  0  0
  150.7330  140.7779  154.7623 H   0  0  0  0  0  0  0  0  0  0  0  0
  149.0775  142.6388  154.7892 H   0  0  0  0  0  0  0  0  0  0  0  0
  149.1979  141.9224  153.1993 H   0  0  0  0  0  0  0  0  0  0  0  0
  147.0196  141.3511  155.2702 H   0  0  0  0  0  0  0  0  0  0  0  0
  146.8175  142.2642  153.7935 H   0  0  0  0  0  0  0  0  0  0  0  0
  145.9855  139.9281  153.5395 H   0  0  0  0  0  0  0  0  0  0  0  0
  147.2869  140.2712  152.4264 H   0  0  0  0  0  0  0  0  0  0  0  0
  147.5305  138.7575  155.0688 H   0  0  0  0  0  0  0  0  0  0  0  0
  148.3768  137.3358  152.7668 H   0  0  0  0  0  0  0  0  0  0  0  0
  147.3884  135.8655  151.9192 H   0  0  0  0  0  0  0  0  0  0  0  0
  146.5383  133.9729  150.3622 H   0  0  0  0  0  0  0  0  0  0  0  0
  144.6983  132.0534  149.3779 H   0  0  0  0  0  0  0  0  0  0  0  0
  143.0814  132.7591  149.4054 H   0  0  0  0  0  0  0  0  0  0  0  0
  143.5759  131.6353  150.6738 H   0  0  0  0  0  0  0  0  0  0  0  0
  1  2  1  0  0  0  0
  1 19  1  0  0  0  0
  1 20  1  0  0  0  0
  1 21  1  0  0  0  0
  2  3  1  0  0  0  0
  3  8  1  0  0  0  0
  3  4  1  0  0  0  0
  3 22  1  0  0  0  0
  4  5  1  0  0  0  0
  4 23  1  0  0  0  0
  4 24  1  0  0  0  0
  5  6  1  0  0  0  0
  5 25  1  0  0  0  0
  5 26  1  0  0  0  0
  6  7  1  0  0  0  0
  6 27  1  0  0  0  0
  6 28  1  0  0  0  0
  7  8  1  0  0  0  0
  7 29  1  0  0  0  0
  7 30  1  0  0  0  0
  8  9  1  0  0  0  0
  8 31  1  0  0  0  0
  9 10  1  0  0  0  0
  9 32  1  0  0  0  0
 10 11  2  0  0  0  0
 10 12  1  0  0  0  0
 12 13  1  0  0  0  0
 12 33  1  0  0  0  0
 13 18  2  0  0  0  0
 13 14  1  0  0  0  0
 14 15  2  0  0  0  0
 14 34  1  0  0  0  0
 15 16  1  0  0  0  0
 15 17  1  0  0  0  0
 16 35  1  0  0  0  0
 16 36  1  0  0  0  0
 16 37  1  0  0  0  0
 17 18  1  0  0  0  0
M  END
> <s_m_source_file>
AV-unprocessed.smi

> <i_m_source_file_index>
2856

> <i_lp_mmshare_version>
43012

> <i_f3d_flags>
0

> <s_epik_input>
W0NIM11TW0NAQEhdMVtDSDJdW0NIMl1bQ0gyXVtDSDJdW0NASF0xW05IXUMoPU8pW05IXWMyW2NIXWMoW0NIM10pb24y

> <s_epik_cmdline>
J2VwaWtfcHl0aG9uJywgJy1waCcsICc3LjAnLCAnLXRuJywgJzgnLCAnLW1hJywgJzIwMCcsICctbWV0YWxfYmluZGluZycsICctaW1hZScsICc8aW5maWxlLm1hZT4nLCAnLW9tYWUnLCAnPG91dGZpbGUubWFlPic=

> <r_lp_tautomer_probability>
1

> <r_epik_Ionization_Penalty>
2.20874e-05

> <r_epik_Ionization_Penalty_Charging>
0

> <r_epik_Ionization_Penalty_Neutral>
2.20874e-05

> <r_epik_State_Penalty>
-0

> <r_epik_Charging_Adjusted_Penalty>
0

> <i_epik_Tot_Q>
0

> <i_epik_Tot_abs_Q>
0

> <r_epik_Metal_State_Penalty>
-0

> <b_epik_Metal_Only>
0

> <s_lp_Force_Field>
OPLS_2005

> <r_lp_Energy>
6.84472

> <b_lp_Chiralities_Consistent>
1

> <s_lp_Variant>
AV-unprocessed.smi:2856-1

> <Gold.Version>
5.8.1

> <Gold.Id.Protein>
6NUR|6NUR_protein|mol2

> <Gold.PLP.Fitness>
36.6706

> <Gold.PLP.PLP>
-30.7595

> <Gold.PLP.part.hbond>
-1.7088

> <Gold.PLP.part.metal>
0.0000

> <Gold.PLP.part.buried>
-0.8957

> <Gold.PLP.part.nonpolar>
-28.7513

> <Gold.PLP.part.repulsive>
0.5505

> <Gold.PLP.ligand.clash>
0.0000

> <Gold.PLP.ligand.torsion>
0.0359

> <Gold.PLP.Chemscore.Hbond>
1.9920

> <Gold.PLP.Chemscore.CHOScore>
0.0000

> <Gold.PLP.Chemscore.Metal>
0.0000

> <Gold.Chemscore.Hbonds>
donor molecule, donor type, donor heavy atom, donor atom, acceptor molecule, acceptor atom, score
      L1  H     9    32       P1  7948  0.99
      L1  H    12    33       P1  7948  0.99

> <Gold.PLP.Chemscore.Internal.Correction>
0.0070

> <Gold.Rescore>
     Score         DG    S(hbond)    S(metal)    S(lipo)     H(rot)  DE(clash)    DE(int)     intcor
     16.01     -17.38       1.94        0.00      72.76       1.21       0.06       1.31       ----

> <Gold.Chemscore.Fitness>
16.0076

> <Gold.Chemscore.DG>
-17.3849

> <Gold.Chemscore.ZeroCoef>
-5.4800

> <Gold.Chemscore.Hbond>
1.9436

> <Gold.Chemscore.Metal>
0.0000

> <Gold.Chemscore.Lipo>
72.7636

> <Gold.Chemscore.Internal_Hbond>
0.0000

> <Gold.Chemscore.DEClash>
0.0643

> <Gold.Chemscore.DEInternal>
1.3130

> <Gold.Chemscore.Rot>
1.2109

> <Gold.Chemscore.Internal.Correction>
   9.000000E+99

> <Gold.Chemscore.Hbonds>
donor molecule, donor type, donor heavy atom, donor atom, acceptor molecule, acceptor atom, score
      L1  H     9    32       P1  7948  0.87
      L1  H    12    33       P1  7948  0.91

> <Gold.Chemscore.Hbond.Weighted>
-6.4916

> <Gold.Chemscore.Metal.Weighted>
-0.0000

> <Gold.Chemscore.Lipo.Weighted>
-8.5133

> <Gold.Chemscore.Internal_Hbond.Weighted>
0.0000

> <Gold.Chemscore.DEClash.Weighted>
0.0643

> <Gold.Chemscore.DEInternal.Weighted>
1.3130

> <Gold.Chemscore.Rot.Weighted>
3.1000

> <Gold.Chemscore.Internal.Correction.Weighted>
   9.000000E+99

> <Gold.Protein.RotatedTorsions>
[ 6907 6896 6895 6894 ] final  104.53 input  -60.11 | X-H torsion
[ 7974 7965 7964 7962 ] final   19.42 input  175.53 | X-H torsion
[ 8008 7997 7996 7995 ] final   24.92 input   59.86 | X-H torsion
[ 10167 10162 10161 10158 ] final  114.76 input  -65.29 | X-H torsion
[ 10718 10713 10712 10709 ] final  142.59 input   66.30 | X-H torsion
[ 10763 10752 10751 10750 ] final  -70.23 input  -60.55 | X-H torsion
[ 11005 11000 10999 10996 ] final  -34.86 input  -57.11 | X-H torsion

> <Gold.Protein.ActiveResidues>
 VAL166  LYS551  ARG553  GLY616  TRP617  ASP618  TYR619  PRO620  LYS621  CYS622 
 ASP623  PHE694  ASN695  SER759  ASP760  ASP761  ALA762  ILE779  LEU786  VAL792 
 PHE793  MET794  SER795  GLU796  ALA797  LYS798  CYS799  TRP800  GLU811  SER814 

> <Gold.Protein.RotatedAtoms>
  152.5261  133.9663  159.7740 H   0  0  0  0  0  0  0  0  0  0  0  0  # atno 6907 bound_to 6896
  150.9943  133.6110  159.2711 H   0  0  0  0  0  0  0  0  0  0  0  0  # atno 6908 bound_to 6896
  151.3242  135.0832  159.9369 H   0  0  0  0  0  0  0  0  0  0  0  0  # atno 6909 bound_to 6896
  146.2150  139.8316  142.8659 H   0  0  0  0  0  0  0  0  0  0  0  0  # atno 7974 bound_to 7965
  155.0037  140.3128  155.4857 H   0  0  0  0  0  0  0  0  0  0  0  0  # atno 8008 bound_to 7997
  156.2921  140.2227  156.5089 H   0  0  0  0  0  0  0  0  0  0  0  0  # atno 8009 bound_to 7997
  154.7596  140.0460  157.0950 H   0  0  0  0  0  0  0  0  0  0  0  0  # atno 8010 bound_to 7997
  139.6365  144.7120  151.2324 H   0  0  0  0  0  0  0  0  0  0  0  0  # atno 10167 bound_to 10162
  157.3787  131.0989  151.0759 H   0  0  0  0  0  0  0  0  0  0  0  0  # atno 10718 bound_to 10713
  154.4146  135.6001  153.5973 H   0  0  0  0  0  0  0  0  0  0  0  0  # atno 10763 bound_to 10752
  152.9791  135.5937  154.4028 H   0  0  0  0  0  0  0  0  0  0  0  0  # atno 10764 bound_to 10752
  154.3845  135.2841  155.2170 H   0  0  0  0  0  0  0  0  0  0  0  0  # atno 10765 bound_to 10752
  140.9750  133.7088  156.1586 H   0  0  0  0  0  0  0  0  0  0  0  0  # atno 11005 bound_to 11000
  145.2992  141.0189  143.3619 LP  0  0  0  0  0  0  0  0  0  0  0  0  # atno 17320 bound_to 7965
  144.9019  139.4638  143.6628 LP  0  0  0  0  0  0  0  0  0  0  0  0  # atno 17321 bound_to 7965
  140.7468  143.6387  150.8355 LP  0  0  0  0  0  0  0  0  0  0  0  0  # atno 17342 bound_to 10162
  140.0019  143.5735  152.2872 LP  0  0  0  0  0  0  0  0  0  0  0  0  # atno 17343 bound_to 10162
  157.1836  130.6320  149.5680 LP  0  0  0  0  0  0  0  0  0  0  0  0  # atno 17370 bound_to 10713
  155.9771  130.4745  150.6571 LP  0  0  0  0  0  0  0  0  0  0  0  0  # atno 17371 bound_to 10713
  140.7273  134.4293  157.5569 LP  0  0  0  0  0  0  0  0  0  0  0  0  # atno 17394 bound_to 11000
  139.8927  134.8749  156.2259 LP  0  0  0  0  0  0  0  0  0  0  0  0  # atno 17395 bound_to 11000

$$$$
