#       Name:                AV-unprocessed.smi:265
#       Creating user name   scv26
#       Creation time:       Thu Mar 26 21:23:27 2020


#       File generated by GOLD software.
#

@<TRIPOS>MOLECULE
AV-unprocessed.smi:265
    64    68     1
SMALL
NO_CHARGES


@<TRIPOS>ATOM
      1 ****        -2.9976   4.1914   1.6973 C.3            1 S1                 0.0000
      2 ****        -3.1033   3.2875   0.4593 C.3            1 S1                 0.0000
      3 ****        -4.4470   2.8568   0.2468 O.3            1 S1                 0.0000
      4 ****        -4.7999   2.9862  -1.1255 C.3            1 S1                 0.0000
      5 ****        -3.4765   3.1204  -1.8712 C.3            1 S1                 0.0000
      6 ****        -2.6147   3.8886  -0.8787 C.3            1 S1                 0.0000
      7 ****        -2.9558   5.2629  -0.9567 O.3            1 S1                 0.0000
      8 ****        -1.0873   3.8113  -1.1368 C.3            1 S1                 0.0000
      9 ****        -0.5182   2.4742  -1.0677 N.pl3          1 S1                 0.0000
     10 ****        -0.4108   1.5666  -2.0972 C.2            1 S1                 0.0000
     11 ****         0.1482   0.4303  -1.7822 N.2            1 S1                 0.0000
     12 ****         0.4613   0.5671  -0.4347 C.ar           1 S1                 0.0000
     13 ****         1.0844  -0.2752   0.5295 C.ar           1 S1                 0.0000
     14 ****         1.5076  -1.5326   0.2425 N.3            1 S1                 0.0000
     15 ****         0.4455  -2.4575  -0.1636 C.3            1 S1                 0.0000
     16 ****         1.0254  -3.7226  -0.8233 C.3            1 S1                 0.0000
     17 ****         2.0679  -4.3645   0.1011 C.3            1 S1                 0.0000
     18 ****         2.7056  -5.4774  -0.5070 O.3            1 S1                 0.0000
     19 ****         3.5690  -6.1936   0.3829 C.3            1 S1                 0.0000
     20 ****         4.5015  -5.2650   1.1901 C.2            1 S1                 0.0000
     21 ****         5.4513  -5.7393   1.8089 O.2            1 S1                 0.0000
     22 ****         4.2159  -3.9529   1.2243 N.am           1 S1                 0.0000
     23 ****         3.1715  -3.3420   0.4128 C.3            1 S1                 0.0000
     24 ****         2.5623  -2.1026   1.0870 C.3            1 S1                 0.0000
     25 ****         1.2490   0.2263   1.7832 N.ar           1 S1                 0.0000
     26 ****         0.8276   1.4595   2.0786 C.ar           1 S1                 0.0000
     27 ****         0.2276   2.3483   1.2851 N.ar           1 S1                 0.0000
     28 ****         0.0631   1.8542   0.0249 C.ar           1 S1                 0.0000
     29 ****         1.5715  -4.6884   1.0188 H              1 S1                 0.0000
     30 ****         3.6426  -3.0314  -0.5217 H              1 S1                 0.0000
     31 ****        -1.9708   4.5233   1.8524 H              1 S1                 0.0000
     32 ****        -3.3114   3.6554   2.5931 H              1 S1                 0.0000
     33 ****        -3.6294   5.0752   1.6070 H              1 S1                 0.0000
     34 ****        -2.5546   2.3692   0.6629 H              1 S1                 0.0000
     35 ****        -5.3895   2.1356  -1.4679 H              1 S1                 0.0000
     36 ****        -5.4021   3.8871  -1.2492 H              1 S1                 0.0000
     37 ****        -3.0769   2.1219  -2.0444 H              1 S1                 0.0000
     38 ****        -3.5773   3.6126  -2.8393 H              1 S1                 0.0000
     39 ****        -2.7301   5.5812  -1.8171 H              1 S1                 0.0000
     40 ****        -0.8553   4.2231  -2.1200 H              1 S1                 0.0000
     41 ****        -0.5587   4.4375  -0.4167 H              1 S1                 0.0000
     42 ****        -0.7670   1.7731  -3.0961 H              1 S1                 0.0000
     43 ****        -0.1289  -2.7341   0.7215 H              1 S1                 0.0000
     44 ****        -0.2547  -1.9852  -0.8513 H              1 S1                 0.0000
     45 ****         0.2262  -4.4315  -1.0412 H              1 S1                 0.0000
     46 ****         1.4839  -3.4624  -1.7783 H              1 S1                 0.0000
     47 ****         2.9633  -6.7729   1.0808 H              1 S1                 0.0000
     48 ****         4.1639  -6.9026  -0.1933 H              1 S1                 0.0000
     49 ****         4.8004  -3.3423   1.7767 H              1 S1                 0.0000
     50 ****         3.3431  -1.3599   1.2579 H              1 S1                 0.0000
     51 ****         2.1454  -2.3680   2.0599 H              1 S1                 0.0000
     52 ****         0.9938   1.7792   3.0967 H              1 S1                 0.0000
     53 ****        -5.0637   3.4172   0.7996 LP             1 S1                 0.0000
     54 ****        -4.5327   1.8986   0.5198 LP             1 S1                 0.0000
     55 ****        -2.4486   5.7757  -0.2641 LP             1 S1                 0.0000
     56 ****        -3.9374   5.3756  -0.8026 LP             1 S1                 0.0000
     57 ****         0.3135  -0.3583  -2.3745 LP             1 S1                 0.0000
     58 ****         2.0292  -1.3791  -0.5967 LP             1 S1                 0.0000
     59 ****         3.2488  -5.1485  -1.2795 LP             1 S1                 0.0000
     60 ****         2.0008  -6.1048  -0.8382 LP             1 S1                 0.0000
     61 ****         5.6189  -6.7250   1.7890 LP             1 S1                 0.0000
     62 ****         6.0566  -5.1397   2.3324 LP             1 S1                 0.0000
     63 ****         1.6879  -0.3312   2.4879 LP             1 S1                 0.0000
     64 ****        -0.0639   3.2593   1.5768 LP             1 S1                 0.0000
@<TRIPOS>BOND
    1    1    2 1     
    2    1   31 1     
    3    1   32 1     
    4    1   33 1     
    5    2    6 1     
    6    2    3 1     
    7    2   34 1     
    8    3    4 1     
    9    4    5 1     
   10    4   35 1     
   11    4   36 1     
   12    5    6 1     
   13    5   37 1     
   14    5   38 1     
   15    6    7 1     
   16    6    8 1     
   17    7   39 1     
   18    8    9 1     
   19    8   40 1     
   20    8   41 1     
   21    9   28 1     
   22    9   10 1     
   23   10   11 2     
   24   10   42 1     
   25   11   12 1     
   26   12   28 ar    
   27   12   13 ar    
   28   13   14 1     
   29   13   25 ar    
   30   14   24 1     
   31   14   15 1     
   32   15   16 1     
   33   15   43 1     
   34   15   44 1     
   35   16   17 1     
   36   16   45 1     
   37   16   46 1     
   38   17   29 1     
   39   17   23 1     
   40   17   18 1     
   41   18   19 1     
   42   19   20 1     
   43   19   47 1     
   44   19   48 1     
   45   20   21 2     
   46   20   22 am    
   47   22   23 1     
   48   22   49 1     
   49   23   30 1     
   50   23   24 1     
   51   24   50 1     
   52   24   51 1     
   53   25   26 ar    
   54   26   27 ar    
   55   26   52 1     
   56   27   28 ar    
   57    3   53 1     
   58    3   54 1     
   59    7   55 1     
   60    7   56 1     
   61   11   57 1     
   62   14   58 1     
   63   18   59 1     
   64   18   60 1     
   65   21   61 1     
   66   21   62 1     
   67   25   63 1     
   68   27   64 1     
@<TRIPOS>SUBSTRUCTURE
      1 S1             1
@<TRIPOS>SET
LONE_PAIRS      STATIC     ATOMS    <user>   **** ""
12 53 54 55 56 57 58 59 60 61 62 63 64
DONOR_HYDROGENS      STATIC     ATOMS    <user>   **** ""
2 39 49
ATOM$BLUE        STATIC     ATOMS    COLORGROUP SYSTEM
12 53 54 55 56 57 58 59 60 61 62 63 64
ATOM$RED        STATIC     ATOMS    COLORGROUP SYSTEM
2 39 49
