#       Name:                AV-unprocessed.smi:1517
#       Creating user name   scv26
#       Creation time:       Fri Mar 27 06:25:27 2020


#       File generated by GOLD software.
#

@<TRIPOS>MOLECULE
AV-unprocessed.smi:1517
    46    48     1
SMALL
NO_CHARGES


@<TRIPOS>ATOM
      1 ****        -4.5952   1.8357  -0.4594 O.3            1 S1                 0.0000
      2 ****        -3.6556   0.8900  -0.9188 C.3            1 S1                 0.0000
      3 ****        -2.2451   1.4775  -0.8041 C.3            1 S1                 0.0000
      4 ****        -1.2372   0.5290  -1.2473 N.pl3          1 S1                 0.0000
      5 ****         0.1075   0.8603  -1.0502 C.cat          1 S1                 0.0000
      6 ****         0.6010   2.1107  -0.8459 N.pl3          1 S1                 1.0000
      7 ****         1.9843   2.0137  -0.6694 C.ar           1 S1                 0.0000
      8 ****         2.9401   2.9958  -0.4285 C.ar           1 S1                 0.0000
      9 ****         4.2743   2.5606  -0.2878 C.ar           1 S1                 0.0000
     10 ****         4.6177   1.1964  -0.3862 C.ar           1 S1                 0.0000
     11 ****         3.6427   0.2072  -0.6316 C.ar           1 S1                 0.0000
     12 ****         2.3260   0.6435  -0.7728 C.ar           1 S1                 0.0000
     13 ****         1.1264  -0.0374  -1.0139 N.pl3          1 S1                 0.0000
     14 ****         1.1302  -1.5018  -1.1475 C.3            1 S1                 0.0000
     15 ****         1.0838  -2.2150   0.2187 C.3            1 S1                 0.0000
     16 ****         1.2495  -3.6000  -0.0060 O.3            1 S1                 0.0000
     17 ****        -0.1950  -1.8978   0.9870 C.ar           1 S1                 0.0000
     18 ****        -1.4009  -2.5629   0.6700 C.ar           1 S1                 0.0000
     19 ****        -2.5897  -2.2480   1.3557 C.ar           1 S1                 0.0000
     20 ****        -2.5832  -1.2621   2.3601 C.ar           1 S1                 0.0000
     21 ****        -3.7278  -0.9540   3.0144 F              1 S1                 0.0000
     22 ****        -1.3868  -0.5932   2.6799 C.ar           1 S1                 0.0000
     23 ****        -0.1958  -0.9077   1.9968 C.ar           1 S1                 0.0000
     24 ****         0.9422  -0.2397   2.3044 F              1 S1                 0.0000
     25 ****        -5.4602   1.4622  -0.5359 H              1 S1                 0.0000
     26 ****        -3.7470  -0.0186  -0.3231 H              1 S1                 0.0000
     27 ****        -3.8855   0.6306  -1.9527 H              1 S1                 0.0000
     28 ****        -2.1705   2.3861  -1.4031 H              1 S1                 0.0000
     29 ****        -2.0437   1.7535   0.2321 H              1 S1                 0.0000
     30 ****        -1.4920  -0.4465  -1.3086 H              1 S1                 0.0000
     31 ****         2.6807   4.0414  -0.3492 H              1 S1                 0.0000
     32 ****         5.0503   3.2884  -0.0985 H              1 S1                 0.0000
     33 ****         5.6507   0.9017  -0.2703 H              1 S1                 0.0000
     34 ****         3.9162  -0.8352  -0.7028 H              1 S1                 0.0000
     35 ****         0.2744  -1.7869  -1.7612 H              1 S1                 0.0000
     36 ****         2.0190  -1.7902  -1.7103 H              1 S1                 0.0000
     37 ****         1.9423  -1.9027   0.8138 H              1 S1                 0.0000
     38 ****         1.3262  -4.0334   0.8304 H              1 S1                 0.0000
     39 ****        -1.4216  -3.3121  -0.1080 H              1 S1                 0.0000
     40 ****        -3.5081  -2.7590   1.1065 H              1 S1                 0.0000
     41 ****        -1.3837   0.1667   3.4475 H              1 S1                 0.0000
     42 ****         0.0407   2.9529  -0.8250 H              1 S1                 0.0000
     43 ****        -4.5364   2.6660  -1.0136 LP             1 S1                 0.0000
     44 ****        -4.4081   2.0595   0.4971 LP             1 S1                 0.0000
     45 ****         2.0773  -3.7575  -0.5444 LP             1 S1                 0.0000
     46 ****         0.4573  -3.9585  -0.5000 LP             1 S1                 0.0000
@<TRIPOS>BOND
    1    1    2 1     
    2    1   25 1     
    3    2    3 1     
    4    2   26 1     
    5    2   27 1     
    6    3    4 1     
    7    3   28 1     
    8    3   29 1     
    9    4    5 ar    
   10    4   30 1     
   11    5   13 ar    
   12    5    6 ar    
   13    6    7 1     
   14    6   42 1     
   15    7   12 ar    
   16    7    8 ar    
   17    8    9 ar    
   18    8   31 1     
   19    9   10 ar    
   20    9   32 1     
   21   10   11 ar    
   22   10   33 1     
   23   11   12 ar    
   24   11   34 1     
   25   12   13 1     
   26   13   14 1     
   27   14   15 1     
   28   14   35 1     
   29   14   36 1     
   30   15   16 1     
   31   15   17 1     
   32   15   37 1     
   33   16   38 1     
   34   17   23 ar    
   35   17   18 ar    
   36   18   19 ar    
   37   18   39 1     
   38   19   20 ar    
   39   19   40 1     
   40   20   21 1     
   41   20   22 ar    
   42   22   23 ar    
   43   22   41 1     
   44   23   24 1     
   45    1   43 1     
   46    1   44 1     
   47   16   45 1     
   48   16   46 1     
@<TRIPOS>SUBSTRUCTURE
      1 S1             1
@<TRIPOS>SET
LONE_PAIRS      STATIC     ATOMS    <user>   **** ""
4 43 44 45 46
DONOR_HYDROGENS      STATIC     ATOMS    <user>   **** ""
4 25 30 42 38
ATOM$BLUE        STATIC     ATOMS    COLORGROUP SYSTEM
4 43 44 45 46
ATOM$RED        STATIC     ATOMS    COLORGROUP SYSTEM
4 25 30 42 38
