AV-unprocessed.smi:786|AV-procd|sdf|3724|dock8
  -GOLD-   22720 1153D 1   1.00000     0.00000
 Structure written by MMmdl.
 39 40  0  0  0  0  0  0  0  0  3 V2000
  152.9186  139.4570  154.9101 O   0  0  0  0  0  0  0  0  0  0  0  0
  151.4816  139.2668  155.1632 S   0  0  0  0  0  0  0  0  0  0  0  0
  150.5608  140.1693  154.4534 O   0  0  0  0  0  0  0  0  0  0  0  0
  151.0537  137.5636  154.5722 C   0  0  0  0  0  0  0  0  0  0  0  0
  150.6288  136.5625  155.6744 C   0  0  0  0  0  0  0  0  0  0  0  0
  150.7154  135.0789  155.2688 C   0  0  0  0  0  0  0  0  0  0  0  0
  150.1579  134.1669  156.3746 C   0  0  0  0  0  0  0  0  0  0  0  0
  148.8224  134.5366  156.6962 O   0  0  0  0  0  0  0  0  0  0  0  0
  148.7301  135.8609  157.2070 C   0  0  0  0  0  0  0  0  0  0  0  0
  149.1929  136.8635  156.1383 C   0  0  0  0  0  0  0  0  0  0  0  0
  151.1246  139.1541  156.7429 N   0  5  0  0  0  0  0  0  0  0  0  0
  151.4775  140.2287  157.6620 C   0  0  0  0  0  0  0  0  0  0  0  0
  150.9362  141.6015  157.1940 C   0  0  0  0  0  0  0  0  0  0  0  0
  151.3167  142.7838  158.0796 C   0  0  0  0  0  0  0  0  0  0  0  0
  152.2182  142.6554  159.1608 C   0  0  0  0  0  0  0  0  0  0  0  0
  152.5309  143.7895  159.9390 C   0  0  0  0  0  0  0  0  0  0  0  0
  151.9417  145.0304  159.6202 C   0  0  0  0  0  0  0  0  0  0  0  0
  151.0536  145.1064  158.5282 C   0  0  0  0  0  0  0  0  0  0  0  0
  150.7799  143.9979  157.8073 N   0  3  0  0  0  0  0  0  0  0  0  0
  150.2475  137.6732  153.8469 H   0  0  0  0  0  0  0  0  0  0  0  0
  151.9184  137.1843  154.0277 H   0  0  0  0  0  0  0  0  0  0  0  0
  151.2820  136.7081  156.5354 H   0  0  0  0  0  0  0  0  0  0  0  0
  150.1638  134.9132  154.3427 H   0  0  0  0  0  0  0  0  0  0  0  0
  151.7477  134.7887  155.0815 H   0  0  0  0  0  0  0  0  0  0  0  0
  150.1644  133.1294  156.0405 H   0  0  0  0  0  0  0  0  0  0  0  0
  150.7832  134.2155  157.2674 H   0  0  0  0  0  0  0  0  0  0  0  0
  147.6947  136.0602  157.4832 H   0  0  0  0  0  0  0  0  0  0  0  0
  149.3263  135.9563  158.1159 H   0  0  0  0  0  0  0  0  0  0  0  0
  149.1298  137.8775  156.5342 H   0  0  0  0  0  0  0  0  0  0  0  0
  148.5127  136.8189  155.2866 H   0  0  0  0  0  0  0  0  0  0  0  0
  151.0853  140.0282  158.6595 H   0  0  0  0  0  0  0  0  0  0  0  0
  152.5577  140.3029  157.7891 H   0  0  0  0  0  0  0  0  0  0  0  0
  151.3128  141.7997  156.1901 H   0  0  0  0  0  0  0  0  0  0  0  0
  149.8514  141.5674  157.0901 H   0  0  0  0  0  0  0  0  0  0  0  0
  152.6606  141.6981  159.3943 H   0  0  0  0  0  0  0  0  0  0  0  0
  153.2146  143.7078  160.7711 H   0  0  0  0  0  0  0  0  0  0  0  0
  152.1670  145.9101  160.2049 H   0  0  0  0  0  0  0  0  0  0  0  0
  150.5555  146.0112  158.2125 H   0  0  0  0  0  0  0  0  0  0  0  0
  150.1270  144.0718  157.0248 H   0  0  0  0  0  0  0  0  0  0  0  0
  1  2  2  0  0  0  0
  2  3  2  0  0  0  0
  2  4  1  0  0  0  0
  2 11  1  0  0  0  0
  4  5  1  0  0  0  0
  4 20  1  0  0  0  0
  4 21  1  0  0  0  0
  5 10  1  0  0  0  0
  5  6  1  0  0  0  0
  5 22  1  0  0  0  0
  6  7  1  0  0  0  0
  6 23  1  0  0  0  0
  6 24  1  0  0  0  0
  7  8  1  0  0  0  0
  7 25  1  0  0  0  0
  7 26  1  0  0  0  0
  8  9  1  0  0  0  0
  9 10  1  0  0  0  0
  9 27  1  0  0  0  0
  9 28  1  0  0  0  0
 10 29  1  0  0  0  0
 10 30  1  0  0  0  0
 11 12  1  0  0  0  0
 12 13  1  0  0  0  0
 12 31  1  0  0  0  0
 12 32  1  0  0  0  0
 13 14  1  0  0  0  0
 13 33  1  0  0  0  0
 13 34  1  0  0  0  0
 14 19  1  0  0  0  0
 14 15  2  0  0  0  0
 15 16  1  0  0  0  0
 15 35  1  0  0  0  0
 16 17  2  0  0  0  0
 16 36  1  0  0  0  0
 17 18  1  0  0  0  0
 17 37  1  0  0  0  0
 18 19  2  0  0  0  0
 18 38  1  0  0  0  0
 19 39  1  0  0  0  0
M  CHG  1  11  -1
M  CHG  1  19   1
M  END
> <s_m_source_file>
AV-unprocessed.smi

> <i_m_source_file_index>
786

> <i_lp_mmshare_version>
43012

> <i_f3d_flags>
0

> <s_epik_input>
W0NIMl0xW0NIMl1PW0NIMl1bQ0gyXVtDSF0xW0NIMl1TKD1PKSg9TylbTkhdW0NIMl1bQ0gyXWMyW2NIXVtjSF1bY0hdW2NIXW4y

> <s_epik_cmdline>
J2VwaWtfcHl0aG9uJywgJy1waCcsICc3LjAnLCAnLXRuJywgJzgnLCAnLW1hJywgJzIwMCcsICctbWV0YWxfYmluZGluZycsICctaW1hZScsICc8aW5maWxlLm1hZT4nLCAnLW9tYWUnLCAnPG91dGZpbGUubWFlPic=

> <r_epik_Ionization_Penalty>
7.39271

> <r_epik_Ionization_Penalty_Charging>
7.39271

> <r_epik_Ionization_Penalty_Neutral>
5.66014e-11

> <r_epik_State_Penalty>
8.23716

> <r_epik_Charging_Adjusted_Penalty>
15.6299

> <i_epik_Tot_Q>
0

> <i_epik_Tot_abs_Q>
2

> <r_epik_Metal_State_Penalty>
4.19267

> <b_epik_Metal_Only>
1

> <s_lp_Force_Field>
OPLS_2005

> <r_lp_Energy>
3.22126

> <b_lp_Chiralities_Consistent>
1

> <s_lp_Variant>
AV-unprocessed.smi:786-4

> <Gold.Version>
5.8.1

> <Gold.Id.Protein>
6NUR|6NUR_protein|mol2

> <Gold.PLP.Fitness>
48.9369

> <Gold.PLP.PLP>
-37.6075

> <Gold.PLP.part.hbond>
-3.9307

> <Gold.PLP.part.metal>
0.0000

> <Gold.PLP.part.buried>
-6.0113

> <Gold.PLP.part.nonpolar>
-28.6090

> <Gold.PLP.part.repulsive>
0.1380

> <Gold.PLP.ligand.clash>
0.0000

> <Gold.PLP.ligand.torsion>
0.8657

> <Gold.PLP.Chemscore.Hbond>
4.0000

> <Gold.PLP.Chemscore.CHOScore>
0.0000

> <Gold.PLP.Chemscore.Metal>
0.0000

> <Gold.Chemscore.Hbonds>
donor molecule, donor type, donor heavy atom, donor atom, acceptor molecule, acceptor atom, score
      L1  H    19    39       P1  8028  2.00
      P1  H  7989  7998       L1     3  0.90
      P1  H  7997  8009       L1     1  1.00

> <Gold.PLP.Chemscore.Internal.Correction>
1.0608

> <Gold.Rescore>
     Score         DG    S(hbond)    S(metal)    S(lipo)     H(rot)  DE(clash)    DE(int)     intcor
     20.31     -21.43       2.90        0.00      90.42       1.68       0.20       0.91       ----

> <Gold.Chemscore.Fitness>
20.3139

> <Gold.Chemscore.DG>
-21.4323

> <Gold.Chemscore.ZeroCoef>
-5.4800

> <Gold.Chemscore.Hbond>
2.8981

> <Gold.Chemscore.Metal>
0.0000

> <Gold.Chemscore.Lipo>
90.4250

> <Gold.Chemscore.Internal_Hbond>
0.0000

> <Gold.Chemscore.DEClash>
0.2047

> <Gold.Chemscore.DEInternal>
0.9137

> <Gold.Chemscore.Rot>
1.6824

> <Gold.Chemscore.Internal.Correction>
   9.000000E+99

> <Gold.Chemscore.Hbonds>
donor molecule, donor type, donor heavy atom, donor atom, acceptor molecule, acceptor atom, score
      L1  H    19    39       P1  8028  0.92
      P1  H  7989  7998       L1     3  0.18
      P1  H  7997  8009       L1     1  0.97

> <Gold.Chemscore.Hbond.Weighted>
-9.6796

> <Gold.Chemscore.Metal.Weighted>
-0.0000

> <Gold.Chemscore.Lipo.Weighted>
-10.5797

> <Gold.Chemscore.Internal_Hbond.Weighted>
0.0000

> <Gold.Chemscore.DEClash.Weighted>
0.2047

> <Gold.Chemscore.DEInternal.Weighted>
0.9137

> <Gold.Chemscore.Rot.Weighted>
4.3070

> <Gold.Chemscore.Internal.Correction.Weighted>
   9.000000E+99

> <Gold.Protein.RotatedTorsions>
[ 6907 6896 6895 6894 ] final   66.35 input  -60.11 | X-H torsion
[ 7974 7965 7964 7962 ] final  164.25 input  175.53 | X-H torsion
[ 8008 7997 7996 7995 ] final -123.67 input   59.86 | X-H torsion
[ 10167 10162 10161 10158 ] final   -9.22 input  -65.29 | X-H torsion
[ 10718 10713 10712 10709 ] final -179.25 input   66.30 | X-H torsion
[ 10763 10752 10751 10750 ] final   66.58 input  -60.55 | X-H torsion
[ 11005 11000 10999 10996 ] final  115.92 input  -57.11 | X-H torsion

> <Gold.Protein.ActiveResidues>
 VAL166  LYS551  ARG553  GLY616  TRP617  ASP618  TYR619  PRO620  LYS621  CYS622 
 ASP623  PHE694  ASN695  SER759  ASP760  ASP761  ALA762  ILE779  LEU786  VAL792 
 PHE793  MET794  SER795  GLU796  ALA797  LYS798  CYS799  TRP800  GLU811  SER814 

> <Gold.Protein.RotatedAtoms>
  152.4474  134.5465  159.9854 H   0  0  0  0  0  0  0  0  0  0  0  0  # atno 6907 bound_to 6896
  151.5547  133.3406  159.2967 H   0  0  0  0  0  0  0  0  0  0  0  0  # atno 6908 bound_to 6896
  150.8394  134.7712  159.6983 H   0  0  0  0  0  0  0  0  0  0  0  0  # atno 6909 bound_to 6896
  144.7553  139.8299  143.6352 H   0  0  0  0  0  0  0  0  0  0  0  0  # atno 7974 bound_to 7965
  155.1843  140.0411  157.2888 H   0  0  0  0  0  0  0  0  0  0  0  0  # atno 8008 bound_to 7997
  154.6182  140.2494  155.7555 H   0  0  0  0  0  0  0  0  0  0  0  0  # atno 8009 bound_to 7997
  156.2418  140.2900  156.0477 H   0  0  0  0  0  0  0  0  0  0  0  0  # atno 8010 bound_to 7997
  140.7081  143.5882  150.8921 H   0  0  0  0  0  0  0  0  0  0  0  0  # atno 10167 bound_to 10162
  156.8564  130.9736  151.3087 H   0  0  0  0  0  0  0  0  0  0  0  0  # atno 10718 bound_to 10713
  153.0146  135.5315  154.6846 H   0  0  0  0  0  0  0  0  0  0  0  0  # atno 10763 bound_to 10752
  154.5997  135.2867  155.0551 H   0  0  0  0  0  0  0  0  0  0  0  0  # atno 10764 bound_to 10752
  154.1612  135.6547  153.5039 H   0  0  0  0  0  0  0  0  0  0  0  0  # atno 10765 bound_to 10752
  139.9025  134.9591  156.7119 H   0  0  0  0  0  0  0  0  0  0  0  0  # atno 11005 bound_to 11000
  146.1556  139.4653  143.0021 LP  0  0  0  0  0  0  0  0  0  0  0  0  # atno 17320 bound_to 7965
  145.6800  141.0193  143.1611 LP  0  0  0  0  0  0  0  0  0  0  0  0  # atno 17321 bound_to 7965
  139.9607  143.6167  152.3003 LP  0  0  0  0  0  0  0  0  0  0  0  0  # atno 17342 bound_to 10162
  139.6718  144.7660  151.1768 LP  0  0  0  0  0  0  0  0  0  0  0  0  # atno 17343 bound_to 10162
  157.6275  130.8703  149.9215 LP  0  0  0  0  0  0  0  0  0  0  0  0  # atno 17370 bound_to 10713
  156.0800  130.3674  150.0599 LP  0  0  0  0  0  0  0  0  0  0  0  0  # atno 17371 bound_to 10713
  140.7069  133.9257  155.8059 LP  0  0  0  0  0  0  0  0  0  0  0  0  # atno 17394 bound_to 11000
  141.0329  134.0730  157.3993 LP  0  0  0  0  0  0  0  0  0  0  0  0  # atno 17395 bound_to 11000

$$$$
