#       Name:                AV-unprocessed.smi:633
#       Creating user name   scv26
#       Creation time:       Fri Mar 27 00:05:44 2020


#       File generated by GOLD software.
#

@<TRIPOS>MOLECULE
AV-unprocessed.smi:633
    59    62     1
SMALL
NO_CHARGES


@<TRIPOS>ATOM
      1 ****        -6.4055   1.5235   1.3459 C.3            1 S1                 0.0000
      2 ****        -5.8819   2.3593   0.1641 C.3            1 S1                 0.0000
      3 ****        -4.3435   2.4294   0.0956 C.3            1 S1                 0.0000
      4 ****        -3.7816   1.1743  -0.3991 N.3            1 S1                 0.0000
      5 ****        -2.3901   0.9754  -0.2721 C.ar           1 S1                 0.0000
      6 ****        -1.8342  -0.3080  -0.4834 C.ar           1 S1                 0.0000
      7 ****        -0.4438  -0.4879  -0.3529 C.ar           1 S1                 0.0000
      8 ****         0.3606   0.6219  -0.0050 C.ar           1 S1                 0.0000
      9 ****         1.7742   0.5758   0.1337 N.am           1 S1                 0.0000
     10 ****         2.5576  -0.4899   0.3727 C.2            1 S1                 0.0000
     11 ****         2.1556  -1.6378   0.5608 O.2            1 S1                 0.0000
     12 ****         3.8525  -0.1385   0.4020 N.am           1 S1                 0.0000
     13 ****         4.9937  -1.0202   0.6438 C.3            1 S1                 0.0000
     14 ****         5.1779  -2.0942  -0.4186 C.3            1 S1                 0.0000
     15 ****         6.5470  -2.6347  -0.7571 C.3            1 S1                 0.0000
     16 ****         5.8051  -1.7722  -1.7536 C.3            1 S1                 0.0000
     17 ****         5.0164  -1.6267   2.0391 C.3            1 S1                 0.0000
     18 ****         5.4648  -0.8199   3.2338 C.3            1 S1                 0.0000
     19 ****         6.3192  -1.9603   2.7268 C.3            1 S1                 0.0000
     20 ****        -0.2823   1.8621   0.1767 C.ar           1 S1                 0.0000
     21 ****        -1.6146   2.0380   0.0556 N.ar           1 S1                 0.0000
     22 ****        -4.3687   0.7411  -1.6628 C.3            1 S1                 0.0000
     23 ****        -5.9015   0.6644  -1.5440 C.3            1 S1                 0.0000
     24 ****        -6.5626   0.3458  -2.8892 C.3            1 S1                 0.0000
     25 ****        -6.4116   1.9170  -1.0877 O.3            1 S1                 0.0000
     26 ****        -6.0952   1.9613   2.2951 H              1 S1                 0.0000
     27 ****        -6.0327   0.4996   1.3269 H              1 S1                 0.0000
     28 ****        -7.4950   1.4844   1.3421 H              1 S1                 0.0000
     29 ****        -6.2527   3.3744   0.3089 H              1 S1                 0.0000
     30 ****        -4.0434   3.2356  -0.5754 H              1 S1                 0.0000
     31 ****        -3.9430   2.6661   1.0824 H              1 S1                 0.0000
     32 ****        -2.4561  -1.1547  -0.7330 H              1 S1                 0.0000
     33 ****        -0.0263  -1.4661  -0.5334 H              1 S1                 0.0000
     34 ****         2.2413   1.4697   0.0907 H              1 S1                 0.0000
     35 ****         4.0721   0.8334   0.2405 H              1 S1                 0.0000
     36 ****         5.8612  -0.3621   0.5755 H              1 S1                 0.0000
     37 ****         4.3746  -2.8285  -0.4416 H              1 S1                 0.0000
     38 ****         7.4081  -2.1937  -0.2592 H              1 S1                 0.0000
     39 ****         6.6270  -3.6981  -0.9723 H              1 S1                 0.0000
     40 ****         5.3906  -2.2609  -2.6329 H              1 S1                 0.0000
     41 ****         6.1721  -0.7601  -1.9115 H              1 S1                 0.0000
     42 ****         4.2042  -2.3275   2.2237 H              1 S1                 0.0000
     43 ****         5.8223   0.1926   3.0568 H              1 S1                 0.0000
     44 ****         4.9289  -0.9687   4.1690 H              1 S1                 0.0000
     45 ****         6.3525  -2.8690   3.3245 H              1 S1                 0.0000
     46 ****         7.2464  -1.7017   2.2193 H              1 S1                 0.0000
     47 ****         0.2881   2.7431   0.4327 H              1 S1                 0.0000
     48 ****        -4.0877   1.4538  -2.4392 H              1 S1                 0.0000
     49 ****        -3.9860  -0.2301  -1.9736 H              1 S1                 0.0000
     50 ****        -6.1747  -0.1223  -0.8403 H              1 S1                 0.0000
     51 ****        -6.2157  -0.6110  -3.2803 H              1 S1                 0.0000
     52 ****        -6.3367   1.1125  -3.6311 H              1 S1                 0.0000
     53 ****        -7.6466   0.2899  -2.7869 H              1 S1                 0.0000
     54 ****        -4.0932   0.5154   0.2856 LP             1 S1                 0.0000
     55 ****         1.1751  -1.8336   0.5421 LP             1 S1                 0.0000
     56 ****         2.8094  -2.3747   0.7323 LP             1 S1                 0.0000
     57 ****        -2.0236   2.9382   0.2052 LP             1 S1                 0.0000
     58 ****        -6.1994   2.6093  -1.7775 LP             1 S1                 0.0000
     59 ****        -7.4037   1.8333  -0.9937 LP             1 S1                 0.0000
@<TRIPOS>BOND
    1    1    2 1     
    2    1   26 1     
    3    1   27 1     
    4    1   28 1     
    5    2   25 1     
    6    2    3 1     
    7    2   29 1     
    8    3    4 1     
    9    3   30 1     
   10    3   31 1     
   11    4    5 1     
   12    4   22 1     
   13    5   21 ar    
   14    5    6 ar    
   15    6    7 ar    
   16    6   32 1     
   17    7    8 ar    
   18    7   33 1     
   19    8    9 1     
   20    8   20 ar    
   21    9   10 am    
   22    9   34 1     
   23   10   11 2     
   24   10   12 am    
   25   12   13 1     
   26   12   35 1     
   27   13   14 1     
   28   13   17 1     
   29   13   36 1     
   30   14   16 1     
   31   14   15 1     
   32   14   37 1     
   33   15   16 1     
   34   15   38 1     
   35   15   39 1     
   36   16   40 1     
   37   16   41 1     
   38   17   19 1     
   39   17   18 1     
   40   17   42 1     
   41   18   19 1     
   42   18   43 1     
   43   18   44 1     
   44   19   45 1     
   45   19   46 1     
   46   20   21 ar    
   47   20   47 1     
   48   22   23 1     
   49   22   48 1     
   50   22   49 1     
   51   23   24 1     
   52   23   25 1     
   53   23   50 1     
   54   24   51 1     
   55   24   52 1     
   56   24   53 1     
   57    4   54 1     
   58   11   55 1     
   59   11   56 1     
   60   21   57 1     
   61   25   58 1     
   62   25   59 1     
@<TRIPOS>SUBSTRUCTURE
      1 S1             1
@<TRIPOS>SET
LONE_PAIRS      STATIC     ATOMS    <user>   **** ""
6 54 55 56 57 58 59
DONOR_HYDROGENS      STATIC     ATOMS    <user>   **** ""
2 34 35
ATOM$BLUE        STATIC     ATOMS    COLORGROUP SYSTEM
6 54 55 56 57 58 59
ATOM$RED        STATIC     ATOMS    COLORGROUP SYSTEM
2 34 35
