AV-unprocessed.smi:1248|AV-procd|sdf|5252|dock9
  -GOLD-   22720 4363D 1   1.00000     0.00000
 Structure written by MMmdl.
 43 45  0  0  0  0  0  0  0  0  1 V2000
  143.7216  132.2520  150.7083 C   0  0  0  0  0  0  0  0  0  0  0  0
  144.5128  133.2815  149.8925 C   0  0  0  0  0  0  0  0  0  0  0  0
  145.0690  134.3251  150.7321 N   0  0  0  0  0  0  0  0  0  0  0  0
  144.8353  135.6848  150.6730 C   0  0  0  0  0  0  0  0  0  0  0  0
  145.5886  136.2351  151.6660 C   0  0  0  0  0  0  0  0  0  0  0  0
  145.6495  137.6194  151.9640 N   0  0  0  0  0  0  0  0  0  0  0  0
  146.4381  138.2214  152.8689 C   0  0  0  0  0  0  0  0  0  0  0  0
  147.2507  137.6471  153.5933 O   0  0  0  0  0  0  0  0  0  0  0  0
  146.2293  139.5456  152.8933 N   0  0  0  0  0  0  0  0  0  0  0  0
  146.9184  140.4900  153.7680 C   0  0  0  0  0  0  0  0  0  0  0  0
  148.4456  140.3537  153.6317 C   0  0  0  0  0  0  0  0  0  0  0  0
  149.1737  141.2322  154.6641 C   0  0  0  0  0  0  0  0  0  0  0  0
  148.7611  140.8682  156.0197 N   0  0  0  0  0  0  0  0  0  0  0  0
  149.5009  141.6817  156.9707 C   0  0  0  0  0  0  0  0  0  0  0  0
  150.9280  142.0397  156.6228 C   0  0  0  0  0  0  0  0  0  0  0  0
  150.6476  141.0272  157.7068 C   0  0  0  0  0  0  0  0  0  0  0  0
  147.3307  141.1245  156.1883 C   0  0  0  0  0  0  0  0  0  0  0  0
  146.5172  140.2372  155.2298 C   0  0  0  0  0  0  0  0  0  0  0  0
  146.2611  135.1475  152.2918 C   0  0  0  0  0  0  0  0  0  0  0  0
  145.9406  133.9976  151.7179 N   0  0  0  0  0  0  0  0  0  0  0  0
  143.2972  131.4866  150.0585 H   0  0  0  0  0  0  0  0  0  0  0  0
  142.9003  132.7243  151.2476 H   0  0  0  0  0  0  0  0  0  0  0  0
  144.3583  131.7514  151.4380 H   0  0  0  0  0  0  0  0  0  0  0  0
  145.3268  132.7948  149.3539 H   0  0  0  0  0  0  0  0  0  0  0  0
  143.8680  133.7422  149.1433 H   0  0  0  0  0  0  0  0  0  0  0  0
  144.1693  136.1288  149.9478 H   0  0  0  0  0  0  0  0  0  0  0  0
  145.0250  138.2119  151.4372 H   0  0  0  0  0  0  0  0  0  0  0  0
  145.5416  139.9302  152.2626 H   0  0  0  0  0  0  0  0  0  0  0  0
  146.6258  141.5080  153.5033 H   0  0  0  0  0  0  0  0  0  0  0  0
  148.7423  139.3126  153.7695 H   0  0  0  0  0  0  0  0  0  0  0  0
  148.7611  140.6343  152.6264 H   0  0  0  0  0  0  0  0  0  0  0  0
  150.2507  141.0938  154.5618 H   0  0  0  0  0  0  0  0  0  0  0  0
  148.9671  142.2873  154.4771 H   0  0  0  0  0  0  0  0  0  0  0  0
  148.9601  142.4389  157.5360 H   0  0  0  0  0  0  0  0  0  0  0  0
  151.3335  141.6682  155.6835 H   0  0  0  0  0  0  0  0  0  0  0  0
  151.2874  143.0197  156.9297 H   0  0  0  0  0  0  0  0  0  0  0  0
  150.8217  141.3323  158.7366 H   0  0  0  0  0  0  0  0  0  0  0  0
  150.8665  139.9839  157.4867 H   0  0  0  0  0  0  0  0  0  0  0  0
  147.0409  140.9088  157.2173 H   0  0  0  0  0  0  0  0  0  0  0  0
  147.1121  142.1786  156.0083 H   0  0  0  0  0  0  0  0  0  0  0  0
  145.4522  140.4300  155.3638 H   0  0  0  0  0  0  0  0  0  0  0  0
  146.6770  139.1886  155.4864 H   0  0  0  0  0  0  0  0  0  0  0  0
  146.9545  135.1427  153.1194 H   0  0  0  0  0  0  0  0  0  0  0  0
  1  2  1  0  0  0  0
  1 21  1  0  0  0  0
  1 22  1  0  0  0  0
  1 23  1  0  0  0  0
  2  3  1  0  0  0  0
  2 24  1  0  0  0  0
  2 25  1  0  0  0  0
  3 20  1  0  0  0  0
  3  4  1  0  0  0  0
  4  5  2  0  0  0  0
  4 26  1  0  0  0  0
  5  6  1  0  0  0  0
  5 19  1  0  0  0  0
  6  7  1  0  0  0  0
  6 27  1  0  0  0  0
  7  8  2  0  0  0  0
  7  9  1  0  0  0  0
  9 10  1  0  0  0  0
  9 28  1  0  0  0  0
 10 18  1  0  0  0  0
 10 11  1  0  0  0  0
 10 29  1  0  0  0  0
 11 12  1  0  0  0  0
 11 30  1  0  0  0  0
 11 31  1  0  0  0  0
 12 13  1  0  0  0  0
 12 32  1  0  0  0  0
 12 33  1  0  0  0  0
 13 14  1  0  0  0  0
 13 17  1  0  0  0  0
 14 16  1  0  0  0  0
 14 15  1  0  0  0  0
 14 34  1  0  0  0  0
 15 16  1  0  0  0  0
 15 35  1  0  0  0  0
 15 36  1  0  0  0  0
 16 37  1  0  0  0  0
 16 38  1  0  0  0  0
 17 18  1  0  0  0  0
 17 39  1  0  0  0  0
 17 40  1  0  0  0  0
 18 41  1  0  0  0  0
 18 42  1  0  0  0  0
 19 20  2  0  0  0  0
 19 43  1  0  0  0  0
M  END
> <s_m_source_file>
AV-unprocessed.smi

> <i_m_source_file_index>
1248

> <i_lp_mmshare_version>
43012

> <i_f3d_flags>
0

> <s_epik_input>
W0NIM11bQ0gyXW4xW2NIXWMoW2NIXW4xKVtOSF1DKD1PKVtOSF1bQ0hdMltDSDJdW0NIMl1OKFtDSDJdW0NIMl0yKVtDSF0zW0NIMl1bQ0gyXTM=

> <s_epik_cmdline>
J2VwaWtfcHl0aG9uJywgJy1waCcsICc3LjAnLCAnLXRuJywgJzgnLCAnLW1hJywgJzIwMCcsICctbWV0YWxfYmluZGluZycsICctaW1hZScsICc8aW5maWxlLm1hZT4nLCAnLW9tYWUnLCAnPG91dGZpbGUubWFlPic=

> <r_lp_tautomer_probability>
1

> <r_epik_Ionization_Penalty>
1.02552

> <r_epik_Ionization_Penalty_Charging>
0

> <r_epik_Ionization_Penalty_Neutral>
1.02552

> <r_epik_State_Penalty>
1.07599

> <r_epik_Charging_Adjusted_Penalty>
1.07599

> <i_epik_Tot_Q>
0

> <i_epik_Tot_abs_Q>
0

> <r_epik_Metal_State_Penalty>
1.07597

> <b_epik_Metal_Only>
0

> <s_lp_Force_Field>
OPLS_2005

> <r_lp_Energy>
25.1211

> <b_lp_Chiralities_Consistent>
1

> <s_lp_Variant>
AV-unprocessed.smi:1248-3

> <Gold.Version>
5.8.1

> <Gold.Id.Protein>
6NUR|6NUR_protein|mol2

> <Gold.PLP.Fitness>
38.3779

> <Gold.PLP.PLP>
-30.6585

> <Gold.PLP.part.hbond>
-2.0000

> <Gold.PLP.part.metal>
0.0000

> <Gold.PLP.part.buried>
-1.2302

> <Gold.PLP.part.nonpolar>
-29.2728

> <Gold.PLP.part.repulsive>
2.1576

> <Gold.PLP.ligand.clash>
0.0000

> <Gold.PLP.ligand.torsion>
0.9452

> <Gold.PLP.Chemscore.Hbond>
1.7200

> <Gold.PLP.Chemscore.CHOScore>
1.0899

> <Gold.PLP.Chemscore.Metal>
0.0000

> <Gold.Chemscore.Hbonds>
donor molecule, donor type, donor heavy atom, donor atom, acceptor molecule, acceptor atom, score
      L1  H     6    27       P1 10171  1.00
      L1  H     9    28       P1 10175  0.69
      L1  C     4    26       P1 10171  0.85
      L1  C    19    43       P1  7948  0.29

> <Gold.PLP.Chemscore.Internal.Correction>
1.1803

> <Gold.Rescore>
     Score         DG    S(hbond)    S(metal)    S(lipo)     H(rot)  DE(clash)    DE(int)     intcor
     12.79     -16.27       1.65        0.00      73.98       1.32       0.22       3.27       ----

> <Gold.Chemscore.Fitness>
12.7886

> <Gold.Chemscore.DG>
-16.2726

> <Gold.Chemscore.ZeroCoef>
-5.4800

> <Gold.Chemscore.Hbond>
1.6490

> <Gold.Chemscore.Metal>
0.0000

> <Gold.Chemscore.Lipo>
73.9847

> <Gold.Chemscore.Internal_Hbond>
0.0000

> <Gold.Chemscore.DEClash>
0.2180

> <Gold.Chemscore.DEInternal>
3.2660

> <Gold.Chemscore.Rot>
1.3169

> <Gold.Chemscore.Internal.Correction>
   9.000000E+99

> <Gold.Chemscore.Hbonds>
donor molecule, donor type, donor heavy atom, donor atom, acceptor molecule, acceptor atom, score
      L1  H     6    27       P1 10171  0.90
      L1  H     9    28       P1 10175  0.61

> <Gold.Chemscore.Hbond.Weighted>
-5.5075

> <Gold.Chemscore.Metal.Weighted>
-0.0000

> <Gold.Chemscore.Lipo.Weighted>
-8.6562

> <Gold.Chemscore.Internal_Hbond.Weighted>
0.0000

> <Gold.Chemscore.DEClash.Weighted>
0.2180

> <Gold.Chemscore.DEInternal.Weighted>
3.2660

> <Gold.Chemscore.Rot.Weighted>
3.3712

> <Gold.Chemscore.Internal.Correction.Weighted>
   9.000000E+99

> <Gold.Protein.RotatedTorsions>
[ 6907 6896 6895 6894 ] final  -22.91 input  -60.11 | X-H torsion
[ 7974 7965 7964 7962 ] final  122.03 input  175.53 | X-H torsion
[ 8008 7997 7996 7995 ] final   26.97 input   59.86 | X-H torsion
[ 10167 10162 10161 10158 ] final  109.03 input  -65.29 | X-H torsion
[ 10718 10713 10712 10709 ] final   -3.85 input   66.30 | X-H torsion
[ 10763 10752 10751 10750 ] final  -50.14 input  -60.55 | X-H torsion
[ 11005 11000 10999 10996 ] final   56.83 input  -57.11 | X-H torsion

> <Gold.Protein.ActiveResidues>
 VAL166  LYS551  ARG553  GLY616  TRP617  ASP618  TYR619  PRO620  LYS621  CYS622 
 ASP623  PHE694  ASN695  SER759  ASP760  ASP761  ALA762  ILE779  LEU786  VAL792 
 PHE793  MET794  SER795  GLU796  ALA797  LYS798  CYS799  TRP800  GLU811  SER814 

> <Gold.Protein.RotatedAtoms>
  151.2116  135.0483  159.8913 H   0  0  0  0  0  0  0  0  0  0  0  0  # atno 6907 bound_to 6896
  152.5424  134.0738  159.8216 H   0  0  0  0  0  0  0  0  0  0  0  0  # atno 6908 bound_to 6896
  151.0892  133.5281  159.2648 H   0  0  0  0  0  0  0  0  0  0  0  0  # atno 6909 bound_to 6896
  145.1124  139.3444  143.4756 H   0  0  0  0  0  0  0  0  0  0  0  0  # atno 7974 bound_to 7965
  155.0357  140.3163  155.4742 H   0  0  0  0  0  0  0  0  0  0  0  0  # atno 8008 bound_to 7997
  156.2865  140.2172  156.5422 H   0  0  0  0  0  0  0  0  0  0  0  0  # atno 8009 bound_to 7997
  154.7333  140.0479  157.0733 H   0  0  0  0  0  0  0  0  0  0  0  0  # atno 8010 bound_to 7997
  139.6799  144.7119  151.1535 H   0  0  0  0  0  0  0  0  0  0  0  0  # atno 10167 bound_to 10162
  156.7700  130.5297  149.5769 H   0  0  0  0  0  0  0  0  0  0  0  0  # atno 10718 bound_to 10713
  154.1056  135.6557  153.4876 H   0  0  0  0  0  0  0  0  0  0  0  0  # atno 10763 bound_to 10752
  153.0274  135.5235  154.7243 H   0  0  0  0  0  0  0  0  0  0  0  0  # atno 10764 bound_to 10752
  154.6408  135.2988  155.0075 H   0  0  0  0  0  0  0  0  0  0  0  0  # atno 10765 bound_to 10752
  140.0499  134.5752  155.9276 H   0  0  0  0  0  0  0  0  0  0  0  0  # atno 11005 bound_to 11000
  146.3525  140.1048  142.8606 LP  0  0  0  0  0  0  0  0  0  0  0  0  # atno 17320 bound_to 7965
  145.0832  140.9235  143.4813 LP  0  0  0  0  0  0  0  0  0  0  0  0  # atno 17321 bound_to 7965
  140.7648  143.5715  150.8990 LP  0  0  0  0  0  0  0  0  0  0  0  0  # atno 17342 bound_to 10162
  139.9387  143.6408  152.3059 LP  0  0  0  0  0  0  0  0  0  0  0  0  # atno 17343 bound_to 10162
  156.1284  130.6160  151.0298 LP  0  0  0  0  0  0  0  0  0  0  0  0  # atno 17370 bound_to 10713
  157.6695  131.0864  150.7646 LP  0  0  0  0  0  0  0  0  0  0  0  0  # atno 17371 bound_to 10713
  141.1925  133.6575  156.5506 LP  0  0  0  0  0  0  0  0  0  0  0  0  # atno 17394 bound_to 11000
  140.3934  134.7420  157.4735 LP  0  0  0  0  0  0  0  0  0  0  0  0  # atno 17395 bound_to 11000

$$$$
