AV-unprocessed.smi:1055|AV-procd|sdf|4629|dock4
  -GOLD-   22720 3133D 1   1.00000     0.00000
 Structure written by MMmdl.
 50 51  0  0  0  0  0  0  0  0  1 V2000
  152.5411  144.4163  159.1170 C   0  0  0  0  0  0  0  0  0  0  0  0
  152.7230  143.5366  160.1154 C   0  0  0  0  0  0  0  0  0  0  0  0
  152.1116  143.7416  161.4888 C   0  0  0  0  0  0  0  0  0  0  0  0
  153.5356  142.2638  159.9268 C   0  0  0  0  0  0  0  0  0  0  0  0
  152.7293  141.1079  159.5335 N   0  0  0  0  0  0  0  0  0  0  0  0
  153.4547  139.8495  159.7409 C   0  0  0  0  0  0  0  0  0  0  0  0
  152.5626  138.6491  159.3805 C   0  0  0  0  0  0  0  0  0  0  0  0
  152.0752  138.7365  157.9241 C   0  0  0  0  0  0  0  0  0  0  0  0
  151.1190  137.6737  157.6285 N   0  0  0  0  0  0  0  0  0  0  0  0
  151.3691  136.5998  156.8662 C   0  0  0  0  0  0  0  0  0  0  0  0
  152.4504  136.3954  156.3151 O   0  0  0  0  0  0  0  0  0  0  0  0
  150.2879  135.8061  156.7778 N   0  0  0  0  0  0  0  0  0  0  0  0
  150.1511  134.5704  156.0899 C   0  0  0  0  0  0  0  0  0  0  0  0
  151.2755  133.7269  156.0136 C   0  0  0  0  0  0  0  0  0  0  0  0
  151.1763  132.5039  155.3237 C   0  0  0  0  0  0  0  0  0  0  0  0
  149.9473  132.1522  154.7124 C   0  0  0  0  0  0  0  0  0  0  0  0
  149.7941  130.9347  154.0102 N   0  0  0  0  0  0  0  0  0  0  0  0
  148.7837  130.8114  152.9667 C   0  0  0  0  0  0  0  0  0  0  0  0
  150.6896  129.8171  154.2910 C   0  0  0  0  0  0  0  0  0  0  0  0
  148.8714  132.9745  154.7743 N   0  0  0  0  0  0  0  0  0  0  0  0
  148.9698  134.1452  155.4383 C   0  0  0  0  0  0  0  0  0  0  0  0
  151.4211  140.1070  157.6969 C   0  0  0  0  0  0  0  0  0  0  0  0
  152.3636  141.2460  158.1224 C   0  0  0  0  0  0  0  0  0  0  0  0
  151.9554  145.3127  159.2588 H   0  0  0  0  0  0  0  0  0  0  0  0
  152.9760  144.2537  158.1418 H   0  0  0  0  0  0  0  0  0  0  0  0
  151.4637  142.9025  161.7420 H   0  0  0  0  0  0  0  0  0  0  0  0
  151.5159  144.6541  161.5270 H   0  0  0  0  0  0  0  0  0  0  0  0
  152.8902  143.8157  162.2485 H   0  0  0  0  0  0  0  0  0  0  0  0
  154.2837  142.4594  159.1574 H   0  0  0  0  0  0  0  0  0  0  0  0
  154.0794  142.0368  160.8454 H   0  0  0  0  0  0  0  0  0  0  0  0
  154.3649  139.8394  159.1393 H   0  0  0  0  0  0  0  0  0  0  0  0
  153.7605  139.7537  160.7826 H   0  0  0  0  0  0  0  0  0  0  0  0
  153.1167  137.7230  159.5377 H   0  0  0  0  0  0  0  0  0  0  0  0
  151.7089  138.6170  160.0595 H   0  0  0  0  0  0  0  0  0  0  0  0
  152.9324  138.6492  157.2533 H   0  0  0  0  0  0  0  0  0  0  0  0
  150.2010  137.7625  158.0390 H   0  0  0  0  0  0  0  0  0  0  0  0
  149.4477  136.1509  157.2184 H   0  0  0  0  0  0  0  0  0  0  0  0
  152.2073  134.0087  156.4820 H   0  0  0  0  0  0  0  0  0  0  0  0
  152.0437  131.8632  155.2768 H   0  0  0  0  0  0  0  0  0  0  0  0
  147.7851  130.9495  153.3826 H   0  0  0  0  0  0  0  0  0  0  0  0
  148.8147  129.8278  152.4974 H   0  0  0  0  0  0  0  0  0  0  0  0
  148.9443  131.5563  152.1866 H   0  0  0  0  0  0  0  0  0  0  0  0
  150.6189  129.5233  155.3388 H   0  0  0  0  0  0  0  0  0  0  0  0
  151.7230  130.0914  154.0767 H   0  0  0  0  0  0  0  0  0  0  0  0
  150.4424  128.9460  153.6842 H   0  0  0  0  0  0  0  0  0  0  0  0
  148.0767  134.7497  155.4172 H   0  0  0  0  0  0  0  0  0  0  0  0
  151.1539  140.2241  156.6461 H   0  0  0  0  0  0  0  0  0  0  0  0
  150.4909  140.1775  158.2632 H   0  0  0  0  0  0  0  0  0  0  0  0
  151.8624  142.2021  157.9664 H   0  0  0  0  0  0  0  0  0  0  0  0
  153.2597  141.2493  157.4996 H   0  0  0  0  0  0  0  0  0  0  0  0
  1  2  2  0  0  0  0
  1 24  1  0  0  0  0
  1 25  1  0  0  0  0
  2  3  1  0  0  0  0
  2  4  1  0  0  0  0
  3 26  1  0  0  0  0
  3 27  1  0  0  0  0
  3 28  1  0  0  0  0
  4  5  1  0  0  0  0
  4 29  1  0  0  0  0
  4 30  1  0  0  0  0
  5 23  1  0  0  0  0
  5  6  1  0  0  0  0
  6  7  1  0  0  0  0
  6 31  1  0  0  0  0
  6 32  1  0  0  0  0
  7  8  1  0  0  0  0
  7 33  1  0  0  0  0
  7 34  1  0  0  0  0
  8  9  1  0  0  0  0
  8 22  1  0  0  0  0
  8 35  1  0  0  0  0
  9 10  1  0  0  0  0
  9 36  1  0  0  0  0
 10 11  2  0  0  0  0
 10 12  1  0  0  0  0
 12 13  1  0  0  0  0
 12 37  1  0  0  0  0
 13 21  1  0  0  0  0
 13 14  2  0  0  0  0
 14 15  1  0  0  0  0
 14 38  1  0  0  0  0
 15 16  2  0  0  0  0
 15 39  1  0  0  0  0
 16 17  1  0  0  0  0
 16 20  1  0  0  0  0
 17 18  1  0  0  0  0
 17 19  1  0  0  0  0
 18 40  1  0  0  0  0
 18 41  1  0  0  0  0
 18 42  1  0  0  0  0
 19 43  1  0  0  0  0
 19 44  1  0  0  0  0
 19 45  1  0  0  0  0
 20 21  2  0  0  0  0
 21 46  1  0  0  0  0
 22 23  1  0  0  0  0
 22 47  1  0  0  0  0
 22 48  1  0  0  0  0
 23 49  1  0  0  0  0
 23 50  1  0  0  0  0
M  END
> <s_m_source_file>
AV-unprocessed.smi

> <i_m_source_file_index>
1055

> <i_lp_mmshare_version>
43012

> <i_f3d_flags>
0

> <s_epik_input>
W0NIMl09QyhbQ0gzXSlbQ0gyXU4xW0NIMl1bQ0gyXVtDSF0oW0NIMl1bQ0gyXTEpW05IXUMoPU8pW05IXWMyW2NIXVtjSF1jKE4oW0NIM10pW0NIM10pbltjSF0y

> <s_epik_cmdline>
J2VwaWtfcHl0aG9uJywgJy1waCcsICc3LjAnLCAnLXRuJywgJzgnLCAnLW1hJywgJzIwMCcsICctbWV0YWxfYmluZGluZycsICctaW1hZScsICc8aW5maWxlLm1hZT4nLCAnLW9tYWUnLCAnPG91dGZpbGUubWFlPic=

> <r_epik_Ionization_Penalty>
2.66572

> <r_epik_Ionization_Penalty_Charging>
0

> <r_epik_Ionization_Penalty_Neutral>
2.66572

> <r_epik_State_Penalty>
2.75204

> <r_epik_Charging_Adjusted_Penalty>
2.75204

> <i_epik_Tot_Q>
0

> <i_epik_Tot_abs_Q>
0

> <r_epik_Metal_State_Penalty>
2.38689

> <b_epik_Metal_Only>
1

> <s_lp_Force_Field>
OPLS_2005

> <r_lp_Energy>
18.8719

> <b_lp_Chiralities_Consistent>
1

> <s_lp_Variant>
AV-unprocessed.smi:1055-6

> <Gold.Version>
5.8.1

> <Gold.Id.Protein>
6NUR|6NUR_protein|mol2

> <Gold.PLP.Fitness>
41.2604

> <Gold.PLP.PLP>
-40.4368

> <Gold.PLP.part.hbond>
-1.0000

> <Gold.PLP.part.metal>
0.0000

> <Gold.PLP.part.buried>
-5.0929

> <Gold.PLP.part.nonpolar>
-33.8548

> <Gold.PLP.part.repulsive>
0.1713

> <Gold.PLP.ligand.clash>
0.0000

> <Gold.PLP.ligand.torsion>
1.0996

> <Gold.PLP.Chemscore.Hbond>
1.0000

> <Gold.PLP.Chemscore.CHOScore>
0.0000

> <Gold.PLP.Chemscore.Metal>
0.0000

> <Gold.Chemscore.Hbonds>
donor molecule, donor type, donor heavy atom, donor atom, acceptor molecule, acceptor atom, score
      P1  H 10752 10764       L1    11  0.99

> <Gold.PLP.Chemscore.Internal.Correction>
0.0229

> <Gold.Rescore>
     Score         DG    S(hbond)    S(metal)    S(lipo)     H(rot)  DE(clash)    DE(int)     intcor
     15.55     -17.69       0.98        0.00     104.99       1.30       0.01       2.12       ----

> <Gold.Chemscore.Fitness>
15.5499

> <Gold.Chemscore.DG>
-17.6869

> <Gold.Chemscore.ZeroCoef>
-5.4800

> <Gold.Chemscore.Hbond>
0.9755

> <Gold.Chemscore.Metal>
0.0000

> <Gold.Chemscore.Lipo>
104.9884

> <Gold.Chemscore.Internal_Hbond>
0.0000

> <Gold.Chemscore.DEClash>
0.0136

> <Gold.Chemscore.DEInternal>
2.1235

> <Gold.Chemscore.Rot>
1.3027

> <Gold.Chemscore.Internal.Correction>
   9.000000E+99

> <Gold.Chemscore.Hbonds>
donor molecule, donor type, donor heavy atom, donor atom, acceptor molecule, acceptor atom, score
      P1  H 10752 10764       L1    11  0.94

> <Gold.Chemscore.Hbond.Weighted>
-3.2580

> <Gold.Chemscore.Metal.Weighted>
-0.0000

> <Gold.Chemscore.Lipo.Weighted>
-12.2836

> <Gold.Chemscore.Internal_Hbond.Weighted>
0.0000

> <Gold.Chemscore.DEClash.Weighted>
0.0136

> <Gold.Chemscore.DEInternal.Weighted>
2.1235

> <Gold.Chemscore.Rot.Weighted>
3.3348

> <Gold.Chemscore.Internal.Correction.Weighted>
   9.000000E+99

> <Gold.Protein.RotatedTorsions>
[ 6907 6896 6895 6894 ] final  100.79 input  -60.11 | X-H torsion
[ 7974 7965 7964 7962 ] final  -41.67 input  175.53 | X-H torsion
[ 8008 7997 7996 7995 ] final  177.29 input   59.86 | X-H torsion
[ 10167 10162 10161 10158 ] final   57.94 input  -65.29 | X-H torsion
[ 10718 10713 10712 10709 ] final  -66.14 input   66.30 | X-H torsion
[ 10763 10752 10751 10750 ] final  -38.74 input  -60.55 | X-H torsion
[ 11005 11000 10999 10996 ] final  157.75 input  -57.11 | X-H torsion

> <Gold.Protein.ActiveResidues>
 VAL166  LYS551  ARG553  GLY616  TRP617  ASP618  TYR619  PRO620  LYS621  CYS622 
 ASP623  PHE694  ASN695  SER759  ASP760  ASP761  ALA762  ILE779  LEU786  VAL792 
 PHE793  MET794  SER795  GLU796  ALA797  LYS798  CYS799  TRP800  GLU811  SER814 

> <Gold.Protein.RotatedAtoms>
  152.5364  134.0224  159.7987 H   0  0  0  0  0  0  0  0  0  0  0  0  # atno 6907 bound_to 6896
  151.0408  133.5700  159.2658 H   0  0  0  0  0  0  0  0  0  0  0  0  # atno 6908 bound_to 6896
  151.2670  135.0680  159.9173 H   0  0  0  0  0  0  0  0  0  0  0  0  # atno 6909 bound_to 6896
  146.0189  140.6874  142.9188 H   0  0  0  0  0  0  0  0  0  0  0  0  # atno 7974 bound_to 7965
  156.0673  140.1362  156.9871 H   0  0  0  0  0  0  0  0  0  0  0  0  # atno 8008 bound_to 7997
  154.4513  140.0979  156.6677 H   0  0  0  0  0  0  0  0  0  0  0  0  # atno 8009 bound_to 7997
  155.5284  140.3458  155.4423 H   0  0  0  0  0  0  0  0  0  0  0  0  # atno 8010 bound_to 7997
  140.1925  144.4070  150.6564 H   0  0  0  0  0  0  0  0  0  0  0  0  # atno 10167 bound_to 10162
  156.0629  130.4257  150.1665 H   0  0  0  0  0  0  0  0  0  0  0  0  # atno 10718 bound_to 10713
  153.9179  135.6785  153.4748 H   0  0  0  0  0  0  0  0  0  0  0  0  # atno 10763 bound_to 10752
  153.1044  135.4812  154.8922 H   0  0  0  0  0  0  0  0  0  0  0  0  # atno 10764 bound_to 10752
  154.7493  135.3180  154.8542 H   0  0  0  0  0  0  0  0  0  0  0  0  # atno 10765 bound_to 10752
  140.1799  134.8483  157.2791 H   0  0  0  0  0  0  0  0  0  0  0  0  # atno 11005 bound_to 11000
  144.6982  140.3531  143.7178 LP  0  0  0  0  0  0  0  0  0  0  0  0  # atno 17320 bound_to 7965
  145.7224  139.1713  143.2477 LP  0  0  0  0  0  0  0  0  0  0  0  0  # atno 17321 bound_to 7965
  140.6446  143.2210  151.6215 LP  0  0  0  0  0  0  0  0  0  0  0  0  # atno 17342 bound_to 10162
  139.5250  144.3088  152.1011 LP  0  0  0  0  0  0  0  0  0  0  0  0  # atno 17343 bound_to 10162
  156.9730  130.9840  151.3454 LP  0  0  0  0  0  0  0  0  0  0  0  0  # atno 17370 bound_to 10713
  157.5651  130.8272  149.8317 LP  0  0  0  0  0  0  0  0  0  0  0  0  # atno 17371 bound_to 10713
  140.2279  134.3945  155.7535 LP  0  0  0  0  0  0  0  0  0  0  0  0  # atno 17394 bound_to 11000
  141.2222  133.7199  156.8594 LP  0  0  0  0  0  0  0  0  0  0  0  0  # atno 17395 bound_to 11000

$$$$
