AV-unprocessed.smi:2876|AV-procd|sdf|11042|dock7
  -GOLD-   2272015513D 1   1.00000     0.00000
 Structure written by MMmdl.
 25 26  0  0  0  0  0  0  0  0  2 V2000
  152.2566  137.5980  154.3327 O   0  0  0  0  0  0  0  0  0  0  0  0
  152.4589  138.6876  154.9111 C   0  0  0  0  0  0  0  0  0  0  0  0
  153.3895  139.4472  154.5569 O   0  5  0  0  0  0  0  0  0  0  0  0
  151.5777  139.1185  156.0619 C   0  0  0  0  0  0  0  0  0  0  0  0
  151.8884  140.3080  156.6354 N   0  0  0  0  0  0  0  0  0  0  0  0
  151.1416  140.7331  157.6572 C   0  0  0  0  0  0  0  0  0  0  0  0
  151.4753  141.9453  158.2315 N   0  0  0  0  0  0  0  0  0  0  0  0
  152.7258  141.9864  158.9783 C   0  0  0  0  0  0  0  0  0  0  0  0
  152.8157  143.2854  159.7980 C   0  0  0  0  0  0  0  0  0  0  0  0
  152.6667  144.4082  158.9343 O   0  0  0  0  0  0  0  0  0  0  0  0
  151.4087  144.4027  158.2663 C   0  0  0  0  0  0  0  0  0  0  0  0
  151.2848  143.1322  157.4075 C   0  0  0  0  0  0  0  0  0  0  0  0
  150.0968  140.1008  158.1900 N   0  0  0  0  0  0  0  0  0  0  0  0
  149.7646  138.9158  157.6385 C   0  0  0  0  0  0  0  0  0  0  0  0
  150.4753  138.3592  156.5554 C   0  0  0  0  0  0  0  0  0  0  0  0
  149.9574  136.8297  155.9301 Cl  0  0  0  0  0  0  0  0  0  0  0  0
  152.7899  141.1211  159.6392 H   0  0  0  0  0  0  0  0  0  0  0  0
  153.5642  141.9227  158.2831 H   0  0  0  0  0  0  0  0  0  0  0  0
  152.0511  143.3077  160.5762 H   0  0  0  0  0  0  0  0  0  0  0  0
  153.7820  143.3484  160.2985 H   0  0  0  0  0  0  0  0  0  0  0  0
  150.5980  144.4604  158.9946 H   0  0  0  0  0  0  0  0  0  0  0  0
  151.3363  145.2904  157.6378 H   0  0  0  0  0  0  0  0  0  0  0  0
  152.0300  143.1435  156.6110 H   0  0  0  0  0  0  0  0  0  0  0  0
  150.3046  143.0965  156.9304 H   0  0  0  0  0  0  0  0  0  0  0  0
  148.9173  138.4031  158.0695 H   0  0  0  0  0  0  0  0  0  0  0  0
  1  2  2  0  0  0  0
  2  3  1  0  0  0  0
  2  4  1  0  0  0  0
  4 15  1  0  0  0  0
  4  5  2  0  0  0  0
  5  6  1  0  0  0  0
  6  7  1  0  0  0  0
  6 13  2  0  0  0  0
  7 12  1  0  0  0  0
  7  8  1  0  0  0  0
  8  9  1  0  0  0  0
  8 17  1  0  0  0  0
  8 18  1  0  0  0  0
  9 10  1  0  0  0  0
  9 19  1  0  0  0  0
  9 20  1  0  0  0  0
 10 11  1  0  0  0  0
 11 12  1  0  0  0  0
 11 21  1  0  0  0  0
 11 22  1  0  0  0  0
 12 23  1  0  0  0  0
 12 24  1  0  0  0  0
 13 14  1  0  0  0  0
 14 15  2  0  0  0  0
 14 25  1  0  0  0  0
 15 16  1  0  0  0  0
M  CHG  1   3  -1
M  END
> <s_m_source_file>
AV-unprocessed.smi

> <i_m_source_file_index>
2876

> <i_lp_mmshare_version>
43012

> <i_f3d_flags>
0

> <s_epik_input>
Tz1DKFtPSF0pYzFuYyhuW2NIXWMxQ2wpTjJbQ0gyXVtDSDJdT1tDSDJdW0NIMl0y

> <s_epik_cmdline>
J2VwaWtfcHl0aG9uJywgJy1waCcsICc3LjAnLCAnLXRuJywgJzgnLCAnLW1hJywgJzIwMCcsICctbWV0YWxfYmluZGluZycsICctaW1hZScsICc8aW5maWxlLm1hZT4nLCAnLW9tYWUnLCAnPG91dGZpbGUubWFlPic=

> <r_lp_tautomer_probability>
1

> <r_epik_Ionization_Penalty>
2.42258e-06

> <r_epik_Ionization_Penalty_Charging>
2.2596e-06

> <r_epik_Ionization_Penalty_Neutral>
1.62982e-07

> <r_epik_State_Penalty>
-0

> <r_epik_Charging_Adjusted_Penalty>
2.2596e-06

> <i_epik_Tot_Q>
-1

> <i_epik_Tot_abs_Q>
1

> <r_epik_Metal_State_Penalty>
-0

> <b_epik_Metal_Only>
0

> <s_lp_Force_Field>
OPLS_2005

> <r_lp_Energy>
19.4651

> <b_lp_Chiralities_Consistent>
1

> <s_lp_Variant>
AV-unprocessed.smi:2876-1

> <Gold.Version>
5.8.1

> <Gold.Id.Protein>
6NUR|6NUR_protein|mol2

> <Gold.PLP.Fitness>
38.0656

> <Gold.PLP.PLP>
-27.5569

> <Gold.PLP.part.hbond>
-3.0000

> <Gold.PLP.part.metal>
0.0000

> <Gold.PLP.part.buried>
-5.9655

> <Gold.PLP.part.nonpolar>
-20.1237

> <Gold.PLP.part.repulsive>
0.1710

> <Gold.PLP.ligand.clash>
0.0000

> <Gold.PLP.ligand.torsion>
0.1291

> <Gold.PLP.Chemscore.Hbond>
3.5040

> <Gold.PLP.Chemscore.CHOScore>
0.0000

> <Gold.PLP.Chemscore.Metal>
0.0000

> <Gold.Chemscore.Hbonds>
donor molecule, donor type, donor heavy atom, donor atom, acceptor molecule, acceptor atom, score
      P1  H  7997  8010       L1     3  2.00
      P1  H 10752 10764       L1     1  1.47

> <Gold.PLP.Chemscore.Internal.Correction>
0.2548

> <Gold.Rescore>
     Score         DG    S(hbond)    S(metal)    S(lipo)     H(rot)  DE(clash)    DE(int)     intcor
     14.57     -15.96       1.86        0.00      58.27       1.00       0.01       1.39       ----

> <Gold.Chemscore.Fitness>
14.5672

> <Gold.Chemscore.DG>
-15.9632

> <Gold.Chemscore.ZeroCoef>
-5.4800

> <Gold.Chemscore.Hbond>
1.8639

> <Gold.Chemscore.Metal>
0.0000

> <Gold.Chemscore.Lipo>
58.2731

> <Gold.Chemscore.Internal_Hbond>
0.0000

> <Gold.Chemscore.DEClash>
0.0073

> <Gold.Chemscore.DEInternal>
1.3887

> <Gold.Chemscore.Rot>
1.0000

> <Gold.Chemscore.Internal.Correction>
   9.000000E+99

> <Gold.Chemscore.Hbonds>
donor molecule, donor type, donor heavy atom, donor atom, acceptor molecule, acceptor atom, score
      P1  H  7997  8010       L1     3  0.99
      P1  H 10752 10764       L1     1  0.68

> <Gold.Chemscore.Hbond.Weighted>
-6.2253

> <Gold.Chemscore.Metal.Weighted>
-0.0000

> <Gold.Chemscore.Lipo.Weighted>
-6.8180

> <Gold.Chemscore.Internal_Hbond.Weighted>
0.0000

> <Gold.Chemscore.DEClash.Weighted>
0.0073

> <Gold.Chemscore.DEInternal.Weighted>
1.3887

> <Gold.Chemscore.Rot.Weighted>
2.5600

> <Gold.Chemscore.Internal.Correction.Weighted>
   9.000000E+99

> <Gold.Protein.RotatedTorsions>
[ 6907 6896 6895 6894 ] final -129.89 input  -60.11 | X-H torsion
[ 7974 7965 7964 7962 ] final   97.67 input  175.53 | X-H torsion
[ 8008 7997 7996 7995 ] final  113.90 input   59.86 | X-H torsion
[ 10167 10162 10161 10158 ] final  112.85 input  -65.29 | X-H torsion
[ 10718 10713 10712 10709 ] final  -33.09 input   66.30 | X-H torsion
[ 10763 10752 10751 10750 ] final  -83.06 input  -60.55 | X-H torsion
[ 11005 11000 10999 10996 ] final  157.48 input  -57.11 | X-H torsion

> <Gold.Protein.ActiveResidues>
 VAL166  LYS551  ARG553  GLY616  TRP617  ASP618  TYR619  PRO620  LYS621  CYS622 
 ASP623  PHE694  ASN695  SER759  ASP760  ASP761  ALA762  ILE779  LEU786  VAL792 
 PHE793  MET794  SER795  GLU796  ALA797  LYS798  CYS799  TRP800  GLU811  SER814 

> <Gold.Protein.RotatedAtoms>
  150.9336  133.6737  159.2805 H   0  0  0  0  0  0  0  0  0  0  0  0  # atno 6907 bound_to 6896
  151.4151  135.0989  159.9606 H   0  0  0  0  0  0  0  0  0  0  0  0  # atno 6908 bound_to 6896
  152.5037  133.8801  159.7397 H   0  0  0  0  0  0  0  0  0  0  0  0  # atno 6909 bound_to 6896
  145.4224  139.2320  143.3189 H   0  0  0  0  0  0  0  0  0  0  0  0  # atno 7974 bound_to 7965
  156.2287  140.2970  156.0133 H   0  0  0  0  0  0  0  0  0  0  0  0  # atno 8008 bound_to 7997
  155.2285  140.0418  157.2976 H   0  0  0  0  0  0  0  0  0  0  0  0  # atno 8009 bound_to 7997
  154.5959  140.2414  155.7865 H   0  0  0  0  0  0  0  0  0  0  0  0  # atno 8010 bound_to 7997
  139.6505  144.7128  151.2057 H   0  0  0  0  0  0  0  0  0  0  0  0  # atno 10167 bound_to 10162
  156.3669  130.4333  149.7577 H   0  0  0  0  0  0  0  0  0  0  0  0  # atno 10718 bound_to 10713
  154.5832  135.5569  153.7206 H   0  0  0  0  0  0  0  0  0  0  0  0  # atno 10763 bound_to 10752
  153.0089  135.6325  154.1953 H   0  0  0  0  0  0  0  0  0  0  0  0  # atno 10764 bound_to 10752
  154.1894  135.2883  155.3007 H   0  0  0  0  0  0  0  0  0  0  0  0  # atno 10765 bound_to 10752
  140.1773  134.8501  157.2761 H   0  0  0  0  0  0  0  0  0  0  0  0  # atno 11005 bound_to 11000
  146.2649  140.4950  142.8838 LP  0  0  0  0  0  0  0  0  0  0  0  0  # atno 17320 bound_to 7965
  144.8236  140.6592  143.6336 LP  0  0  0  0  0  0  0  0  0  0  0  0  # atno 17321 bound_to 7965
  140.7535  143.6158  150.8561 LP  0  0  0  0  0  0  0  0  0  0  0  0  # atno 17342 bound_to 10162
  139.9805  143.5956  152.2944 LP  0  0  0  0  0  0  0  0  0  0  0  0  # atno 17343 bound_to 10162
  156.4719  130.8000  151.3018 LP  0  0  0  0  0  0  0  0  0  0  0  0  # atno 17370 bound_to 10713
  157.7480  131.0033  150.3033 LP  0  0  0  0  0  0  0  0  0  0  0  0  # atno 17371 bound_to 10713
  140.2308  134.3912  155.7523 LP  0  0  0  0  0  0  0  0  0  0  0  0  # atno 17394 bound_to 11000
  141.2221  133.7214  156.8637 LP  0  0  0  0  0  0  0  0  0  0  0  0  # atno 17395 bound_to 11000

$$$$
