AV-unprocessed.smi:1048|AV-procd|sdf|4607|dock6
  -GOLD-   22720 3103D 1   1.00000     0.00000
 Structure written by MMmdl.
 46 47  0  0  0  0  0  0  0  0  2 V2000
  142.4262  142.9046  158.4767 C   0  0  0  0  0  0  0  0  0  0  0  0
  142.0920  142.4574  157.0429 C   0  0  2  0  0  0  0  0  0  0  0  0
  142.7379  141.1094  156.6722 C   0  0  0  0  0  0  0  0  0  0  0  0
  144.2511  141.2366  156.4208 C   0  0  0  0  0  0  0  0  0  0  0  0
  144.5374  142.2591  155.3804 N   0  3  2  0  0  0  0  0  0  0  0  0
  145.9722  142.3242  155.0010 C   0  0  0  0  0  0  0  0  0  0  0  0
  146.5955  140.9253  154.8164 C   0  0  1  0  0  0  0  0  0  0  0  0
  145.9104  140.3094  153.7432 O   0  0  0  0  0  0  0  0  0  0  0  0
  148.0917  141.0182  154.4530 C   0  0  0  0  0  0  0  0  0  0  0  0
  148.8121  141.9458  155.3201 N   0  0  0  0  0  0  0  0  0  0  0  0
  149.7195  141.5901  156.2408 C   0  0  0  0  0  0  0  0  0  0  0  0
  150.0194  140.4206  156.4772 O   0  0  0  0  0  0  0  0  0  0  0  0
  150.2257  142.6651  156.8689 N   0  0  0  0  0  0  0  0  0  0  0  0
  151.2301  142.7102  157.8738 C   0  0  0  0  0  0  0  0  0  0  0  0
  151.8959  143.9345  158.0889 C   0  0  0  0  0  0  0  0  0  0  0  0
  152.9084  144.0039  159.0646 C   0  0  0  0  0  0  0  0  0  0  0  0
  153.2242  142.8363  159.7857 C   0  0  0  0  0  0  0  0  0  0  0  0
  152.6090  141.6525  159.5823 N   0  0  0  0  0  0  0  0  0  0  0  0
  151.6375  141.5934  158.6460 C   0  0  0  0  0  0  0  0  0  0  0  0
  143.9869  143.5876  155.7511 C   0  0  0  0  0  0  0  0  0  0  0  0
  142.4677  143.5136  155.9877 C   0  0  0  0  0  0  0  0  0  0  0  0
  143.4939  143.0684  158.6201 H   0  0  0  0  0  0  0  0  0  0  0  0
  142.1073  142.1560  159.2023 H   0  0  0  0  0  0  0  0  0  0  0  0
  141.9149  143.8354  158.7235 H   0  0  0  0  0  0  0  0  0  0  0  0
  141.0098  142.3252  157.0059 H   0  0  0  0  0  0  0  0  0  0  0  0
  142.5481  140.3721  157.4531 H   0  0  0  0  0  0  0  0  0  0  0  0
  142.2622  140.7220  155.7702 H   0  0  0  0  0  0  0  0  0  0  0  0
  144.7695  141.4979  157.3443 H   0  0  0  0  0  0  0  0  0  0  0  0
  144.6394  140.2669  156.1113 H   0  0  0  0  0  0  0  0  0  0  0  0
  146.0858  142.8769  154.0668 H   0  0  0  0  0  0  0  0  0  0  0  0
  146.5172  142.8944  155.7549 H   0  0  0  0  0  0  0  0  0  0  0  0
  146.4718  140.3276  155.7198 H   0  0  0  0  0  0  0  0  0  0  0  0
  144.9996  140.5630  153.7823 H   0  0  0  0  0  0  0  0  0  0  0  0
  148.5644  140.0341  154.4383 H   0  0  0  0  0  0  0  0  0  0  0  0
  148.1943  141.4145  153.4423 H   0  0  0  0  0  0  0  0  0  0  0  0
  148.6208  142.9293  155.1954 H   0  0  0  0  0  0  0  0  0  0  0  0
  149.8174  143.5559  156.6268 H   0  0  0  0  0  0  0  0  0  0  0  0
  151.6334  144.8131  157.5176 H   0  0  0  0  0  0  0  0  0  0  0  0
  153.4313  144.9294  159.2555 H   0  0  0  0  0  0  0  0  0  0  0  0
  153.9954  142.8522  160.5416 H   0  0  0  0  0  0  0  0  0  0  0  0
  151.2033  140.6153  158.5119 H   0  0  0  0  0  0  0  0  0  0  0  0
  144.4985  143.9639  156.6381 H   0  0  0  0  0  0  0  0  0  0  0  0
  144.1829  144.3010  154.9495 H   0  0  0  0  0  0  0  0  0  0  0  0
  141.9763  143.2667  155.0456 H   0  0  0  0  0  0  0  0  0  0  0  0
  142.0855  144.4926  156.2787 H   0  0  0  0  0  0  0  0  0  0  0  0
  144.0431  141.9783  154.5451 H   0  0  0  0  0  0  0  0  0  0  0  0
  1  2  1  0  0  0  0
  1 22  1  0  0  0  0
  1 23  1  0  0  0  0
  1 24  1  0  0  0  0
  2 21  1  0  0  0  0
  2  3  1  0  0  0  0
  2 25  1  0  0  0  0
  3  4  1  0  0  0  0
  3 26  1  0  0  0  0
  3 27  1  0  0  0  0
  4  5  1  0  0  0  0
  4 28  1  0  0  0  0
  4 29  1  0  0  0  0
  5  6  1  0  0  0  0
  5 20  1  0  0  0  0
  5 46  1  0  0  0  0
  6  7  1  0  0  0  0
  6 30  1  0  0  0  0
  6 31  1  0  0  0  0
  7  8  1  0  0  0  0
  7  9  1  0  0  0  0
  7 32  1  0  0  0  0
  8 33  1  0  0  0  0
  9 10  1  0  0  0  0
  9 34  1  0  0  0  0
  9 35  1  0  0  0  0
 10 11  1  0  0  0  0
 10 36  1  0  0  0  0
 11 12  2  0  0  0  0
 11 13  1  0  0  0  0
 13 14  1  0  0  0  0
 13 37  1  0  0  0  0
 14 19  1  0  0  0  0
 14 15  2  0  0  0  0
 15 16  1  0  0  0  0
 15 38  1  0  0  0  0
 16 17  2  0  0  0  0
 16 39  1  0  0  0  0
 17 18  1  0  0  0  0
 17 40  1  0  0  0  0
 18 19  2  0  0  0  0
 19 41  1  0  0  0  0
 20 21  1  0  0  0  0
 20 42  1  0  0  0  0
 20 43  1  0  0  0  0
 21 44  1  0  0  0  0
 21 45  1  0  0  0  0
M  CHG  1   5   1
M  END
> <s_m_source_file>
AV-unprocessed.smi

> <i_m_source_file_index>
1048

> <i_lp_mmshare_version>
43012

> <i_f3d_flags>
0

> <s_epik_input>
W0NIM11bQ0hdMVtDSDJdW0NIMl1OKFtDSDJdW0NIMl0xKVtDSDJdW0NASF0oW09IXSlbQ0gyXVtOSF1DKD1PKVtOSF1jMltjSF1bY0hdW2NIXW5bY0hdMg==

> <s_epik_cmdline>
J2VwaWtfcHl0aG9uJywgJy1waCcsICc3LjAnLCAnLXRuJywgJzgnLCAnLW1hJywgJzIwMCcsICctbWV0YWxfYmluZGluZycsICctaW1hZScsICc8aW5maWxlLm1hZT4nLCAnLW9tYWUnLCAnPG91dGZpbGUubWFlPic=

> <r_lp_tautomer_probability>
1

> <r_epik_Ionization_Penalty>
0.00581049

> <r_epik_Ionization_Penalty_Charging>
0.00147689

> <r_epik_Ionization_Penalty_Neutral>
0.0043336

> <r_epik_State_Penalty>
-0

> <r_epik_Charging_Adjusted_Penalty>
0.00147689

> <i_epik_Tot_Q>
1

> <i_epik_Tot_abs_Q>
1

> <r_epik_Metal_State_Penalty>
-0

> <b_epik_Metal_Only>
0

> <s_lp_Force_Field>
OPLS_2005

> <r_lp_Energy>
24.6749

> <b_lp_Chiralities_Consistent>
1

> <s_lp_Variant>
AV-unprocessed.smi:1048-4

> <Gold.Version>
5.8.1

> <Gold.Id.Protein>
6NUR|6NUR_protein|mol2

> <Gold.PLP.Fitness>
50.6967

> <Gold.PLP.PLP>
-36.1555

> <Gold.PLP.part.hbond>
-4.0000

> <Gold.PLP.part.metal>
0.0000

> <Gold.PLP.part.buried>
-6.5708

> <Gold.PLP.part.nonpolar>
-26.9215

> <Gold.PLP.part.repulsive>
0.2823

> <Gold.PLP.ligand.clash>
0.0000

> <Gold.PLP.ligand.torsion>
0.3027

> <Gold.PLP.Chemscore.Hbond>
5.0000

> <Gold.PLP.Chemscore.CHOScore>
0.0000

> <Gold.PLP.Chemscore.Metal>
0.0000

> <Gold.Chemscore.Hbonds>
donor molecule, donor type, donor heavy atom, donor atom, acceptor molecule, acceptor atom, score
      L1  H     8    33       P1 10175  0.61
      L1  H    10    36       P1  8028  1.00
      L1  H    13    37       P1  8028  1.00

> <Gold.PLP.Chemscore.Internal.Correction>
0.1467

> <Gold.Rescore>
     Score         DG    S(hbond)    S(metal)    S(lipo)     H(rot)  DE(clash)    DE(int)     intcor
     20.61     -21.87       3.76        0.00      82.81       2.29       0.01       1.25       ----

> <Gold.Chemscore.Fitness>
20.6058

> <Gold.Chemscore.DG>
-21.8692

> <Gold.Chemscore.ZeroCoef>
-5.4800

> <Gold.Chemscore.Hbond>
3.7586

> <Gold.Chemscore.Metal>
0.0000

> <Gold.Chemscore.Lipo>
82.8139

> <Gold.Chemscore.Internal_Hbond>
0.0000

> <Gold.Chemscore.DEClash>
0.0093

> <Gold.Chemscore.DEInternal>
1.2542

> <Gold.Chemscore.Rot>
2.2865

> <Gold.Chemscore.Internal.Correction>
   9.000000E+99

> <Gold.Chemscore.Hbonds>
donor molecule, donor type, donor heavy atom, donor atom, acceptor molecule, acceptor atom, score
      L1  H     8    33       P1 10175  0.62
      L1  H    10    36       P1  8028  0.96
      L1  H    13    37       P1  8028  0.99

> <Gold.Chemscore.Hbond.Weighted>
-12.5536

> <Gold.Chemscore.Metal.Weighted>
-0.0000

> <Gold.Chemscore.Lipo.Weighted>
-9.6892

> <Gold.Chemscore.Internal_Hbond.Weighted>
0.0000

> <Gold.Chemscore.DEClash.Weighted>
0.0093

> <Gold.Chemscore.DEInternal.Weighted>
1.2542

> <Gold.Chemscore.Rot.Weighted>
5.8536

> <Gold.Chemscore.Internal.Correction.Weighted>
   9.000000E+99

> <Gold.Protein.RotatedTorsions>
[ 6907 6896 6895 6894 ] final -112.78 input  -60.11 | X-H torsion
[ 7974 7965 7964 7962 ] final   94.48 input  175.53 | X-H torsion
[ 8008 7997 7996 7995 ] final -122.86 input   59.86 | X-H torsion
[ 10167 10162 10161 10158 ] final   83.73 input  -65.29 | X-H torsion
[ 10718 10713 10712 10709 ] final  -27.08 input   66.30 | X-H torsion
[ 10763 10752 10751 10750 ] final   59.80 input  -60.55 | X-H torsion
[ 11005 11000 10999 10996 ] final   12.26 input  -57.11 | X-H torsion

> <Gold.Protein.ActiveResidues>
 VAL166  LYS551  ARG553  GLY616  TRP617  ASP618  TYR619  PRO620  LYS621  CYS622 
 ASP623  PHE694  ASN695  SER759  ASP760  ASP761  ALA762  ILE779  LEU786  VAL792 
 PHE793  MET794  SER795  GLU796  ALA797  LYS798  CYS799  TRP800  GLU811  SER814 

> <Gold.Protein.RotatedAtoms>
  150.7782  133.9040  159.3349 H   0  0  0  0  0  0  0  0  0  0  0  0  # atno 6907 bound_to 6896
  151.6909  135.0944  160.0243 H   0  0  0  0  0  0  0  0  0  0  0  0  # atno 6908 bound_to 6896
  152.3825  133.6528  159.6208 H   0  0  0  0  0  0  0  0  0  0  0  0  # atno 6909 bound_to 6896
  145.4650  139.2285  143.2966 H   0  0  0  0  0  0  0  0  0  0  0  0  # atno 7974 bound_to 7965
  155.1711  140.0408  157.2863 H   0  0  0  0  0  0  0  0  0  0  0  0  # atno 8008 bound_to 7997
  154.6268  140.2514  155.7454 H   0  0  0  0  0  0  0  0  0  0  0  0  # atno 8009 bound_to 7997
  156.2464  140.2883  156.0602 H   0  0  0  0  0  0  0  0  0  0  0  0  # atno 8010 bound_to 7997
  139.9154  144.6246  150.8494 H   0  0  0  0  0  0  0  0  0  0  0  0  # atno 10167 bound_to 10162
  156.4429  130.4468  149.7041 H   0  0  0  0  0  0  0  0  0  0  0  0  # atno 10718 bound_to 10713
  152.9904  135.5559  154.5772 H   0  0  0  0  0  0  0  0  0  0  0  0  # atno 10763 bound_to 10752
  154.5160  135.2805  155.1304 H   0  0  0  0  0  0  0  0  0  0  0  0  # atno 10764 bound_to 10752
  154.2677  135.6369  153.5351 H   0  0  0  0  0  0  0  0  0  0  0  0  # atno 10765 bound_to 10752
  140.4939  134.0812  155.7778 H   0  0  0  0  0  0  0  0  0  0  0  0  # atno 11005 bound_to 11000
  146.2429  140.5423  142.8926 LP  0  0  0  0  0  0  0  0  0  0  0  0  # atno 17320 bound_to 7965
  144.7979  140.6159  143.6497 LP  0  0  0  0  0  0  0  0  0  0  0  0  # atno 17321 bound_to 7965
  140.7675  143.3335  151.2359 LP  0  0  0  0  0  0  0  0  0  0  0  0  # atno 17342 bound_to 10162
  139.6907  143.9697  152.2857 LP  0  0  0  0  0  0  0  0  0  0  0  0  # atno 17343 bound_to 10162
  156.3898  130.7621  151.2621 LP  0  0  0  0  0  0  0  0  0  0  0  0  # atno 17370 bound_to 10713
  157.7506  131.0271  150.3991 LP  0  0  0  0  0  0  0  0  0  0  0  0  # atno 17371 bound_to 10713
  141.1470  133.9038  157.2192 LP  0  0  0  0  0  0  0  0  0  0  0  0  # atno 17394 bound_to 11000
  139.9753  135.0116  156.9614 LP  0  0  0  0  0  0  0  0  0  0  0  0  # atno 17395 bound_to 11000

$$$$
