AV-unprocessed.smi:2527|AV-procd|sdf|9947|dock9
  -GOLD-   2272013593D 1   1.00000     0.00000
 Structure written by MMmdl.
 36 38  0  0  0  0  0  0  0  0  3 V2000
  151.6265  137.7864  154.1716 C   0  0  0  0  0  0  0  0  0  0  0  0
  151.4358  137.3998  155.5211 O   0  0  0  0  0  0  0  0  0  0  0  0
  150.9639  138.4650  156.3305 C   0  0  0  0  0  0  0  0  0  0  0  0
  151.9276  139.6568  156.2416 C   0  0  0  0  0  0  0  0  0  0  0  0
  151.3215  140.9002  156.7398 N   0  0  0  0  0  0  0  0  0  0  0  0
  150.3236  141.6629  156.2121 C   0  0  0  0  0  0  0  0  0  0  0  0
  149.4530  141.3456  154.7116 S   0  0  0  0  0  0  0  0  0  0  0  0
  147.7722  140.8824  155.2104 C   0  0  0  0  0  0  0  0  0  0  0  0
  146.7660  141.9849  155.0527 C   0  0  0  0  0  0  0  0  0  0  0  0
  146.5684  142.5289  153.8227 N   0  5  0  0  0  0  0  0  0  0  0  0
  145.6213  143.4603  154.0343 C   0  0  0  0  0  0  0  0  0  0  0  0
  145.0894  144.2326  153.2398 O   0  0  0  0  0  0  0  0  0  0  0  0
  145.3231  143.4180  155.3349 N   0  0  0  0  0  0  0  0  0  0  0  0
  146.0434  142.4873  155.9828 N   0  0  0  0  0  0  0  0  0  0  0  0
  150.1169  142.7128  157.0543 N   0  3  0  0  0  0  0  0  0  0  0  0
  150.9907  142.6193  158.1391 C   0  0  0  0  0  0  0  0  0  0  0  0
  151.1550  143.4419  159.2493 C   0  0  0  0  0  0  0  0  0  0  0  0
  152.1398  143.0586  160.1837 C   0  0  0  0  0  0  0  0  0  0  0  0
  152.3976  144.0293  161.5863 Cl  0  0  0  0  0  0  0  0  0  0  0  0
  152.9157  141.8963  159.9936 C   0  0  0  0  0  0  0  0  0  0  0  0
  152.7417  141.0700  158.8641 C   0  0  0  0  0  0  0  0  0  0  0  0
  151.7667  141.4570  157.9448 C   0  0  0  0  0  0  0  0  0  0  0  0
  144.6510  143.9807  155.8354 H   0  0  0  0  0  0  0  0  0  0  0  0
  151.9899  136.9360  153.5948 H   0  0  0  0  0  0  0  0  0  0  0  0
  152.3621  138.5877  154.0908 H   0  0  0  0  0  0  0  0  0  0  0  0
  150.6911  138.1230  153.7226 H   0  0  0  0  0  0  0  0  0  0  0  0
  149.9693  138.7699  156.0023 H   0  0  0  0  0  0  0  0  0  0  0  0
  150.8778  138.1357  157.3675 H   0  0  0  0  0  0  0  0  0  0  0  0
  152.8488  139.4597  156.7896 H   0  0  0  0  0  0  0  0  0  0  0  0
  152.2197  139.8233  155.2044 H   0  0  0  0  0  0  0  0  0  0  0  0
  147.4649  140.0198  154.6184 H   0  0  0  0  0  0  0  0  0  0  0  0
  147.7998  140.5484  156.2485 H   0  0  0  0  0  0  0  0  0  0  0  0
  150.5598  144.3312  159.3963 H   0  0  0  0  0  0  0  0  0  0  0  0
  153.6603  141.6307  160.7300 H   0  0  0  0  0  0  0  0  0  0  0  0
  153.3383  140.1793  158.7339 H   0  0  0  0  0  0  0  0  0  0  0  0
  149.4285  143.4369  156.8941 H   0  0  0  0  0  0  0  0  0  0  0  0
  1  2  1  0  0  0  0
  1 24  1  0  0  0  0
  1 25  1  0  0  0  0
  1 26  1  0  0  0  0
  2  3  1  0  0  0  0
  3  4  1  0  0  0  0
  3 27  1  0  0  0  0
  3 28  1  0  0  0  0
  4  5  1  0  0  0  0
  4 29  1  0  0  0  0
  4 30  1  0  0  0  0
  5 22  1  0  0  0  0
  5  6  1  0  0  0  0
  6  7  1  0  0  0  0
  6 15  2  0  0  0  0
  7  8  1  0  0  0  0
  8 31  1  0  0  0  0
  8 32  1  0  0  0  0
  8  9  1  0  0  0  0
  9 14  2  0  0  0  0
  9 10  1  0  0  0  0
 10 11  1  0  0  0  0
 11 13  1  0  0  0  0
 11 12  2  0  0  0  0
 13 14  1  0  0  0  0
 13 23  1  0  0  0  0
 15 16  1  0  0  0  0
 15 36  1  0  0  0  0
 16 22  2  0  0  0  0
 16 17  1  0  0  0  0
 17 18  2  0  0  0  0
 17 33  1  0  0  0  0
 18 19  1  0  0  0  0
 18 20  1  0  0  0  0
 20 21  2  0  0  0  0
 20 34  1  0  0  0  0
 21 22  1  0  0  0  0
 21 35  1  0  0  0  0
M  CHG  1  10  -1
M  CHG  1  15   1
M  END
> <s_m_source_file>
AV-unprocessed.smi

> <i_m_source_file_index>
2527

> <i_lp_mmshare_version>
43012

> <i_f3d_flags>
0

> <s_epik_input>
W2NIXTFjKENsKVtjSF1bY0hdYyhjMTIpbihbQ0gyXVtDSDJdT1tDSDNdKWMobjIpU1tDSDJdYzNuYyg9TylbbkhdW25IXTM=

> <s_epik_cmdline>
J2VwaWtfcHl0aG9uJywgJy1waCcsICc3LjAnLCAnLXRuJywgJzgnLCAnLW1hJywgJzIwMCcsICctbWV0YWxfYmluZGluZycsICctaW1hZScsICc8aW5maWxlLm1hZT4nLCAnLW9tYWUnLCAnPG91dGZpbGUubWFlPic=

> <r_lp_tautomer_probability>
0.999897

> <r_epik_Ionization_Penalty>
3.64286

> <r_epik_Ionization_Penalty_Charging>
2.48685

> <r_epik_Ionization_Penalty_Neutral>
1.15601

> <r_epik_State_Penalty>
3.71863

> <r_epik_Charging_Adjusted_Penalty>
6.20549

> <i_epik_Tot_Q>
0

> <i_epik_Tot_abs_Q>
2

> <r_epik_Metal_State_Penalty>
2.92967

> <b_epik_Metal_Only>
1

> <s_lp_Force_Field>
OPLS_2005

> <r_lp_Energy>
23.3692

> <b_lp_Chiralities_Consistent>
1

> <s_lp_Variant>
AV-unprocessed.smi:2527-6

> <Gold.Version>
5.8.1

> <Gold.Id.Protein>
6NUR|6NUR_protein|mol2

> <Gold.PLP.Fitness>
46.4276

> <Gold.PLP.PLP>
-42.1840

> <Gold.PLP.part.hbond>
-1.0000

> <Gold.PLP.part.metal>
0.0000

> <Gold.PLP.part.buried>
-6.3375

> <Gold.PLP.part.nonpolar>
-35.0752

> <Gold.PLP.part.repulsive>
0.6286

> <Gold.PLP.ligand.clash>
0.0000

> <Gold.PLP.ligand.torsion>
0.5424

> <Gold.PLP.Chemscore.Hbond>
1.7600

> <Gold.PLP.Chemscore.CHOScore>
0.0000

> <Gold.PLP.Chemscore.Metal>
0.0000

> <Gold.Chemscore.Hbonds>
donor molecule, donor type, donor heavy atom, donor atom, acceptor molecule, acceptor atom, score
      L1  H    15    36       P1  8028  1.73

> <Gold.PLP.Chemscore.Internal.Correction>
0.0485

> <Gold.Rescore>
     Score         DG    S(hbond)    S(metal)    S(lipo)     H(rot)  DE(clash)    DE(int)     intcor
     12.47     -13.01       0.91        0.00     101.39       2.88       0.08       0.45       ----

> <Gold.Chemscore.Fitness>
12.4731

> <Gold.Chemscore.DG>
-13.0087

> <Gold.Chemscore.ZeroCoef>
-5.4800

> <Gold.Chemscore.Hbond>
0.9074

> <Gold.Chemscore.Metal>
0.0000

> <Gold.Chemscore.Lipo>
101.3931

> <Gold.Chemscore.Internal_Hbond>
0.0000

> <Gold.Chemscore.DEClash>
0.0821

> <Gold.Chemscore.DEInternal>
0.4535

> <Gold.Chemscore.Rot>
2.8770

> <Gold.Chemscore.Internal.Correction>
   9.000000E+99

> <Gold.Chemscore.Hbonds>
donor molecule, donor type, donor heavy atom, donor atom, acceptor molecule, acceptor atom, score
      L1  H    15    36       P1  8028  0.84

> <Gold.Chemscore.Hbond.Weighted>
-3.0307

> <Gold.Chemscore.Metal.Weighted>
-0.0000

> <Gold.Chemscore.Lipo.Weighted>
-11.8630

> <Gold.Chemscore.Internal_Hbond.Weighted>
0.0000

> <Gold.Chemscore.DEClash.Weighted>
0.0821

> <Gold.Chemscore.DEInternal.Weighted>
0.4535

> <Gold.Chemscore.Rot.Weighted>
7.3650

> <Gold.Chemscore.Internal.Correction.Weighted>
   9.000000E+99

> <Gold.Protein.RotatedTorsions>
[ 6907 6896 6895 6894 ] final   16.75 input  -60.11 | X-H torsion
[ 7974 7965 7964 7962 ] final -149.56 input  175.53 | X-H torsion
[ 8008 7997 7996 7995 ] final -122.04 input   59.86 | X-H torsion
[ 10167 10162 10161 10158 ] final    4.81 input  -65.29 | X-H torsion
[ 10718 10713 10712 10709 ] final -111.77 input   66.30 | X-H torsion
[ 10763 10752 10751 10750 ] final   51.29 input  -60.55 | X-H torsion
[ 11005 11000 10999 10996 ] final  -69.50 input  -57.11 | X-H torsion

> <Gold.Protein.ActiveResidues>
 VAL166  LYS551  ARG553  GLY616  TRP617  ASP618  TYR619  PRO620  LYS621  CYS622 
 ASP623  PHE694  ASN695  SER759  ASP760  ASP761  ALA762  ILE779  LEU786  VAL792 
 PHE793  MET794  SER795  GLU796  ALA797  LYS798  CYS799  TRP800  GLU811  SER814 

> <Gold.Protein.RotatedAtoms>
  151.8387  135.0597  160.0445 H   0  0  0  0  0  0  0  0  0  0  0  0  # atno 6907 bound_to 6896
  152.2825  133.5479  159.5515 H   0  0  0  0  0  0  0  0  0  0  0  0  # atno 6908 bound_to 6896
  150.7195  134.0460  159.3824 H   0  0  0  0  0  0  0  0  0  0  0  0  # atno 6909 bound_to 6896
  144.7960  140.5048  143.5740 H   0  0  0  0  0  0  0  0  0  0  0  0  # atno 7974 bound_to 7965
  155.1577  140.0405  157.2835 H   0  0  0  0  0  0  0  0  0  0  0  0  # atno 8008 bound_to 7997
  154.6358  140.2535  155.7353 H   0  0  0  0  0  0  0  0  0  0  0  0  # atno 8009 bound_to 7997
  156.2508  140.2866  156.0730 H   0  0  0  0  0  0  0  0  0  0  0  0  # atno 8010 bound_to 7997
  140.6515  143.7533  150.7583 H   0  0  0  0  0  0  0  0  0  0  0  0  # atno 10167 bound_to 10162
  156.0666  130.5885  150.8418 H   0  0  0  0  0  0  0  0  0  0  0  0  # atno 10718 bound_to 10713
  152.9785  135.5850  154.4392 H   0  0  0  0  0  0  0  0  0  0  0  0  # atno 10763 bound_to 10752
  154.3995  135.2768  155.2107 H   0  0  0  0  0  0  0  0  0  0  0  0  # atno 10764 bound_to 10752
  154.3944  135.6118  153.5916 H   0  0  0  0  0  0  0  0  0  0  0  0  # atno 10765 bound_to 10752
  141.1555  133.6766  156.6608 H   0  0  0  0  0  0  0  0  0  0  0  0  # atno 11005 bound_to 11000
  145.5673  139.1482  143.3308 LP  0  0  0  0  0  0  0  0  0  0  0  0  # atno 17320 bound_to 7965
  146.2228  140.5807  142.9009 LP  0  0  0  0  0  0  0  0  0  0  0  0  # atno 17321 bound_to 7965
  140.1184  143.4634  152.2328 LP  0  0  0  0  0  0  0  0  0  0  0  0  # atno 17342 bound_to 10162
  139.5731  144.7473  151.3837 LP  0  0  0  0  0  0  0  0  0  0  0  0  # atno 17343 bound_to 10162
  157.5711  131.0946  150.9415 LP  0  0  0  0  0  0  0  0  0  0  0  0  # atno 17370 bound_to 10713
  156.9631  130.5463  149.5287 LP  0  0  0  0  0  0  0  0  0  0  0  0  # atno 17371 bound_to 10713
  140.3249  134.7977  157.4281 LP  0  0  0  0  0  0  0  0  0  0  0  0  # atno 17394 bound_to 11000
  140.1066  134.5401  155.8304 LP  0  0  0  0  0  0  0  0  0  0  0  0  # atno 17395 bound_to 11000

$$$$
