AV-unprocessed.smi:260|AV-procd|sdf|1979|dock6
  -GOLD-   2262021153D 1   1.00000     0.00000
 Structure written by MMmdl.
 53 56  0  0  0  0  0  0  0  0  1 V2000
  152.9477  131.0107  156.6665 C   0  0  0  0  0  0  0  0  0  0  0  0
  151.8808  131.7291  155.9870 N   0  0  0  0  0  0  0  0  0  0  0  0
  150.8629  132.3435  156.6108 C   0  0  0  0  0  0  0  0  0  0  0  0
  150.7573  132.3480  157.8383 O   0  0  0  0  0  0  0  0  0  0  0  0
  149.8169  133.0628  155.7177 C   0  0  1  0  0  0  0  0  0  0  0  0
  149.2011  132.0833  154.6940 C   0  0  0  0  0  0  0  0  0  0  0  0
  148.7179  133.7483  156.5611 C   0  0  0  0  0  0  0  0  0  0  0  0
  149.2927  135.1186  156.9463 C   0  0  0  0  0  0  0  0  0  0  0  0
  150.3661  135.3748  155.9977 N   0  0  0  0  0  0  0  0  0  0  0  0
  150.7441  136.6407  155.6812 C   0  0  0  0  0  0  0  0  0  0  0  0
  151.5089  136.8356  154.5737 N   0  0  0  0  0  0  0  0  0  0  0  0
  151.9000  138.0644  154.2249 C   0  0  0  0  0  0  0  0  0  0  0  0
  151.6478  139.2240  154.8335 N   0  0  0  0  0  0  0  0  0  0  0  0
  150.8921  139.0383  155.9527 C   0  0  0  0  0  0  0  0  0  0  0  0
  150.4033  137.7947  156.4478 C   0  0  0  0  0  0  0  0  0  0  0  0
  149.6828  138.0115  157.6183 N   0  0  0  0  0  0  0  0  0  0  0  0
  149.7342  139.3028  157.7970 C   0  0  0  0  0  0  0  0  0  0  0  0
  150.4400  139.9966  156.8418 N   0  0  0  0  0  0  0  0  0  0  0  0
  150.6570  141.4316  156.7885 C   0  0  0  0  0  0  0  0  0  0  0  0
  150.1893  142.1487  158.0702 C   0  0  2  0  0  0  0  0  0  0  0  0
  149.0790  142.9718  157.7655 O   0  0  0  0  0  0  0  0  0  0  0  0
  151.2996  143.0203  158.6856 C   0  0  1  0  0  0  0  0  0  0  0  0
  151.7410  144.1958  157.8154 C   0  0  0  0  0  0  0  0  0  0  0  0
  152.4057  145.1093  158.8251 C   0  0  0  0  0  0  0  0  0  0  0  0
  151.6580  144.8048  160.1259 C   0  0  0  0  0  0  0  0  0  0  0  0
  150.8307  143.6769  159.8551 O   0  0  0  0  0  0  0  0  0  0  0  0
  150.4547  134.2857  155.0336 C   0  0  0  0  0  0  0  0  0  0  0  0
  153.6395  130.5935  155.9348 H   0  0  0  0  0  0  0  0  0  0  0  0
  152.5456  130.1905  157.2624 H   0  0  0  0  0  0  0  0  0  0  0  0
  153.5071  131.6776  157.3237 H   0  0  0  0  0  0  0  0  0  0  0  0
  151.9154  131.7630  154.9786 H   0  0  0  0  0  0  0  0  0  0  0  0
  148.4088  132.5600  154.1158 H   0  0  0  0  0  0  0  0  0  0  0  0
  148.7641  131.2148  155.1887 H   0  0  0  0  0  0  0  0  0  0  0  0
  149.9406  131.7251  153.9768 H   0  0  0  0  0  0  0  0  0  0  0  0
  147.8248  133.9029  155.9541 H   0  0  0  0  0  0  0  0  0  0  0  0
  148.4048  133.1711  157.4322 H   0  0  0  0  0  0  0  0  0  0  0  0
  148.5207  135.8882  156.9114 H   0  0  0  0  0  0  0  0  0  0  0  0
  149.7087  135.0942  157.9541 H   0  0  0  0  0  0  0  0  0  0  0  0
  152.5002  138.1271  153.3294 H   0  0  0  0  0  0  0  0  0  0  0  0
  149.2587  139.7867  158.6375 H   0  0  0  0  0  0  0  0  0  0  0  0
  151.7210  141.6056  156.6242 H   0  0  0  0  0  0  0  0  0  0  0  0
  150.1389  141.8308  155.9157 H   0  0  0  0  0  0  0  0  0  0  0  0
  149.8662  141.4062  158.8013 H   0  0  0  0  0  0  0  0  0  0  0  0
  149.3494  143.6175  157.1309 H   0  0  0  0  0  0  0  0  0  0  0  0
  152.1652  142.4097  158.9510 H   0  0  0  0  0  0  0  0  0  0  0  0
  152.4095  143.9009  157.0059 H   0  0  0  0  0  0  0  0  0  0  0  0
  150.8734  144.6923  157.3782 H   0  0  0  0  0  0  0  0  0  0  0  0
  153.4588  144.8457  158.9310 H   0  0  0  0  0  0  0  0  0  0  0  0
  152.3480  146.1602  158.5398 H   0  0  0  0  0  0  0  0  0  0  0  0
  152.3550  144.5755  160.9328 H   0  0  0  0  0  0  0  0  0  0  0  0
  151.0371  145.6433  160.4426 H   0  0  0  0  0  0  0  0  0  0  0  0
  151.4922  134.1023  154.7496 H   0  0  0  0  0  0  0  0  0  0  0  0
  149.9050  134.5546  154.1304 H   0  0  0  0  0  0  0  0  0  0  0  0
  1  2  1  0  0  0  0
  1 28  1  0  0  0  0
  1 29  1  0  0  0  0
  1 30  1  0  0  0  0
  2  3  1  0  0  0  0
  2 31  1  0  0  0  0
  3  4  2  0  0  0  0
  3  5  1  0  0  0  0
  5 27  1  0  0  0  0
  5  6  1  0  0  0  0
  5  7  1  0  0  0  0
  6 32  1  0  0  0  0
  6 33  1  0  0  0  0
  6 34  1  0  0  0  0
  7  8  1  0  0  0  0
  7 35  1  0  0  0  0
  7 36  1  0  0  0  0
  8  9  1  0  0  0  0
  8 37  1  0  0  0  0
  8 38  1  0  0  0  0
  9 10  1  0  0  0  0
  9 27  1  0  0  0  0
 10 15  1  0  0  0  0
 10 11  2  0  0  0  0
 11 12  1  0  0  0  0
 12 13  2  0  0  0  0
 12 39  1  0  0  0  0
 13 14  1  0  0  0  0
 14 18  1  0  0  0  0
 14 15  2  0  0  0  0
 15 16  1  0  0  0  0
 16 17  2  0  0  0  0
 17 18  1  0  0  0  0
 17 40  1  0  0  0  0
 18 19  1  0  0  0  0
 19 20  1  0  0  0  0
 19 41  1  0  0  0  0
 19 42  1  0  0  0  0
 20 21  1  0  0  0  0
 20 22  1  0  0  0  0
 20 43  1  0  0  0  0
 21 44  1  0  0  0  0
 22 26  1  0  0  0  0
 22 23  1  0  0  0  0
 22 45  1  0  0  0  0
 23 24  1  0  0  0  0
 23 46  1  0  0  0  0
 23 47  1  0  0  0  0
 24 25  1  0  0  0  0
 24 48  1  0  0  0  0
 24 49  1  0  0  0  0
 25 26  1  0  0  0  0
 25 50  1  0  0  0  0
 25 51  1  0  0  0  0
 27 52  1  0  0  0  0
 27 53  1  0  0  0  0
M  END
> <s_m_source_file>
AV-unprocessed.smi

> <i_m_source_file_index>
260

> <i_lp_mmshare_version>
43012

> <i_f3d_flags>
0

> <s_epik_input>
W0NIM11bTkhdQyg9TylbQ0BAXTEoW0NIM10pW0NIMl1bQ0gyXU4oW0NIMl0xKWMobltjSF1uMiljKGMyMyluW2NIXW4zW0NIMl1bQ0BIXShbT0hdKVtDQEBIXTRbQ0gyXVtDSDJdW0NIMl1PNA==

> <s_epik_cmdline>
J2VwaWtfcHl0aG9uJywgJy1waCcsICc3LjAnLCAnLXRuJywgJzgnLCAnLW1hJywgJzIwMCcsICctbWV0YWxfYmluZGluZycsICctaW1hZScsICc8aW5maWxlLm1hZT4nLCAnLW9tYWUnLCAnPG91dGZpbGUubWFlPic=

> <r_lp_tautomer_probability>
1

> <r_epik_Ionization_Penalty>
0.00115068

> <r_epik_Ionization_Penalty_Charging>
0

> <r_epik_Ionization_Penalty_Neutral>
0.00115068

> <r_epik_State_Penalty>
0.000668876

> <r_epik_Charging_Adjusted_Penalty>
0.000668876

> <i_epik_Tot_Q>
0

> <i_epik_Tot_abs_Q>
0

> <r_epik_Metal_State_Penalty>
-0

> <b_epik_Metal_Only>
0

> <s_lp_Force_Field>
OPLS_2005

> <r_lp_Energy>
50.4513

> <b_lp_Chiralities_Consistent>
1

> <s_lp_Variant>
AV-unprocessed.smi:260-5

> <Gold.Version>
5.8.1

> <Gold.Id.Protein>
6NUR|6NUR_protein|mol2

> <Gold.PLP.Fitness>
53.4403

> <Gold.PLP.PLP>
-43.0466

> <Gold.PLP.part.hbond>
-5.0311

> <Gold.PLP.part.metal>
0.0000

> <Gold.PLP.part.buried>
-7.3272

> <Gold.PLP.part.nonpolar>
-31.2453

> <Gold.PLP.part.repulsive>
0.3798

> <Gold.PLP.ligand.clash>
0.0000

> <Gold.PLP.ligand.torsion>
1.0002

> <Gold.PLP.Chemscore.Hbond>
4.0000

> <Gold.PLP.Chemscore.CHOScore>
0.0000

> <Gold.PLP.Chemscore.Metal>
0.0000

> <Gold.Chemscore.Hbonds>
donor molecule, donor type, donor heavy atom, donor atom, acceptor molecule, acceptor atom, score
      L1  H    21    44       P1  8028  0.96
      P1  H  6896  6909       L1     4  1.00
      P1  H  7989  7998       L1    13  0.80
      P1  H 10752 10763       L1    11  1.00

> <Gold.PLP.Chemscore.Internal.Correction>
0.3941

> <Gold.Rescore>
     Score         DG    S(hbond)    S(metal)    S(lipo)     H(rot)  DE(clash)    DE(int)     intcor
     18.12     -20.42       3.24        0.00      90.45       2.53       0.28       2.02       ----

> <Gold.Chemscore.Fitness>
18.1245

> <Gold.Chemscore.DG>
-20.4233

> <Gold.Chemscore.ZeroCoef>
-5.4800

> <Gold.Chemscore.Hbond>
3.2418

> <Gold.Chemscore.Metal>
0.0000

> <Gold.Chemscore.Lipo>
90.4455

> <Gold.Chemscore.Internal_Hbond>
0.0000

> <Gold.Chemscore.DEClash>
0.2804

> <Gold.Chemscore.DEInternal>
2.0184

> <Gold.Chemscore.Rot>
2.5259

> <Gold.Chemscore.Internal.Correction>
   9.000000E+99

> <Gold.Chemscore.Hbonds>
donor molecule, donor type, donor heavy atom, donor atom, acceptor molecule, acceptor atom, score
      L1  H    21    44       P1  8028  0.69
      P1  H  6896  6909       L1     4  1.00
      P1  H  7989  7998       L1    13  0.64
      P1  H 10752 10763       L1    11  0.54

> <Gold.Chemscore.Hbond.Weighted>
-10.8275

> <Gold.Chemscore.Metal.Weighted>
-0.0000

> <Gold.Chemscore.Lipo.Weighted>
-10.5821

> <Gold.Chemscore.Internal_Hbond.Weighted>
0.0000

> <Gold.Chemscore.DEClash.Weighted>
0.2804

> <Gold.Chemscore.DEInternal.Weighted>
2.0184

> <Gold.Chemscore.Rot.Weighted>
6.4663

> <Gold.Chemscore.Internal.Correction.Weighted>
   9.000000E+99

> <Gold.Protein.RotatedTorsions>
[ 6907 6896 6895 6894 ] final  -42.07 input  -60.11 | X-H torsion
[ 7974 7965 7964 7962 ] final   96.30 input  175.53 | X-H torsion
[ 8008 7997 7996 7995 ] final -174.77 input   59.86 | X-H torsion
[ 10167 10162 10161 10158 ] final  147.95 input  -65.29 | X-H torsion
[ 10718 10713 10712 10709 ] final   -5.71 input   66.30 | X-H torsion
[ 10763 10752 10751 10750 ] final   63.45 input  -60.55 | X-H torsion
[ 11005 11000 10999 10996 ] final -139.78 input  -57.11 | X-H torsion

> <Gold.Protein.ActiveResidues>
 VAL166  LYS551  ARG553  GLY616  TRP617  ASP618  TYR619  PRO620  LYS621  CYS622 
 ASP623  PHE694  ASN695  SER759  ASP760  ASP761  ALA762  ILE779  LEU786  VAL792 
 PHE793  MET794  SER795  GLU796  ALA797  LYS798  CYS799  TRP800  GLU811  SER814 

> <Gold.Protein.RotatedAtoms>
  150.9594  134.8984  159.7720 H   0  0  0  0  0  0  0  0  0  0  0  0  # atno 6907 bound_to 6896
  152.5150  134.3694  159.9323 H   0  0  0  0  0  0  0  0  0  0  0  0  # atno 6908 bound_to 6896
  151.3707  133.3815  159.2734 H   0  0  0  0  0  0  0  0  0  0  0  0  # atno 6909 bound_to 6896
  145.4407  139.2301  143.3094 H   0  0  0  0  0  0  0  0  0  0  0  0  # atno 7974 bound_to 7965
  155.9742  140.1169  157.0785 H   0  0  0  0  0  0  0  0  0  0  0  0  # atno 8008 bound_to 7997
  154.4164  140.1157  156.5415 H   0  0  0  0  0  0  0  0  0  0  0  0  # atno 8009 bound_to 7997
  155.6556  140.3473  155.4766 H   0  0  0  0  0  0  0  0  0  0  0  0  # atno 8010 bound_to 7997
  139.4882  144.5716  151.7043 H   0  0  0  0  0  0  0  0  0  0  0  0  # atno 10167 bound_to 10162
  156.7425  130.5214  149.5821 H   0  0  0  0  0  0  0  0  0  0  0  0  # atno 10718 bound_to 10713
  153.0018  135.5428  154.6354 H   0  0  0  0  0  0  0  0  0  0  0  0  # atno 10763 bound_to 10752
  154.5622  135.2835  155.0910 H   0  0  0  0  0  0  0  0  0  0  0  0  # atno 10764 bound_to 10752
  154.2108  135.6467  153.5167 H   0  0  0  0  0  0  0  0  0  0  0  0  # atno 10765 bound_to 10752
  140.8487  134.2313  157.4772 H   0  0  0  0  0  0  0  0  0  0  0  0  # atno 11005 bound_to 11000
  146.2558  140.5155  142.8874 LP  0  0  0  0  0  0  0  0  0  0  0  0  # atno 17320 bound_to 7965
  144.8123  140.6408  143.6407 LP  0  0  0  0  0  0  0  0  0  0  0  0  # atno 17321 bound_to 7965
  140.5305  144.0738  150.6052 LP  0  0  0  0  0  0  0  0  0  0  0  0  # atno 17342 bound_to 10162
  140.3726  143.2846  152.0260 LP  0  0  0  0  0  0  0  0  0  0  0  0  # atno 17343 bound_to 10162
  156.1455  130.6274  151.0525 LP  0  0  0  0  0  0  0  0  0  0  0  0  # atno 17370 bound_to 10713
  157.6812  131.0837  150.7364 LP  0  0  0  0  0  0  0  0  0  0  0  0  # atno 17371 bound_to 10713
  139.8704  134.9672  156.4589 LP  0  0  0  0  0  0  0  0  0  0  0  0  # atno 17394 bound_to 11000
  140.8815  133.7914  155.9471 LP  0  0  0  0  0  0  0  0  0  0  0  0  # atno 17395 bound_to 11000

$$$$
