AV-unprocessed.smi:2148|AV-procd|sdf|8748|dock5
  -GOLD-   2272011523D 1   1.00000     0.00000
 Structure written by MMmdl.
 44 45  0  0  0  0  0  0  0  0  1 V2000
  154.8442  135.9675  164.0451 C   0  0  0  0  0  0  0  0  0  0  0  0
  156.6171  135.8847  164.4190 S   0  0  0  0  0  0  0  0  0  0  0  0
  157.3160  136.7649  162.9897 C   0  0  2  0  0  0  0  0  0  0  0  0
  158.7872  137.1224  163.2546 C   0  0  0  0  0  0  0  0  0  0  0  0
  156.4942  138.0085  162.6251 C   0  0  0  0  0  0  0  0  0  0  0  0
  156.3886  138.9311  163.4331 O   0  0  0  0  0  0  0  0  0  0  0  0
  155.9050  137.9850  161.4149 N   0  0  0  0  0  0  0  0  0  0  0  0
  155.0645  138.9646  160.8225 C   0  0  0  0  0  0  0  0  0  0  0  0
  154.6342  140.0402  161.6231 C   0  0  0  0  0  0  0  0  0  0  0  0
  153.7963  141.0226  161.0632 C   0  0  0  0  0  0  0  0  0  0  0  0
  153.3991  140.9006  159.7114 C   0  0  0  0  0  0  0  0  0  0  0  0
  152.5743  141.8852  159.1274 N   0  0  0  0  0  0  0  0  0  0  0  0
  151.1931  141.4750  158.8897 C   0  0  0  0  0  0  0  0  0  0  0  0
  150.4641  142.4831  157.9799 C   0  0  2  0  0  0  0  0  0  0  0  0
  150.8715  142.3762  156.4994 C   0  0  0  0  0  0  0  0  0  0  0  0
  150.6168  143.8098  158.4891 O   0  0  0  0  0  0  0  0  0  0  0  0
  151.9690  144.2283  158.6698 C   0  0  1  0  0  0  0  0  0  0  0  0
  151.9516  145.6576  159.2209 C   0  0  0  0  0  0  0  0  0  0  0  0
  152.6880  143.2548  159.6207 C   0  0  0  0  0  0  0  0  0  0  0  0
  153.7898  139.8498  158.9491 N   0  0  0  0  0  0  0  0  0  0  0  0
  154.5961  138.9112  159.4886 C   0  0  0  0  0  0  0  0  0  0  0  0
  154.2787  135.4191  164.7982 H   0  0  0  0  0  0  0  0  0  0  0  0
  154.6386  135.5260  163.0699 H   0  0  0  0  0  0  0  0  0  0  0  0
  154.4961  137.0003  164.0422 H   0  0  0  0  0  0  0  0  0  0  0  0
  157.2965  136.0746  162.1450 H   0  0  0  0  0  0  0  0  0  0  0  0
  159.2208  137.6699  162.4170 H   0  0  0  0  0  0  0  0  0  0  0  0
  159.3838  136.2213  163.3994 H   0  0  0  0  0  0  0  0  0  0  0  0
  158.8979  137.7364  164.1493 H   0  0  0  0  0  0  0  0  0  0  0  0
  156.0084  137.1281  160.8910 H   0  0  0  0  0  0  0  0  0  0  0  0
  154.9456  140.1187  162.6546 H   0  0  0  0  0  0  0  0  0  0  0  0
  153.4610  141.8482  161.6735 H   0  0  0  0  0  0  0  0  0  0  0  0
  151.1325  140.4801  158.4501 H   0  0  0  0  0  0  0  0  0  0  0  0
  150.6853  141.4211  159.8537 H   0  0  0  0  0  0  0  0  0  0  0  0
  149.3976  142.2614  158.0287 H   0  0  0  0  0  0  0  0  0  0  0  0
  150.6180  141.3936  156.1012 H   0  0  0  0  0  0  0  0  0  0  0  0
  151.9421  142.5164  156.3531 H   0  0  0  0  0  0  0  0  0  0  0  0
  150.3502  143.1205  155.8972 H   0  0  0  0  0  0  0  0  0  0  0  0
  152.4805  144.2443  157.7073 H   0  0  0  0  0  0  0  0  0  0  0  0
  152.9641  146.0340  159.3687 H   0  0  0  0  0  0  0  0  0  0  0  0
  151.4325  145.7051  160.1786 H   0  0  0  0  0  0  0  0  0  0  0  0
  151.4427  146.3331  158.5328 H   0  0  0  0  0  0  0  0  0  0  0  0
  152.2538  143.3132  160.6200 H   0  0  0  0  0  0  0  0  0  0  0  0
  153.7380  143.5390  159.7034 H   0  0  0  0  0  0  0  0  0  0  0  0
  154.8471  138.0967  158.8270 H   0  0  0  0  0  0  0  0  0  0  0  0
  1  2  1  0  0  0  0
  1 22  1  0  0  0  0
  1 23  1  0  0  0  0
  1 24  1  0  0  0  0
  2  3  1  0  0  0  0
  3  4  1  0  0  0  0
  3  5  1  0  0  0  0
  3 25  1  0  0  0  0
  4 26  1  0  0  0  0
  4 27  1  0  0  0  0
  4 28  1  0  0  0  0
  5  6  2  0  0  0  0
  5  7  1  0  0  0  0
  7  8  1  0  0  0  0
  7 29  1  0  0  0  0
  8 21  1  0  0  0  0
  8  9  2  0  0  0  0
  9 10  1  0  0  0  0
  9 30  1  0  0  0  0
 10 11  2  0  0  0  0
 10 31  1  0  0  0  0
 11 12  1  0  0  0  0
 11 20  1  0  0  0  0
 12 19  1  0  0  0  0
 12 13  1  0  0  0  0
 13 14  1  0  0  0  0
 13 32  1  0  0  0  0
 13 33  1  0  0  0  0
 14 15  1  0  0  0  0
 14 16  1  0  0  0  0
 14 34  1  0  0  0  0
 15 35  1  0  0  0  0
 15 36  1  0  0  0  0
 15 37  1  0  0  0  0
 16 17  1  0  0  0  0
 17 18  1  0  0  0  0
 17 19  1  0  0  0  0
 17 38  1  0  0  0  0
 18 39  1  0  0  0  0
 18 40  1  0  0  0  0
 18 41  1  0  0  0  0
 19 42  1  0  0  0  0
 19 43  1  0  0  0  0
 20 21  2  0  0  0  0
 21 44  1  0  0  0  0
M  END
> <s_m_source_file>
AV-unprocessed.smi

> <i_m_source_file_index>
2148

> <i_lp_mmshare_version>
43012

> <i_f3d_flags>
0

> <s_epik_input>
W0NIM11TW0NASF0oW0NIM10pQyg9TylbTkhdYzFbY0hdW2NIXWMobltjSF0xKU4yW0NIMl1bQ0BASF0oW0NIM10pT1tDQEBIXShbQ0gzXSlbQ0gyXTI=

> <s_epik_cmdline>
J2VwaWtfcHl0aG9uJywgJy1waCcsICc3LjAnLCAnLXRuJywgJzgnLCAnLW1hJywgJzIwMCcsICctbWV0YWxfYmluZGluZycsICctaW1hZScsICc8aW5maWxlLm1hZT4nLCAnLW9tYWUnLCAnPG91dGZpbGUubWFlPic=

> <r_lp_tautomer_probability>
1

> <r_epik_Ionization_Penalty>
0.000646494

> <r_epik_Ionization_Penalty_Charging>
0

> <r_epik_Ionization_Penalty_Neutral>
0.000646494

> <r_epik_State_Penalty>
0.000408447

> <r_epik_Charging_Adjusted_Penalty>
0.000408447

> <i_epik_Tot_Q>
0

> <i_epik_Tot_abs_Q>
0

> <r_epik_Metal_State_Penalty>
-0

> <b_epik_Metal_Only>
0

> <s_lp_Force_Field>
OPLS_2005

> <r_lp_Energy>
25.6211

> <b_lp_Chiralities_Consistent>
1

> <s_lp_Variant>
AV-unprocessed.smi:2148-3

> <Gold.Version>
5.8.1

> <Gold.Id.Protein>
6NUR|6NUR_protein|mol2

> <Gold.PLP.Fitness>
36.1818

> <Gold.PLP.PLP>
-34.1986

> <Gold.PLP.part.hbond>
-1.0000

> <Gold.PLP.part.metal>
0.0000

> <Gold.PLP.part.buried>
-3.8921

> <Gold.PLP.part.nonpolar>
-28.6782

> <Gold.PLP.part.repulsive>
0.1499

> <Gold.PLP.ligand.clash>
0.0000

> <Gold.PLP.ligand.torsion>
0.6663

> <Gold.PLP.Chemscore.Hbond>
0.9913

> <Gold.PLP.Chemscore.CHOScore>
0.0000

> <Gold.PLP.Chemscore.Metal>
0.0000

> <Gold.Chemscore.Hbonds>
donor molecule, donor type, donor heavy atom, donor atom, acceptor molecule, acceptor atom, score
      P1  H  7997  8008       L1    20  0.80

> <Gold.PLP.Chemscore.Internal.Correction>
0.3420

> <Gold.Rescore>
     Score         DG    S(hbond)    S(metal)    S(lipo)     H(rot)  DE(clash)    DE(int)     intcor
     13.86     -16.07       0.64        0.00     100.09       1.27       0.15       2.07       ----

> <Gold.Chemscore.Fitness>
13.8572

> <Gold.Chemscore.DG>
-16.0728

> <Gold.Chemscore.ZeroCoef>
-5.4800

> <Gold.Chemscore.Hbond>
0.6355

> <Gold.Chemscore.Metal>
0.0000

> <Gold.Chemscore.Lipo>
100.0929

> <Gold.Chemscore.Internal_Hbond>
0.0000

> <Gold.Chemscore.DEClash>
0.1483

> <Gold.Chemscore.DEInternal>
2.0674

> <Gold.Chemscore.Rot>
1.2659

> <Gold.Chemscore.Internal.Correction>
   9.000000E+99

> <Gold.Chemscore.Hbonds>
donor molecule, donor type, donor heavy atom, donor atom, acceptor molecule, acceptor atom, score
      P1  H  7997  8008       L1    20  0.11

> <Gold.Chemscore.Hbond.Weighted>
-2.1225

> <Gold.Chemscore.Metal.Weighted>
-0.0000

> <Gold.Chemscore.Lipo.Weighted>
-11.7109

> <Gold.Chemscore.Internal_Hbond.Weighted>
0.0000

> <Gold.Chemscore.DEClash.Weighted>
0.1483

> <Gold.Chemscore.DEInternal.Weighted>
2.0674

> <Gold.Chemscore.Rot.Weighted>
3.2406

> <Gold.Chemscore.Internal.Correction.Weighted>
   9.000000E+99

> <Gold.Protein.RotatedTorsions>
[ 6907 6896 6895 6894 ] final -159.47 input  -60.11 | X-H torsion
[ 7974 7965 7964 7962 ] final   46.67 input  175.53 | X-H torsion
[ 8008 7997 7996 7995 ] final -101.45 input   59.86 | X-H torsion
[ 10167 10162 10161 10158 ] final   -3.48 input  -65.29 | X-H torsion
[ 10718 10713 10712 10709 ] final -151.85 input   66.30 | X-H torsion
[ 10763 10752 10751 10750 ] final -168.96 input  -60.55 | X-H torsion
[ 11005 11000 10999 10996 ] final -109.36 input  -57.11 | X-H torsion

> <Gold.Protein.ActiveResidues>
 VAL166  LYS551  ARG553  GLY616  TRP617  ASP618  TYR619  PRO620  LYS621  CYS622 
 ASP623  PHE694  ASN695  SER759  ASP760  ASP761  ALA762  ILE779  LEU786  VAL792 
 PHE793  MET794  SER795  GLU796  ALA797  LYS798  CYS799  TRP800  GLU811  SER814 

> <Gold.Protein.RotatedAtoms>
  151.3341  133.3988  159.2664 H   0  0  0  0  0  0  0  0  0  0  0  0  # atno 6907 bound_to 6896
  150.9931  134.9262  159.7921 H   0  0  0  0  0  0  0  0  0  0  0  0  # atno 6908 bound_to 6896
  152.5253  134.3306  159.9234 H   0  0  0  0  0  0  0  0  0  0  0  0  # atno 6909 bound_to 6896
  146.0369  139.4831  142.9803 H   0  0  0  0  0  0  0  0  0  0  0  0  # atno 7974 bound_to 7965
  154.8427  140.0434  157.1552 H   0  0  0  0  0  0  0  0  0  0  0  0  # atno 8008 bound_to 7997
  154.9029  140.3002  155.5287 H   0  0  0  0  0  0  0  0  0  0  0  0  # atno 8009 bound_to 7997
  156.2993  140.2372  156.4059 H   0  0  0  0  0  0  0  0  0  0  0  0  # atno 8010 bound_to 7997
  140.6892  143.6535  150.8329 H   0  0  0  0  0  0  0  0  0  0  0  0  # atno 10167 bound_to 10162
  156.4647  130.8230  151.2460 H   0  0  0  0  0  0  0  0  0  0  0  0  # atno 10718 bound_to 10713
  154.6573  135.2920  154.9911 H   0  0  0  0  0  0  0  0  0  0  0  0  # atno 10763 bound_to 10752
  154.0983  135.6580  153.4868 H   0  0  0  0  0  0  0  0  0  0  0  0  # atno 10764 bound_to 10752
  153.0410  135.5236  154.7508 H   0  0  0  0  0  0  0  0  0  0  0  0  # atno 10765 bound_to 10752
  141.0851  133.9152  157.2202 H   0  0  0  0  0  0  0  0  0  0  0  0  # atno 11005 bound_to 11000
  145.6950  141.0153  143.1535 LP  0  0  0  0  0  0  0  0  0  0  0  0  # atno 17320 bound_to 7965
  144.7056  139.8577  143.7431 LP  0  0  0  0  0  0  0  0  0  0  0  0  # atno 17321 bound_to 7965
  140.0245  143.5507  152.2786 LP  0  0  0  0  0  0  0  0  0  0  0  0  # atno 17342 bound_to 10162
  139.6278  144.7640  151.2601 LP  0  0  0  0  0  0  0  0  0  0  0  0  # atno 17343 bound_to 10162
  157.7495  131.0095  150.3272 LP  0  0  0  0  0  0  0  0  0  0  0  0  # atno 17370 bound_to 10713
  156.3680  130.3858  149.7198 LP  0  0  0  0  0  0  0  0  0  0  0  0  # atno 17371 bound_to 10713
  139.9669  135.0139  156.9410 LP  0  0  0  0  0  0  0  0  0  0  0  0  # atno 17394 bound_to 11000
  140.5380  134.0748  155.7333 LP  0  0  0  0  0  0  0  0  0  0  0  0  # atno 17395 bound_to 11000

$$$$
