AV-unprocessed.smi:2156|AV-procd|sdf|8782|dock3
  -GOLD-   2272011563D 1   1.00000     0.00000
 Structure written by MMmdl.
 33 33  0  0  0  0  0  0  0  0  2 V2000
  152.7967  142.8602  161.9762 C   0  0  0  0  0  0  0  0  0  0  0  0
  153.0613  142.0525  160.7011 C   0  0  0  0  0  0  0  0  0  0  0  0
  153.2576  142.9494  159.4655 C   0  0  0  0  0  0  0  0  0  0  0  0
  151.9676  143.6443  158.9887 C   0  0  1  0  0  0  0  0  0  0  0  0
  152.1269  145.1728  158.9605 C   0  0  0  0  0  0  0  0  0  0  0  0
  151.5981  143.1503  157.6663 N   0  0  0  0  0  0  0  0  0  0  0  0
  151.1053  141.9327  157.3834 C   0  0  0  0  0  0  0  0  0  0  0  0
  150.8580  141.0943  158.2497 O   0  0  0  0  0  0  0  0  0  0  0  0
  150.8469  141.5847  155.9068 C   0  0  0  0  0  0  0  0  0  0  0  0
  150.9901  140.1545  155.5759 N   0  0  0  0  0  0  0  0  0  0  0  0
  150.0184  139.5798  154.7376 C   0  0  0  0  0  0  0  0  0  0  0  0
  150.0764  138.2872  154.3647 C   0  0  0  0  0  0  0  0  0  0  0  0
  151.1851  137.4768  154.8534 C   0  0  0  0  0  0  0  0  0  0  0  0
  151.2556  136.2954  154.5208 O   0  0  0  0  0  0  0  0  0  0  0  0
  152.1024  138.0797  155.6652 N   0  5  0  0  0  0  0  0  0  0  0  0
  152.0313  139.3956  156.0357 C   0  0  0  0  0  0  0  0  0  0  0  0
  152.8757  139.9227  156.7603 O   0  0  0  0  0  0  0  0  0  0  0  0
  152.6622  142.1994  162.8329 H   0  0  0  0  0  0  0  0  0  0  0  0
  151.8962  143.4671  161.8788 H   0  0  0  0  0  0  0  0  0  0  0  0
  153.6299  143.5273  162.1989 H   0  0  0  0  0  0  0  0  0  0  0  0
  153.9424  141.4294  160.8579 H   0  0  0  0  0  0  0  0  0  0  0  0
  152.2284  141.3699  160.5286 H   0  0  0  0  0  0  0  0  0  0  0  0
  154.0040  143.7102  159.6973 H   0  0  0  0  0  0  0  0  0  0  0  0
  153.6741  142.3545  158.6512 H   0  0  0  0  0  0  0  0  0  0  0  0
  151.1722  143.3949  159.6934 H   0  0  0  0  0  0  0  0  0  0  0  0
  152.3793  145.5578  159.9486 H   0  0  0  0  0  0  0  0  0  0  0  0
  151.2048  145.6621  158.6454 H   0  0  0  0  0  0  0  0  0  0  0  0
  152.9169  145.4771  158.2732 H   0  0  0  0  0  0  0  0  0  0  0  0
  151.7726  143.7704  156.8883 H   0  0  0  0  0  0  0  0  0  0  0  0
  149.8487  141.9341  155.6376 H   0  0  0  0  0  0  0  0  0  0  0  0
  151.5275  142.1801  155.2968 H   0  0  0  0  0  0  0  0  0  0  0  0
  149.2350  140.2497  154.4147 H   0  0  0  0  0  0  0  0  0  0  0  0
  149.3234  137.8616  153.7179 H   0  0  0  0  0  0  0  0  0  0  0  0
  1  2  1  0  0  0  0
  1 18  1  0  0  0  0
  1 19  1  0  0  0  0
  1 20  1  0  0  0  0
  2  3  1  0  0  0  0
  2 21  1  0  0  0  0
  2 22  1  0  0  0  0
  3  4  1  0  0  0  0
  3 23  1  0  0  0  0
  3 24  1  0  0  0  0
  4  5  1  0  0  0  0
  4  6  1  0  0  0  0
  4 25  1  0  0  0  0
  5 26  1  0  0  0  0
  5 27  1  0  0  0  0
  5 28  1  0  0  0  0
  6  7  1  0  0  0  0
  6 29  1  0  0  0  0
  7  8  2  0  0  0  0
  7  9  1  0  0  0  0
  9 10  1  0  0  0  0
  9 30  1  0  0  0  0
  9 31  1  0  0  0  0
 10 16  1  0  0  0  0
 10 11  1  0  0  0  0
 11 12  2  0  0  0  0
 11 32  1  0  0  0  0
 12 13  1  0  0  0  0
 12 33  1  0  0  0  0
 13 14  2  0  0  0  0
 13 15  1  0  0  0  0
 15 16  1  0  0  0  0
 16 17  2  0  0  0  0
M  CHG  1  15  -1
M  END
> <s_m_source_file>
AV-unprocessed.smi

> <i_m_source_file_index>
2156

> <i_lp_mmshare_version>
43012

> <i_f3d_flags>
0

> <s_epik_input>
W0NIM11bQ0gyXVtDSDJdW0NASF0oW0NIM10pW05IXUMoPU8pW0NIMl1uMVtjSF1bY0hdYyg9TylbbkhdYzE9Tw==

> <s_epik_cmdline>
J2VwaWtfcHl0aG9uJywgJy1waCcsICc3LjAnLCAnLXRuJywgJzgnLCAnLW1hJywgJzIwMCcsICctbWV0YWxfYmluZGluZycsICctaW1hZScsICc8aW5maWxlLm1hZT4nLCAnLW9tYWUnLCAnPG91dGZpbGUubWFlPic=

> <r_lp_tautomer_probability>
0.999537

> <r_epik_Ionization_Penalty>
3.08607

> <r_epik_Ionization_Penalty_Charging>
2.78879e-08

> <r_epik_Ionization_Penalty_Neutral>
3.08607

> <r_epik_State_Penalty>
3.08511

> <r_epik_Charging_Adjusted_Penalty>
3.08511

> <i_epik_Tot_Q>
-1

> <i_epik_Tot_abs_Q>
1

> <r_epik_Metal_State_Penalty>
0.460479

> <b_epik_Metal_Only>
1

> <s_lp_Force_Field>
OPLS_2005

> <r_lp_Energy>
11.6756

> <b_lp_Chiralities_Consistent>
1

> <s_lp_Variant>
AV-unprocessed.smi:2156-4

> <Gold.Version>
5.8.1

> <Gold.Id.Protein>
6NUR|6NUR_protein|mol2

> <Gold.PLP.Fitness>
44.4727

> <Gold.PLP.PLP>
-41.4542

> <Gold.PLP.part.hbond>
-2.0000

> <Gold.PLP.part.metal>
0.0000

> <Gold.PLP.part.buried>
-3.2480

> <Gold.PLP.part.nonpolar>
-35.1470

> <Gold.PLP.part.repulsive>
0.4348

> <Gold.PLP.ligand.clash>
0.0000

> <Gold.PLP.ligand.torsion>
1.5143

> <Gold.PLP.Chemscore.Hbond>
2.0000

> <Gold.PLP.Chemscore.CHOScore>
0.0000

> <Gold.PLP.Chemscore.Metal>
0.0000

> <Gold.Chemscore.Hbonds>
donor molecule, donor type, donor heavy atom, donor atom, acceptor molecule, acceptor atom, score
      P1  H  7997  8010       L1    17  0.99
      P1  H 10752 10764       L1    14  1.00

> <Gold.PLP.Chemscore.Internal.Correction>
0.0470

> <Gold.Rescore>
     Score         DG    S(hbond)    S(metal)    S(lipo)     H(rot)  DE(clash)    DE(int)     intcor
     11.71     -16.00       1.94        0.00      81.14       2.14       0.27       4.01       ----

> <Gold.Chemscore.Fitness>
11.7149

> <Gold.Chemscore.DG>
-15.9951

> <Gold.Chemscore.ZeroCoef>
-5.4800

> <Gold.Chemscore.Hbond>
1.9440

> <Gold.Chemscore.Metal>
0.0000

> <Gold.Chemscore.Lipo>
81.1393

> <Gold.Chemscore.Internal_Hbond>
0.0000

> <Gold.Chemscore.DEClash>
0.2688

> <Gold.Chemscore.DEInternal>
4.0113

> <Gold.Chemscore.Rot>
2.1372

> <Gold.Chemscore.Internal.Correction>
   9.000000E+99

> <Gold.Chemscore.Hbonds>
donor molecule, donor type, donor heavy atom, donor atom, acceptor molecule, acceptor atom, score
      P1  H  7997  8010       L1    17  0.91
      P1  H 10752 10764       L1    14  0.93

> <Gold.Chemscore.Hbond.Weighted>
-6.4931

> <Gold.Chemscore.Metal.Weighted>
-0.0000

> <Gold.Chemscore.Lipo.Weighted>
-9.4933

> <Gold.Chemscore.Internal_Hbond.Weighted>
0.0000

> <Gold.Chemscore.DEClash.Weighted>
0.2688

> <Gold.Chemscore.DEInternal.Weighted>
4.0113

> <Gold.Chemscore.Rot.Weighted>
5.4713

> <Gold.Chemscore.Internal.Correction.Weighted>
   9.000000E+99

> <Gold.Protein.RotatedTorsions>
[ 6907 6896 6895 6894 ] final  171.60 input  -60.11 | X-H torsion
[ 7974 7965 7964 7962 ] final -159.86 input  175.53 | X-H torsion
[ 8008 7997 7996 7995 ] final   77.93 input   59.86 | X-H torsion
[ 10167 10162 10161 10158 ] final   89.82 input  -65.29 | X-H torsion
[ 10718 10713 10712 10709 ] final   80.48 input   66.30 | X-H torsion
[ 10763 10752 10751 10750 ] final  -77.96 input  -60.55 | X-H torsion
[ 11005 11000 10999 10996 ] final   24.27 input  -57.11 | X-H torsion

> <Gold.Protein.ActiveResidues>
 VAL166  LYS551  ARG553  GLY616  TRP617  ASP618  TYR619  PRO620  LYS621  CYS622 
 ASP623  PHE694  ASN695  SER759  ASP760  ASP761  ALA762  ILE779  LEU786  VAL792 
 PHE793  MET794  SER795  GLU796  ALA797  LYS798  CYS799  TRP800  GLU811  SER814 

> <Gold.Protein.RotatedAtoms>
  151.7976  133.3366  159.3517 H   0  0  0  0  0  0  0  0  0  0  0  0  # atno 6907 bound_to 6896
  150.7370  134.5784  159.5935 H   0  0  0  0  0  0  0  0  0  0  0  0  # atno 6908 bound_to 6896
  152.3166  134.7433  160.0375 H   0  0  0  0  0  0  0  0  0  0  0  0  # atno 6909 bound_to 6896
  144.7449  140.3624  143.6093 H   0  0  0  0  0  0  0  0  0  0  0  0  # atno 7974 bound_to 7965
  155.8485  140.3459  155.5678 H   0  0  0  0  0  0  0  0  0  0  0  0  # atno 8008 bound_to 7997
  155.8063  140.0892  157.1948 H   0  0  0  0  0  0  0  0  0  0  0  0  # atno 8009 bound_to 7997
  154.4007  140.1456  156.3321 H   0  0  0  0  0  0  0  0  0  0  0  0  # atno 8010 bound_to 7997
  139.8534  144.6581  150.9142 H   0  0  0  0  0  0  0  0  0  0  0  0  # atno 10167 bound_to 10162
  157.6807  130.9961  150.2085 H   0  0  0  0  0  0  0  0  0  0  0  0  # atno 10718 bound_to 10713
  154.5197  135.5746  153.6670 H   0  0  0  0  0  0  0  0  0  0  0  0  # atno 10763 bound_to 10752
  152.9914  135.6178  154.2771 H   0  0  0  0  0  0  0  0  0  0  0  0  # atno 10764 bound_to 10752
  154.2691  135.2854  155.2725 H   0  0  0  0  0  0  0  0  0  0  0  0  # atno 10765 bound_to 10752
  140.3605  134.2130  155.7672 H   0  0  0  0  0  0  0  0  0  0  0  0  # atno 11005 bound_to 11000
  145.7163  139.1698  143.2510 LP  0  0  0  0  0  0  0  0  0  0  0  0  # atno 17320 bound_to 7965
  146.1310  140.7186  142.9412 LP  0  0  0  0  0  0  0  0  0  0  0  0  # atno 17321 bound_to 7965
  140.7784  143.3807  151.1482 LP  0  0  0  0  0  0  0  0  0  0  0  0  # atno 17342 bound_to 10162
  139.7443  143.8876  152.3059 LP  0  0  0  0  0  0  0  0  0  0  0  0  # atno 17343 bound_to 10162
  156.2761  130.3727  149.7982 LP  0  0  0  0  0  0  0  0  0  0  0  0  # atno 17370 bound_to 10713
  156.5684  130.8414  151.3349 LP  0  0  0  0  0  0  0  0  0  0  0  0  # atno 17371 bound_to 10713
  141.1985  133.8033  157.0578 LP  0  0  0  0  0  0  0  0  0  0  0  0  # atno 17394 bound_to 11000
  140.0630  134.9744  157.1338 LP  0  0  0  0  0  0  0  0  0  0  0  0  # atno 17395 bound_to 11000

$$$$
