AV-unprocessed.smi:2999|AV-procd|sdf|11423|dock6
  -GOLD-   2272016343D 1   1.00000     0.00000
 Structure written by MMmdl.
 36 38  0  0  0  0  0  0  0  0  2 V2000
  149.4380  135.9530  158.9440 O   0  0  0  0  0  0  0  0  0  0  0  0
  148.9257  137.0188  159.2942 C   0  0  0  0  0  0  0  0  0  0  0  0
  149.1786  138.1380  158.6038 N   0  0  0  0  0  0  0  0  0  0  0  0
  150.0281  138.2218  157.4220 C   0  0  0  0  0  0  0  0  0  0  0  0
  150.7870  139.5568  157.3723 C   0  0  2  0  0  0  0  0  0  0  0  0
  151.2249  140.0537  158.7674 C   0  0  0  0  0  0  0  0  0  0  0  0
  151.8676  141.3608  158.7050 N   0  0  0  0  0  0  0  0  0  0  0  0
  152.2523  141.8153  160.0326 C   0  0  0  0  0  0  0  0  0  0  0  0
  153.0735  143.0703  160.1786 C   0  0  0  0  0  0  0  0  0  0  0  0
  153.6944  141.7138  160.4577 C   0  0  0  0  0  0  0  0  0  0  0  0
  150.9538  142.3019  158.0713 C   0  0  0  0  0  0  0  0  0  0  0  0
  150.5215  141.8185  156.6771 C   0  0  0  0  0  0  0  0  0  0  0  0
  149.9248  140.5299  156.7854 O   0  0  0  0  0  0  0  0  0  0  0  0
  148.0964  137.2032  160.3466 N   0  5  0  0  0  0  0  0  0  0  0  0
  147.6233  136.1440  161.0234 C   0  0  0  0  0  0  0  0  0  0  0  0
  147.3427  134.9723  160.4409 N   0  0  0  0  0  0  0  0  0  0  0  0
  146.8570  134.0122  161.3303 C   0  0  0  0  0  0  0  0  0  0  0  0
  146.7583  134.4657  162.6189 C   0  0  0  0  0  0  0  0  0  0  0  0
  147.2722  136.1231  162.7541 S   0  0  0  0  0  0  0  0  0  0  0  0
  148.7429  138.9917  158.9208 H   0  0  0  0  0  0  0  0  0  0  0  0
  150.7374  137.3929  157.4370 H   0  0  0  0  0  0  0  0  0  0  0  0
  149.4188  138.1058  156.5243 H   0  0  0  0  0  0  0  0  0  0  0  0
  151.6657  139.4409  156.7350 H   0  0  0  0  0  0  0  0  0  0  0  0
  150.3547  140.1004  159.4245 H   0  0  0  0  0  0  0  0  0  0  0  0
  151.9118  139.3343  159.2145 H   0  0  0  0  0  0  0  0  0  0  0  0
  151.4839  141.6169  160.7782 H   0  0  0  0  0  0  0  0  0  0  0  0
  153.3811  143.5860  159.2709 H   0  0  0  0  0  0  0  0  0  0  0  0
  152.8619  143.7114  161.0317 H   0  0  0  0  0  0  0  0  0  0  0  0
  153.8940  141.4543  161.4953 H   0  0  0  0  0  0  0  0  0  0  0  0
  154.4132  141.3333  159.7342 H   0  0  0  0  0  0  0  0  0  0  0  0
  150.0698  142.4400  158.6959 H   0  0  0  0  0  0  0  0  0  0  0  0
  151.4307  143.2787  157.9855 H   0  0  0  0  0  0  0  0  0  0  0  0
  149.8000  142.5101  156.2421 H   0  0  0  0  0  0  0  0  0  0  0  0
  151.3758  141.7760  155.9996 H   0  0  0  0  0  0  0  0  0  0  0  0
  146.6060  133.0298  160.9588 H   0  0  0  0  0  0  0  0  0  0  0  0
  146.4154  133.9308  163.4915 H   0  0  0  0  0  0  0  0  0  0  0  0
  1  2  2  0  0  0  0
  2  3  1  0  0  0  0
  2 14  1  0  0  0  0
  3  4  1  0  0  0  0
  3 20  1  0  0  0  0
  4  5  1  0  0  0  0
  4 21  1  0  0  0  0
  4 22  1  0  0  0  0
  5 13  1  0  0  0  0
  5  6  1  0  0  0  0
  5 23  1  0  0  0  0
  6  7  1  0  0  0  0
  6 24  1  0  0  0  0
  6 25  1  0  0  0  0
  7  8  1  0  0  0  0
  7 11  1  0  0  0  0
  8 10  1  0  0  0  0
  8  9  1  0  0  0  0
  8 26  1  0  0  0  0
  9 10  1  0  0  0  0
  9 27  1  0  0  0  0
  9 28  1  0  0  0  0
 10 29  1  0  0  0  0
 10 30  1  0  0  0  0
 11 12  1  0  0  0  0
 11 31  1  0  0  0  0
 11 32  1  0  0  0  0
 12 13  1  0  0  0  0
 12 33  1  0  0  0  0
 12 34  1  0  0  0  0
 14 15  1  0  0  0  0
 15 19  1  0  0  0  0
 15 16  2  0  0  0  0
 16 17  1  0  0  0  0
 17 18  2  0  0  0  0
 17 35  1  0  0  0  0
 18 19  1  0  0  0  0
 18 36  1  0  0  0  0
M  CHG  1  14  -1
M  END
> <s_m_source_file>
AV-unprocessed.smi

> <i_m_source_file_index>
2999

> <i_lp_mmshare_version>
43012

> <i_f3d_flags>
0

> <s_epik_input>
czFbY0hdW2NIXW5jMVtOSF1DKD1PKVtOSF1bQ0gyXVtDQEBIXTJbQ0gyXU4oW0NIMl1bQ0gyXU8yKVtDSF0zW0NIMl1bQ0gyXTM=

> <s_epik_cmdline>
J2VwaWtfcHl0aG9uJywgJy1waCcsICc3LjAnLCAnLXRuJywgJzgnLCAnLW1hJywgJzIwMCcsICctbWV0YWxfYmluZGluZycsICctaW1hZScsICc8aW5maWxlLm1hZT4nLCAnLW9tYWUnLCAnPG91dGZpbGUubWFlPic=

> <r_lp_tautomer_probability>
0.999

> <r_epik_Ionization_Penalty>
6.67591

> <r_epik_Ionization_Penalty_Charging>
5.6519

> <r_epik_Ionization_Penalty_Neutral>
1.024

> <r_epik_State_Penalty>
5.68985

> <r_epik_Charging_Adjusted_Penalty>
11.3418

> <i_epik_Tot_Q>
-1

> <i_epik_Tot_abs_Q>
1

> <r_epik_Metal_State_Penalty>
1.67789

> <b_epik_Metal_Only>
1

> <s_lp_Force_Field>
OPLS_2005

> <r_lp_Energy>
28.4873

> <b_lp_Chiralities_Consistent>
1

> <s_lp_Variant>
AV-unprocessed.smi:2999-7

> <Gold.Version>
5.8.1

> <Gold.Id.Protein>
6NUR|6NUR_protein|mol2

> <Gold.PLP.Fitness>
47.3994

> <Gold.PLP.PLP>
-38.0889

> <Gold.PLP.part.hbond>
-3.0000

> <Gold.PLP.part.metal>
0.0000

> <Gold.PLP.part.buried>
-5.1496

> <Gold.PLP.part.nonpolar>
-31.6651

> <Gold.PLP.part.repulsive>
0.2235

> <Gold.PLP.ligand.clash>
0.0000

> <Gold.PLP.ligand.torsion>
1.3058

> <Gold.PLP.Chemscore.Hbond>
3.5913

> <Gold.PLP.Chemscore.CHOScore>
0.0000

> <Gold.PLP.Chemscore.Metal>
0.0000

> <Gold.Chemscore.Hbonds>
donor molecule, donor type, donor heavy atom, donor atom, acceptor molecule, acceptor atom, score
      P1  H  6896  6909       L1     1  1.00
      P1  H  6931  6943       L1    14  1.19
      P1  H  6934  6947       L1    14  1.12

> <Gold.PLP.Chemscore.Internal.Correction>
1.1483

> <Gold.Rescore>
     Score         DG    S(hbond)    S(metal)    S(lipo)     H(rot)  DE(clash)    DE(int)     intcor
     15.31     -17.98       1.99        0.00      83.09       1.52       0.00       2.67       ----

> <Gold.Chemscore.Fitness>
15.3065

> <Gold.Chemscore.DG>
-17.9780

> <Gold.Chemscore.ZeroCoef>
-5.4800

> <Gold.Chemscore.Hbond>
1.9937

> <Gold.Chemscore.Metal>
0.0000

> <Gold.Chemscore.Lipo>
83.0928

> <Gold.Chemscore.Internal_Hbond>
0.0000

> <Gold.Chemscore.DEClash>
0.0029

> <Gold.Chemscore.DEInternal>
2.6686

> <Gold.Chemscore.Rot>
1.5167

> <Gold.Chemscore.Internal.Correction>
   9.000000E+99

> <Gold.Chemscore.Hbonds>
donor molecule, donor type, donor heavy atom, donor atom, acceptor molecule, acceptor atom, score
      P1  H  6896  6909       L1     1  1.00
      P1  H  6931  6943       L1    14  0.14
      P1  H  6934  6947       L1    14  0.48

> <Gold.Chemscore.Hbond.Weighted>
-6.6588

> <Gold.Chemscore.Metal.Weighted>
-0.0000

> <Gold.Chemscore.Lipo.Weighted>
-9.7219

> <Gold.Chemscore.Internal_Hbond.Weighted>
0.0000

> <Gold.Chemscore.DEClash.Weighted>
0.0029

> <Gold.Chemscore.DEInternal.Weighted>
2.6686

> <Gold.Chemscore.Rot.Weighted>
3.8827

> <Gold.Chemscore.Internal.Correction.Weighted>
   9.000000E+99

> <Gold.Protein.RotatedTorsions>
[ 6907 6896 6895 6894 ] final   53.46 input  -60.11 | X-H torsion
[ 7974 7965 7964 7962 ] final  -30.71 input  175.53 | X-H torsion
[ 8008 7997 7996 7995 ] final  126.98 input   59.86 | X-H torsion
[ 10167 10162 10161 10158 ] final  -63.69 input  -65.29 | X-H torsion
[ 10718 10713 10712 10709 ] final   -9.80 input   66.30 | X-H torsion
[ 10763 10752 10751 10750 ] final  108.47 input  -60.55 | X-H torsion
[ 11005 11000 10999 10996 ] final  -81.12 input  -57.11 | X-H torsion

> <Gold.Protein.ActiveResidues>
 VAL166  LYS551  ARG553  GLY616  TRP617  ASP618  TYR619  PRO620  LYS621  CYS622 
 ASP623  PHE694  ASN695  SER759  ASP760  ASP761  ALA762  ILE779  LEU786  VAL792 
 PHE793  MET794  SER795  GLU796  ALA797  LYS798  CYS799  TRP800  GLU811  SER814 

> <Gold.Protein.RotatedAtoms>
  152.3339  134.7223  160.0281 H   0  0  0  0  0  0  0  0  0  0  0  0  # atno 6907 bound_to 6896
  151.7631  133.3330  159.3431 H   0  0  0  0  0  0  0  0  0  0  0  0  # atno 6908 bound_to 6896
  150.7439  134.6020  159.6086 H   0  0  0  0  0  0  0  0  0  0  0  0  # atno 6909 bound_to 6896
  146.1122  140.5575  142.8773 H   0  0  0  0  0  0  0  0  0  0  0  0  # atno 7974 bound_to 7965
  156.2879  140.2680  156.2199 H   0  0  0  0  0  0  0  0  0  0  0  0  # atno 8008 bound_to 7997
  155.0179  140.0387  157.2443 H   0  0  0  0  0  0  0  0  0  0  0  0  # atno 8009 bound_to 7997
  154.7461  140.2734  155.6337 H   0  0  0  0  0  0  0  0  0  0  0  0  # atno 8010 bound_to 7997
  140.5853  143.2333  151.6256 H   0  0  0  0  0  0  0  0  0  0  0  0  # atno 10167 bound_to 10162
  156.6827  130.5042  149.5966 H   0  0  0  0  0  0  0  0  0  0  0  0  # atno 10718 bound_to 10713
  153.4211  135.3811  155.2112 H   0  0  0  0  0  0  0  0  0  0  0  0  # atno 10763 bound_to 10752
  154.8744  135.3817  154.4382 H   0  0  0  0  0  0  0  0  0  0  0  0  # atno 10764 bound_to 10752
  153.4903  135.7088  153.5951 H   0  0  0  0  0  0  0  0  0  0  0  0  # atno 10765 bound_to 10752
  141.1667  133.7182  156.8375 H   0  0  0  0  0  0  0  0  0  0  0  0  # atno 11005 bound_to 11000
  144.7521  140.5218  143.6794 LP  0  0  0  0  0  0  0  0  0  0  0  0  # atno 17320 bound_to 7965
  145.5640  139.1480  143.3325 LP  0  0  0  0  0  0  0  0  0  0  0  0  # atno 17321 bound_to 7965
  139.5194  144.3255  152.0873 LP  0  0  0  0  0  0  0  0  0  0  0  0  # atno 17342 bound_to 10162
  140.2411  144.4268  150.6259 LP  0  0  0  0  0  0  0  0  0  0  0  0  # atno 17343 bound_to 10162
  156.1855  130.6526  151.1001 LP  0  0  0  0  0  0  0  0  0  0  0  0  # atno 17370 bound_to 10713
  157.7037  131.0765  150.6736 LP  0  0  0  0  0  0  0  0  0  0  0  0  # atno 17371 bound_to 10713
  140.2007  134.8899  157.3165 LP  0  0  0  0  0  0  0  0  0  0  0  0  # atno 17394 bound_to 11000
  140.2191  134.4045  155.7574 LP  0  0  0  0  0  0  0  0  0  0  0  0  # atno 17395 bound_to 11000

$$$$
