AV-unprocessed.smi:99|AV-procd|sdf|888|dock5
  -GOLD-   2262017373D 1   1.00000     0.00000
 Structure written by MMmdl.
 52 55  0  0  0  0  0  0  0  0  2 V2000
  149.1242  142.3823  158.7447 O   0  0  0  0  0  0  0  0  0  0  0  0
  150.0015  141.6236  158.3274 C   0  0  0  0  0  0  0  0  0  0  0  0
  149.9231  140.9609  157.1561 O   0  0  0  0  0  0  0  0  0  0  0  0
  148.9080  141.2869  156.2189 C   0  0  0  0  0  0  0  0  0  0  0  0
  149.1662  140.5577  154.8855 C   0  0  1  0  0  0  0  0  0  0  0  0
  149.5238  139.2130  155.1817 O   0  0  0  0  0  0  0  0  0  0  0  0
  148.3895  138.4124  155.0670 C   0  0  2  0  0  0  0  0  0  0  0  0
  148.7889  136.9436  155.0766 N   0  0  0  0  0  0  0  0  0  0  0  0
  150.1181  136.5472  155.1183 C   0  0  0  0  0  0  0  0  0  0  0  0
  150.4722  135.2461  155.0848 C   0  0  0  0  0  0  0  0  0  0  0  0
  149.4360  134.2249  154.9796 C   0  0  0  0  0  0  0  0  0  0  0  0
  149.7619  133.0396  155.0000 O   0  0  0  0  0  0  0  0  0  0  0  0
  148.1429  134.6375  154.8526 N   0  5  0  0  0  0  0  0  0  0  0  0
  147.7849  135.9549  154.8637 C   0  0  0  0  0  0  0  0  0  0  0  0
  146.6254  136.3284  154.6843 O   0  0  0  0  0  0  0  0  0  0  0  0
  147.7322  138.9425  153.7806 C   0  0  2  0  0  0  0  0  0  0  0  0
  148.3489  138.4973  152.5851 O   0  0  0  0  0  0  0  0  0  0  0  0
  147.9673  140.4435  153.9121 C   0  0  1  0  0  0  0  0  0  0  0  0
  146.7851  141.0597  154.4190 O   0  0  0  0  0  0  0  0  0  0  0  0
  146.6004  142.3981  154.3450 C   0  0  0  0  0  0  0  0  0  0  0  0
  147.4581  143.1922  153.9546 O   0  0  0  0  0  0  0  0  0  0  0  0
  145.2572  142.8211  154.8347 C   0  0  0  0  0  0  0  0  0  0  0  0
  144.4443  141.8874  155.5189 C   0  0  0  0  0  0  0  0  0  0  0  0
  143.1545  142.2445  155.9568 C   0  0  0  0  0  0  0  0  0  0  0  0
  142.6623  143.5407  155.7178 C   0  0  0  0  0  0  0  0  0  0  0  0
  143.4630  144.4803  155.0425 C   0  0  0  0  0  0  0  0  0  0  0  0
  144.7535  144.1253  154.6043 C   0  0  0  0  0  0  0  0  0  0  0  0
  151.2870  141.3811  159.0429 C   0  0  0  0  0  0  0  0  0  0  0  0
  151.9622  140.1526  158.8554 C   0  0  0  0  0  0  0  0  0  0  0  0
  153.1580  139.8790  159.5468 C   0  0  0  0  0  0  0  0  0  0  0  0
  153.6943  140.8316  160.4326 C   0  0  0  0  0  0  0  0  0  0  0  0
  153.0343  142.0592  160.6246 C   0  0  0  0  0  0  0  0  0  0  0  0
  151.8381  142.3345  159.9342 C   0  0  0  0  0  0  0  0  0  0  0  0
  147.9415  140.9916  156.6281 H   0  0  0  0  0  0  0  0  0  0  0  0
  148.8700  142.3639  156.0479 H   0  0  0  0  0  0  0  0  0  0  0  0
  150.0126  141.0252  154.3811 H   0  0  0  0  0  0  0  0  0  0  0  0
  147.7479  138.5299  155.9427 H   0  0  0  0  0  0  0  0  0  0  0  0
  150.9088  137.2796  155.1552 H   0  0  0  0  0  0  0  0  0  0  0  0
  151.5142  134.9628  155.1137 H   0  0  0  0  0  0  0  0  0  0  0  0
  146.6746  138.6758  153.7587 H   0  0  0  0  0  0  0  0  0  0  0  0
  148.9163  139.1848  152.2708 H   0  0  0  0  0  0  0  0  0  0  0  0
  148.2428  140.8590  152.9417 H   0  0  0  0  0  0  0  0  0  0  0  0
  144.7958  140.8828  155.7042 H   0  0  0  0  0  0  0  0  0  0  0  0
  142.5408  141.5209  156.4729 H   0  0  0  0  0  0  0  0  0  0  0  0
  141.6716  143.8132  156.0506 H   0  0  0  0  0  0  0  0  0  0  0  0
  143.0855  145.4749  154.8558 H   0  0  0  0  0  0  0  0  0  0  0  0
  145.3376  144.8676  154.0804 H   0  0  0  0  0  0  0  0  0  0  0  0
  151.5641  139.4020  158.1879 H   0  0  0  0  0  0  0  0  0  0  0  0
  153.6621  138.9352  159.3998 H   0  0  0  0  0  0  0  0  0  0  0  0
  154.6102  140.6206  160.9646 H   0  0  0  0  0  0  0  0  0  0  0  0
  153.4437  142.7905  161.3056 H   0  0  0  0  0  0  0  0  0  0  0  0
  151.3522  143.2828  160.1110 H   0  0  0  0  0  0  0  0  0  0  0  0
  1  2  2  0  0  0  0
  2  3  1  0  0  0  0
  2 28  1  0  0  0  0
  3  4  1  0  0  0  0
  4  5  1  0  0  0  0
  4 34  1  0  0  0  0
  4 35  1  0  0  0  0
  5 18  1  0  0  0  0
  5  6  1  0  0  0  0
  5 36  1  0  0  0  0
  6  7  1  0  0  0  0
  7  8  1  0  0  0  0
  7 16  1  0  0  0  0
  7 37  1  0  0  0  0
  8 14  1  0  0  0  0
  8  9  1  0  0  0  0
  9 10  2  0  0  0  0
  9 38  1  0  0  0  0
 10 11  1  0  0  0  0
 10 39  1  0  0  0  0
 11 12  2  0  0  0  0
 11 13  1  0  0  0  0
 13 14  1  0  0  0  0
 14 15  2  0  0  0  0
 16 17  1  0  0  0  0
 16 18  1  0  0  0  0
 16 40  1  0  0  0  0
 17 41  1  0  0  0  0
 18 19  1  0  0  0  0
 18 42  1  0  0  0  0
 19 20  1  0  0  0  0
 20 21  2  0  0  0  0
 20 22  1  0  0  0  0
 22 27  1  0  0  0  0
 22 23  2  0  0  0  0
 23 24  1  0  0  0  0
 23 43  1  0  0  0  0
 24 25  2  0  0  0  0
 24 44  1  0  0  0  0
 25 26  1  0  0  0  0
 25 45  1  0  0  0  0
 26 27  2  0  0  0  0
 26 46  1  0  0  0  0
 27 47  1  0  0  0  0
 28 33  1  0  0  0  0
 28 29  2  0  0  0  0
 29 30  1  0  0  0  0
 29 48  1  0  0  0  0
 30 31  2  0  0  0  0
 30 49  1  0  0  0  0
 31 32  1  0  0  0  0
 31 50  1  0  0  0  0
 32 33  2  0  0  0  0
 32 51  1  0  0  0  0
 33 52  1  0  0  0  0
M  CHG  1  13  -1
M  END
> <s_m_source_file>
AV-unprocessed.smi

> <i_m_source_file_index>
99

> <i_lp_mmshare_version>
43012

> <i_f3d_flags>
0

> <s_epik_input>
W2NIXTFbY0hdW2NIXVtjSF1bY0hdYzFDKD1PKU9bQ0gyXVtDQEBIXTJPW0NAQEhdKG4zW2NIXVtjSF1jKD1PKVtuSF1jMz1PKVtDQEBIXShbT0hdKVtDQEhdMk9DKD1PKWM0W2NIXVtjSF1bY0hdW2NIXVtjSF00

> <s_epik_cmdline>
J2VwaWtfcHl0aG9uJywgJy1waCcsICc3LjAnLCAnLXRuJywgJzgnLCAnLW1hJywgJzIwMCcsICctbWV0YWxfYmluZGluZycsICctaW1hZScsICc8aW5maWxlLm1hZT4nLCAnLW9tYWUnLCAnPG91dGZpbGUubWFlPic=

> <r_lp_tautomer_probability>
1

> <r_epik_Ionization_Penalty>
2.89159

> <r_epik_Ionization_Penalty_Charging>
2.1077e-08

> <r_epik_Ionization_Penalty_Neutral>
2.89159

> <r_epik_State_Penalty>
2.88671

> <r_epik_Charging_Adjusted_Penalty>
2.88671

> <i_epik_Tot_Q>
-1

> <i_epik_Tot_abs_Q>
1

> <r_epik_Metal_State_Penalty>
0.0727308

> <b_epik_Metal_Only>
1

> <s_epik_Chemistry_Notes>
This compound has an ester and may undergo hydrolysis at high or low pH. This compound contains an acetal/aminal-like group ( X-CH(R)-Y where X, Y are N, S, or O) that may be acid/base labile, releasing an aldehyde.

> <s_lp_Force_Field>
OPLS_2005

> <r_lp_Energy>
52.0393

> <b_lp_Chiralities_Consistent>
1

> <s_lp_Variant>
AV-unprocessed.smi:99-24

> <Gold.Version>
5.8.1

> <Gold.Id.Protein>
6NUR|6NUR_protein|mol2

> <Gold.PLP.Fitness>
47.3233

> <Gold.PLP.PLP>
-44.1852

> <Gold.PLP.part.hbond>
-3.1212

> <Gold.PLP.part.metal>
0.0000

> <Gold.PLP.part.buried>
-4.7454

> <Gold.PLP.part.nonpolar>
-38.7098

> <Gold.PLP.part.repulsive>
2.9907

> <Gold.PLP.ligand.clash>
0.0000

> <Gold.PLP.ligand.torsion>
0.9084

> <Gold.PLP.Chemscore.Hbond>
1.5120

> <Gold.PLP.Chemscore.CHOScore>
0.0000

> <Gold.PLP.Chemscore.Metal>
0.0000

> <Gold.Chemscore.Hbonds>
donor molecule, donor type, donor heavy atom, donor atom, acceptor molecule, acceptor atom, score
      L1  H    17    41       P1  7957  1.00
      P1  H  8022  8030       L1    21  0.59

> <Gold.PLP.Chemscore.Internal.Correction>
0.4189

> <Gold.Rescore>
     Score         DG    S(hbond)    S(metal)    S(lipo)     H(rot)  DE(clash)    DE(int)     intcor
     11.09     -14.91       1.58        0.00     104.14       3.13       1.73       2.09       ----

> <Gold.Chemscore.Fitness>
11.0946

> <Gold.Chemscore.DG>
-14.9150

> <Gold.Chemscore.ZeroCoef>
-5.4800

> <Gold.Chemscore.Hbond>
1.5795

> <Gold.Chemscore.Metal>
0.0000

> <Gold.Chemscore.Lipo>
104.1360

> <Gold.Chemscore.Internal_Hbond>
0.0000

> <Gold.Chemscore.DEClash>
1.7315

> <Gold.Chemscore.DEInternal>
2.0889

> <Gold.Chemscore.Rot>
3.1346

> <Gold.Chemscore.Internal.Correction>
   9.000000E+99

> <Gold.Chemscore.Hbonds>
donor molecule, donor type, donor heavy atom, donor atom, acceptor molecule, acceptor atom, score
      L1  H    17    41       P1  7957  0.92
      P1  H  8022  8030       L1    21  0.59

> <Gold.Chemscore.Hbond.Weighted>
-5.2756

> <Gold.Chemscore.Metal.Weighted>
-0.0000

> <Gold.Chemscore.Lipo.Weighted>
-12.1839

> <Gold.Chemscore.Internal_Hbond.Weighted>
0.0000

> <Gold.Chemscore.DEClash.Weighted>
1.7315

> <Gold.Chemscore.DEInternal.Weighted>
2.0889

> <Gold.Chemscore.Rot.Weighted>
8.0246

> <Gold.Chemscore.Internal.Correction.Weighted>
   9.000000E+99

> <Gold.Protein.RotatedTorsions>
[ 6907 6896 6895 6894 ] final  -58.78 input  -60.11 | X-H torsion
[ 7974 7965 7964 7962 ] final  150.61 input  175.53 | X-H torsion
[ 8008 7997 7996 7995 ] final  -49.31 input   59.86 | X-H torsion
[ 10167 10162 10161 10158 ] final  -50.56 input  -65.29 | X-H torsion
[ 10718 10713 10712 10709 ] final   16.09 input   66.30 | X-H torsion
[ 10763 10752 10751 10750 ] final   49.82 input  -60.55 | X-H torsion
[ 11005 11000 10999 10996 ] final  158.41 input  -57.11 | X-H torsion

> <Gold.Protein.ActiveResidues>
 VAL166  LYS551  ARG553  GLY616  TRP617  ASP618  TYR619  PRO620  LYS621  CYS622 
 ASP623  PHE694  ASN695  SER759  ASP760  ASP761  ALA762  ILE779  LEU786  VAL792 
 PHE793  MET794  SER795  GLU796  ALA797  LYS798  CYS799  TRP800  GLU811  SER814 

> <Gold.Protein.RotatedAtoms>
  150.7981  134.7055  159.6573 H   0  0  0  0  0  0  0  0  0  0  0  0  # atno 6907 bound_to 6896
  152.4095  134.6146  160.0044 H   0  0  0  0  0  0  0  0  0  0  0  0  # atno 6908 bound_to 6896
  151.6393  133.3290  159.3162 H   0  0  0  0  0  0  0  0  0  0  0  0  # atno 6909 bound_to 6896
  144.8352  139.6430  143.6041 H   0  0  0  0  0  0  0  0  0  0  0  0  # atno 7974 bound_to 7965
  154.4042  140.1300  156.4482 H   0  0  0  0  0  0  0  0  0  0  0  0  # atno 8008 bound_to 7997
  155.7392  140.3490  155.5076 H   0  0  0  0  0  0  0  0  0  0  0  0  # atno 8009 bound_to 7997
  155.9055  140.1026  157.1309 H   0  0  0  0  0  0  0  0  0  0  0  0  # atno 8010 bound_to 7997
  140.6632  143.2653  151.4376 H   0  0  0  0  0  0  0  0  0  0  0  0  # atno 10167 bound_to 10162
  157.0628  130.6316  149.5789 H   0  0  0  0  0  0  0  0  0  0  0  0  # atno 10718 bound_to 10713
  152.9786  135.5899  154.4151 H   0  0  0  0  0  0  0  0  0  0  0  0  # atno 10763 bound_to 10752
  154.3782  135.2767  155.2229 H   0  0  0  0  0  0  0  0  0  0  0  0  # atno 10764 bound_to 10752
  154.4154  135.6071  153.6032 H   0  0  0  0  0  0  0  0  0  0  0  0  # atno 10765 bound_to 10752
  140.1863  134.8440  157.2861 H   0  0  0  0  0  0  0  0  0  0  0  0  # atno 11005 bound_to 11000
  146.2651  139.6501  142.9335 LP  0  0  0  0  0  0  0  0  0  0  0  0  # atno 17320 bound_to 7965
  145.4811  141.0438  143.2645 LP  0  0  0  0  0  0  0  0  0  0  0  0  # atno 17321 bound_to 7965
  139.5872  144.1579  152.2043 LP  0  0  0  0  0  0  0  0  0  0  0  0  # atno 17342 bound_to 10162
  140.0922  144.5611  150.7046 LP  0  0  0  0  0  0  0  0  0  0  0  0  # atno 17343 bound_to 10162
  155.9973  130.5044  150.7530 LP  0  0  0  0  0  0  0  0  0  0  0  0  # atno 17370 bound_to 10713
  157.4941  131.0913  151.0393 LP  0  0  0  0  0  0  0  0  0  0  0  0  # atno 17371 bound_to 10713
  140.2210  134.4023  155.7566 LP  0  0  0  0  0  0  0  0  0  0  0  0  # atno 17394 bound_to 11000
  141.2225  133.7166  156.8490 LP  0  0  0  0  0  0  0  0  0  0  0  0  # atno 17395 bound_to 11000

$$$$
