AV-unprocessed.smi:72|AV-procd|sdf|726|dock4
  -GOLD-   2262017 53D 1   1.00000     0.00000
 Structure written by MMmdl.
 28 29  0  0  0  0  0  0  0  0  2 V2000
  152.2553  135.7536  156.6924 N   0  0  0  0  0  0  0  0  0  0  0  0
  151.8295  136.8914  156.3560 C   0  0  0  0  0  0  0  0  0  0  0  0
  150.4782  137.2885  156.6869 N   0  0  0  0  0  0  0  0  0  0  0  0
  150.0825  138.4631  156.3031 C   0  0  0  0  0  0  0  0  0  0  0  0
  150.9508  139.3588  155.5512 N   0  0  0  0  0  0  0  0  0  0  0  0
  150.4856  140.7350  155.1255 C   0  0  1  0  0  0  0  0  0  0  0  0
  149.6051  140.6145  154.0445 O   0  0  0  0  0  0  0  0  0  0  0  0
  148.4417  141.4047  154.2699 C   0  0  1  0  0  0  0  0  0  0  0  0
  147.2494  140.8053  153.5081 C   0  0  0  0  0  0  0  0  0  0  0  0
  146.1498  141.6897  153.5484 O   0  0  0  0  0  0  0  0  0  0  0  0
  148.2903  141.3423  155.7900 C   0  0  2  0  0  0  0  0  0  0  0  0
  147.4659  142.3665  156.3140 O   0  0  0  0  0  0  0  0  0  0  0  0
  149.7327  141.4221  156.2759 C   0  0  2  0  0  0  0  0  0  0  0  0
  150.1824  142.7534  156.4484 O   0  0  0  0  0  0  0  0  0  0  0  0
  152.2837  138.9572  155.2713 C   0  0  0  0  0  0  0  0  0  0  0  0
  153.0182  139.7500  154.6810 O   0  0  0  0  0  0  0  0  0  0  0  0
  152.6930  137.7224  155.6767 N   0  5  0  0  0  0  0  0  0  0  0  0
  151.3764  141.2698  154.7914 H   0  0  0  0  0  0  0  0  0  0  0  0
  148.6372  142.4339  153.9618 H   0  0  0  0  0  0  0  0  0  0  0  0
  147.8743  140.3745  156.0750 H   0  0  0  0  0  0  0  0  0  0  0  0
  149.8711  140.8876  157.2171 H   0  0  0  0  0  0  0  0  0  0  0  0
  151.5580  135.2137  157.1841 H   0  0  0  0  0  0  0  0  0  0  0  0
  149.0870  138.8506  156.5226 H   0  0  0  0  0  0  0  0  0  0  0  0
  147.5141  140.5745  152.4758 H   0  0  0  0  0  0  0  0  0  0  0  0
  146.9347  139.8730  153.9776 H   0  0  0  0  0  0  0  0  0  0  0  0
  145.3603  141.1947  153.3915 H   0  0  0  0  0  0  0  0  0  0  0  0
  147.8912  143.1968  156.1646 H   0  0  0  0  0  0  0  0  0  0  0  0
  149.6299  143.3223  155.9339 H   0  0  0  0  0  0  0  0  0  0  0  0
  1  2  2  0  0  0  0
  1 22  1  0  0  0  0
  2 17  1  0  0  0  0
  2  3  1  0  0  0  0
  3  4  2  0  0  0  0
  4  5  1  0  0  0  0
  4 23  1  0  0  0  0
  5  6  1  0  0  0  0
  5 15  1  0  0  0  0
  6 18  1  0  0  0  0
  6 13  1  0  0  0  0
  6  7  1  0  0  0  0
  7  8  1  0  0  0  0
  8 19  1  0  0  0  0
  8  9  1  0  0  0  0
  8 11  1  0  0  0  0
  9 10  1  0  0  0  0
  9 24  1  0  0  0  0
  9 25  1  0  0  0  0
 10 26  1  0  0  0  0
 11 20  1  0  0  0  0
 11 12  1  0  0  0  0
 11 13  1  0  0  0  0
 12 27  1  0  0  0  0
 13 21  1  0  0  0  0
 13 14  1  0  0  0  0
 14 28  1  0  0  0  0
 15 16  2  0  0  0  0
 15 17  1  0  0  0  0
M  CHG  1  17  -1
M  END
> <s_m_source_file>
AV-unprocessed.smi

> <i_m_source_file_index>
72

> <i_lp_mmshare_version>
43012

> <i_f3d_flags>
0

> <s_epik_input>
W05IMl1jMW5bY0hdbihjKD1PKW4xKVtDQEBIXTJPW0NASF0oW0NIMl1bT0hdKVtDQEBIXShbT0hdKVtDQEhdMltPSF0=

> <s_epik_cmdline>
J2VwaWtfcHl0aG9uJywgJy1waCcsICc3LjAnLCAnLXRuJywgJzgnLCAnLW1hJywgJzIwMCcsICctbWV0YWxfYmluZGluZycsICctaW1hZScsICc8aW5maWxlLm1hZT4nLCAnLW9tYWUnLCAnPG91dGZpbGUubWFlPic=

> <r_lp_tautomer_probability>
7.17554e-07

> <r_epik_Ionization_Penalty>
12.8705

> <r_epik_Ionization_Penalty_Charging>
5.64144

> <r_epik_Ionization_Penalty_Neutral>
7.22905

> <r_epik_State_Penalty>
3.30104

> <r_epik_Charging_Adjusted_Penalty>
8.94249

> <i_epik_Tot_Q>
-1

> <i_epik_Tot_abs_Q>
1

> <r_epik_Metal_State_Penalty>
0.529074

> <b_epik_Metal_Only>
1

> <s_epik_Chemistry_Notes>
This compound contains an acetal/aminal-like group ( X-CH(R)-Y where X, Y are N, S, or O) that may be acid/base labile, releasing an aldehyde.

> <s_lp_Force_Field>
OPLS_2005

> <r_lp_Energy>
36.315

> <b_lp_Chiralities_Consistent>
1

> <s_lp_Variant>
AV-unprocessed.smi:72-64

> <Gold.Version>
5.8.1

> <Gold.Id.Protein>
6NUR|6NUR_protein|mol2

> <Gold.PLP.Fitness>
39.4738

> <Gold.PLP.PLP>
-24.5562

> <Gold.PLP.part.hbond>
-7.8381

> <Gold.PLP.part.metal>
0.0000

> <Gold.PLP.part.buried>
-1.5728

> <Gold.PLP.part.nonpolar>
-16.3868

> <Gold.PLP.part.repulsive>
1.2977

> <Gold.PLP.ligand.clash>
0.0000

> <Gold.PLP.ligand.torsion>
0.4350

> <Gold.PLP.Chemscore.Hbond>
5.2553

> <Gold.PLP.Chemscore.CHOScore>
0.0000

> <Gold.PLP.Chemscore.Metal>
0.0000

> <Gold.Chemscore.Hbonds>
donor molecule, donor type, donor heavy atom, donor atom, acceptor molecule, acceptor atom, score
      L1  H    10    26       P1 10175  1.00
      L1  H    12    27       P1  8028  1.00
      L1  H    14    28       P1  8028  1.00
      P1  H  7989  7998       L1    16  0.28
      P1  H  7997  8008       L1    16  1.00
      P1  H 10752 10765       L1     1  1.00

> <Gold.PLP.Chemscore.Internal.Correction>
0.0219

> <Gold.Rescore>
     Score         DG    S(hbond)    S(metal)    S(lipo)     H(rot)  DE(clash)    DE(int)     intcor
      6.62      -7.31       2.79        0.00      24.31       4.04       0.25       0.43       ----

> <Gold.Chemscore.Fitness>
6.6236

> <Gold.Chemscore.DG>
-7.3092

> <Gold.Chemscore.ZeroCoef>
-5.4800

> <Gold.Chemscore.Hbond>
2.7929

> <Gold.Chemscore.Metal>
0.0000

> <Gold.Chemscore.Lipo>
24.3086

> <Gold.Chemscore.Internal_Hbond>
0.0000

> <Gold.Chemscore.DEClash>
0.2527

> <Gold.Chemscore.DEInternal>
0.4329

> <Gold.Chemscore.Rot>
4.0403

> <Gold.Chemscore.Internal.Correction>
   9.000000E+99

> <Gold.Chemscore.Hbonds>
donor molecule, donor type, donor heavy atom, donor atom, acceptor molecule, acceptor atom, score
      L1  H    10    26       P1 10175  0.32
      L1  H    12    27       P1  8028  0.26
      L1  H    14    28       P1  8028  0.95
      P1  H  7989  7998       L1    16  0.13
      P1  H  7997  8008       L1    16  0.70
      P1  H 10752 10765       L1     1  0.26

> <Gold.Chemscore.Hbond.Weighted>
-9.3281

> <Gold.Chemscore.Metal.Weighted>
-0.0000

> <Gold.Chemscore.Lipo.Weighted>
-2.8441

> <Gold.Chemscore.Internal_Hbond.Weighted>
0.0000

> <Gold.Chemscore.DEClash.Weighted>
0.2527

> <Gold.Chemscore.DEInternal.Weighted>
0.4329

> <Gold.Chemscore.Rot.Weighted>
10.3431

> <Gold.Chemscore.Internal.Correction.Weighted>
   9.000000E+99

> <Gold.Protein.RotatedTorsions>
[ 6907 6896 6895 6894 ] final   -3.64 input  -60.11 | X-H torsion
[ 7974 7965 7964 7962 ] final -177.10 input  175.53 | X-H torsion
[ 8008 7997 7996 7995 ] final  -13.00 input   59.86 | X-H torsion
[ 10167 10162 10161 10158 ] final  -73.12 input  -65.29 | X-H torsion
[ 10718 10713 10712 10709 ] final   32.97 input   66.30 | X-H torsion
[ 10763 10752 10751 10750 ] final -131.85 input  -60.55 | X-H torsion
[ 11005 11000 10999 10996 ] final    1.93 input  -57.11 | X-H torsion

> <Gold.Protein.ActiveResidues>
 VAL166  LYS551  ARG553  GLY616  TRP617  ASP618  TYR619  PRO620  LYS621  CYS622 
 ASP623  PHE694  ASN695  SER759  ASP760  ASP761  ALA762  ILE779  LEU786  VAL792 
 PHE793  MET794  SER795  GLU796  ALA797  LYS798  CYS799  TRP800  GLU811  SER814 

> <Gold.Protein.RotatedAtoms>
  151.5105  135.1065  159.9852 H   0  0  0  0  0  0  0  0  0  0  0  0  # atno 6907 bound_to 6896
  152.4664  133.7928  159.6921 H   0  0  0  0  0  0  0  0  0  0  0  0  # atno 6908 bound_to 6896
  150.8649  133.7525  159.3005 H   0  0  0  0  0  0  0  0  0  0  0  0  # atno 6909 bound_to 6896
  144.7127  140.1070  143.6413 H   0  0  0  0  0  0  0  0  0  0  0  0  # atno 7974 bound_to 7965
  154.5329  140.2261  155.8773 H   0  0  0  0  0  0  0  0  0  0  0  0  # atno 8008 bound_to 7997
  156.1782  140.3106  155.9062 H   0  0  0  0  0  0  0  0  0  0  0  0  # atno 8009 bound_to 7997
  155.3414  140.0450  157.3035 H   0  0  0  0  0  0  0  0  0  0  0  0  # atno 8010 bound_to 7997
  140.5137  143.2341  151.7550 H   0  0  0  0  0  0  0  0  0  0  0  0  # atno 10167 bound_to 10162
  157.2919  130.7307  149.6615 H   0  0  0  0  0  0  0  0  0  0  0  0  # atno 10718 bound_to 10713
  154.8748  135.3816  154.4314 H   0  0  0  0  0  0  0  0  0  0  0  0  # atno 10763 bound_to 10752
  153.5008  135.7030  153.5838 H   0  0  0  0  0  0  0  0  0  0  0  0  # atno 10764 bound_to 10752
  153.4170  135.3910  155.2054 H   0  0  0  0  0  0  0  0  0  0  0  0  # atno 10765 bound_to 10752
  140.6099  133.9758  155.8172 H   0  0  0  0  0  0  0  0  0  0  0  0  # atno 11005 bound_to 11000
  145.9488  139.2719  143.1224 LP  0  0  0  0  0  0  0  0  0  0  0  0  # atno 17320 bound_to 7965
  145.9345  140.9024  143.0339 LP  0  0  0  0  0  0  0  0  0  0  0  0  # atno 17321 bound_to 7965
  139.4903  144.4355  151.9824 LP  0  0  0  0  0  0  0  0  0  0  0  0  # atno 17342 bound_to 10162
  140.3448  144.3160  150.5960 LP  0  0  0  0  0  0  0  0  0  0  0  0  # atno 17343 bound_to 10162
  155.9667  130.4306  150.4884 LP  0  0  0  0  0  0  0  0  0  0  0  0  # atno 17370 bound_to 10713
  157.2848  131.0614  151.2173 LP  0  0  0  0  0  0  0  0  0  0  0  0  # atno 17371 bound_to 10713
  141.0815  134.0055  157.3379 LP  0  0  0  0  0  0  0  0  0  0  0  0  # atno 17394 bound_to 11000
  139.9196  135.0199  156.8015 LP  0  0  0  0  0  0  0  0  0  0  0  0  # atno 17395 bound_to 11000

$$$$
