AV-unprocessed.smi:691|AV-procd|sdf|3365|dock1
  -GOLD-   22720 0343D 1   1.00000     0.00000
 Structure written by MMmdl.
 37 38  0  0  0  0  0  0  0  0  1 V2000
  143.6471  133.4973  151.6388 C   0  0  0  0  0  0  0  0  0  0  0  0
  144.9835  134.2535  151.4421 C   0  0  2  0  0  0  0  0  0  0  0  0
  144.7392  135.5109  150.5651 C   0  0  0  0  0  0  0  0  0  0  0  0
  144.1570  135.1786  149.3204 O   0  0  0  0  0  0  0  0  0  0  0  0
  146.0361  133.3179  150.8218 C   0  0  0  0  0  0  0  0  0  0  0  0
  146.5701  132.4616  151.9727 C   0  0  0  0  0  0  0  0  0  0  0  0
  146.3601  133.2868  153.2489 C   0  0  0  0  0  0  0  0  0  0  0  0
  145.5968  134.5606  152.8375 C   0  0  1  0  0  0  0  0  0  0  0  0
  146.5303  135.6903  152.8227 N   0  0  0  0  0  0  0  0  0  0  0  0
  146.3808  136.8413  153.4946 C   0  0  0  0  0  0  0  0  0  0  0  0
  145.4164  137.0852  154.2186 O   0  0  0  0  0  0  0  0  0  0  0  0
  147.4173  137.6672  153.2704 N   0  0  0  0  0  0  0  0  0  0  0  0
  147.6511  138.9731  153.7831 C   0  0  0  0  0  0  0  0  0  0  0  0
  148.9273  139.4981  154.1038 C   0  0  0  0  0  0  0  0  0  0  0  0
  149.0153  140.8066  154.6174 C   0  0  0  0  0  0  0  0  0  0  0  0
  147.8272  141.5408  154.7966 C   0  0  0  0  0  0  0  0  0  0  0  0
  146.6041  141.0502  154.5063 N   0  0  0  0  0  0  0  0  0  0  0  0
  146.5277  139.7951  154.0149 C   0  0  0  0  0  0  0  0  0  0  0  0
  143.2464  133.1309  150.6934 H   0  0  0  0  0  0  0  0  0  0  0  0
  142.8924  134.1460  152.0844 H   0  0  0  0  0  0  0  0  0  0  0  0
  143.7564  132.6329  152.2940 H   0  0  0  0  0  0  0  0  0  0  0  0
  144.0843  136.2138  151.0811 H   0  0  0  0  0  0  0  0  0  0  0  0
  145.6693  136.0388  150.3544 H   0  0  0  0  0  0  0  0  0  0  0  0
  144.8495  134.9877  148.7063 H   0  0  0  0  0  0  0  0  0  0  0  0
  145.6391  132.7125  150.0061 H   0  0  0  0  0  0  0  0  0  0  0  0
  146.8565  133.9084  150.4115 H   0  0  0  0  0  0  0  0  0  0  0  0
  146.0047  131.5311  152.0385 H   0  0  0  0  0  0  0  0  0  0  0  0
  147.6169  132.1950  151.8230 H   0  0  0  0  0  0  0  0  0  0  0  0
  145.7696  132.7103  153.9621 H   0  0  0  0  0  0  0  0  0  0  0  0
  147.3083  133.5118  153.7395 H   0  0  0  0  0  0  0  0  0  0  0  0
  144.8076  134.7565  153.5659 H   0  0  0  0  0  0  0  0  0  0  0  0
  147.3577  135.5802  152.2551 H   0  0  0  0  0  0  0  0  0  0  0  0
  148.1565  137.2968  152.6910 H   0  0  0  0  0  0  0  0  0  0  0  0
  149.8354  138.9299  153.9811 H   0  0  0  0  0  0  0  0  0  0  0  0
  149.9732  141.2362  154.8711 H   0  0  0  0  0  0  0  0  0  0  0  0
  147.8601  142.5466  155.1890 H   0  0  0  0  0  0  0  0  0  0  0  0
  145.5325  139.4357  153.7968 H   0  0  0  0  0  0  0  0  0  0  0  0
  1  2  1  0  0  0  0
  1 19  1  0  0  0  0
  1 20  1  0  0  0  0
  1 21  1  0  0  0  0
  2  8  1  0  0  0  0
  2  3  1  0  0  0  0
  2  5  1  0  0  0  0
  3  4  1  0  0  0  0
  3 22  1  0  0  0  0
  3 23  1  0  0  0  0
  4 24  1  0  0  0  0
  5  6  1  0  0  0  0
  5 25  1  0  0  0  0
  5 26  1  0  0  0  0
  6  7  1  0  0  0  0
  6 27  1  0  0  0  0
  6 28  1  0  0  0  0
  7  8  1  0  0  0  0
  7 29  1  0  0  0  0
  7 30  1  0  0  0  0
  8  9  1  0  0  0  0
  8 31  1  0  0  0  0
  9 10  1  0  0  0  0
  9 32  1  0  0  0  0
 10 11  2  0  0  0  0
 10 12  1  0  0  0  0
 12 13  1  0  0  0  0
 12 33  1  0  0  0  0
 13 18  1  0  0  0  0
 13 14  2  0  0  0  0
 14 15  1  0  0  0  0
 14 34  1  0  0  0  0
 15 16  2  0  0  0  0
 15 35  1  0  0  0  0
 16 17  1  0  0  0  0
 16 36  1  0  0  0  0
 17 18  2  0  0  0  0
 18 37  1  0  0  0  0
M  END
> <s_m_source_file>
AV-unprocessed.smi

> <i_m_source_file_index>
691

> <i_lp_mmshare_version>
43012

> <i_f3d_flags>
0

> <s_epik_input>
W09IXVtDSDJdW0NAXTEoW0NIM10pW0NIMl1bQ0gyXVtDSDJdW0NASF0xW05IXUMoPU8pW05IXWMyW2NIXVtjSF1bY0hdbltjSF0y

> <s_epik_cmdline>
J2VwaWtfcHl0aG9uJywgJy1waCcsICc3LjAnLCAnLXRuJywgJzgnLCAnLW1hJywgJzIwMCcsICctbWV0YWxfYmluZGluZycsICctaW1hZScsICc8aW5maWxlLm1hZT4nLCAnLW9tYWUnLCAnPG91dGZpbGUubWFlPic=

> <r_epik_Ionization_Penalty>
0.00496828

> <r_epik_Ionization_Penalty_Charging>
0

> <r_epik_Ionization_Penalty_Neutral>
0.00496828

> <r_epik_State_Penalty>
0.00358054

> <r_epik_Charging_Adjusted_Penalty>
0.00358054

> <i_epik_Tot_Q>
0

> <i_epik_Tot_abs_Q>
0

> <r_epik_Metal_State_Penalty>
-0

> <b_epik_Metal_Only>
0

> <s_lp_Force_Field>
OPLS_2005

> <r_lp_Energy>
30.5868

> <b_lp_Chiralities_Consistent>
1

> <s_lp_Variant>
AV-unprocessed.smi:691-2

> <Gold.Version>
5.8.1

> <Gold.Id.Protein>
6NUR|6NUR_protein|mol2

> <Gold.PLP.Fitness>
41.8093

> <Gold.PLP.PLP>
-27.5366

> <Gold.PLP.part.hbond>
-3.4727

> <Gold.PLP.part.metal>
0.0000

> <Gold.PLP.part.buried>
-2.9212

> <Gold.PLP.part.nonpolar>
-22.4821

> <Gold.PLP.part.repulsive>
0.2420

> <Gold.PLP.ligand.clash>
0.0000

> <Gold.PLP.ligand.torsion>
0.2615

> <Gold.PLP.Chemscore.Hbond>
2.9280

> <Gold.PLP.Chemscore.CHOScore>
2.0000

> <Gold.PLP.Chemscore.Metal>
0.0000

> <Gold.Chemscore.Hbonds>
donor molecule, donor type, donor heavy atom, donor atom, acceptor molecule, acceptor atom, score
      L1  H     4    24       P1  7921  1.00
      L1  H     9    32       P1  7948  0.94
      L1  H    12    33       P1  7948  1.00
      L1  C    16    36       P1  8028  1.00
      L1  C    18    37       P1 10175  1.00

> <Gold.PLP.Chemscore.Internal.Correction>
0.0116

> <Gold.Rescore>
     Score         DG    S(hbond)    S(metal)    S(lipo)     H(rot)  DE(clash)    DE(int)     intcor
     16.91     -18.39       2.94        0.00      65.52       1.78       0.03       1.45       ----

> <Gold.Chemscore.Fitness>
16.9149

> <Gold.Chemscore.DG>
-18.3885

> <Gold.Chemscore.ZeroCoef>
-5.4800

> <Gold.Chemscore.Hbond>
2.9369

> <Gold.Chemscore.Metal>
0.0000

> <Gold.Chemscore.Lipo>
65.5198

> <Gold.Chemscore.Internal_Hbond>
0.0000

> <Gold.Chemscore.DEClash>
0.0263

> <Gold.Chemscore.DEInternal>
1.4473

> <Gold.Chemscore.Rot>
1.7838

> <Gold.Chemscore.Internal.Correction>
   9.000000E+99

> <Gold.Chemscore.Hbonds>
donor molecule, donor type, donor heavy atom, donor atom, acceptor molecule, acceptor atom, score
      L1  H     4    24       P1  7921  1.00
      L1  H     9    32       P1  7948  0.91
      L1  H    12    33       P1  7948  0.95

> <Gold.Chemscore.Hbond.Weighted>
-9.8093

> <Gold.Chemscore.Metal.Weighted>
-0.0000

> <Gold.Chemscore.Lipo.Weighted>
-7.6658

> <Gold.Chemscore.Internal_Hbond.Weighted>
0.0000

> <Gold.Chemscore.DEClash.Weighted>
0.0263

> <Gold.Chemscore.DEInternal.Weighted>
1.4473

> <Gold.Chemscore.Rot.Weighted>
4.5666

> <Gold.Chemscore.Internal.Correction.Weighted>
   9.000000E+99

> <Gold.Protein.RotatedTorsions>
[ 6907 6896 6895 6894 ] final -171.06 input  -60.11 | X-H torsion
[ 7974 7965 7964 7962 ] final    9.44 input  175.53 | X-H torsion
[ 8008 7997 7996 7995 ] final  -40.30 input   59.86 | X-H torsion
[ 10167 10162 10161 10158 ] final  -72.67 input  -65.29 | X-H torsion
[ 10718 10713 10712 10709 ] final -120.43 input   66.30 | X-H torsion
[ 10763 10752 10751 10750 ] final  -22.38 input  -60.55 | X-H torsion
[ 11005 11000 10999 10996 ] final   36.17 input  -57.11 | X-H torsion

> <Gold.Protein.ActiveResidues>
 VAL166  LYS551  ARG553  GLY616  TRP617  ASP618  TYR619  PRO620  LYS621  CYS622 
 ASP623  PHE694  ASN695  SER759  ASP760  ASP761  ALA762  ILE779  LEU786  VAL792 
 PHE793  MET794  SER795  GLU796  ALA797  LYS798  CYS799  TRP800  GLU811  SER814 

> <Gold.Protein.RotatedAtoms>
  151.5178  133.3472  159.2895 H   0  0  0  0  0  0  0  0  0  0  0  0  # atno 6907 bound_to 6896
  150.8671  134.8040  159.7138 H   0  0  0  0  0  0  0  0  0  0  0  0  # atno 6908 bound_to 6896
  152.4672  134.5056  159.9790 H   0  0  0  0  0  0  0  0  0  0  0  0  # atno 6909 bound_to 6896
  146.2403  139.9783  142.8439 H   0  0  0  0  0  0  0  0  0  0  0  0  # atno 7974 bound_to 7965
  154.4013  140.1529  156.3004 H   0  0  0  0  0  0  0  0  0  0  0  0  # atno 8008 bound_to 7997
  155.8705  140.3449  155.5796 H   0  0  0  0  0  0  0  0  0  0  0  0  # atno 8009 bound_to 7997
  155.7779  140.0839  157.2065 H   0  0  0  0  0  0  0  0  0  0  0  0  # atno 8010 bound_to 7997
  140.5173  143.2336  151.7491 H   0  0  0  0  0  0  0  0  0  0  0  0  # atno 10167 bound_to 10162
  156.1258  130.6358  150.9539 H   0  0  0  0  0  0  0  0  0  0  0  0  # atno 10718 bound_to 10713
  153.6510  135.6981  153.5209 H   0  0  0  0  0  0  0  0  0  0  0  0  # atno 10763 bound_to 10752
  153.2707  135.4216  155.0984 H   0  0  0  0  0  0  0  0  0  0  0  0  # atno 10764 bound_to 10752
  154.8476  135.3577  154.6054 H   0  0  0  0  0  0  0  0  0  0  0  0  # atno 10765 bound_to 10752
  140.2352  134.3479  155.7947 H   0  0  0  0  0  0  0  0  0  0  0  0  # atno 11005 bound_to 11000
  145.1616  140.9676  143.4374 LP  0  0  0  0  0  0  0  0  0  0  0  0  # atno 17320 bound_to 7965
  145.0111  139.3509  143.6119 LP  0  0  0  0  0  0  0  0  0  0  0  0  # atno 17321 bound_to 7965
  139.4913  144.4306  151.9877 LP  0  0  0  0  0  0  0  0  0  0  0  0  # atno 17342 bound_to 10162
  140.3400  144.3214  150.5969 LP  0  0  0  0  0  0  0  0  0  0  0  0  # atno 17343 bound_to 10162
  157.6439  131.0906  150.8194 LP  0  0  0  0  0  0  0  0  0  0  0  0  # atno 17370 bound_to 10713
  156.8284  130.5007  149.5334 LP  0  0  0  0  0  0  0  0  0  0  0  0  # atno 17371 bound_to 10713
  141.2215  133.7268  156.8797 LP  0  0  0  0  0  0  0  0  0  0  0  0  # atno 17394 bound_to 11000
  140.1709  134.9100  157.2832 LP  0  0  0  0  0  0  0  0  0  0  0  0  # atno 17395 bound_to 11000

$$$$
