AV-unprocessed.smi:287|AV-procd|sdf|2185|dock6
  -GOLD-   2262021563D 1   1.00000     0.00000
 Structure written by MMmdl.
 55 58  0  0  0  0  0  0  0  0  1 V2000
  151.1872  141.7798  157.9081 C   0  0  0  0  0  0  0  0  0  0  0  0
  150.2721  141.1976  156.8860 C   0  0  0  0  0  0  0  0  0  0  0  0
  149.0210  141.5183  156.4452 C   0  0  0  0  0  0  0  0  0  0  0  0
  148.6656  140.5673  155.4417 C   0  0  0  0  0  0  0  0  0  0  0  0
  147.3624  140.5247  154.6543 C   0  0  1  0  0  0  0  0  0  0  0  0
  146.1771  140.3838  155.6229 C   0  0  0  0  0  0  0  0  0  0  0  0
  147.1234  141.7195  153.9354 O   0  0  0  0  0  0  0  0  0  0  0  0
  147.3262  139.3897  153.6045 C   0  0  0  0  0  0  0  0  0  0  0  0
  145.9735  139.0570  153.1702 N   0  0  0  0  0  0  0  0  0  0  0  0
  145.4674  137.8289  153.4067 C   0  0  0  0  0  0  0  0  0  0  0  0
  145.0146  137.4830  154.6402 N   0  0  0  0  0  0  0  0  0  0  0  0
  144.5103  136.2628  154.8474 C   0  0  0  0  0  0  0  0  0  0  0  0
  144.3711  135.2592  153.9783 N   0  0  0  0  0  0  0  0  0  0  0  0
  144.8290  135.6007  152.7390 C   0  0  0  0  0  0  0  0  0  0  0  0
  145.3875  136.8577  152.3760 C   0  0  0  0  0  0  0  0  0  0  0  0
  145.7424  136.8461  151.0336 N   0  0  0  0  0  0  0  0  0  0  0  0
  145.4078  135.6500  150.6295 C   0  0  0  0  0  0  0  0  0  0  0  0
  144.8532  134.8348  151.5914 N   0  0  0  0  0  0  0  0  0  0  0  0
  144.3724  133.4306  151.4286 C   0  0  2  0  0  0  0  0  0  0  0  0
  145.1020  132.6212  152.2947 O   0  0  0  0  0  0  0  0  0  0  0  0
  145.2705  131.3499  151.6876 C   0  0  2  0  0  0  0  0  0  0  0  0
  146.3775  130.5423  152.3886 C   0  0  0  0  0  0  0  0  0  0  0  0
  146.7460  129.4302  151.6009 O   0  0  0  0  0  0  0  0  0  0  0  0
  145.4765  131.6829  150.2017 C   0  0  2  0  0  0  0  0  0  0  0  0
  146.8307  131.9756  149.9144 O   0  0  0  0  0  0  0  0  0  0  0  0
  144.6065  132.9220  149.9933 C   0  0  1  0  0  0  0  0  0  0  0  0
  143.3874  132.5436  149.3859 O   0  0  0  0  0  0  0  0  0  0  0  0
  149.7606  139.7437  155.3378 C   0  0  0  0  0  0  0  0  0  0  0  0
  150.0932  138.5672  154.4808 C   0  0  0  0  0  0  0  0  0  0  0  0
  150.7350  140.1137  156.2149 O   0  0  0  0  0  0  0  0  0  0  0  0
  143.3214  133.4525  151.7218 H   0  0  0  0  0  0  0  0  0  0  0  0
  144.3214  130.8216  151.7979 H   0  0  0  0  0  0  0  0  0  0  0  0
  145.1803  130.8484  149.5644 H   0  0  0  0  0  0  0  0  0  0  0  0
  145.0957  133.6777  149.3759 H   0  0  0  0  0  0  0  0  0  0  0  0
  150.7296  142.6406  158.3959 H   0  0  0  0  0  0  0  0  0  0  0  0
  152.1203  142.1073  157.4495 H   0  0  0  0  0  0  0  0  0  0  0  0
  151.4270  141.0442  158.6761 H   0  0  0  0  0  0  0  0  0  0  0  0
  148.4225  142.3411  156.8071 H   0  0  0  0  0  0  0  0  0  0  0  0
  146.2529  139.4659  156.2072 H   0  0  0  0  0  0  0  0  0  0  0  0
  145.2256  140.3548  155.0904 H   0  0  0  0  0  0  0  0  0  0  0  0
  146.1372  141.2171  156.3257 H   0  0  0  0  0  0  0  0  0  0  0  0
  147.1052  141.5155  153.0131 H   0  0  0  0  0  0  0  0  0  0  0  0
  147.8735  139.7133  152.7179 H   0  0  0  0  0  0  0  0  0  0  0  0
  147.8379  138.5015  153.9790 H   0  0  0  0  0  0  0  0  0  0  0  0
  145.4844  139.7739  152.6530 H   0  0  0  0  0  0  0  0  0  0  0  0
  144.1671  136.0628  155.8518 H   0  0  0  0  0  0  0  0  0  0  0  0
  145.5587  135.3276  149.6097 H   0  0  0  0  0  0  0  0  0  0  0  0
  147.2541  131.1555  152.5988 H   0  0  0  0  0  0  0  0  0  0  0  0
  146.0144  130.1737  153.3482 H   0  0  0  0  0  0  0  0  0  0  0  0
  147.5547  129.6323  151.1556 H   0  0  0  0  0  0  0  0  0  0  0  0
  147.3660  131.2730  150.2529 H   0  0  0  0  0  0  0  0  0  0  0  0
  142.7669  133.2479  149.4954 H   0  0  0  0  0  0  0  0  0  0  0  0
  149.8997  138.7871  153.4308 H   0  0  0  0  0  0  0  0  0  0  0  0
  149.4933  137.7020  154.7624 H   0  0  0  0  0  0  0  0  0  0  0  0
  151.1443  138.2938  154.5767 H   0  0  0  0  0  0  0  0  0  0  0  0
  1  2  1  0  0  0  0
  1 35  1  0  0  0  0
  1 36  1  0  0  0  0
  1 37  1  0  0  0  0
  2 30  1  0  0  0  0
  2  3  2  0  0  0  0
  3  4  1  0  0  0  0
  3 38  1  0  0  0  0
  4  5  1  0  0  0  0
  4 28  2  0  0  0  0
  5  6  1  0  0  0  0
  5  7  1  0  0  0  0
  5  8  1  0  0  0  0
  6 39  1  0  0  0  0
  6 40  1  0  0  0  0
  6 41  1  0  0  0  0
  7 42  1  0  0  0  0
  8  9  1  0  0  0  0
  8 43  1  0  0  0  0
  8 44  1  0  0  0  0
  9 10  1  0  0  0  0
  9 45  1  0  0  0  0
 10 15  1  0  0  0  0
 10 11  2  0  0  0  0
 11 12  1  0  0  0  0
 12 13  2  0  0  0  0
 12 46  1  0  0  0  0
 13 14  1  0  0  0  0
 14 18  1  0  0  0  0
 14 15  2  0  0  0  0
 15 16  1  0  0  0  0
 16 17  2  0  0  0  0
 17 18  1  0  0  0  0
 17 47  1  0  0  0  0
 18 19  1  0  0  0  0
 19 31  1  0  0  0  0
 19 26  1  0  0  0  0
 19 20  1  0  0  0  0
 20 21  1  0  0  0  0
 21 32  1  0  0  0  0
 21 22  1  0  0  0  0
 21 24  1  0  0  0  0
 22 23  1  0  0  0  0
 22 48  1  0  0  0  0
 22 49  1  0  0  0  0
 23 50  1  0  0  0  0
 24 33  1  0  0  0  0
 24 25  1  0  0  0  0
 24 26  1  0  0  0  0
 25 51  1  0  0  0  0
 26 34  1  0  0  0  0
 26 27  1  0  0  0  0
 27 52  1  0  0  0  0
 28 29  1  0  0  0  0
 28 30  1  0  0  0  0
 29 53  1  0  0  0  0
 29 54  1  0  0  0  0
 29 55  1  0  0  0  0
M  END
> <s_m_source_file>
AV-unprocessed.smi

> <i_m_source_file_index>
287

> <i_lp_mmshare_version>
43012

> <i_f3d_flags>
0

> <s_epik_input>
W0NIM11jMVtjSF1jKGMobzEpW0NIM10pW0NAQF0oW0NIM10pKFtPSF0pW0NIMl1bTkhdYyhuW2NIXW4yKWMoYzIzKW5bY0hdbjNbQ0BASF00T1tDQEhdKFtDSDJdW09IXSlbQ0BASF0oW09IXSlbQ0BIXTRbT0hd

> <s_epik_cmdline>
J2VwaWtfcHl0aG9uJywgJy1waCcsICc3LjAnLCAnLXRuJywgJzgnLCAnLW1hJywgJzIwMCcsICctbWV0YWxfYmluZGluZycsICctaW1hZScsICc8aW5maWxlLm1hZT4nLCAnLW9tYWUnLCAnPG91dGZpbGUubWFlPic=

> <r_lp_tautomer_probability>
1

> <r_epik_Ionization_Penalty>
0.000992612

> <r_epik_Ionization_Penalty_Charging>
0

> <r_epik_Ionization_Penalty_Neutral>
0.000992612

> <r_epik_State_Penalty>
-0

> <r_epik_Charging_Adjusted_Penalty>
0

> <i_epik_Tot_Q>
0

> <i_epik_Tot_abs_Q>
0

> <r_epik_Metal_State_Penalty>
-0

> <b_epik_Metal_Only>
0

> <s_epik_Chemistry_Notes>
This compound contains an acetal/aminal-like group ( X-CH(R)-Y where X, Y are N, S, or O) that may be acid/base labile, releasing an aldehyde.

> <s_lp_Force_Field>
OPLS_2005

> <r_lp_Energy>
37.4731

> <b_lp_Chiralities_Consistent>
1

> <s_lp_Variant>
AV-unprocessed.smi:287-9

> <Gold.Version>
5.8.1

> <Gold.Id.Protein>
6NUR|6NUR_protein|mol2

> <Gold.PLP.Fitness>
55.0352

> <Gold.PLP.PLP>
-42.7792

> <Gold.PLP.part.hbond>
-4.2589

> <Gold.PLP.part.metal>
0.0000

> <Gold.PLP.part.buried>
-9.8554

> <Gold.PLP.part.nonpolar>
-31.1910

> <Gold.PLP.part.repulsive>
2.9067

> <Gold.PLP.ligand.clash>
0.0000

> <Gold.PLP.ligand.torsion>
1.0669

> <Gold.PLP.Chemscore.Hbond>
3.7440

> <Gold.PLP.Chemscore.CHOScore>
1.0000

> <Gold.PLP.Chemscore.Metal>
0.0000

> <Gold.Chemscore.Hbonds>
donor molecule, donor type, donor heavy atom, donor atom, acceptor molecule, acceptor atom, score
      L1  H     9    45       P1 10175  0.78
      L1  H    23    50       P1 10747  0.98
      L1  H    25    51       P1 10747  0.75
      L1  H    27    52       P1 10186  0.80
      L1  C    17    47       P1  7921  1.00

> <Gold.PLP.Chemscore.Internal.Correction>
0.1578

> <Gold.Rescore>
     Score         DG    S(hbond)    S(metal)    S(lipo)     H(rot)  DE(clash)    DE(int)     intcor
     11.97     -15.55       3.77        0.00      93.71       5.27       1.44       2.14       ----

> <Gold.Chemscore.Fitness>
11.9735

> <Gold.Chemscore.DG>
-15.5535

> <Gold.Chemscore.ZeroCoef>
-5.4800

> <Gold.Chemscore.Hbond>
3.7705

> <Gold.Chemscore.Metal>
0.0000

> <Gold.Chemscore.Lipo>
93.7084

> <Gold.Chemscore.Internal_Hbond>
0.0000

> <Gold.Chemscore.DEClash>
1.4360

> <Gold.Chemscore.DEInternal>
2.1440

> <Gold.Chemscore.Rot>
5.2672

> <Gold.Chemscore.Internal.Correction>
   9.000000E+99

> <Gold.Chemscore.Hbonds>
donor molecule, donor type, donor heavy atom, donor atom, acceptor molecule, acceptor atom, score
      L1  H     9    45       P1 10175  0.77
      L1  H    23    50       P1 10747  0.89
      L1  H    25    51       P1 10747  0.74
      L1  H    27    52       P1 10186  0.79
      P1  H 10785 10796       L1    27  0.01

> <Gold.Chemscore.Hbond.Weighted>
-12.5935

> <Gold.Chemscore.Metal.Weighted>
-0.0000

> <Gold.Chemscore.Lipo.Weighted>
-10.9639

> <Gold.Chemscore.Internal_Hbond.Weighted>
0.0000

> <Gold.Chemscore.DEClash.Weighted>
1.4360

> <Gold.Chemscore.DEInternal.Weighted>
2.1440

> <Gold.Chemscore.Rot.Weighted>
13.4839

> <Gold.Chemscore.Internal.Correction.Weighted>
   9.000000E+99

> <Gold.Protein.RotatedTorsions>
[ 6907 6896 6895 6894 ] final -102.29 input  -60.11 | X-H torsion
[ 7974 7965 7964 7962 ] final    9.24 input  175.53 | X-H torsion
[ 8008 7997 7996 7995 ] final -115.33 input   59.86 | X-H torsion
[ 10167 10162 10161 10158 ] final  136.26 input  -65.29 | X-H torsion
[ 10718 10713 10712 10709 ] final  -64.99 input   66.30 | X-H torsion
[ 10763 10752 10751 10750 ] final -139.56 input  -60.55 | X-H torsion
[ 11005 11000 10999 10996 ] final  -92.41 input  -57.11 | X-H torsion

> <Gold.Protein.ActiveResidues>
 VAL166  LYS551  ARG553  GLY616  TRP617  ASP618  TYR619  PRO620  LYS621  CYS622 
 ASP623  PHE694  ASN695  SER759  ASP760  ASP761  ALA762  ILE779  LEU786  VAL792 
 PHE793  MET794  SER795  GLU796  ALA797  LYS798  CYS799  TRP800  GLU811  SER814 

> <Gold.Protein.RotatedAtoms>
  150.7190  134.0604  159.3828 H   0  0  0  0  0  0  0  0  0  0  0  0  # atno 6907 bound_to 6896
  151.8583  135.0531  160.0476 H   0  0  0  0  0  0  0  0  0  0  0  0  # atno 6908 bound_to 6896
  152.2737  133.5370  159.5491 H   0  0  0  0  0  0  0  0  0  0  0  0  # atno 6909 bound_to 6896
  146.2406  139.9813  142.8436 H   0  0  0  0  0  0  0  0  0  0  0  0  # atno 7974 bound_to 7965
  155.0504  140.0393  157.2541 H   0  0  0  0  0  0  0  0  0  0  0  0  # atno 8008 bound_to 7997
  154.7142  140.2699  155.6577 H   0  0  0  0  0  0  0  0  0  0  0  0  # atno 8009 bound_to 7997
  156.2798  140.2715  156.1794 H   0  0  0  0  0  0  0  0  0  0  0  0  # atno 8010 bound_to 7997
  139.5186  144.6474  151.5402 H   0  0  0  0  0  0  0  0  0  0  0  0  # atno 10167 bound_to 10162
  156.0696  130.4241  150.1499 H   0  0  0  0  0  0  0  0  0  0  0  0  # atno 10718 bound_to 10713
  154.8605  135.3579  154.5566 H   0  0  0  0  0  0  0  0  0  0  0  0  # atno 10763 bound_to 10752
  153.6183  135.7007  153.5325 H   0  0  0  0  0  0  0  0  0  0  0  0  # atno 10764 bound_to 10752
  153.3150  135.4167  155.1329 H   0  0  0  0  0  0  0  0  0  0  0  0  # atno 10765 bound_to 10752
  141.1522  133.7819  157.0016 H   0  0  0  0  0  0  0  0  0  0  0  0  # atno 11005 bound_to 11000
  145.1589  140.9662  143.4389 LP  0  0  0  0  0  0  0  0  0  0  0  0  # atno 17320 bound_to 7965
  145.0135  139.3488  143.6108 LP  0  0  0  0  0  0  0  0  0  0  0  0  # atno 17321 bound_to 7965
  140.6264  143.9160  150.6568 LP  0  0  0  0  0  0  0  0  0  0  0  0  # atno 17342 bound_to 10162
  140.2450  143.3635  152.1454 LP  0  0  0  0  0  0  0  0  0  0  0  0  # atno 17343 bound_to 10162
  156.9552  130.9787  151.3490 LP  0  0  0  0  0  0  0  0  0  0  0  0  # atno 17370 bound_to 10713
  157.5759  130.8343  149.8455 LP  0  0  0  0  0  0  0  0  0  0  0  0  # atno 17371 bound_to 10713
  140.0936  134.9578  157.1815 LP  0  0  0  0  0  0  0  0  0  0  0  0  # atno 17394 bound_to 11000
  140.3412  134.2701  155.7212 LP  0  0  0  0  0  0  0  0  0  0  0  0  # atno 17395 bound_to 11000

$$$$
