AV-unprocessed.smi:1395|AV-procd|sdf|5673|dock4
  -GOLD-   22720 5293D 1   1.00000     0.00000
 Structure written by MMmdl.
 42 43  0  0  0  0  0  0  0  0  3 V2000
  153.2663  140.7898  159.6521 C   0  0  0  0  0  0  0  0  0  0  0  0
  152.4348  142.0601  159.5775 C   0  0  0  0  0  0  0  0  0  0  0  0
  152.7639  143.1503  160.4109 C   0  0  0  0  0  0  0  0  0  0  0  0
  151.9933  144.3237  160.3415 C   0  0  0  0  0  0  0  0  0  0  0  0
  150.9193  144.3570  159.4358 C   0  0  0  0  0  0  0  0  0  0  0  0
  150.5981  143.3201  158.6355 N   0  0  0  0  0  0  0  0  0  0  0  0
  151.3307  142.1796  158.6912 C   0  0  0  0  0  0  0  0  0  0  0  0
  151.0537  141.0492  157.8715 N   0  0  0  0  0  0  0  0  0  0  0  0
  150.4874  141.0195  156.6521 C   0  0  0  0  0  0  0  0  0  0  0  0
  150.0410  141.9946  156.0475 O   0  0  0  0  0  0  0  0  0  0  0  0
  150.4628  139.7718  156.1608 N   0  0  0  0  0  0  0  0  0  0  0  0
  149.9249  139.3832  154.8569 C   0  0  2  0  0  0  0  0  0  0  0  0
  148.7449  138.4121  155.0334 C   0  0  0  0  0  0  0  0  0  0  0  0
  149.2052  137.0297  155.5332 C   0  0  0  0  0  0  0  0  0  0  0  0
  150.2389  136.4441  154.6413 N   0  3  2  0  0  0  0  0  0  0  0  0
  150.6090  135.0648  155.0466 C   0  0  0  0  0  0  0  0  0  0  0  0
  151.2949  135.0776  156.4166 C   0  0  0  0  0  0  0  0  0  0  0  0
  152.6231  135.2828  156.3260 N   0  5  0  0  0  0  0  0  0  0  0  0
  150.6254  134.8945  157.4311 O   0  0  0  0  0  0  0  0  0  0  0  0
  151.4144  137.3446  154.4926 C   0  0  0  0  0  0  0  0  0  0  0  0
  150.9940  138.7256  153.9618 C   0  0  0  0  0  0  0  0  0  0  0  0
  154.0798  140.8897  160.3713 H   0  0  0  0  0  0  0  0  0  0  0  0
  153.7047  140.5621  158.6802 H   0  0  0  0  0  0  0  0  0  0  0  0
  152.6471  139.9470  159.9608 H   0  0  0  0  0  0  0  0  0  0  0  0
  153.5966  143.0919  161.0965 H   0  0  0  0  0  0  0  0  0  0  0  0
  152.2194  145.1753  160.9659 H   0  0  0  0  0  0  0  0  0  0  0  0
  150.3018  145.2388  159.3499 H   0  0  0  0  0  0  0  0  0  0  0  0
  151.3407  140.1605  158.2536 H   0  0  0  0  0  0  0  0  0  0  0  0
  150.8447  139.0327  156.7324 H   0  0  0  0  0  0  0  0  0  0  0  0
  149.5556  140.2850  154.3651 H   0  0  0  0  0  0  0  0  0  0  0  0
  148.0076  138.8321  155.7187 H   0  0  0  0  0  0  0  0  0  0  0  0
  148.2343  138.2919  154.0769 H   0  0  0  0  0  0  0  0  0  0  0  0
  149.6005  137.1037  156.5474 H   0  0  0  0  0  0  0  0  0  0  0  0
  148.3424  136.3643  155.5796 H   0  0  0  0  0  0  0  0  0  0  0  0
  149.7349  134.4106  155.0175 H   0  0  0  0  0  0  0  0  0  0  0  0
  151.3282  134.6501  154.3389 H   0  0  0  0  0  0  0  0  0  0  0  0
  153.1817  135.3173  157.1870 H   0  0  0  0  0  0  0  0  0  0  0  0
  151.9221  137.4464  155.4529 H   0  0  0  0  0  0  0  0  0  0  0  0
  152.1380  136.9105  153.8025 H   0  0  0  0  0  0  0  0  0  0  0  0
  150.5944  138.6110  152.9534 H   0  0  0  0  0  0  0  0  0  0  0  0
  151.8688  139.3693  153.8636 H   0  0  0  0  0  0  0  0  0  0  0  0
  149.8159  136.3596  153.7278 H   0  0  0  0  0  0  0  0  0  0  0  0
  1  2  1  0  0  0  0
  1 22  1  0  0  0  0
  1 23  1  0  0  0  0
  1 24  1  0  0  0  0
  2  7  1  0  0  0  0
  2  3  2  0  0  0  0
  3  4  1  0  0  0  0
  3 25  1  0  0  0  0
  4  5  2  0  0  0  0
  4 26  1  0  0  0  0
  5  6  1  0  0  0  0
  5 27  1  0  0  0  0
  6  7  2  0  0  0  0
  7  8  1  0  0  0  0
  8  9  1  0  0  0  0
  8 28  1  0  0  0  0
  9 10  2  0  0  0  0
  9 11  1  0  0  0  0
 11 12  1  0  0  0  0
 11 29  1  0  0  0  0
 12 21  1  0  0  0  0
 12 13  1  0  0  0  0
 12 30  1  0  0  0  0
 13 14  1  0  0  0  0
 13 31  1  0  0  0  0
 13 32  1  0  0  0  0
 14 15  1  0  0  0  0
 14 33  1  0  0  0  0
 14 34  1  0  0  0  0
 15 16  1  0  0  0  0
 15 20  1  0  0  0  0
 15 42  1  0  0  0  0
 16 17  1  0  0  0  0
 16 35  1  0  0  0  0
 16 36  1  0  0  0  0
 17 18  1  0  0  0  0
 17 19  2  0  0  0  0
 18 37  1  0  0  0  0
 20 21  1  0  0  0  0
 20 38  1  0  0  0  0
 20 39  1  0  0  0  0
 21 40  1  0  0  0  0
 21 41  1  0  0  0  0
M  CHG  1  15   1
M  CHG  1  18  -1
M  END
> <s_m_source_file>
AV-unprocessed.smi

> <i_m_source_file_index>
1395

> <i_lp_mmshare_version>
43012

> <i_f3d_flags>
0

> <s_epik_input>
W0NIM11jMVtjSF1bY0hdW2NIXW5jMVtOSF1DKD1PKVtOSF1bQ0hdMltDSDJdW0NIMl1OKFtDSDJdW0NIMl0yKVtDSDJdQyg9TylbTkgyXQ==

> <s_epik_cmdline>
J2VwaWtfcHl0aG9uJywgJy1waCcsICc3LjAnLCAnLXRuJywgJzgnLCAnLW1hJywgJzIwMCcsICctbWV0YWxfYmluZGluZycsICctaW1hZScsICc8aW5maWxlLm1hZT4nLCAnLW9tYWUnLCAnPG91dGZpbGUubWFlPic=

> <r_epik_Ionization_Penalty>
5.72885

> <r_epik_Ionization_Penalty_Charging>
5.7288

> <r_epik_Ionization_Penalty_Neutral>
4.54304e-05

> <r_epik_State_Penalty>
6.54882

> <r_epik_Charging_Adjusted_Penalty>
12.2776

> <i_epik_Tot_Q>
0

> <i_epik_Tot_abs_Q>
2

> <r_epik_Metal_State_Penalty>
2.51297

> <b_epik_Metal_Only>
1

> <s_lp_Force_Field>
OPLS_2005

> <r_lp_Energy>
8.5501

> <b_lp_Chiralities_Consistent>
1

> <s_lp_Variant>
AV-unprocessed.smi:1395-5

> <Gold.Version>
5.8.1

> <Gold.Id.Protein>
6NUR|6NUR_protein|mol2

> <Gold.PLP.Fitness>
49.1290

> <Gold.PLP.PLP>
-35.7532

> <Gold.PLP.part.hbond>
-2.9713

> <Gold.PLP.part.metal>
0.0000

> <Gold.PLP.part.buried>
-6.2508

> <Gold.PLP.part.nonpolar>
-27.8486

> <Gold.PLP.part.repulsive>
0.6158

> <Gold.PLP.ligand.clash>
0.0000

> <Gold.PLP.ligand.torsion>
0.5453

> <Gold.PLP.Chemscore.Hbond>
4.8130

> <Gold.PLP.Chemscore.CHOScore>
0.0000

> <Gold.PLP.Chemscore.Metal>
0.0000

> <Gold.Chemscore.Hbonds>
donor molecule, donor type, donor heavy atom, donor atom, acceptor molecule, acceptor atom, score
      L1  H    15    42       P1  7948  2.00
      P1  H  6896  6908       L1    19  0.45
      P1  H 10752 10764       L1    18  0.88

> <Gold.PLP.Chemscore.Internal.Correction>
0.0274

> <Gold.Rescore>
     Score         DG    S(hbond)    S(metal)    S(lipo)     H(rot)  DE(clash)    DE(int)     intcor
     16.50     -18.05       2.22        0.00      86.24       1.93       0.04       1.50       ----

> <Gold.Chemscore.Fitness>
16.4991

> <Gold.Chemscore.DG>
-18.0456

> <Gold.Chemscore.ZeroCoef>
-5.4800

> <Gold.Chemscore.Hbond>
2.2235

> <Gold.Chemscore.Metal>
0.0000

> <Gold.Chemscore.Lipo>
86.2406

> <Gold.Chemscore.Internal_Hbond>
0.0000

> <Gold.Chemscore.DEClash>
0.0436

> <Gold.Chemscore.DEInternal>
1.5029

> <Gold.Chemscore.Rot>
1.9341

> <Gold.Chemscore.Internal.Correction>
   9.000000E+99

> <Gold.Chemscore.Hbonds>
donor molecule, donor type, donor heavy atom, donor atom, acceptor molecule, acceptor atom, score
      L1  H    15    42       P1  7948  0.28
      P1  H  6896  6908       L1    19  0.43
      P1  H 10752 10764       L1    18  0.40

> <Gold.Chemscore.Hbond.Weighted>
-7.4266

> <Gold.Chemscore.Metal.Weighted>
-0.0000

> <Gold.Chemscore.Lipo.Weighted>
-10.0901

> <Gold.Chemscore.Internal_Hbond.Weighted>
0.0000

> <Gold.Chemscore.DEClash.Weighted>
0.0436

> <Gold.Chemscore.DEInternal.Weighted>
1.5029

> <Gold.Chemscore.Rot.Weighted>
4.9512

> <Gold.Chemscore.Internal.Correction.Weighted>
   9.000000E+99

> <Gold.Protein.RotatedTorsions>
[ 6907 6896 6895 6894 ] final  148.17 input  -60.11 | X-H torsion
[ 7974 7965 7964 7962 ] final  -89.88 input  175.53 | X-H torsion
[ 8008 7997 7996 7995 ] final   73.52 input   59.86 | X-H torsion
[ 10167 10162 10161 10158 ] final    4.51 input  -65.29 | X-H torsion
[ 10718 10713 10712 10709 ] final -119.93 input   66.30 | X-H torsion
[ 10763 10752 10751 10750 ] final  -17.29 input  -60.55 | X-H torsion
[ 11005 11000 10999 10996 ] final -113.82 input  -57.11 | X-H torsion

> <Gold.Protein.ActiveResidues>
 VAL166  LYS551  ARG553  GLY616  TRP617  ASP618  TYR619  PRO620  LYS621  CYS622 
 ASP623  PHE694  ASN695  SER759  ASP760  ASP761  ALA762  ILE779  LEU786  VAL792 
 PHE793  MET794  SER795  GLU796  ALA797  LYS798  CYS799  TRP800  GLU811  SER814 

> <Gold.Protein.RotatedAtoms>
  152.1451  133.4487  159.4785 H   0  0  0  0  0  0  0  0  0  0  0  0  # atno 6907 bound_to 6896
  150.6890  134.2258  159.4424 H   0  0  0  0  0  0  0  0  0  0  0  0  # atno 6908 bound_to 6896
  152.0151  134.9854  160.0620 H   0  0  0  0  0  0  0  0  0  0  0  0  # atno 6909 bound_to 6896
  145.4339  140.9557  143.2112 H   0  0  0  0  0  0  0  0  0  0  0  0  # atno 7974 bound_to 7965
  155.7849  140.3481  155.5317 H   0  0  0  0  0  0  0  0  0  0  0  0  # atno 8008 bound_to 7997
  155.8692  140.0984  157.1582 H   0  0  0  0  0  0  0  0  0  0  0  0  # atno 8009 bound_to 7997
  154.4016  140.1344  156.4044 H   0  0  0  0  0  0  0  0  0  0  0  0  # atno 8010 bound_to 7997
  140.6531  143.7495  150.7608 H   0  0  0  0  0  0  0  0  0  0  0  0  # atno 10167 bound_to 10162
  156.1219  130.6330  150.9478 H   0  0  0  0  0  0  0  0  0  0  0  0  # atno 10718 bound_to 10713
  153.5716  135.7007  153.5502 H   0  0  0  0  0  0  0  0  0  0  0  0  # atno 10763 bound_to 10752
  153.3339  135.4039  155.1518 H   0  0  0  0  0  0  0  0  0  0  0  0  # atno 10764 bound_to 10752
  154.8632  135.3725  154.5239 H   0  0  0  0  0  0  0  0  0  0  0  0  # atno 10765 bound_to 10752
  141.0590  133.9565  157.2701 H   0  0  0  0  0  0  0  0  0  0  0  0  # atno 11005 bound_to 11000
  144.8165  139.5868  143.7006 LP  0  0  0  0  0  0  0  0  0  0  0  0  # atno 17320 bound_to 7965
  146.2592  139.6372  142.9373 LP  0  0  0  0  0  0  0  0  0  0  0  0  # atno 17321 bound_to 7965
  140.1149  143.4665  152.2348 LP  0  0  0  0  0  0  0  0  0  0  0  0  # atno 17342 bound_to 10162
  139.5749  144.7482  151.3791 LP  0  0  0  0  0  0  0  0  0  0  0  0  # atno 17343 bound_to 10162
  157.6402  131.0911  150.8266 LP  0  0  0  0  0  0  0  0  0  0  0  0  # atno 17370 bound_to 10713
  156.8362  130.5032  149.5326 LP  0  0  0  0  0  0  0  0  0  0  0  0  # atno 17371 bound_to 10713
  139.9416  135.0190  156.8725 LP  0  0  0  0  0  0  0  0  0  0  0  0  # atno 17394 bound_to 11000
  140.5906  134.0266  155.7498 LP  0  0  0  0  0  0  0  0  0  0  0  0  # atno 17395 bound_to 11000

$$$$
