#       Name:                AV-unprocessed.smi:102
#       Creating user name   scv26
#       Creation time:       Thu Mar 26 17:46:58 2020


#       File generated by GOLD software.
#

@<TRIPOS>MOLECULE
AV-unprocessed.smi:102
    56    57     1
SMALL
NO_CHARGES


@<TRIPOS>ATOM
      1 ****        -2.7819   3.9807  -1.7157 C.3            1 S1                 0.0000
      2 ****        -2.4718   2.5329  -1.3589 C.2            1 S1                 0.0000
      3 ****        -3.2719   1.8405  -0.7296 O.2            1 S1                 0.0000
      4 ****        -1.2660   2.1427  -1.8007 O.3            1 S1                 0.0000
      5 ****        -0.8103   0.8267  -1.5315 C.3            1 S1                 0.0000
      6 ****         0.7132   0.7632  -1.7489 C.3            1 S1                 0.0000
      7 ****         1.3680   1.4923  -0.7101 O.3            1 S1                 0.0000
      8 ****         1.8486   0.6408   0.2939 C.3            1 S1                 0.0000
      9 ****         1.2420   1.0244   1.6296 N.am           1 S1                 0.0000
     10 ****         0.1567   1.8854   1.7400 C.2            1 S1                 0.0000
     11 ****        -0.4054   2.2127   2.9274 C.2            1 S1                 0.0000
     12 ****        -1.4553   3.0510   2.9547 F              1 S1                 0.0000
     13 ****         0.1186   1.6668   4.1759 C.2            1 S1                 0.0000
     14 ****        -0.3258   1.9007   5.2980 O.2            1 S1                 0.0000
     15 ****         1.2163   0.8160   4.0181 N.am           1 S1                 0.0000
     16 ****         1.8048   0.4708   2.8006 C.2            1 S1                 0.0000
     17 ****         2.7674  -0.2947   2.7743 O.2            1 S1                 0.0000
     18 ****         1.5155  -0.8064  -0.1255 C.3            1 S1                 0.0000
     19 ****         0.3246  -1.2650   0.5169 O.3            1 S1                 0.0000
     20 ****         0.2530  -2.5000   1.0410 C.2            1 S1                 0.0000
     21 ****        -1.0887  -2.7657   1.7097 C.3            1 S1                 0.0000
     22 ****         1.1378  -3.3549   1.0139 O.2            1 S1                 0.0000
     23 ****         1.3186  -0.6373  -1.6258 C.3            1 S1                 0.0000
     24 ****         0.5280  -1.6576  -2.2266 O.3            1 S1                 0.0000
     25 ****         1.0870  -2.8291  -2.5775 C.2            1 S1                 0.0000
     26 ****         0.0783  -3.7947  -3.1846 C.3            1 S1                 0.0000
     27 ****         2.2693  -3.1396  -2.4329 O.2            1 S1                 0.0000
     28 ****         1.6143   0.4159   4.8552 H              1 S1                 0.0000
     29 ****        -1.9061   4.6094  -1.5543 H              1 S1                 0.0000
     30 ****        -3.5958   4.3603  -1.0976 H              1 S1                 0.0000
     31 ****        -3.0768   4.0573  -2.7621 H              1 S1                 0.0000
     32 ****        -1.0687   0.5290  -0.5153 H              1 S1                 0.0000
     33 ****        -1.3211   0.1425  -2.2096 H              1 S1                 0.0000
     34 ****         0.9579   1.1926  -2.7210 H              1 S1                 0.0000
     35 ****         2.9208   0.8191   0.3950 H              1 S1                 0.0000
     36 ****        -0.2767   2.3292   0.8579 H              1 S1                 0.0000
     37 ****         2.3695  -1.4467   0.0999 H              1 S1                 0.0000
     38 ****        -1.8869  -2.2306   1.1948 H              1 S1                 0.0000
     39 ****        -1.0634  -2.4346   2.7481 H              1 S1                 0.0000
     40 ****        -1.3196  -3.8308   1.6903 H              1 S1                 0.0000
     41 ****         2.3011  -0.6058  -2.1001 H              1 S1                 0.0000
     42 ****        -0.5314  -3.2888  -3.9333 H              1 S1                 0.0000
     43 ****        -0.5788  -4.1885  -2.4090 H              1 S1                 0.0000
     44 ****         0.5890  -4.6310  -3.6626 H              1 S1                 0.0000
     45 ****        -4.1481   2.2264  -0.4410 LP             1 S1                 0.0000
     46 ****        -3.0455   0.8922  -0.5072 LP             1 S1                 0.0000
     47 ****         0.7181   2.1359  -0.3061 LP             1 S1                 0.0000
     48 ****         2.1367   1.9971  -1.1029 LP             1 S1                 0.0000
     49 ****        -1.1107   2.5104   5.4079 LP             1 S1                 0.0000
     50 ****         0.0977   1.4812   6.1010 LP             1 S1                 0.0000
     51 ****         3.1818  -0.5471   1.8998 LP             1 S1                 0.0000
     52 ****         3.1356  -0.6646   3.6273 LP             1 S1                 0.0000
     53 ****         2.0116  -3.1563   0.5698 LP             1 S1                 0.0000
     54 ****         0.9831  -4.2482   1.4359 LP             1 S1                 0.0000
     55 ****         2.9097  -2.4916  -2.0207 LP             1 S1                 0.0000
     56 ****         2.5895  -4.0399  -2.7278 LP             1 S1                 0.0000
@<TRIPOS>BOND
    1    1    2 1     
    2    1   29 1     
    3    1   30 1     
    4    1   31 1     
    5    2    3 2     
    6    2    4 1     
    7    4    5 1     
    8    5    6 1     
    9    5   32 1     
   10    5   33 1     
   11    6   23 1     
   12    6    7 1     
   13    6   34 1     
   14    7    8 1     
   15    8    9 1     
   16    8   18 1     
   17    8   35 1     
   18    9   16 1     
   19    9   10 1     
   20   10   11 2     
   21   10   36 1     
   22   11   12 1     
   23   11   13 1     
   24   13   14 2     
   25   13   15 1     
   26   15   28 1     
   27   15   16 1     
   28   16   17 2     
   29   18   19 1     
   30   18   23 1     
   31   18   37 1     
   32   19   20 1     
   33   20   21 1     
   34   20   22 2     
   35   21   38 1     
   36   21   39 1     
   37   21   40 1     
   38   23   24 1     
   39   23   41 1     
   40   24   25 1     
   41   25   26 1     
   42   25   27 2     
   43   26   42 1     
   44   26   43 1     
   45   26   44 1     
   46    3   45 1     
   47    3   46 1     
   48    7   47 1     
   49    7   48 1     
   50   14   49 1     
   51   14   50 1     
   52   17   51 1     
   53   17   52 1     
   54   22   53 1     
   55   22   54 1     
   56   27   55 1     
   57   27   56 1     
@<TRIPOS>SUBSTRUCTURE
      1 S1             1
@<TRIPOS>SET
LONE_PAIRS      STATIC     ATOMS    <user>   **** ""
12 45 46 47 48 49 50 51 52 53 54 55 56
DONOR_HYDROGENS      STATIC     ATOMS    <user>   **** ""
1 28
ATOM$BLUE        STATIC     ATOMS    COLORGROUP SYSTEM
12 45 46 47 48 49 50 51 52 53 54 55 56
ATOM$RED        STATIC     ATOMS    COLORGROUP SYSTEM
1 28
