AV-unprocessed.smi:2282|AV-procd|sdf|9198|dock1
  -GOLD-   2272012413D 1   1.00000     0.00000
 Structure written by MMmdl.
 32 33  0  0  0  0  0  0  0  0  1 V2000
  153.6270  142.5973  162.9989 C   0  0  0  0  0  0  0  0  0  0  0  0
  152.8892  142.9347  161.7168 C   0  0  0  0  0  0  0  0  0  0  0  0
  152.2151  144.1056  161.7202 N   0  0  0  0  0  0  0  0  0  0  0  0
  151.5352  144.4503  160.6074 C   0  0  0  0  0  0  0  0  0  0  0  0
  151.4980  143.6564  159.4452 C   0  0  0  0  0  0  0  0  0  0  0  0
  152.2166  142.4373  159.4332 C   0  0  0  0  0  0  0  0  0  0  0  0
  152.2305  141.5506  158.3226 N   0  0  0  0  0  0  0  0  0  0  0  0
  151.4089  141.5163  157.2568 C   0  0  0  0  0  0  0  0  0  0  0  0
  150.4446  142.2650  157.0995 O   0  0  0  0  0  0  0  0  0  0  0  0
  151.7224  140.4531  156.1874 C   0  0  1  0  0  0  0  0  0  0  0  0
  151.6387  139.0059  156.7157 C   0  0  0  0  0  0  0  0  0  0  0  0
  150.5610  138.3547  155.8640 C   0  0  0  0  0  0  0  0  0  0  0  0
  149.7526  139.5471  155.3662 C   0  0  2  0  0  0  0  0  0  0  0  0
  148.9486  139.2783  154.0903 C   0  0  0  0  0  0  0  0  0  0  0  0
  150.7640  140.5144  155.1282 O   0  0  0  0  0  0  0  0  0  0  0  0
  152.9183  142.0631  160.6028 C   0  0  0  0  0  0  0  0  0  0  0  0
  153.8019  140.5743  160.6663 Cl  0  0  0  0  0  0  0  0  0  0  0  0
  154.6954  142.4966  162.8067 H   0  0  0  0  0  0  0  0  0  0  0  0
  153.2607  141.6565  163.4105 H   0  0  0  0  0  0  0  0  0  0  0  0
  153.4917  143.3711  163.7556 H   0  0  0  0  0  0  0  0  0  0  0  0
  150.9973  145.3859  160.6461 H   0  0  0  0  0  0  0  0  0  0  0  0
  150.9147  143.9877  158.6000 H   0  0  0  0  0  0  0  0  0  0  0  0
  153.0226  140.9251  158.2798 H   0  0  0  0  0  0  0  0  0  0  0  0
  152.7106  140.6602  155.7755 H   0  0  0  0  0  0  0  0  0  0  0  0
  152.5904  138.4820  156.6205 H   0  0  0  0  0  0  0  0  0  0  0  0
  151.3507  138.9659  157.7675 H   0  0  0  0  0  0  0  0  0  0  0  0
  151.0227  137.8347  155.0236 H   0  0  0  0  0  0  0  0  0  0  0  0
  149.9578  137.6344  156.4172 H   0  0  0  0  0  0  0  0  0  0  0  0
  149.0917  139.9083  156.1563 H   0  0  0  0  0  0  0  0  0  0  0  0
  148.1957  138.5079  154.2578 H   0  0  0  0  0  0  0  0  0  0  0  0
  149.5947  138.9456  153.2774 H   0  0  0  0  0  0  0  0  0  0  0  0
  148.4342  140.1808  153.7592 H   0  0  0  0  0  0  0  0  0  0  0  0
  1  2  1  0  0  0  0
  1 18  1  0  0  0  0
  1 19  1  0  0  0  0
  1 20  1  0  0  0  0
  2 16  1  0  0  0  0
  2  3  2  0  0  0  0
  3  4  1  0  0  0  0
  4  5  2  0  0  0  0
  4 21  1  0  0  0  0
  5  6  1  0  0  0  0
  5 22  1  0  0  0  0
  6  7  1  0  0  0  0
  6 16  2  0  0  0  0
  7  8  1  0  0  0  0
  7 23  1  0  0  0  0
  8  9  2  0  0  0  0
  8 10  1  0  0  0  0
 10 15  1  0  0  0  0
 10 11  1  0  0  0  0
 10 24  1  0  0  0  0
 11 12  1  0  0  0  0
 11 25  1  0  0  0  0
 11 26  1  0  0  0  0
 12 13  1  0  0  0  0
 12 27  1  0  0  0  0
 12 28  1  0  0  0  0
 13 14  1  0  0  0  0
 13 15  1  0  0  0  0
 13 29  1  0  0  0  0
 14 30  1  0  0  0  0
 14 31  1  0  0  0  0
 14 32  1  0  0  0  0
 16 17  1  0  0  0  0
M  END
> <s_m_source_file>
AV-unprocessed.smi

> <i_m_source_file_index>
2282

> <i_lp_mmshare_version>
43012

> <i_f3d_flags>
0

> <s_epik_input>
W0NIM11jMW5bY0hdW2NIXWMoYzFDbClbTkhdQyg9TylbQ0BASF0yW0NIMl1bQ0gyXVtDQEhdKE8yKVtDSDNd

> <s_epik_cmdline>
J2VwaWtfcHl0aG9uJywgJy1waCcsICc3LjAnLCAnLXRuJywgJzgnLCAnLW1hJywgJzIwMCcsICctbWV0YWxfYmluZGluZycsICctaW1hZScsICc8aW5maWxlLm1hZT4nLCAnLW9tYWUnLCAnPG91dGZpbGUubWFlPic=

> <r_epik_Ionization_Penalty>
0.00037231

> <r_epik_Ionization_Penalty_Charging>
0

> <r_epik_Ionization_Penalty_Neutral>
0.00037231

> <r_epik_State_Penalty>
0.000225113

> <r_epik_Charging_Adjusted_Penalty>
0.000225113

> <i_epik_Tot_Q>
0

> <i_epik_Tot_abs_Q>
0

> <r_epik_Metal_State_Penalty>
-0

> <b_epik_Metal_Only>
0

> <s_lp_Force_Field>
OPLS_2005

> <r_lp_Energy>
23.9576

> <b_lp_Chiralities_Consistent>
1

> <s_lp_Variant>
AV-unprocessed.smi:2282-4

> <Gold.Version>
5.8.1

> <Gold.Id.Protein>
6NUR|6NUR_protein|mol2

> <Gold.PLP.Fitness>
38.8814

> <Gold.PLP.PLP>
-36.0036

> <Gold.PLP.part.hbond>
-1.0000

> <Gold.PLP.part.metal>
0.0000

> <Gold.PLP.part.buried>
-5.4458

> <Gold.PLP.part.nonpolar>
-29.7642

> <Gold.PLP.part.repulsive>
0.4396

> <Gold.PLP.ligand.clash>
0.0000

> <Gold.PLP.ligand.torsion>
0.0648

> <Gold.PLP.Chemscore.Hbond>
1.0000

> <Gold.PLP.Chemscore.CHOScore>
0.0000

> <Gold.PLP.Chemscore.Metal>
0.0000

> <Gold.Chemscore.Hbonds>
donor molecule, donor type, donor heavy atom, donor atom, acceptor molecule, acceptor atom, score
      P1  H  7989  7998       L1    15  1.00

> <Gold.PLP.Chemscore.Internal.Correction>
0.0074

> <Gold.Rescore>
     Score         DG    S(hbond)    S(metal)    S(lipo)     H(rot)  DE(clash)    DE(int)     intcor
     16.50     -18.08       0.93        0.00     103.13       1.00       0.29       1.29       ----

> <Gold.Chemscore.Fitness>
16.4960

> <Gold.Chemscore.DG>
-18.0753

> <Gold.Chemscore.ZeroCoef>
-5.4800

> <Gold.Chemscore.Hbond>
0.9250

> <Gold.Chemscore.Metal>
0.0000

> <Gold.Chemscore.Lipo>
103.1257

> <Gold.Chemscore.Internal_Hbond>
0.0000

> <Gold.Chemscore.DEClash>
0.2923

> <Gold.Chemscore.DEInternal>
1.2870

> <Gold.Chemscore.Rot>
1.0000

> <Gold.Chemscore.Internal.Correction>
   9.000000E+99

> <Gold.Chemscore.Hbonds>
donor molecule, donor type, donor heavy atom, donor atom, acceptor molecule, acceptor atom, score
      P1  H  7989  7998       L1    15  0.70

> <Gold.Chemscore.Hbond.Weighted>
-3.0896

> <Gold.Chemscore.Metal.Weighted>
-0.0000

> <Gold.Chemscore.Lipo.Weighted>
-12.0657

> <Gold.Chemscore.Internal_Hbond.Weighted>
0.0000

> <Gold.Chemscore.DEClash.Weighted>
0.2923

> <Gold.Chemscore.DEInternal.Weighted>
1.2870

> <Gold.Chemscore.Rot.Weighted>
2.5600

> <Gold.Chemscore.Internal.Correction.Weighted>
   9.000000E+99

> <Gold.Protein.RotatedTorsions>
[ 6907 6896 6895 6894 ] final   54.22 input  -60.11 | X-H torsion
[ 7974 7965 7964 7962 ] final   49.60 input  175.53 | X-H torsion
[ 8008 7997 7996 7995 ] final  170.20 input   59.86 | X-H torsion
[ 10167 10162 10161 10158 ] final -164.91 input  -65.29 | X-H torsion
[ 10718 10713 10712 10709 ] final   78.27 input   66.30 | X-H torsion
[ 10763 10752 10751 10750 ] final  -96.96 input  -60.55 | X-H torsion
[ 11005 11000 10999 10996 ] final  112.76 input  -57.11 | X-H torsion

> <Gold.Protein.ActiveResidues>
 VAL166  LYS551  ARG553  GLY616  TRP617  ASP618  TYR619  PRO620  LYS621  CYS622 
 ASP623  PHE694  ASN695  SER759  ASP760  ASP761  ALA762  ILE779  LEU786  VAL792 
 PHE793  MET794  SER795  GLU796  ALA797  LYS798  CYS799  TRP800  GLU811  SER814 

> <Gold.Protein.RotatedAtoms>
  152.3417  134.7125  160.0261 H   0  0  0  0  0  0  0  0  0  0  0  0  # atno 6907 bound_to 6896
  151.7508  133.3322  159.3399 H   0  0  0  0  0  0  0  0  0  0  0  0  # atno 6908 bound_to 6896
  150.7484  134.6126  159.6139 H   0  0  0  0  0  0  0  0  0  0  0  0  # atno 6909 bound_to 6896
  146.0093  139.4525  142.9966 H   0  0  0  0  0  0  0  0  0  0  0  0  # atno 7974 bound_to 7965
  156.1387  140.1544  156.8954 H   0  0  0  0  0  0  0  0  0  0  0  0  # atno 8008 bound_to 7997
  154.4969  140.0836  156.7754 H   0  0  0  0  0  0  0  0  0  0  0  0  # atno 8009 bound_to 7997
  155.4120  140.3419  155.4266 H   0  0  0  0  0  0  0  0  0  0  0  0  # atno 8010 bound_to 7997
  139.6218  144.0610  152.1939 H   0  0  0  0  0  0  0  0  0  0  0  0  # atno 10167 bound_to 10162
  157.6739  130.9861  150.1763 H   0  0  0  0  0  0  0  0  0  0  0  0  # atno 10718 bound_to 10713
  154.7286  135.5064  153.8927 H   0  0  0  0  0  0  0  0  0  0  0  0  # atno 10763 bound_to 10752
  153.0928  135.6664  153.9829 H   0  0  0  0  0  0  0  0  0  0  0  0  # atno 10764 bound_to 10752
  153.9636  135.3045  155.3411 H   0  0  0  0  0  0  0  0  0  0  0  0  # atno 10765 bound_to 10752
  139.8935  134.9536  156.6635 H   0  0  0  0  0  0  0  0  0  0  0  0  # atno 11005 bound_to 11000
  145.7366  141.0023  143.1323 LP  0  0  0  0  0  0  0  0  0  0  0  0  # atno 17320 bound_to 7965
  144.6947  139.9049  143.7460 LP  0  0  0  0  0  0  0  0  0  0  0  0  # atno 17321 bound_to 7965
  140.0253  144.6122  150.7532 LP  0  0  0  0  0  0  0  0  0  0  0  0  # atno 17342 bound_to 10162
  140.7386  143.2781  151.3681 LP  0  0  0  0  0  0  0  0  0  0  0  0  # atno 17343 bound_to 10162
  156.2505  130.3700  149.8237 LP  0  0  0  0  0  0  0  0  0  0  0  0  # atno 17370 bound_to 10713
  156.6011  130.8547  151.3432 LP  0  0  0  0  0  0  0  0  0  0  0  0  # atno 17371 bound_to 10713
  140.7429  133.8963  155.8291 LP  0  0  0  0  0  0  0  0  0  0  0  0  # atno 17394 bound_to 11000
  141.0063  134.1081  157.4267 LP  0  0  0  0  0  0  0  0  0  0  0  0  # atno 17395 bound_to 11000

$$$$
