AV-unprocessed.smi:1878|AV-procd|sdf|7628|dock10
  -GOLD-   22720 9353D 1   1.00000     0.00000
 Structure written by MMmdl.
 34 35  0  0  0  0  0  0  0  0  2 V2000
  150.4425  134.5368  156.1648 O   0  0  0  0  0  0  0  0  0  0  0  0
  150.3163  135.1847  155.1232 C   0  0  0  0  0  0  0  0  0  0  0  0
  149.2390  135.0000  154.3501 N   0  0  0  0  0  0  0  0  0  0  0  0
  148.1562  134.0655  154.6322 C   0  0  0  0  0  0  0  0  0  0  0  0
  148.3128  132.7717  153.8208 C   0  0  0  0  0  0  0  0  0  0  0  0
  147.3739  131.9024  154.1927 F   0  0  0  0  0  0  0  0  0  0  0  0
  148.1732  133.0204  152.5184 F   0  0  0  0  0  0  0  0  0  0  0  0
  149.5101  132.2274  154.0390 F   0  0  0  0  0  0  0  0  0  0  0  0
  151.1816  136.1075  154.6428 N   0  5  0  0  0  0  0  0  0  0  0  0
  151.3205  137.2888  155.2646 C   0  0  0  0  0  0  0  0  0  0  0  0
  151.2164  138.5107  154.5661 C   0  0  0  0  0  0  0  0  0  0  0  0
  151.3647  139.7283  155.2567 C   0  0  0  0  0  0  0  0  0  0  0  0
  151.6088  139.7002  156.6489 C   0  0  0  0  0  0  0  0  0  0  0  0
  151.7688  140.8930  157.3823 N   0  0  0  0  0  0  0  0  0  0  0  0
  152.1772  140.8867  158.7783 C   0  0  0  0  0  0  0  0  0  0  0  0
  152.0988  142.3504  159.2093 C   0  0  0  0  0  0  0  0  0  0  0  0
  150.9437  142.8973  158.3704 C   0  0  0  0  0  0  0  0  0  0  0  0
  151.0194  142.1000  157.0629 C   0  0  0  0  0  0  0  0  0  0  0  0
  151.7113  138.5340  157.3276 N   0  0  0  0  0  0  0  0  0  0  0  0
  151.5684  137.3737  156.6525 C   0  0  0  0  0  0  0  0  0  0  0  0
  149.1674  135.5468  153.5045 H   0  0  0  0  0  0  0  0  0  0  0  0
  148.1492  133.8376  155.6991 H   0  0  0  0  0  0  0  0  0  0  0  0
  147.1999  134.5358  154.3975 H   0  0  0  0  0  0  0  0  0  0  0  0
  151.0291  138.5173  153.5021 H   0  0  0  0  0  0  0  0  0  0  0  0
  151.2969  140.6568  154.7103 H   0  0  0  0  0  0  0  0  0  0  0  0
  151.4833  140.2763  159.3579 H   0  0  0  0  0  0  0  0  0  0  0  0
  153.1823  140.4824  158.9031 H   0  0  0  0  0  0  0  0  0  0  0  0
  151.9436  142.4694  160.2818 H   0  0  0  0  0  0  0  0  0  0  0  0
  153.0232  142.8641  158.9420 H   0  0  0  0  0  0  0  0  0  0  0  0
  149.9989  142.6851  158.8727 H   0  0  0  0  0  0  0  0  0  0  0  0
  151.0044  143.9745  158.2129 H   0  0  0  0  0  0  0  0  0  0  0  0
  151.5621  142.6583  156.2997 H   0  0  0  0  0  0  0  0  0  0  0  0
  150.0213  141.8790  156.6835 H   0  0  0  0  0  0  0  0  0  0  0  0
  151.6578  136.4757  157.2466 H   0  0  0  0  0  0  0  0  0  0  0  0
  1  2  2  0  0  0  0
  2  3  1  0  0  0  0
  2  9  1  0  0  0  0
  3  4  1  0  0  0  0
  3 21  1  0  0  0  0
  4  5  1  0  0  0  0
  4 22  1  0  0  0  0
  4 23  1  0  0  0  0
  5  6  1  0  0  0  0
  5  7  1  0  0  0  0
  5  8  1  0  0  0  0
  9 10  1  0  0  0  0
 10 20  1  0  0  0  0
 10 11  2  0  0  0  0
 11 12  1  0  0  0  0
 11 24  1  0  0  0  0
 12 13  2  0  0  0  0
 12 25  1  0  0  0  0
 13 14  1  0  0  0  0
 13 19  1  0  0  0  0
 14 18  1  0  0  0  0
 14 15  1  0  0  0  0
 15 16  1  0  0  0  0
 15 26  1  0  0  0  0
 15 27  1  0  0  0  0
 16 17  1  0  0  0  0
 16 28  1  0  0  0  0
 16 29  1  0  0  0  0
 17 18  1  0  0  0  0
 17 30  1  0  0  0  0
 17 31  1  0  0  0  0
 18 32  1  0  0  0  0
 18 33  1  0  0  0  0
 19 20  2  0  0  0  0
 20 34  1  0  0  0  0
M  CHG  1   9  -1
M  END
> <s_m_source_file>
AV-unprocessed.smi

> <i_m_source_file_index>
1878

> <i_lp_mmshare_version>
43012

> <i_f3d_flags>
0

> <s_epik_input>
RkMoRikoRilbQ0gyXVtOSF1DKD1PKVtOSF1jMVtjSF1bY0hdYyhuW2NIXTEpTjJbQ0gyXVtDSDJdW0NIMl1bQ0gyXTI=

> <s_epik_cmdline>
J2VwaWtfcHl0aG9uJywgJy1waCcsICc3LjAnLCAnLXRuJywgJzgnLCAnLW1hJywgJzIwMCcsICctbWV0YWxfYmluZGluZycsICctaW1hZScsICc8aW5maWxlLm1hZT4nLCAnLW9tYWUnLCAnPG91dGZpbGUubWFlPic=

> <r_lp_tautomer_probability>
1

> <r_epik_Ionization_Penalty>
8.41125

> <r_epik_Ionization_Penalty_Charging>
6.79601

> <r_epik_Ionization_Penalty_Neutral>
1.61524

> <r_epik_State_Penalty>
6.86553

> <r_epik_Charging_Adjusted_Penalty>
13.6615

> <i_epik_Tot_Q>
-1

> <i_epik_Tot_abs_Q>
1

> <r_epik_Metal_State_Penalty>
2.85642

> <b_epik_Metal_Only>
1

> <s_lp_Force_Field>
OPLS_2005

> <r_lp_Energy>
22.1987

> <b_lp_Chiralities_Consistent>
1

> <s_lp_Variant>
AV-unprocessed.smi:1878-3

> <Gold.Version>
5.8.1

> <Gold.Id.Protein>
6NUR|6NUR_protein|mol2

> <Gold.PLP.Fitness>
41.9181

> <Gold.PLP.PLP>
-35.3168

> <Gold.PLP.part.hbond>
-2.0000

> <Gold.PLP.part.metal>
0.0000

> <Gold.PLP.part.buried>
-4.1826

> <Gold.PLP.part.nonpolar>
-29.9127

> <Gold.PLP.part.repulsive>
0.1984

> <Gold.PLP.ligand.clash>
0.0000

> <Gold.PLP.ligand.torsion>
1.5444

> <Gold.PLP.Chemscore.Hbond>
3.0000

> <Gold.PLP.Chemscore.CHOScore>
0.0000

> <Gold.PLP.Chemscore.Metal>
0.0000

> <Gold.Chemscore.Hbonds>
donor molecule, donor type, donor heavy atom, donor atom, acceptor molecule, acceptor atom, score
      L1  H     3    21       P1  7948  1.00
      P1  H 10752 10765       L1     9  2.00

> <Gold.PLP.Chemscore.Internal.Correction>
0.6901

> <Gold.Rescore>
     Score         DG    S(hbond)    S(metal)    S(lipo)     H(rot)  DE(clash)    DE(int)     intcor
     14.65     -16.41       1.59        0.00      69.91       1.00       0.19       1.57       ----

> <Gold.Chemscore.Fitness>
14.6493

> <Gold.Chemscore.DG>
-16.4089

> <Gold.Chemscore.ZeroCoef>
-5.4800

> <Gold.Chemscore.Hbond>
1.5896

> <Gold.Chemscore.Metal>
0.0000

> <Gold.Chemscore.Lipo>
69.9114

> <Gold.Chemscore.Internal_Hbond>
0.0000

> <Gold.Chemscore.DEClash>
0.1943

> <Gold.Chemscore.DEInternal>
1.5654

> <Gold.Chemscore.Rot>
1.0000

> <Gold.Chemscore.Internal.Correction>
   9.000000E+99

> <Gold.Chemscore.Hbonds>
donor molecule, donor type, donor heavy atom, donor atom, acceptor molecule, acceptor atom, score
      L1  H     3    21       P1  7948  0.55
      P1  H 10752 10765       L1     9  0.24

> <Gold.Chemscore.Hbond.Weighted>
-5.3093

> <Gold.Chemscore.Metal.Weighted>
-0.0000

> <Gold.Chemscore.Lipo.Weighted>
-8.1796

> <Gold.Chemscore.Internal_Hbond.Weighted>
0.0000

> <Gold.Chemscore.DEClash.Weighted>
0.1943

> <Gold.Chemscore.DEInternal.Weighted>
1.5654

> <Gold.Chemscore.Rot.Weighted>
2.5600

> <Gold.Chemscore.Internal.Correction.Weighted>
   9.000000E+99

> <Gold.Protein.RotatedTorsions>
[ 6907 6896 6895 6894 ] final  133.83 input  -60.11 | X-H torsion
[ 7974 7965 7964 7962 ] final  141.01 input  175.53 | X-H torsion
[ 8008 7997 7996 7995 ] final  131.86 input   59.86 | X-H torsion
[ 10167 10162 10161 10158 ] final -170.22 input  -65.29 | X-H torsion
[ 10718 10713 10712 10709 ] final  -77.08 input   66.30 | X-H torsion
[ 10763 10752 10751 10750 ] final  176.22 input  -60.55 | X-H torsion
[ 11005 11000 10999 10996 ] final  -71.71 input  -57.11 | X-H torsion

> <Gold.Protein.ActiveResidues>
 VAL166  LYS551  ARG553  GLY616  TRP617  ASP618  TYR619  PRO620  LYS621  CYS622 
 ASP623  PHE694  ASN695  SER759  ASP760  ASP761  ALA762  ILE779  LEU786  VAL792 
 PHE793  MET794  SER795  GLU796  ALA797  LYS798  CYS799  TRP800  GLU811  SER814 

> <Gold.Protein.RotatedAtoms>
  152.3178  133.5821  159.5723 H   0  0  0  0  0  0  0  0  0  0  0  0  # atno 6907 bound_to 6896
  150.7356  134.0056  159.3661 H   0  0  0  0  0  0  0  0  0  0  0  0  # atno 6908 bound_to 6896
  151.7943  135.0727  160.0442 H   0  0  0  0  0  0  0  0  0  0  0  0  # atno 6909 bound_to 6896
  144.9135  139.5261  143.5697 H   0  0  0  0  0  0  0  0  0  0  0  0  # atno 7974 bound_to 7965
  156.2975  140.2561  156.2995 H   0  0  0  0  0  0  0  0  0  0  0  0  # atno 8008 bound_to 7997
  154.9431  140.0396  157.2125 H   0  0  0  0  0  0  0  0  0  0  0  0  # atno 8009 bound_to 7997
  154.8107  140.2844  155.5859 H   0  0  0  0  0  0  0  0  0  0  0  0  # atno 8010 bound_to 7997
  139.5875  144.1286  152.1593 H   0  0  0  0  0  0  0  0  0  0  0  0  # atno 10167 bound_to 10162
  156.0155  130.4482  150.3290 H   0  0  0  0  0  0  0  0  0  0  0  0  # atno 10718 bound_to 10713
  154.4781  135.2774  155.1591 H   0  0  0  0  0  0  0  0  0  0  0  0  # atno 10763 bound_to 10752
  154.3313  135.6189  153.5556 H   0  0  0  0  0  0  0  0  0  0  0  0  # atno 10764 bound_to 10752
  152.9872  135.5766  154.5176 H   0  0  0  0  0  0  0  0  0  0  0  0  # atno 10765 bound_to 10752
  141.1597  133.6825  156.6947 H   0  0  0  0  0  0  0  0  0  0  0  0  # atno 11005 bound_to 11000
  146.3170  139.7960  142.8975 LP  0  0  0  0  0  0  0  0  0  0  0  0  # atno 17320 bound_to 7965
  145.3414  141.0288  143.3390 LP  0  0  0  0  0  0  0  0  0  0  0  0  # atno 17321 bound_to 7965
  140.0853  144.5666  150.7093 LP  0  0  0  0  0  0  0  0  0  0  0  0  # atno 17342 bound_to 10162
  140.7144  143.2532  151.4480 LP  0  0  0  0  0  0  0  0  0  0  0  0  # atno 17343 bound_to 10162
  157.1389  131.0291  151.2936 LP  0  0  0  0  0  0  0  0  0  0  0  0  # atno 17370 bound_to 10713
  157.4488  130.7586  149.7133 LP  0  0  0  0  0  0  0  0  0  0  0  0  # atno 17371 bound_to 10713
  140.3004  134.8168  157.4093 LP  0  0  0  0  0  0  0  0  0  0  0  0  # atno 17394 bound_to 11000
  140.1267  134.5148  155.8139 LP  0  0  0  0  0  0  0  0  0  0  0  0  # atno 17395 bound_to 11000

$$$$
