AV-unprocessed.smi:1017|AV-procd|sdf|4439|dock7
  -GOLD-   22720 2403D 1   1.00000     0.00000
 Structure written by MMmdl.
 43 44  0  0  0  0  0  0  0  0  2 V2000
  153.8899  137.6631  157.7051 C   0  0  0  0  0  0  0  0  0  0  0  0
  153.1102  138.4104  156.7849 O   0  0  0  0  0  0  0  0  0  0  0  0
  152.4398  137.6165  155.8157 C   0  0  0  0  0  0  0  0  0  0  0  0
  151.4417  138.4461  154.9847 C   0  0  0  0  0  0  0  0  0  0  0  0
  150.1424  138.5501  155.6561 N   0  0  0  0  0  0  0  0  0  0  0  0
  150.0683  137.8602  156.8542 N   0  0  0  0  0  0  0  0  0  0  0  0
  148.9792  137.8745  157.5531 C   0  0  0  0  0  0  0  0  0  0  0  0
  148.8972  137.1272  158.8483 C   0  0  0  0  0  0  0  0  0  0  0  0
  149.8770  136.4198  159.1115 O   0  0  0  0  0  0  0  0  0  0  0  0
  147.7819  137.2715  159.6280 N   0  5  0  0  0  0  0  0  0  0  0  0
  147.0477  136.2505  160.4097 C   0  0  0  0  0  0  0  0  0  0  0  0
  145.5600  136.3402  159.9430 C   0  0  0  0  0  0  0  0  0  0  0  0
  144.7688  135.4745  160.5734 F   0  0  0  0  0  0  0  0  0  0  0  0
  145.0745  137.5639  160.1656 F   0  0  0  0  0  0  0  0  0  0  0  0
  145.4651  136.0923  158.6345 F   0  0  0  0  0  0  0  0  0  0  0  0
  147.6464  134.8321  160.1302 C   0  0  0  0  0  0  0  0  0  0  0  0
  147.1542  133.7090  161.0780 C   0  0  0  0  0  0  0  0  0  0  0  0
  147.3513  134.0600  162.5655 C   0  0  0  0  0  0  0  0  0  0  0  0
  146.6916  135.4169  162.8790 C   0  0  0  0  0  0  0  0  0  0  0  0
  147.1803  136.5491  161.9401 C   0  0  0  0  0  0  0  0  0  0  0  0
  147.8147  138.6189  157.0877 C   0  0  0  0  0  0  0  0  0  0  0  0
  147.9032  139.2875  155.9175 C   0  0  0  0  0  0  0  0  0  0  0  0
  149.1257  139.2847  155.1143 C   0  0  0  0  0  0  0  0  0  0  0  0
  149.2324  139.8909  154.0482 O   0  0  0  0  0  0  0  0  0  0  0  0
  154.4087  138.3465  158.3774 H   0  0  0  0  0  0  0  0  0  0  0  0
  154.6437  137.0650  157.1915 H   0  0  0  0  0  0  0  0  0  0  0  0
  153.2754  137.0029  158.3169 H   0  0  0  0  0  0  0  0  0  0  0  0
  153.2008  137.2079  155.1500 H   0  0  0  0  0  0  0  0  0  0  0  0
  151.9549  136.7616  156.2894 H   0  0  0  0  0  0  0  0  0  0  0  0
  151.8327  139.4442  154.7845 H   0  0  0  0  0  0  0  0  0  0  0  0
  151.3169  137.9819  154.0047 H   0  0  0  0  0  0  0  0  0  0  0  0
  147.4554  134.5427  159.0964 H   0  0  0  0  0  0  0  0  0  0  0  0
  148.7313  134.8560  160.2254 H   0  0  0  0  0  0  0  0  0  0  0  0
  146.1067  133.4727  160.8896 H   0  0  0  0  0  0  0  0  0  0  0  0
  147.6990  132.7915  160.8536 H   0  0  0  0  0  0  0  0  0  0  0  0
  146.9347  133.2778  163.2004 H   0  0  0  0  0  0  0  0  0  0  0  0
  148.4176  134.1128  162.7893 H   0  0  0  0  0  0  0  0  0  0  0  0
  145.6067  135.3187  162.8377 H   0  0  0  0  0  0  0  0  0  0  0  0
  146.9144  135.6905  163.9107 H   0  0  0  0  0  0  0  0  0  0  0  0
  148.2224  136.7297  162.2003 H   0  0  0  0  0  0  0  0  0  0  0  0
  146.6587  137.4741  162.1868 H   0  0  0  0  0  0  0  0  0  0  0  0
  146.8941  138.6460  157.6518 H   0  0  0  0  0  0  0  0  0  0  0  0
  147.0465  139.8418  155.5636 H   0  0  0  0  0  0  0  0  0  0  0  0
  1  2  1  0  0  0  0
  1 25  1  0  0  0  0
  1 26  1  0  0  0  0
  1 27  1  0  0  0  0
  2  3  1  0  0  0  0
  3  4  1  0  0  0  0
  3 28  1  0  0  0  0
  3 29  1  0  0  0  0
  4  5  1  0  0  0  0
  4 30  1  0  0  0  0
  4 31  1  0  0  0  0
  5 23  1  0  0  0  0
  5  6  1  0  0  0  0
  6  7  2  0  0  0  0
  7  8  1  0  0  0  0
  7 21  1  0  0  0  0
  8  9  2  0  0  0  0
  8 10  1  0  0  0  0
 10 11  1  0  0  0  0
 11 20  1  0  0  0  0
 11 12  1  0  0  0  0
 11 16  1  0  0  0  0
 12 13  1  0  0  0  0
 12 14  1  0  0  0  0
 12 15  1  0  0  0  0
 16 17  1  0  0  0  0
 16 32  1  0  0  0  0
 16 33  1  0  0  0  0
 17 18  1  0  0  0  0
 17 34  1  0  0  0  0
 17 35  1  0  0  0  0
 18 19  1  0  0  0  0
 18 36  1  0  0  0  0
 18 37  1  0  0  0  0
 19 20  1  0  0  0  0
 19 38  1  0  0  0  0
 19 39  1  0  0  0  0
 20 40  1  0  0  0  0
 20 41  1  0  0  0  0
 21 22  2  0  0  0  0
 21 42  1  0  0  0  0
 22 23  1  0  0  0  0
 22 43  1  0  0  0  0
 23 24  2  0  0  0  0
M  CHG  1  10  -1
M  END
> <s_m_source_file>
AV-unprocessed.smi

> <i_m_source_file_index>
1017

> <i_lp_mmshare_version>
43012

> <i_f3d_flags>
0

> <s_epik_input>
W0NIM11PW0NIMl1bQ0gyXW4xbmMoW2NIXVtjSF1jMT1PKUMoPU8pW05IXUMyKEMoRikoRilGKVtDSDJdW0NIMl1bQ0gyXVtDSDJdW0NIMl0y

> <s_epik_cmdline>
J2VwaWtfcHl0aG9uJywgJy1waCcsICc3LjAnLCAnLXRuJywgJzgnLCAnLW1hJywgJzIwMCcsICctbWV0YWxfYmluZGluZycsICctaW1hZScsICc8aW5maWxlLm1hZT4nLCAnLW9tYWUnLCAnPG91dGZpbGUubWFlPic=

> <r_lp_tautomer_probability>
1

> <r_epik_Ionization_Penalty>
6.5547

> <r_epik_Ionization_Penalty_Charging>
6.5547

> <r_epik_Ionization_Penalty_Neutral>
1.08437e-11

> <r_epik_State_Penalty>
6.55469

> <r_epik_Charging_Adjusted_Penalty>
13.1094

> <i_epik_Tot_Q>
-1

> <i_epik_Tot_abs_Q>
1

> <r_epik_Metal_State_Penalty>
2.48023

> <b_epik_Metal_Only>
1

> <s_lp_Force_Field>
OPLS_2005

> <r_lp_Energy>
56.1946

> <b_lp_Chiralities_Consistent>
1

> <s_lp_Variant>
AV-unprocessed.smi:1017-2

> <Gold.Version>
5.8.1

> <Gold.Id.Protein>
6NUR|6NUR_protein|mol2

> <Gold.PLP.Fitness>
42.7056

> <Gold.PLP.PLP>
-31.9641

> <Gold.PLP.part.hbond>
-5.0000

> <Gold.PLP.part.metal>
0.0000

> <Gold.PLP.part.buried>
-3.9757

> <Gold.PLP.part.nonpolar>
-23.7900

> <Gold.PLP.part.repulsive>
0.1010

> <Gold.PLP.ligand.clash>
0.0000

> <Gold.PLP.ligand.torsion>
0.5470

> <Gold.PLP.Chemscore.Hbond>
3.9070

> <Gold.PLP.Chemscore.CHOScore>
0.0000

> <Gold.PLP.Chemscore.Metal>
0.0000

> <Gold.Chemscore.Hbonds>
donor molecule, donor type, donor heavy atom, donor atom, acceptor molecule, acceptor atom, score
      P1  H  6896  6907       L1     9  1.00
      P1  H  6934  6947       L1    10  0.57
      P1  H  7997  8010       L1     2  0.26

> <Gold.PLP.Chemscore.Internal.Correction>
0.1146

> <Gold.Rescore>
     Score         DG    S(hbond)    S(metal)    S(lipo)     H(rot)  DE(clash)    DE(int)     intcor
     15.12     -19.02       2.94        0.00      68.31       1.67       0.07       3.82       ----

> <Gold.Chemscore.Fitness>
15.1247

> <Gold.Chemscore.DG>
-19.0185

> <Gold.Chemscore.ZeroCoef>
-5.4800

> <Gold.Chemscore.Hbond>
2.9370

> <Gold.Chemscore.Metal>
0.0000

> <Gold.Chemscore.Lipo>
68.3148

> <Gold.Chemscore.Internal_Hbond>
0.0000

> <Gold.Chemscore.DEClash>
0.0691

> <Gold.Chemscore.DEInternal>
3.8247

> <Gold.Chemscore.Rot>
1.6657

> <Gold.Chemscore.Internal.Correction>
   9.000000E+99

> <Gold.Chemscore.Hbonds>
donor molecule, donor type, donor heavy atom, donor atom, acceptor molecule, acceptor atom, score
      P1  H  6896  6907       L1     9  1.00
      P1  H  6934  6947       L1    10  0.05
      P1  H  7997  8010       L1     2  0.01

> <Gold.Chemscore.Hbond.Weighted>
-9.8097

> <Gold.Chemscore.Metal.Weighted>
-0.0000

> <Gold.Chemscore.Lipo.Weighted>
-7.9928

> <Gold.Chemscore.Internal_Hbond.Weighted>
0.0000

> <Gold.Chemscore.DEClash.Weighted>
0.0691

> <Gold.Chemscore.DEInternal.Weighted>
3.8247

> <Gold.Chemscore.Rot.Weighted>
4.2641

> <Gold.Chemscore.Internal.Correction.Weighted>
   9.000000E+99

> <Gold.Protein.RotatedTorsions>
[ 6907 6896 6895 6894 ] final  -42.90 input  -60.11 | X-H torsion
[ 7974 7965 7964 7962 ] final  148.12 input  175.53 | X-H torsion
[ 8008 7997 7996 7995 ] final   39.17 input   59.86 | X-H torsion
[ 10167 10162 10161 10158 ] final   86.99 input  -65.29 | X-H torsion
[ 10718 10713 10712 10709 ] final -117.36 input   66.30 | X-H torsion
[ 10763 10752 10751 10750 ] final  -78.65 input  -60.55 | X-H torsion
[ 11005 11000 10999 10996 ] final   56.46 input  -57.11 | X-H torsion

> <Gold.Protein.ActiveResidues>
 VAL166  LYS551  ARG553  GLY616  TRP617  ASP618  TYR619  PRO620  LYS621  CYS622 
 ASP623  PHE694  ASN695  SER759  ASP760  ASP761  ALA762  ILE779  LEU786  VAL792 
 PHE793  MET794  SER795  GLU796  ALA797  LYS798  CYS799  TRP800  GLU811  SER814 

> <Gold.Protein.RotatedAtoms>
  150.9500  134.8901  159.7665 H   0  0  0  0  0  0  0  0  0  0  0  0  # atno 6907 bound_to 6896
  152.5115  134.3820  159.9364 H   0  0  0  0  0  0  0  0  0  0  0  0  # atno 6908 bound_to 6896
  151.3836  133.3772  159.2747 H   0  0  0  0  0  0  0  0  0  0  0  0  # atno 6909 bound_to 6896
  144.8538  139.6114  143.5961 H   0  0  0  0  0  0  0  0  0  0  0  0  # atno 7974 bound_to 7965
  155.2323  140.3339  155.4302 H   0  0  0  0  0  0  0  0  0  0  0  0  # atno 8008 bound_to 7997
  156.2290  140.1842  156.7337 H   0  0  0  0  0  0  0  0  0  0  0  0  # atno 8009 bound_to 7997
  154.5946  140.0632  156.9271 H   0  0  0  0  0  0  0  0  0  0  0  0  # atno 8010 bound_to 7997
  139.8819  144.6435  150.8833 H   0  0  0  0  0  0  0  0  0  0  0  0  # atno 10167 bound_to 10162
  156.1028  130.6186  150.9154 H   0  0  0  0  0  0  0  0  0  0  0  0  # atno 10718 bound_to 10713
  154.5286  135.5722  153.6740 H   0  0  0  0  0  0  0  0  0  0  0  0  # atno 10763 bound_to 10752
  152.9934  135.6199  154.2659 H   0  0  0  0  0  0  0  0  0  0  0  0  # atno 10764 bound_to 10752
  154.2584  135.2857  155.2768 H   0  0  0  0  0  0  0  0  0  0  0  0  # atno 10765 bound_to 10752
  140.0527  134.5714  155.9244 H   0  0  0  0  0  0  0  0  0  0  0  0  # atno 11005 bound_to 11000
  146.2806  139.6868  142.9231 LP  0  0  0  0  0  0  0  0  0  0  0  0  # atno 17320 bound_to 7965
  145.4447  141.0424  143.2838 LP  0  0  0  0  0  0  0  0  0  0  0  0  # atno 17321 bound_to 7965
  140.7743  143.3579  151.1886 LP  0  0  0  0  0  0  0  0  0  0  0  0  # atno 17342 bound_to 10162
  139.7188  143.9257  152.2977 LP  0  0  0  0  0  0  0  0  0  0  0  0  # atno 17343 bound_to 10162
  157.6201  131.0930  150.8638 LP  0  0  0  0  0  0  0  0  0  0  0  0  # atno 17370 bound_to 10713
  156.8763  130.5163  149.5293 LP  0  0  0  0  0  0  0  0  0  0  0  0  # atno 17371 bound_to 10713
  141.1938  133.6580  156.5564 LP  0  0  0  0  0  0  0  0  0  0  0  0  # atno 17394 bound_to 11000
  140.3892  134.7455  157.4711 LP  0  0  0  0  0  0  0  0  0  0  0  0  # atno 17395 bound_to 11000

$$$$
