AV-unprocessed.smi:1055|AV-procd|sdf|4627|dock5
  -GOLD-   22720 3133D 1   1.00000     0.00000
 Structure written by MMmdl.
 51 52  0  0  0  0  0  0  0  0  2 V2000
  145.4044  136.3192  151.4309 C   0  0  0  0  0  0  0  0  0  0  0  0
  144.6007  136.5676  152.4783 C   0  0  0  0  0  0  0  0  0  0  0  0
  143.1263  136.2095  152.4630 C   0  0  0  0  0  0  0  0  0  0  0  0
  145.1103  137.2295  153.7487 C   0  0  0  0  0  0  0  0  0  0  0  0
  145.5323  138.6311  153.5039 N   0  3  2  0  0  0  0  0  0  0  0  0
  146.7540  138.7126  152.6642 C   0  0  0  0  0  0  0  0  0  0  0  0
  147.0825  140.1720  152.2990 C   0  0  0  0  0  0  0  0  0  0  0  0
  147.2178  141.0635  153.5456 C   0  0  2  0  0  0  0  0  0  0  0  0
  148.4503  140.7481  154.2673 N   0  0  0  0  0  0  0  0  0  0  0  0
  148.8414  141.3144  155.4181 C   0  0  0  0  0  0  0  0  0  0  0  0
  148.1825  142.1674  156.0119 O   0  0  0  0  0  0  0  0  0  0  0  0
  150.0376  140.8435  155.8099 N   0  0  0  0  0  0  0  0  0  0  0  0
  150.7717  141.1738  156.9806 C   0  0  0  0  0  0  0  0  0  0  0  0
  151.6051  140.1885  157.5433 C   0  0  0  0  0  0  0  0  0  0  0  0
  152.3289  140.4833  158.7140 C   0  0  0  0  0  0  0  0  0  0  0  0
  152.1944  141.7632  159.3070 C   0  0  0  0  0  0  0  0  0  0  0  0
  152.9005  142.1104  160.4815 N   0  0  0  0  0  0  0  0  0  0  0  0
  153.9896  141.2678  160.9595 C   0  0  0  0  0  0  0  0  0  0  0  0
  152.5177  143.3013  161.2334 C   0  0  0  0  0  0  0  0  0  0  0  0
  151.3781  142.7035  158.7708 N   0  0  0  0  0  0  0  0  0  0  0  0
  150.6880  142.4184  157.6469 C   0  0  0  0  0  0  0  0  0  0  0  0
  145.9694  140.9039  154.4367 C   0  0  0  0  0  0  0  0  0  0  0  0
  145.6687  139.4282  154.7518 C   0  0  0  0  0  0  0  0  0  0  0  0
  145.0272  135.8502  150.5335 H   0  0  0  0  0  0  0  0  0  0  0  0
  146.4526  136.5798  151.4531 H   0  0  0  0  0  0  0  0  0  0  0  0
  142.5184  137.1017  152.6158 H   0  0  0  0  0  0  0  0  0  0  0  0
  142.8952  135.4967  153.2552 H   0  0  0  0  0  0  0  0  0  0  0  0
  142.8361  135.7612  151.5122 H   0  0  0  0  0  0  0  0  0  0  0  0
  144.3509  137.2031  154.5321 H   0  0  0  0  0  0  0  0  0  0  0  0
  145.9543  136.6405  154.1102 H   0  0  0  0  0  0  0  0  0  0  0  0
  147.5916  138.2530  153.1913 H   0  0  0  0  0  0  0  0  0  0  0  0
  146.6072  138.1409  151.7469 H   0  0  0  0  0  0  0  0  0  0  0  0
  147.9945  140.2139  151.7021 H   0  0  0  0  0  0  0  0  0  0  0  0
  146.2878  140.5658  151.6638 H   0  0  0  0  0  0  0  0  0  0  0  0
  147.2817  142.1014  153.2134 H   0  0  0  0  0  0  0  0  0  0  0  0
  149.0622  140.0635  153.8477 H   0  0  0  0  0  0  0  0  0  0  0  0
  150.5027  140.2162  155.1702 H   0  0  0  0  0  0  0  0  0  0  0  0
  151.6962  139.2159  157.0819 H   0  0  0  0  0  0  0  0  0  0  0  0
  152.9711  139.7227  159.1314 H   0  0  0  0  0  0  0  0  0  0  0  0
  153.6314  140.2591  161.1670 H   0  0  0  0  0  0  0  0  0  0  0  0
  154.4224  141.6622  161.8792 H   0  0  0  0  0  0  0  0  0  0  0  0
  154.7854  141.2107  160.2164 H   0  0  0  0  0  0  0  0  0  0  0  0
  151.4949  143.2097  161.6002 H   0  0  0  0  0  0  0  0  0  0  0  0
  152.5816  144.1898  160.6041 H   0  0  0  0  0  0  0  0  0  0  0  0
  153.1686  143.4559  162.0940 H   0  0  0  0  0  0  0  0  0  0  0  0
  150.0422  143.2101  157.3003 H   0  0  0  0  0  0  0  0  0  0  0  0
  146.0804  141.4687  155.3630 H   0  0  0  0  0  0  0  0  0  0  0  0
  145.1095  141.3379  153.9245 H   0  0  0  0  0  0  0  0  0  0  0  0
  144.7497  139.3733  155.3356 H   0  0  0  0  0  0  0  0  0  0  0  0
  146.4598  139.0049  155.3727 H   0  0  0  0  0  0  0  0  0  0  0  0
  144.7919  139.0569  152.9645 H   0  0  0  0  0  0  0  0  0  0  0  0
  1  2  2  0  0  0  0
  1 24  1  0  0  0  0
  1 25  1  0  0  0  0
  2  3  1  0  0  0  0
  2  4  1  0  0  0  0
  3 26  1  0  0  0  0
  3 27  1  0  0  0  0
  3 28  1  0  0  0  0
  4  5  1  0  0  0  0
  4 29  1  0  0  0  0
  4 30  1  0  0  0  0
  5 23  1  0  0  0  0
  5  6  1  0  0  0  0
  5 51  1  0  0  0  0
  6  7  1  0  0  0  0
  6 31  1  0  0  0  0
  6 32  1  0  0  0  0
  7  8  1  0  0  0  0
  7 33  1  0  0  0  0
  7 34  1  0  0  0  0
  8  9  1  0  0  0  0
  8 22  1  0  0  0  0
  8 35  1  0  0  0  0
  9 10  1  0  0  0  0
  9 36  1  0  0  0  0
 10 11  2  0  0  0  0
 10 12  1  0  0  0  0
 12 13  1  0  0  0  0
 12 37  1  0  0  0  0
 13 21  1  0  0  0  0
 13 14  2  0  0  0  0
 14 15  1  0  0  0  0
 14 38  1  0  0  0  0
 15 16  2  0  0  0  0
 15 39  1  0  0  0  0
 16 17  1  0  0  0  0
 16 20  1  0  0  0  0
 17 18  1  0  0  0  0
 17 19  1  0  0  0  0
 18 40  1  0  0  0  0
 18 41  1  0  0  0  0
 18 42  1  0  0  0  0
 19 43  1  0  0  0  0
 19 44  1  0  0  0  0
 19 45  1  0  0  0  0
 20 21  2  0  0  0  0
 21 46  1  0  0  0  0
 22 23  1  0  0  0  0
 22 47  1  0  0  0  0
 22 48  1  0  0  0  0
 23 49  1  0  0  0  0
 23 50  1  0  0  0  0
M  CHG  1   5   1
M  END
> <s_m_source_file>
AV-unprocessed.smi

> <i_m_source_file_index>
1055

> <i_lp_mmshare_version>
43012

> <i_f3d_flags>
0

> <s_epik_input>
W0NIMl09QyhbQ0gzXSlbQ0gyXU4xW0NIMl1bQ0gyXVtDSF0oW0NIMl1bQ0gyXTEpW05IXUMoPU8pW05IXWMyW2NIXVtjSF1jKE4oW0NIM10pW0NIM10pbltjSF0y

> <s_epik_cmdline>
J2VwaWtfcHl0aG9uJywgJy1waCcsICc3LjAnLCAnLXRuJywgJzgnLCAnLW1hJywgJzIwMCcsICctbWV0YWxfYmluZGluZycsICctaW1hZScsICc8aW5maWxlLm1hZT4nLCAnLW9tYWUnLCAnPG91dGZpbGUubWFlPic=

> <r_lp_tautomer_probability>
1

> <r_epik_Ionization_Penalty>
0.534133

> <r_epik_Ionization_Penalty_Charging>
0.0193505

> <r_epik_Ionization_Penalty_Neutral>
0.514782

> <r_epik_State_Penalty>
0.557749

> <r_epik_Charging_Adjusted_Penalty>
0.5771

> <i_epik_Tot_Q>
1

> <i_epik_Tot_abs_Q>
1

> <r_epik_Metal_State_Penalty>
0.306227

> <b_epik_Metal_Only>
0

> <s_lp_Force_Field>
OPLS_2005

> <r_lp_Energy>
19.9376

> <b_lp_Chiralities_Consistent>
1

> <s_lp_Variant>
AV-unprocessed.smi:1055-4

> <Gold.Version>
5.8.1

> <Gold.Id.Protein>
6NUR|6NUR_protein|mol2

> <Gold.PLP.Fitness>
45.6869

> <Gold.PLP.PLP>
-37.4100

> <Gold.PLP.part.hbond>
-1.0000

> <Gold.PLP.part.metal>
0.0000

> <Gold.PLP.part.buried>
-2.7720

> <Gold.PLP.part.nonpolar>
-37.2500

> <Gold.PLP.part.repulsive>
2.6899

> <Gold.PLP.ligand.clash>
0.0000

> <Gold.PLP.ligand.torsion>
0.3969

> <Gold.PLP.Chemscore.Hbond>
2.0000

> <Gold.PLP.Chemscore.CHOScore>
1.0000

> <Gold.PLP.Chemscore.Metal>
0.0000

> <Gold.Chemscore.Hbonds>
donor molecule, donor type, donor heavy atom, donor atom, acceptor molecule, acceptor atom, score
      L1  H     5    51       P1 10175  2.00
      L1  C    21    46       P1  8028  1.00

> <Gold.PLP.Chemscore.Internal.Correction>
0.0708

> <Gold.Rescore>
     Score         DG    S(hbond)    S(metal)    S(lipo)     H(rot)  DE(clash)    DE(int)     intcor
     12.38     -16.48       0.97        0.00      95.36       1.33       2.62       1.48       ----

> <Gold.Chemscore.Fitness>
12.3820

> <Gold.Chemscore.DG>
-16.4785

> <Gold.Chemscore.ZeroCoef>
-5.4800

> <Gold.Chemscore.Hbond>
0.9693

> <Gold.Chemscore.Metal>
0.0000

> <Gold.Chemscore.Lipo>
95.3618

> <Gold.Chemscore.Internal_Hbond>
0.0000

> <Gold.Chemscore.DEClash>
2.6210

> <Gold.Chemscore.DEInternal>
1.4755

> <Gold.Chemscore.Rot>
1.3266

> <Gold.Chemscore.Internal.Correction>
   9.000000E+99

> <Gold.Chemscore.Hbonds>
donor molecule, donor type, donor heavy atom, donor atom, acceptor molecule, acceptor atom, score
      L1  H     5    51       P1 10175  0.98

> <Gold.Chemscore.Hbond.Weighted>
-3.2373

> <Gold.Chemscore.Metal.Weighted>
-0.0000

> <Gold.Chemscore.Lipo.Weighted>
-11.1573

> <Gold.Chemscore.Internal_Hbond.Weighted>
0.0000

> <Gold.Chemscore.DEClash.Weighted>
2.6210

> <Gold.Chemscore.DEInternal.Weighted>
1.4755

> <Gold.Chemscore.Rot.Weighted>
3.3962

> <Gold.Chemscore.Internal.Correction.Weighted>
   9.000000E+99

> <Gold.Protein.RotatedTorsions>
[ 6907 6896 6895 6894 ] final  155.44 input  -60.11 | X-H torsion
[ 7974 7965 7964 7962 ] final  136.65 input  175.53 | X-H torsion
[ 8008 7997 7996 7995 ] final   60.48 input   59.86 | X-H torsion
[ 10167 10162 10161 10158 ] final  -92.03 input  -65.29 | X-H torsion
[ 10718 10713 10712 10709 ] final -148.28 input   66.30 | X-H torsion
[ 10763 10752 10751 10750 ] final -112.66 input  -60.55 | X-H torsion
[ 11005 11000 10999 10996 ] final   36.96 input  -57.11 | X-H torsion

> <Gold.Protein.ActiveResidues>
 VAL166  LYS551  ARG553  GLY616  TRP617  ASP618  TYR619  PRO620  LYS621  CYS622 
 ASP623  PHE694  ASN695  SER759  ASP760  ASP761  ALA762  ILE779  LEU786  VAL792 
 PHE793  MET794  SER795  GLU796  ALA797  LYS798  CYS799  TRP800  GLU811  SER814 

> <Gold.Protein.RotatedAtoms>
  152.0442  133.3990  159.4349 H   0  0  0  0  0  0  0  0  0  0  0  0  # atno 6907 bound_to 6896
  150.6874  134.3381  159.4865 H   0  0  0  0  0  0  0  0  0  0  0  0  # atno 6908 bound_to 6896
  152.1183  134.9224  160.0614 H   0  0  0  0  0  0  0  0  0  0  0  0  # atno 6909 bound_to 6896
  144.9544  139.4781  143.5510 H   0  0  0  0  0  0  0  0  0  0  0  0  # atno 7974 bound_to 7965
  155.5830  140.3491  155.4545 H   0  0  0  0  0  0  0  0  0  0  0  0  # atno 8008 bound_to 7997
  156.0359  140.1285  157.0233 H   0  0  0  0  0  0  0  0  0  0  0  0  # atno 8009 bound_to 7997
  154.4371  140.1034  156.6152 H   0  0  0  0  0  0  0  0  0  0  0  0  # atno 8010 bound_to 7997
  140.3389  143.2953  151.9857 H   0  0  0  0  0  0  0  0  0  0  0  0  # atno 10167 bound_to 10162
  156.4183  130.8016  151.2237 H   0  0  0  0  0  0  0  0  0  0  0  0  # atno 10718 bound_to 10713
  154.8360  135.4483  154.1228 H   0  0  0  0  0  0  0  0  0  0  0  0  # atno 10763 bound_to 10752
  153.2459  135.6921  153.7738 H   0  0  0  0  0  0  0  0  0  0  0  0  # atno 10764 bound_to 10752
  153.7068  135.3363  155.3213 H   0  0  0  0  0  0  0  0  0  0  0  0  # atno 10765 bound_to 10752
  140.2273  134.3569  155.7979 H   0  0  0  0  0  0  0  0  0  0  0  0  # atno 11005 bound_to 11000
  146.3332  139.8652  142.8849 LP  0  0  0  0  0  0  0  0  0  0  0  0  # atno 17320 bound_to 7965
  145.2794  141.0134  143.3726 LP  0  0  0  0  0  0  0  0  0  0  0  0  # atno 17321 bound_to 7965
  139.4844  144.6173  151.7322 LP  0  0  0  0  0  0  0  0  0  0  0  0  # atno 17342 bound_to 10162
  140.5327  144.0704  150.6059 LP  0  0  0  0  0  0  0  0  0  0  0  0  # atno 17343 bound_to 10162
  157.7508  131.0236  150.3841 LP  0  0  0  0  0  0  0  0  0  0  0  0  # atno 17370 bound_to 10713
  156.4153  130.3942  149.6862 LP  0  0  0  0  0  0  0  0  0  0  0  0  # atno 17371 bound_to 10713
  141.2220  133.7226  156.8674 LP  0  0  0  0  0  0  0  0  0  0  0  0  # atno 17394 bound_to 11000
  140.1787  134.9049  157.2922 LP  0  0  0  0  0  0  0  0  0  0  0  0  # atno 17395 bound_to 11000

$$$$
