AV-unprocessed.smi:1820|AV-procd|sdf|7384|dock6
  -GOLD-   22720 9 53D 1   1.00000     0.00000
 Structure written by MMmdl.
 34 35  0  0  0  0  0  0  0  0  1 V2000
  144.3909  136.5949  152.0163 O   0  0  0  0  0  0  0  0  0  0  0  0
  145.6059  136.4115  151.9480 C   0  0  0  0  0  0  0  0  0  0  0  0
  146.5132  137.2996  152.3777 N   0  0  0  0  0  0  0  0  0  0  0  0
  146.2058  138.5800  153.0095 C   0  0  0  0  0  0  0  0  0  0  0  0
  147.4576  139.2891  153.5884 C   0  0  0  0  0  0  0  0  0  0  0  0
  148.6082  138.7006  153.0136 O   0  0  0  0  0  0  0  0  0  0  0  0
  147.4687  140.8174  153.4230 C   0  0  0  0  0  0  0  0  0  0  0  0
  146.6104  141.3432  154.5778 C   0  0  0  0  0  0  0  0  0  0  0  0
  146.7047  140.2868  155.6900 C   0  0  0  0  0  0  0  0  0  0  0  0
  147.5293  139.1270  155.1139 C   0  0  0  0  0  0  0  0  0  0  0  0
  146.2034  135.3248  151.4283 N   0  0  0  0  0  0  0  0  0  0  0  0
  145.6098  134.1601  150.8691 C   0  0  0  0  0  0  0  0  0  0  0  0
  146.4670  133.1021  150.5015 C   0  0  0  0  0  0  0  0  0  0  0  0
  145.9055  131.9300  149.9570 C   0  0  0  0  0  0  0  0  0  0  0  0
  144.5797  131.7588  149.7732 N   0  0  0  0  0  0  0  0  0  0  0  0
  143.7593  132.7665  150.1381 C   0  0  0  0  0  0  0  0  0  0  0  0
  144.2168  133.9789  150.6922 C   0  0  0  0  0  0  0  0  0  0  0  0
  147.4902  137.0671  152.2781 H   0  0  0  0  0  0  0  0  0  0  0  0
  145.7595  139.2006  152.2321 H   0  0  0  0  0  0  0  0  0  0  0  0
  145.4340  138.4692  153.7733 H   0  0  0  0  0  0  0  0  0  0  0  0
  148.8462  139.1935  152.2436 H   0  0  0  0  0  0  0  0  0  0  0  0
  148.4863  141.1904  153.5513 H   0  0  0  0  0  0  0  0  0  0  0  0
  147.1269  141.1672  152.4489 H   0  0  0  0  0  0  0  0  0  0  0  0
  146.9438  142.3260  154.9127 H   0  0  0  0  0  0  0  0  0  0  0  0
  145.5736  141.4433  154.2541 H   0  0  0  0  0  0  0  0  0  0  0  0
  147.1690  140.6880  156.5914 H   0  0  0  0  0  0  0  0  0  0  0  0
  145.7056  139.9453  155.9634 H   0  0  0  0  0  0  0  0  0  0  0  0
  147.1805  138.1523  155.4573 H   0  0  0  0  0  0  0  0  0  0  0  0
  148.5614  139.2353  155.4525 H   0  0  0  0  0  0  0  0  0  0  0  0
  147.2110  135.3574  151.3812 H   0  0  0  0  0  0  0  0  0  0  0  0
  147.5365  133.1837  150.6280 H   0  0  0  0  0  0  0  0  0  0  0  0
  146.5398  131.1071  149.6625 H   0  0  0  0  0  0  0  0  0  0  0  0
  142.7027  132.5996  149.9894 H   0  0  0  0  0  0  0  0  0  0  0  0
  143.4951  134.7289  150.9761 H   0  0  0  0  0  0  0  0  0  0  0  0
  1  2  2  0  0  0  0
  2  3  1  0  0  0  0
  2 11  1  0  0  0  0
  3  4  1  0  0  0  0
  3 18  1  0  0  0  0
  4  5  1  0  0  0  0
  4 19  1  0  0  0  0
  4 20  1  0  0  0  0
  5 10  1  0  0  0  0
  5  6  1  0  0  0  0
  5  7  1  0  0  0  0
  6 21  1  0  0  0  0
  7  8  1  0  0  0  0
  7 22  1  0  0  0  0
  7 23  1  0  0  0  0
  8  9  1  0  0  0  0
  8 24  1  0  0  0  0
  8 25  1  0  0  0  0
  9 10  1  0  0  0  0
  9 26  1  0  0  0  0
  9 27  1  0  0  0  0
 10 28  1  0  0  0  0
 10 29  1  0  0  0  0
 11 12  1  0  0  0  0
 11 30  1  0  0  0  0
 12 17  1  0  0  0  0
 12 13  2  0  0  0  0
 13 14  1  0  0  0  0
 13 31  1  0  0  0  0
 14 15  2  0  0  0  0
 14 32  1  0  0  0  0
 15 16  1  0  0  0  0
 16 17  2  0  0  0  0
 16 33  1  0  0  0  0
 17 34  1  0  0  0  0
M  END
> <s_m_source_file>
AV-unprocessed.smi

> <i_m_source_file_index>
1820

> <i_lp_mmshare_version>
43012

> <i_f3d_flags>
0

> <s_epik_input>
W2NIXTFbY0hdbltjSF1bY0hdYzFbTkhdQyg9TylbTkhdW0NIMl1DMihbT0hdKVtDSDJdW0NIMl1bQ0gyXVtDSDJdMg==

> <s_epik_cmdline>
J2VwaWtfcHl0aG9uJywgJy1waCcsICc3LjAnLCAnLXRuJywgJzgnLCAnLW1hJywgJzIwMCcsICctbWV0YWxfYmluZGluZycsICctaW1hZScsICc8aW5maWxlLm1hZT4nLCAnLW9tYWUnLCAnPG91dGZpbGUubWFlPic=

> <r_epik_Ionization_Penalty>
0.127626

> <r_epik_Ionization_Penalty_Charging>
0

> <r_epik_Ionization_Penalty_Neutral>
0.127626

> <r_epik_State_Penalty>
0.11702

> <r_epik_Charging_Adjusted_Penalty>
0.11702

> <i_epik_Tot_Q>
0

> <i_epik_Tot_abs_Q>
0

> <r_epik_Metal_State_Penalty>
0.0961027

> <b_epik_Metal_Only>
0

> <s_lp_Force_Field>
OPLS_2005

> <r_lp_Energy>
30.5055

> <b_lp_Chiralities_Consistent>
1

> <s_lp_Variant>
AV-unprocessed.smi:1820-1

> <Gold.Version>
5.8.1

> <Gold.Id.Protein>
6NUR|6NUR_protein|mol2

> <Gold.PLP.Fitness>
42.9146

> <Gold.PLP.PLP>
-29.9630

> <Gold.PLP.part.hbond>
-4.8104

> <Gold.PLP.part.metal>
0.0000

> <Gold.PLP.part.buried>
-4.9114

> <Gold.PLP.part.nonpolar>
-22.0946

> <Gold.PLP.part.repulsive>
1.1816

> <Gold.PLP.ligand.clash>
0.0000

> <Gold.PLP.ligand.torsion>
0.9127

> <Gold.PLP.Chemscore.Hbond>
3.0967

> <Gold.PLP.Chemscore.CHOScore>
1.8256

> <Gold.PLP.Chemscore.Metal>
0.0000

> <Gold.Chemscore.Hbonds>
donor molecule, donor type, donor heavy atom, donor atom, acceptor molecule, acceptor atom, score
      L1  H     3    18       P1  7948  1.00
      L1  H     6    21       P1  7957  1.00
      L1  H    11    30       P1  7948  1.00
      P1  H 10785 10796       L1    15  0.10
      L1  C    14    32       P1 10747  0.92
      L1  C    16    33       P1 10186  0.90

> <Gold.PLP.Chemscore.Internal.Correction>
0.0098

> <Gold.Rescore>
     Score         DG    S(hbond)    S(metal)    S(lipo)     H(rot)  DE(clash)    DE(int)     intcor
     16.30     -18.60       2.93        0.00      66.77       1.76       0.03       2.26       ----

> <Gold.Chemscore.Fitness>
16.3047

> <Gold.Chemscore.DG>
-18.5976

> <Gold.Chemscore.ZeroCoef>
-5.4800

> <Gold.Chemscore.Hbond>
2.9346

> <Gold.Chemscore.Metal>
0.0000

> <Gold.Chemscore.Lipo>
66.7737

> <Gold.Chemscore.Internal_Hbond>
0.0000

> <Gold.Chemscore.DEClash>
0.0327

> <Gold.Chemscore.DEInternal>
2.2602

> <Gold.Chemscore.Rot>
1.7564

> <Gold.Chemscore.Internal.Correction>
   9.000000E+99

> <Gold.Chemscore.Hbonds>
donor molecule, donor type, donor heavy atom, donor atom, acceptor molecule, acceptor atom, score
      L1  H     3    18       P1  7948  1.00
      L1  H     6    21       P1  7957  0.96
      L1  H    11    30       P1  7948  0.86
      P1  H 10785 10796       L1    15  0.06

> <Gold.Chemscore.Hbond.Weighted>
-9.8014

> <Gold.Chemscore.Metal.Weighted>
-0.0000

> <Gold.Chemscore.Lipo.Weighted>
-7.8125

> <Gold.Chemscore.Internal_Hbond.Weighted>
0.0000

> <Gold.Chemscore.DEClash.Weighted>
0.0327

> <Gold.Chemscore.DEInternal.Weighted>
2.2602

> <Gold.Chemscore.Rot.Weighted>
4.4963

> <Gold.Chemscore.Internal.Correction.Weighted>
   9.000000E+99

> <Gold.Protein.RotatedTorsions>
[ 6907 6896 6895 6894 ] final   59.02 input  -60.11 | X-H torsion
[ 7974 7965 7964 7962 ] final -133.58 input  175.53 | X-H torsion
[ 8008 7997 7996 7995 ] final -159.89 input   59.86 | X-H torsion
[ 10167 10162 10161 10158 ] final  -43.02 input  -65.29 | X-H torsion
[ 10718 10713 10712 10709 ] final  -55.12 input   66.30 | X-H torsion
[ 10763 10752 10751 10750 ] final   64.08 input  -60.55 | X-H torsion
[ 11005 11000 10999 10996 ] final  121.56 input  -57.11 | X-H torsion

> <Gold.Protein.ActiveResidues>
 VAL166  LYS551  ARG553  GLY616  TRP617  ASP618  TYR619  PRO620  LYS621  CYS622 
 ASP623  PHE694  ASN695  SER759  ASP760  ASP761  ALA762  ILE779  LEU786  VAL792 
 PHE793  MET794  SER795  GLU796  ALA797  LYS798  CYS799  TRP800  GLU811  SER814 

> <Gold.Protein.RotatedAtoms>
  152.3877  134.6491  160.0119 H   0  0  0  0  0  0  0  0  0  0  0  0  # atno 6907 bound_to 6896
  151.6735  133.3308  159.3210 H   0  0  0  0  0  0  0  0  0  0  0  0  # atno 6908 bound_to 6896
  150.7799  134.6779  159.6472 H   0  0  0  0  0  0  0  0  0  0  0  0  # atno 6909 bound_to 6896
  144.9180  140.6979  143.4983 H   0  0  0  0  0  0  0  0  0  0  0  0  # atno 7974 bound_to 7965
  155.7692  140.0849  157.2116 H   0  0  0  0  0  0  0  0  0  0  0  0  # atno 8008 bound_to 7997
  154.3997  140.1528  156.2979 H   0  0  0  0  0  0  0  0  0  0  0  0  # atno 8009 bound_to 7997
  155.8763  140.3423  155.5859 H   0  0  0  0  0  0  0  0  0  0  0  0  # atno 8010 bound_to 7997
  140.6949  143.3005  151.3292 H   0  0  0  0  0  0  0  0  0  0  0  0  # atno 10167 bound_to 10162
  156.1394  130.4155  150.0129 H   0  0  0  0  0  0  0  0  0  0  0  0  # atno 10718 bound_to 10713
  153.0042  135.5406  154.6454 H   0  0  0  0  0  0  0  0  0  0  0  0  # atno 10763 bound_to 10752
  154.5699  135.2841  155.0840 H   0  0  0  0  0  0  0  0  0  0  0  0  # atno 10764 bound_to 10752
  154.2009  135.6484  153.5139 H   0  0  0  0  0  0  0  0  0  0  0  0  # atno 10765 bound_to 10752
  139.9231  134.9639  156.7976 H   0  0  0  0  0  0  0  0  0  0  0  0  # atno 11005 bound_to 11000
  145.3343  139.1750  143.4520 LP  0  0  0  0  0  0  0  0  0  0  0  0  # atno 17320 bound_to 7965
  146.3191  140.3376  142.8645 LP  0  0  0  0  0  0  0  0  0  0  0  0  # atno 17321 bound_to 7965
  139.6392  144.0572  152.2540 LP  0  0  0  0  0  0  0  0  0  0  0  0  # atno 17342 bound_to 10162
  140.0072  144.6250  150.7678 LP  0  0  0  0  0  0  0  0  0  0  0  0  # atno 17343 bound_to 10162
  156.8018  130.9293  151.3646 LP  0  0  0  0  0  0  0  0  0  0  0  0  # atno 17370 bound_to 10713
  157.6562  130.8926  149.9734 LP  0  0  0  0  0  0  0  0  0  0  0  0  # atno 17371 bound_to 10713
  140.6416  133.9813  155.7710 LP  0  0  0  0  0  0  0  0  0  0  0  0  # atno 17394 bound_to 11000
  141.0767  134.0124  157.3446 LP  0  0  0  0  0  0  0  0  0  0  0  0  # atno 17395 bound_to 11000

$$$$
