#       Name:                AV-unprocessed.smi:1585
#       Creating user name   scv26
#       Creation time:       Fri Mar 27 06:59:55 2020


#       File generated by GOLD software.
#

@<TRIPOS>MOLECULE
AV-unprocessed.smi:1585
    50    51     1
SMALL
NO_CHARGES


@<TRIPOS>ATOM
      1 ****        -7.1834   4.8603   0.6442 C.3            1 S1                 0.0000
      2 ****        -5.8523   4.2377   0.8933 C.2            1 S1                 0.0000
      3 ****        -4.8426   3.8416   0.0627 C.2            1 S1                 0.0000
      4 ****        -3.8703   3.3202   0.9593 C.2            1 S1                 0.0000
      5 ****        -2.6765   2.8088   0.6208 N.pl3          1 S1                -1.0000
      6 ****        -2.5742   1.5140   0.2436 C.2            1 S1                 0.0000
      7 ****        -3.4986   0.7044   0.1409 O.2            1 S1                 0.0000
      8 ****        -1.3205   1.1307  -0.0292 N.am           1 S1                 0.0000
      9 ****        -0.9260  -0.2115  -0.4361 C.3            1 S1                 0.0000
     10 ****         0.6058  -0.3393  -0.4922 C.3            1 S1                 0.0000
     11 ****         1.0487   0.2132  -1.7167 O.3            1 S1                 0.0000
     12 ****         1.0462  -1.8169  -0.4585 C.3            1 S1                 0.0000
     13 ****         2.5228  -1.9789  -0.4727 N.4            1 S1                 1.0000
     14 ****         2.9360  -3.3047  -1.0022 C.3            1 S1                 0.0000
     15 ****         4.4643  -3.3951  -1.1478 C.3            1 S1                 0.0000
     16 ****         5.1630  -3.0987   0.1852 C.3            1 S1                 0.0000
     17 ****         4.6965  -1.7427   0.7302 C.3            1 S1                 0.0000
     18 ****         3.1633  -1.6902   0.8390 C.3            1 S1                 0.0000
     19 ****        -4.2489   3.4089   2.2235 N.2            1 S1                 0.0000
     20 ****        -5.5224   3.9896   2.1894 O.3            1 S1                 0.0000
     21 ****        -7.1268   5.5790  -0.1734 H              1 S1                 0.0000
     22 ****        -7.5425   5.3850   1.5298 H              1 S1                 0.0000
     23 ****        -7.9193   4.1016   0.3782 H              1 S1                 0.0000
     24 ****        -4.8064   3.9077  -1.0142 H              1 S1                 0.0000
     25 ****        -0.5905   1.8215   0.0653 H              1 S1                 0.0000
     26 ****        -1.3208  -0.9106   0.3032 H              1 S1                 0.0000
     27 ****        -1.3834  -0.4724  -1.3922 H              1 S1                 0.0000
     28 ****         1.0482   0.2124   0.3370 H              1 S1                 0.0000
     29 ****         0.7326   1.1029  -1.7743 H              1 S1                 0.0000
     30 ****         0.6413  -2.3186   0.4216 H              1 S1                 0.0000
     31 ****         0.6111  -2.3236  -1.3217 H              1 S1                 0.0000
     32 ****         2.5722  -4.0916  -0.3393 H              1 S1                 0.0000
     33 ****         2.4761  -3.4729  -1.9767 H              1 S1                 0.0000
     34 ****         4.7469  -4.3858  -1.5046 H              1 S1                 0.0000
     35 ****         4.8021  -2.6857  -1.9046 H              1 S1                 0.0000
     36 ****         4.9332  -3.8851   0.9055 H              1 S1                 0.0000
     37 ****         6.2455  -3.1011   0.0533 H              1 S1                 0.0000
     38 ****         5.1467  -1.5596   1.7063 H              1 S1                 0.0000
     39 ****         5.0446  -0.9438   0.0739 H              1 S1                 0.0000
     40 ****         2.8717  -0.7045   1.1990 H              1 S1                 0.0000
     41 ****         2.8166  -2.4110   1.5812 H              1 S1                 0.0000
     42 ****         2.8707  -1.2941  -1.1292 H              1 S1                 0.0000
     43 ****        -1.8607   3.3865   0.6475 LP             1 S1                 0.0000
     44 ****        -4.4357   0.9867   0.3464 LP             1 S1                 0.0000
     45 ****        -3.3112  -0.2345  -0.1479 LP             1 S1                 0.0000
     46 ****         0.6880  -0.3235  -2.4795 LP             1 S1                 0.0000
     47 ****         2.0482   0.2071  -1.7481 LP             1 S1                 0.0000
     48 ****        -3.7348   3.1221   3.0319 LP             1 S1                 0.0000
     49 ****        -6.1892   3.3629   2.5926 LP             1 S1                 0.0000
     50 ****        -5.5158   4.8463   2.7052 LP             1 S1                 0.0000
@<TRIPOS>BOND
    1    1    2 1     
    2    1   21 1     
    3    1   22 1     
    4    1   23 1     
    5    2   20 1     
    6    2    3 2     
    7    3    4 1     
    8    3   24 1     
    9    4    5 1     
   10    4   19 2     
   11    5    6 1     
   12    6    7 2     
   13    6    8 am    
   14    8    9 1     
   15    8   25 1     
   16    9   10 1     
   17    9   26 1     
   18    9   27 1     
   19   10   11 1     
   20   10   12 1     
   21   10   28 1     
   22   11   29 1     
   23   12   13 1     
   24   12   30 1     
   25   12   31 1     
   26   13   18 1     
   27   13   14 1     
   28   13   42 1     
   29   14   15 1     
   30   14   32 1     
   31   14   33 1     
   32   15   16 1     
   33   15   34 1     
   34   15   35 1     
   35   16   17 1     
   36   16   36 1     
   37   16   37 1     
   38   17   18 1     
   39   17   38 1     
   40   17   39 1     
   41   18   40 1     
   42   18   41 1     
   43   19   20 1     
   44    5   43 1     
   45    7   44 1     
   46    7   45 1     
   47   11   46 1     
   48   11   47 1     
   49   19   48 1     
   50   20   49 1     
   51   20   50 1     
@<TRIPOS>SUBSTRUCTURE
      1 S1             1
@<TRIPOS>SET
LONE_PAIRS      STATIC     ATOMS    <user>   **** ""
8 43 44 45 46 47 48 49 50
DONOR_HYDROGENS      STATIC     ATOMS    <user>   **** ""
3 25 29 42
ATOM$BLUE        STATIC     ATOMS    COLORGROUP SYSTEM
8 43 44 45 46 47 48 49 50
ATOM$RED        STATIC     ATOMS    COLORGROUP SYSTEM
3 25 29 42
