AV-unprocessed.smi:2892|AV-procd|sdf|11121|dock9
  -GOLD-   2272015593D 1   1.00000     0.00000
 Structure written by MMmdl.
 42 42  0  0  0  0  0  0  0  0  2 V2000
  152.3234  143.4740  159.5985 C   0  0  0  0  0  0  0  0  0  0  0  0
  152.0463  141.9683  159.7197 C   0  0  0  0  0  0  0  0  0  0  0  0
  153.2772  141.0634  159.4463 C   0  0  1  0  0  0  0  0  0  0  0  0
  154.5145  141.5958  160.2058 C   0  0  0  0  0  0  0  0  0  0  0  0
  152.9779  139.5706  159.7875 C   0  0  1  0  0  0  0  0  0  0  0  0
  151.7892  139.1356  159.0560 N   0  0  0  0  0  0  0  0  0  0  0  0
  151.2423  137.9095  159.0846 C   0  0  0  0  0  0  0  0  0  0  0  0
  151.7131  136.9668  159.7207 O   0  0  0  0  0  0  0  0  0  0  0  0
  149.9585  137.7183  158.2723 C   0  0  0  0  0  0  0  0  0  0  0  0
  148.9368  136.9480  159.0688 C   0  0  0  0  0  0  0  0  0  0  0  0
  148.0575  135.9251  158.6114 C   0  0  0  0  0  0  0  0  0  0  0  0
  147.3290  135.5967  159.7181 C   0  0  0  0  0  0  0  0  0  0  0  0
  147.7778  136.3850  160.7564 N   0  0  0  0  0  0  0  0  0  0  0  0
  147.3000  136.4217  162.1304 C   0  0  0  0  0  0  0  0  0  0  0  0
  147.4621  135.0506  162.8058 C   0  0  0  0  0  0  0  0  0  0  0  0
  145.8520  136.9332  162.2066 C   0  0  0  0  0  0  0  0  0  0  0  0
  148.7700  137.2111  160.3572 N   0  0  0  0  0  0  0  0  0  0  0  0
  154.1358  138.6463  159.3726 C   0  0  0  0  0  0  0  0  0  0  0  0
  154.1576  137.5017  159.8753 O   0  0  0  0  0  0  0  0  0  0  0  0
  154.9788  139.0969  158.5641 O   0  5  0  0  0  0  0  0  0  0  0  0
  151.4001  144.0427  159.7076 H   0  0  0  0  0  0  0  0  0  0  0  0
  152.7489  143.7193  158.6253 H   0  0  0  0  0  0  0  0  0  0  0  0
  153.0087  143.8272  160.3679 H   0  0  0  0  0  0  0  0  0  0  0  0
  151.6396  141.7494  160.7077 H   0  0  0  0  0  0  0  0  0  0  0  0
  151.2459  141.7426  159.0154 H   0  0  0  0  0  0  0  0  0  0  0  0
  153.4967  141.1261  158.3790 H   0  0  0  0  0  0  0  0  0  0  0  0
  154.3609  141.5557  161.2845 H   0  0  0  0  0  0  0  0  0  0  0  0
  154.7404  142.6276  159.9408 H   0  0  0  0  0  0  0  0  0  0  0  0
  155.4147  141.0250  159.9795 H   0  0  0  0  0  0  0  0  0  0  0  0
  152.8229  139.4800  160.8645 H   0  0  0  0  0  0  0  0  0  0  0  0
  151.3413  139.8360  158.4833 H   0  0  0  0  0  0  0  0  0  0  0  0
  149.5686  138.6985  157.9961 H   0  0  0  0  0  0  0  0  0  0  0  0
  150.1883  137.1999  157.3404 H   0  0  0  0  0  0  0  0  0  0  0  0
  147.9670  135.5082  157.6194 H   0  0  0  0  0  0  0  0  0  0  0  0
  146.5341  134.8773  159.8495 H   0  0  0  0  0  0  0  0  0  0  0  0
  147.9291  137.1322  162.6688 H   0  0  0  0  0  0  0  0  0  0  0  0
  147.1660  135.0925  163.8541 H   0  0  0  0  0  0  0  0  0  0  0  0
  148.4996  134.7177  162.7693 H   0  0  0  0  0  0  0  0  0  0  0  0
  146.8515  134.2890  162.3194 H   0  0  0  0  0  0  0  0  0  0  0  0
  145.5285  137.0352  163.2428 H   0  0  0  0  0  0  0  0  0  0  0  0
  145.1583  136.2536  161.7104 H   0  0  0  0  0  0  0  0  0  0  0  0
  145.7571  137.9114  161.7344 H   0  0  0  0  0  0  0  0  0  0  0  0
  1  2  1  0  0  0  0
  1 21  1  0  0  0  0
  1 22  1  0  0  0  0
  1 23  1  0  0  0  0
  2  3  1  0  0  0  0
  2 24  1  0  0  0  0
  2 25  1  0  0  0  0
  3  4  1  0  0  0  0
  3  5  1  0  0  0  0
  3 26  1  0  0  0  0
  4 27  1  0  0  0  0
  4 28  1  0  0  0  0
  4 29  1  0  0  0  0
  5  6  1  0  0  0  0
  5 18  1  0  0  0  0
  5 30  1  0  0  0  0
  6  7  1  0  0  0  0
  6 31  1  0  0  0  0
  7  8  2  0  0  0  0
  7  9  1  0  0  0  0
  9 10  1  0  0  0  0
  9 32  1  0  0  0  0
  9 33  1  0  0  0  0
 10 17  2  0  0  0  0
 10 11  1  0  0  0  0
 11 12  2  0  0  0  0
 11 34  1  0  0  0  0
 12 13  1  0  0  0  0
 12 35  1  0  0  0  0
 13 14  1  0  0  0  0
 13 17  1  0  0  0  0
 14 15  1  0  0  0  0
 14 16  1  0  0  0  0
 14 36  1  0  0  0  0
 15 37  1  0  0  0  0
 15 38  1  0  0  0  0
 15 39  1  0  0  0  0
 16 40  1  0  0  0  0
 16 41  1  0  0  0  0
 16 42  1  0  0  0  0
 18 19  2  0  0  0  0
 18 20  1  0  0  0  0
M  CHG  1  20  -1
M  END
> <s_m_source_file>
AV-unprocessed.smi

> <i_m_source_file_index>
2892

> <i_lp_mmshare_version>
43012

> <i_f3d_flags>
0

> <s_epik_input>
W0NIM11bQ0gyXVtDQEhdKFtDSDNdKVtDQEBIXShDKD1PKVtPSF0pW05IXUMoPU8pW0NIMl1jMVtjSF1bY0hdbihuMSlbQ0hdKFtDSDNdKVtDSDNd

> <s_epik_cmdline>
J2VwaWtfcHl0aG9uJywgJy1waCcsICc3LjAnLCAnLXRuJywgJzgnLCAnLW1hJywgJzIwMCcsICctbWV0YWxfYmluZGluZycsICctaW1hZScsICc8aW5maWxlLm1hZT4nLCAnLW9tYWUnLCAnPG91dGZpbGUubWFlPic=

> <r_lp_tautomer_probability>
1

> <r_epik_Ionization_Penalty>
0.000286846

> <r_epik_Ionization_Penalty_Charging>
0.000224481

> <r_epik_Ionization_Penalty_Neutral>
6.23655e-05

> <r_epik_State_Penalty>
-0

> <r_epik_Charging_Adjusted_Penalty>
0.000224481

> <i_epik_Tot_Q>
-1

> <i_epik_Tot_abs_Q>
1

> <r_epik_Metal_State_Penalty>
-0

> <b_epik_Metal_Only>
0

> <s_lp_Force_Field>
OPLS_2005

> <r_lp_Energy>
13.265

> <b_lp_Chiralities_Consistent>
1

> <s_lp_Variant>
AV-unprocessed.smi:2892-4

> <Gold.Version>
5.8.1

> <Gold.Id.Protein>
6NUR|6NUR_protein|mol2

> <Gold.PLP.Fitness>
46.4884

> <Gold.PLP.PLP>
-37.4704

> <Gold.PLP.part.hbond>
-3.8571

> <Gold.PLP.part.metal>
0.0000

> <Gold.PLP.part.buried>
-5.4038

> <Gold.PLP.part.nonpolar>
-29.1973

> <Gold.PLP.part.repulsive>
0.1276

> <Gold.PLP.ligand.clash>
0.0000

> <Gold.PLP.ligand.torsion>
1.0355

> <Gold.PLP.Chemscore.Hbond>
3.6502

> <Gold.PLP.Chemscore.CHOScore>
0.0000

> <Gold.PLP.Chemscore.Metal>
0.0000

> <Gold.Chemscore.Hbonds>
donor molecule, donor type, donor heavy atom, donor atom, acceptor molecule, acceptor atom, score
      P1  H  6896  6908       L1     8  1.00
      P1  H  6931  6943       L1    17  0.62
      P1  H  7997  8010       L1    20  2.00

> <Gold.PLP.Chemscore.Internal.Correction>
0.1383

> <Gold.Rescore>
     Score         DG    S(hbond)    S(metal)    S(lipo)     H(rot)  DE(clash)    DE(int)     intcor
     13.40     -18.50       2.60        0.00      89.20       2.39       0.06       5.03       ----

> <Gold.Chemscore.Fitness>
13.4023

> <Gold.Chemscore.DG>
-18.4957

> <Gold.Chemscore.ZeroCoef>
-5.4800

> <Gold.Chemscore.Hbond>
2.6014

> <Gold.Chemscore.Metal>
0.0000

> <Gold.Chemscore.Lipo>
89.1999

> <Gold.Chemscore.Internal_Hbond>
0.0000

> <Gold.Chemscore.DEClash>
0.0588

> <Gold.Chemscore.DEInternal>
5.0346

> <Gold.Chemscore.Rot>
2.3865

> <Gold.Chemscore.Internal.Correction>
   9.000000E+99

> <Gold.Chemscore.Hbonds>
donor molecule, donor type, donor heavy atom, donor atom, acceptor molecule, acceptor atom, score
      P1  H  6896  6908       L1     8  1.00
      P1  H  6931  6943       L1    17  0.25
      P1  H  7997  8010       L1    20  0.96

> <Gold.Chemscore.Hbond.Weighted>
-8.6886

> <Gold.Chemscore.Metal.Weighted>
-0.0000

> <Gold.Chemscore.Lipo.Weighted>
-10.4364

> <Gold.Chemscore.Internal_Hbond.Weighted>
0.0000

> <Gold.Chemscore.DEClash.Weighted>
0.0588

> <Gold.Chemscore.DEInternal.Weighted>
5.0346

> <Gold.Chemscore.Rot.Weighted>
6.1093

> <Gold.Chemscore.Internal.Correction.Weighted>
   9.000000E+99

> <Gold.Protein.RotatedTorsions>
[ 6907 6896 6895 6894 ] final -129.18 input  -60.11 | X-H torsion
[ 7974 7965 7964 7962 ] final  -81.39 input  175.53 | X-H torsion
[ 8008 7997 7996 7995 ] final  -15.25 input   59.86 | X-H torsion
[ 10167 10162 10161 10158 ] final   31.07 input  -65.29 | X-H torsion
[ 10718 10713 10712 10709 ] final  -31.71 input   66.30 | X-H torsion
[ 10763 10752 10751 10750 ] final -162.30 input  -60.55 | X-H torsion
[ 11005 11000 10999 10996 ] final   85.01 input  -57.11 | X-H torsion

> <Gold.Protein.ActiveResidues>
 VAL166  LYS551  ARG553  GLY616  TRP617  ASP618  TYR619  PRO620  LYS621  CYS622 
 ASP623  PHE694  ASN695  SER759  ASP760  ASP761  ALA762  ILE779  LEU786  VAL792 
 PHE793  MET794  SER795  GLU796  ALA797  LYS798  CYS799  TRP800  GLU811  SER814 

> <Gold.Protein.RotatedAtoms>
  150.9259  133.6825  159.2821 H   0  0  0  0  0  0  0  0  0  0  0  0  # atno 6907 bound_to 6896
  151.4263  135.1003  159.9638 H   0  0  0  0  0  0  0  0  0  0  0  0  # atno 6908 bound_to 6896
  152.5002  133.8699  159.7348 H   0  0  0  0  0  0  0  0  0  0  0  0  # atno 6909 bound_to 6896
  145.5473  140.9501  143.1518 H   0  0  0  0  0  0  0  0  0  0  0  0  # atno 7974 bound_to 7965
  154.5145  140.2201  155.9093 H   0  0  0  0  0  0  0  0  0  0  0  0  # atno 8008 bound_to 7997
  156.1591  140.3146  155.8742 H   0  0  0  0  0  0  0  0  0  0  0  0  # atno 8009 bound_to 7997
  155.3787  140.0471  157.3035 H   0  0  0  0  0  0  0  0  0  0  0  0  # atno 8010 bound_to 7997
  140.4621  144.0890  150.6215 H   0  0  0  0  0  0  0  0  0  0  0  0  # atno 10167 bound_to 10162
  156.3839  130.4361  149.7447 H   0  0  0  0  0  0  0  0  0  0  0  0  # atno 10718 bound_to 10713
  154.7226  135.3029  154.9023 H   0  0  0  0  0  0  0  0  0  0  0  0  # atno 10763 bound_to 10752
  153.9890  135.6721  153.4757 H   0  0  0  0  0  0  0  0  0  0  0  0  # atno 10764 bound_to 10752
  153.0847  135.4990  154.8491 H   0  0  0  0  0  0  0  0  0  0  0  0  # atno 10765 bound_to 10752
  139.8983  134.8257  156.2524 H   0  0  0  0  0  0  0  0  0  0  0  0  # atno 11005 bound_to 11000
  144.7547  139.7105  143.7259 LP  0  0  0  0  0  0  0  0  0  0  0  0  # atno 17320 bound_to 7965
  146.1941  139.5197  142.9786 LP  0  0  0  0  0  0  0  0  0  0  0  0  # atno 17321 bound_to 7965
  140.4080  143.2671  151.9867 LP  0  0  0  0  0  0  0  0  0  0  0  0  # atno 17342 bound_to 10162
  139.4807  144.5940  151.7722 LP  0  0  0  0  0  0  0  0  0  0  0  0  # atno 17343 bound_to 10162
  156.4527  130.7914  151.2935 LP  0  0  0  0  0  0  0  0  0  0  0  0  # atno 17370 bound_to 10713
  157.7494  131.0090  150.3251 LP  0  0  0  0  0  0  0  0  0  0  0  0  # atno 17371 bound_to 10713
  141.0215  133.7038  156.1277 LP  0  0  0  0  0  0  0  0  0  0  0  0  # atno 17394 bound_to 11000
  140.7226  134.4341  157.5573 LP  0  0  0  0  0  0  0  0  0  0  0  0  # atno 17395 bound_to 11000

$$$$
