AV-unprocessed.smi:3118|AV-procd|sdf|11889|dock2
  -GOLD-   2272017273D 1   1.00000     0.00000
 Structure written by MMmdl.
 32 33  0  0  0  0  0  0  0  0  1 V2000
  149.2894  141.5928  154.8206 C   0  0  0  0  0  0  0  0  0  0  0  0
  150.0063  141.2785  156.1477 C   0  0  1  0  0  0  0  0  0  0  0  0
  151.4318  140.7261  155.9478 C   0  0  0  0  0  0  0  0  0  0  0  0
  151.4436  139.3488  155.4908 N   0  0  0  0  0  0  0  0  0  0  0  0
  150.8654  138.8472  154.3320 C   0  0  0  0  0  0  0  0  0  0  0  0
  151.1247  137.4954  154.3165 C   0  0  0  0  0  0  0  0  0  0  0  0
  151.8512  137.1443  155.4520 N   0  0  0  0  0  0  0  0  0  0  0  0
  151.9994  138.2924  156.1004 C   0  0  0  0  0  0  0  0  0  0  0  0
  150.0730  142.4742  156.9837 N   0  0  0  0  0  0  0  0  0  0  0  0
  150.5405  142.5227  158.2407 C   0  0  0  0  0  0  0  0  0  0  0  0
  150.9731  141.5368  158.8390 O   0  0  0  0  0  0  0  0  0  0  0  0
  150.5145  143.9019  158.9128 C   0  0  0  0  0  0  0  0  0  0  0  0
  151.4710  144.9437  158.3039 C   0  0  0  0  0  0  0  0  0  0  0  0
  151.8744  145.3425  159.7263 C   0  0  0  0  0  0  0  0  0  0  0  0
  151.3424  143.9889  160.2063 C   0  0  0  0  0  0  0  0  0  0  0  0
  149.1713  140.6984  154.2089 H   0  0  0  0  0  0  0  0  0  0  0  0
  149.8446  142.3260  154.2348 H   0  0  0  0  0  0  0  0  0  0  0  0
  148.2907  141.9944  154.9947 H   0  0  0  0  0  0  0  0  0  0  0  0
  149.4266  140.5198  156.6769 H   0  0  0  0  0  0  0  0  0  0  0  0
  151.9766  141.3355  155.2249 H   0  0  0  0  0  0  0  0  0  0  0  0
  151.9910  140.7754  156.8831 H   0  0  0  0  0  0  0  0  0  0  0  0
  150.3343  139.4768  153.6332 H   0  0  0  0  0  0  0  0  0  0  0  0
  150.8448  136.7540  153.5825 H   0  0  0  0  0  0  0  0  0  0  0  0
  152.5280  138.3664  157.0396 H   0  0  0  0  0  0  0  0  0  0  0  0
  149.7395  143.3342  156.5730 H   0  0  0  0  0  0  0  0  0  0  0  0
  149.5073  144.3028  159.0444 H   0  0  0  0  0  0  0  0  0  0  0  0
  152.3018  144.5211  157.7364 H   0  0  0  0  0  0  0  0  0  0  0  0
  150.9742  145.7377  157.7456 H   0  0  0  0  0  0  0  0  0  0  0  0
  152.9451  145.4886  159.8722 H   0  0  0  0  0  0  0  0  0  0  0  0
  151.2940  146.1837  160.1083 H   0  0  0  0  0  0  0  0  0  0  0  0
  150.7471  144.0445  161.1180 H   0  0  0  0  0  0  0  0  0  0  0  0
  152.1255  143.2328  160.2878 H   0  0  0  0  0  0  0  0  0  0  0  0
  1  2  1  0  0  0  0
  1 16  1  0  0  0  0
  1 17  1  0  0  0  0
  1 18  1  0  0  0  0
  2  3  1  0  0  0  0
  2  9  1  0  0  0  0
  2 19  1  0  0  0  0
  3  4  1  0  0  0  0
  3 20  1  0  0  0  0
  3 21  1  0  0  0  0
  4  8  1  0  0  0  0
  4  5  1  0  0  0  0
  5  6  2  0  0  0  0
  5 22  1  0  0  0  0
  6  7  1  0  0  0  0
  6 23  1  0  0  0  0
  7  8  2  0  0  0  0
  8 24  1  0  0  0  0
  9 10  1  0  0  0  0
  9 25  1  0  0  0  0
 10 11  2  0  0  0  0
 10 12  1  0  0  0  0
 12 15  1  0  0  0  0
 12 13  1  0  0  0  0
 12 26  1  0  0  0  0
 13 14  1  0  0  0  0
 13 27  1  0  0  0  0
 13 28  1  0  0  0  0
 14 15  1  0  0  0  0
 14 29  1  0  0  0  0
 14 30  1  0  0  0  0
 15 31  1  0  0  0  0
 15 32  1  0  0  0  0
M  END
> <s_m_source_file>
AV-unprocessed.smi

> <i_m_source_file_index>
3118

> <i_lp_mmshare_version>
43012

> <i_f3d_flags>
0

> <s_epik_input>
W0NIMl0xW0NIMl1bQ0gyXVtDSF0xQyg9TylbTkhdW0NASF0oW0NIM10pW0NIMl1uMltjSF1bY0hdbltjSF0y

> <s_epik_cmdline>
J2VwaWtfcHl0aG9uJywgJy1waCcsICc3LjAnLCAnLXRuJywgJzgnLCAnLW1hJywgJzIwMCcsICctbWV0YWxfYmluZGluZycsICctaW1hZScsICc8aW5maWxlLm1hZT4nLCAnLW9tYWUnLCAnPG91dGZpbGUubWFlPic=

> <r_lp_tautomer_probability>
1

> <r_epik_Ionization_Penalty>
0.642614

> <r_epik_Ionization_Penalty_Charging>
0.642614

> <r_epik_Ionization_Penalty_Neutral>
2.50867e-08

> <r_epik_State_Penalty>
0.660429

> <r_epik_Charging_Adjusted_Penalty>
1.30304

> <i_epik_Tot_Q>
0

> <i_epik_Tot_abs_Q>
0

> <r_epik_Metal_State_Penalty>
0.312239

> <b_epik_Metal_Only>
0

> <s_lp_Force_Field>
OPLS_2005

> <r_lp_Energy>
13.1137

> <b_lp_Chiralities_Consistent>
1

> <s_lp_Variant>
AV-unprocessed.smi:3118-4

> <Gold.Version>
5.8.1

> <Gold.Id.Protein>
6NUR|6NUR_protein|mol2

> <Gold.PLP.Fitness>
46.0967

> <Gold.PLP.PLP>
-34.9988

> <Gold.PLP.part.hbond>
-2.0000

> <Gold.PLP.part.metal>
0.0000

> <Gold.PLP.part.buried>
-3.5398

> <Gold.PLP.part.nonpolar>
-29.4300

> <Gold.PLP.part.repulsive>
0.0758

> <Gold.PLP.ligand.clash>
0.0000

> <Gold.PLP.ligand.torsion>
0.3505

> <Gold.PLP.Chemscore.Hbond>
1.9760

> <Gold.PLP.Chemscore.CHOScore>
1.8099

> <Gold.PLP.Chemscore.Metal>
0.0000

> <Gold.Chemscore.Hbonds>
donor molecule, donor type, donor heavy atom, donor atom, acceptor molecule, acceptor atom, score
      L1  H     9    25       P1  8028  1.00
      P1  H 10752 10765       L1     7  0.88
      L1  C     5    22       P1  7957  0.75
      L1  C     6    23       P1  7948  0.15
      L1  C     6    23       P1  7949  0.84

> <Gold.PLP.Chemscore.Internal.Correction>
0.4413

> <Gold.Rescore>
     Score         DG    S(hbond)    S(metal)    S(lipo)     H(rot)  DE(clash)    DE(int)     intcor
     16.37     -16.95       1.90        0.00      82.97       1.79       0.07       0.51       ----

> <Gold.Chemscore.Fitness>
16.3698

> <Gold.Chemscore.DG>
-16.9451

> <Gold.Chemscore.ZeroCoef>
-5.4800

> <Gold.Chemscore.Hbond>
1.8974

> <Gold.Chemscore.Metal>
0.0000

> <Gold.Chemscore.Lipo>
82.9695

> <Gold.Chemscore.Internal_Hbond>
0.0000

> <Gold.Chemscore.DEClash>
0.0663

> <Gold.Chemscore.DEInternal>
0.5090

> <Gold.Chemscore.Rot>
1.7889

> <Gold.Chemscore.Internal.Correction>
   9.000000E+99

> <Gold.Chemscore.Hbonds>
donor molecule, donor type, donor heavy atom, donor atom, acceptor molecule, acceptor atom, score
      L1  H     9    25       P1  8028  1.00
      P1  H 10752 10765       L1     7  0.18

> <Gold.Chemscore.Hbond.Weighted>
-6.3372

> <Gold.Chemscore.Metal.Weighted>
-0.0000

> <Gold.Chemscore.Lipo.Weighted>
-9.7074

> <Gold.Chemscore.Internal_Hbond.Weighted>
0.0000

> <Gold.Chemscore.DEClash.Weighted>
0.0663

> <Gold.Chemscore.DEInternal.Weighted>
0.5090

> <Gold.Chemscore.Rot.Weighted>
4.5795

> <Gold.Chemscore.Internal.Correction.Weighted>
   9.000000E+99

> <Gold.Protein.RotatedTorsions>
[ 6907 6896 6895 6894 ] final  -31.81 input  -60.11 | X-H torsion
[ 7974 7965 7964 7962 ] final  125.47 input  175.53 | X-H torsion
[ 8008 7997 7996 7995 ] final  177.51 input   59.86 | X-H torsion
[ 10167 10162 10161 10158 ] final  -51.76 input  -65.29 | X-H torsion
[ 10718 10713 10712 10709 ] final -137.88 input   66.30 | X-H torsion
[ 10763 10752 10751 10750 ] final -175.62 input  -60.55 | X-H torsion
[ 11005 11000 10999 10996 ] final  104.27 input  -57.11 | X-H torsion

> <Gold.Protein.ActiveResidues>
 VAL166  LYS551  ARG553  GLY616  TRP617  ASP618  TYR619  PRO620  LYS621  CYS622 
 ASP623  PHE694  ASN695  SER759  ASP760  ASP761  ALA762  ILE779  LEU786  VAL792 
 PHE793  MET794  SER795  GLU796  ALA797  LYS798  CYS799  TRP800  GLU811  SER814 

> <Gold.Protein.RotatedAtoms>
  151.0871  134.9893  159.8384 H   0  0  0  0  0  0  0  0  0  0  0  0  # atno 6907 bound_to 6896
  152.5425  134.2111  159.8760 H   0  0  0  0  0  0  0  0  0  0  0  0  # atno 6908 bound_to 6896
  151.2145  133.4493  159.2632 H   0  0  0  0  0  0  0  0  0  0  0  0  # atno 6909 bound_to 6896
  145.0727  139.3718  143.4949 H   0  0  0  0  0  0  0  0  0  0  0  0  # atno 7974 bound_to 7965
  156.0649  140.1357  156.9898 H   0  0  0  0  0  0  0  0  0  0  0  0  # atno 8008 bound_to 7997
  154.4501  140.0984  156.6643 H   0  0  0  0  0  0  0  0  0  0  0  0  # atno 8009 bound_to 7997
  155.5319  140.3459  155.4430 H   0  0  0  0  0  0  0  0  0  0  0  0  # atno 8010 bound_to 7997
  140.6572  143.2608  151.4549 H   0  0  0  0  0  0  0  0  0  0  0  0  # atno 10167 bound_to 10162
  156.2931  130.7386  151.1417 H   0  0  0  0  0  0  0  0  0  0  0  0  # atno 10718 bound_to 10713
  154.5822  135.2837  155.0721 H   0  0  0  0  0  0  0  0  0  0  0  0  # atno 10763 bound_to 10752
  154.2053  135.6417  153.5103 H   0  0  0  0  0  0  0  0  0  0  0  0  # atno 10764 bound_to 10752
  153.0092  135.5479  154.6480 H   0  0  0  0  0  0  0  0  0  0  0  0  # atno 10765 bound_to 10752
  139.8790  134.9294  156.5336 H   0  0  0  0  0  0  0  0  0  0  0  0  # atno 11005 bound_to 11000
  146.3529  140.0479  142.8638 LP  0  0  0  0  0  0  0  0  0  0  0  0  # atno 17320 bound_to 7965
  145.1273  140.9498  143.4565 LP  0  0  0  0  0  0  0  0  0  0  0  0  # atno 17321 bound_to 7965
  139.5797  144.1737  152.1952 LP  0  0  0  0  0  0  0  0  0  0  0  0  # atno 17342 bound_to 10162
  140.1058  144.5500  150.6958 LP  0  0  0  0  0  0  0  0  0  0  0  0  # atno 17343 bound_to 10162
  157.7348  131.0578  150.5506 LP  0  0  0  0  0  0  0  0  0  0  0  0  # atno 17370 bound_to 10713
  156.5624  130.4259  149.6057 LP  0  0  0  0  0  0  0  0  0  0  0  0  # atno 17371 bound_to 10713
  140.8362  133.8240  155.9031 LP  0  0  0  0  0  0  0  0  0  0  0  0  # atno 17394 bound_to 11000
  140.9281  134.2057  157.4882 LP  0  0  0  0  0  0  0  0  0  0  0  0  # atno 17395 bound_to 11000

$$$$
