AV-unprocessed.smi:2195|AV-procd|sdf|8905|dock8
  -GOLD-   2272012123D 1   1.00000     0.00000
 Structure written by MMmdl.
 39 41  0  0  0  0  0  0  0  0  1 V2000
  148.5322  142.4593  154.0233 C   0  0  0  0  0  0  0  0  0  0  0  0
  149.5729  141.6893  154.8100 C   0  0  0  0  0  0  0  0  0  0  0  0
  150.2459  140.5966  154.2284 C   0  0  0  0  0  0  0  0  0  0  0  0
  151.2129  139.8884  154.9676 C   0  0  0  0  0  0  0  0  0  0  0  0
  151.5235  140.2576  156.2927 C   0  0  0  0  0  0  0  0  0  0  0  0
  152.4846  139.5119  156.9411 O   0  0  0  0  0  0  0  0  0  0  0  0
  152.3981  139.3817  158.3543 C   0  0  0  0  0  0  0  0  0  0  0  0
  153.5550  138.4946  158.8403 C   0  0  1  0  0  0  0  0  0  0  0  0
  153.9113  137.6108  157.7949 O   0  0  0  0  0  0  0  0  0  0  0  0
  154.7923  139.3247  159.2345 C   0  0  0  0  0  0  0  0  0  0  0  0
  154.5796  140.0962  160.4462 N   0  0  0  0  0  0  0  0  0  0  0  0
  155.0988  139.8566  161.6659 C   0  0  0  0  0  0  0  0  0  0  0  0
  154.7699  140.6960  162.6440 N   0  0  0  0  0  0  0  0  0  0  0  0
  153.9388  141.5835  161.9822 C   0  0  0  0  0  0  0  0  0  0  0  0
  153.2478  142.7215  162.4569 C   0  0  0  0  0  0  0  0  0  0  0  0
  152.4449  143.4853  161.5844 C   0  0  0  0  0  0  0  0  0  0  0  0
  152.3207  143.1248  160.2266 C   0  0  0  0  0  0  0  0  0  0  0  0
  153.0005  141.9959  159.7303 C   0  0  0  0  0  0  0  0  0  0  0  0
  153.7999  141.2362  160.6045 C   0  0  0  0  0  0  0  0  0  0  0  0
  150.8398  141.3558  156.8729 C   0  0  0  0  0  0  0  0  0  0  0  0
  149.8722  142.0644  156.1343 C   0  0  0  0  0  0  0  0  0  0  0  0
  148.4940  142.1299  152.9846 H   0  0  0  0  0  0  0  0  0  0  0  0
  148.7624  143.5249  154.0329 H   0  0  0  0  0  0  0  0  0  0  0  0
  147.5451  142.3169  154.4635 H   0  0  0  0  0  0  0  0  0  0  0  0
  150.0247  140.2968  153.2144 H   0  0  0  0  0  0  0  0  0  0  0  0
  151.7233  139.0530  154.5112 H   0  0  0  0  0  0  0  0  0  0  0  0
  152.4193  140.3525  158.8530 H   0  0  0  0  0  0  0  0  0  0  0  0
  151.4486  138.9018  158.5975 H   0  0  0  0  0  0  0  0  0  0  0  0
  153.2296  137.9107  159.7024 H   0  0  0  0  0  0  0  0  0  0  0  0
  154.8493  137.4954  157.8089 H   0  0  0  0  0  0  0  0  0  0  0  0
  155.6582  138.6765  159.3787 H   0  0  0  0  0  0  0  0  0  0  0  0
  155.0525  140.0186  158.4342 H   0  0  0  0  0  0  0  0  0  0  0  0
  155.7526  139.0159  161.8463 H   0  0  0  0  0  0  0  0  0  0  0  0
  153.3354  143.0069  163.4947 H   0  0  0  0  0  0  0  0  0  0  0  0
  151.9212  144.3525  161.9594 H   0  0  0  0  0  0  0  0  0  0  0  0
  151.7029  143.7154  159.5661 H   0  0  0  0  0  0  0  0  0  0  0  0
  152.9086  141.7160  158.6913 H   0  0  0  0  0  0  0  0  0  0  0  0
  151.0386  141.6754  157.8845 H   0  0  0  0  0  0  0  0  0  0  0  0
  149.3592  142.8995  156.5886 H   0  0  0  0  0  0  0  0  0  0  0  0
  1  2  1  0  0  0  0
  1 22  1  0  0  0  0
  1 23  1  0  0  0  0
  1 24  1  0  0  0  0
  2 21  1  0  0  0  0
  2  3  2  0  0  0  0
  3  4  1  0  0  0  0
  3 25  1  0  0  0  0
  4  5  2  0  0  0  0
  4 26  1  0  0  0  0
  5  6  1  0  0  0  0
  5 20  1  0  0  0  0
  6  7  1  0  0  0  0
  7  8  1  0  0  0  0
  7 27  1  0  0  0  0
  7 28  1  0  0  0  0
  8  9  1  0  0  0  0
  8 10  1  0  0  0  0
  8 29  1  0  0  0  0
  9 30  1  0  0  0  0
 10 11  1  0  0  0  0
 10 31  1  0  0  0  0
 10 32  1  0  0  0  0
 11 19  1  0  0  0  0
 11 12  1  0  0  0  0
 12 13  2  0  0  0  0
 12 33  1  0  0  0  0
 13 14  1  0  0  0  0
 14 19  2  0  0  0  0
 14 15  1  0  0  0  0
 15 16  2  0  0  0  0
 15 34  1  0  0  0  0
 16 17  1  0  0  0  0
 16 35  1  0  0  0  0
 17 18  2  0  0  0  0
 17 36  1  0  0  0  0
 18 19  1  0  0  0  0
 18 37  1  0  0  0  0
 20 21  2  0  0  0  0
 20 38  1  0  0  0  0
 21 39  1  0  0  0  0
M  END
> <s_m_source_file>
AV-unprocessed.smi

> <i_m_source_file_index>
2195

> <i_lp_mmshare_version>
43012

> <i_f3d_flags>
0

> <s_epik_input>
W0NIM11jMVtjSF1bY0hdYyhbY0hdW2NIXTEpT1tDSDJdW0NASF0oW09IXSlbQ0gyXW4oW2NIXW4yKWMoYzIzKVtjSF1bY0hdW2NIXVtjSF0z

> <s_epik_cmdline>
J2VwaWtfcHl0aG9uJywgJy1waCcsICc3LjAnLCAnLXRuJywgJzgnLCAnLW1hJywgJzIwMCcsICctbWV0YWxfYmluZGluZycsICctaW1hZScsICc8aW5maWxlLm1hZT4nLCAnLW9tYWUnLCAnPG91dGZpbGUubWFlPic=

> <r_lp_tautomer_probability>
1

> <r_epik_Ionization_Penalty>
0.0609831

> <r_epik_Ionization_Penalty_Charging>
0

> <r_epik_Ionization_Penalty_Neutral>
0.0609831

> <r_epik_State_Penalty>
0.0529032

> <r_epik_Charging_Adjusted_Penalty>
0.0529032

> <i_epik_Tot_Q>
0

> <i_epik_Tot_abs_Q>
0

> <r_epik_Metal_State_Penalty>
5.53344e-05

> <b_epik_Metal_Only>
0

> <s_lp_Force_Field>
OPLS_2005

> <r_lp_Energy>
16.3269

> <b_lp_Chiralities_Consistent>
1

> <s_lp_Variant>
AV-unprocessed.smi:2195-2

> <Gold.Version>
5.8.1

> <Gold.Id.Protein>
6NUR|6NUR_protein|mol2

> <Gold.PLP.Fitness>
50.0054

> <Gold.PLP.PLP>
-48.9551

> <Gold.PLP.part.hbond>
-2.0000

> <Gold.PLP.part.metal>
0.0000

> <Gold.PLP.part.buried>
1.1626

> <Gold.PLP.part.nonpolar>
-45.9110

> <Gold.PLP.part.repulsive>
0.0000

> <Gold.PLP.ligand.clash>
0.0000

> <Gold.PLP.ligand.torsion>
0.9918

> <Gold.PLP.Chemscore.Hbond>
1.0000

> <Gold.PLP.Chemscore.CHOScore>
0.0000

> <Gold.PLP.Chemscore.Metal>
0.0000

> <Gold.Chemscore.Hbonds>
donor molecule, donor type, donor heavy atom, donor atom, acceptor molecule, acceptor atom, score
      P1  H  7997  8010       L1     6  0.35

> <Gold.PLP.Chemscore.Internal.Correction>
0.0339

> <Gold.Rescore>
     Score         DG    S(hbond)    S(metal)    S(lipo)     H(rot)  DE(clash)    DE(int)     intcor
     15.17     -17.72       0.83        0.00     128.66       2.19       1.53       1.01       ----

> <Gold.Chemscore.Fitness>
15.1745

> <Gold.Chemscore.DG>
-17.7206

> <Gold.Chemscore.ZeroCoef>
-5.4800

> <Gold.Chemscore.Hbond>
0.8348

> <Gold.Chemscore.Metal>
0.0000

> <Gold.Chemscore.Lipo>
128.6580

> <Gold.Chemscore.Internal_Hbond>
0.0000

> <Gold.Chemscore.DEClash>
1.5319

> <Gold.Chemscore.DEInternal>
1.0142

> <Gold.Chemscore.Rot>
2.1877

> <Gold.Chemscore.Internal.Correction>
   9.000000E+99

> <Gold.Chemscore.Hbonds>
donor molecule, donor type, donor heavy atom, donor atom, acceptor molecule, acceptor atom, score
      P1  H  7997  8010       L1     6  0.03

> <Gold.Chemscore.Hbond.Weighted>
-2.7881

> <Gold.Chemscore.Metal.Weighted>
-0.0000

> <Gold.Chemscore.Lipo.Weighted>
-15.0530

> <Gold.Chemscore.Internal_Hbond.Weighted>
0.0000

> <Gold.Chemscore.DEClash.Weighted>
1.5319

> <Gold.Chemscore.DEInternal.Weighted>
1.0142

> <Gold.Chemscore.Rot.Weighted>
5.6005

> <Gold.Chemscore.Internal.Correction.Weighted>
   9.000000E+99

> <Gold.Protein.RotatedTorsions>
[ 6907 6896 6895 6894 ] final -119.80 input  -60.11 | X-H torsion
[ 7974 7965 7964 7962 ] final -129.21 input  175.53 | X-H torsion
[ 8008 7997 7996 7995 ] final   34.30 input   59.86 | X-H torsion
[ 10167 10162 10161 10158 ] final  -55.09 input  -65.29 | X-H torsion
[ 10718 10713 10712 10709 ] final    4.17 input   66.30 | X-H torsion
[ 10763 10752 10751 10750 ] final -111.54 input  -60.55 | X-H torsion
[ 11005 11000 10999 10996 ] final  -30.68 input  -57.11 | X-H torsion

> <Gold.Protein.ActiveResidues>
 VAL166  LYS551  ARG553  GLY616  TRP617  ASP618  TYR619  PRO620  LYS621  CYS622 
 ASP623  PHE694  ASN695  SER759  ASP760  ASP761  ALA762  ILE779  LEU786  VAL792 
 PHE793  MET794  SER795  GLU796  ALA797  LYS798  CYS799  TRP800  GLU811  SER814 

> <Gold.Protein.RotatedAtoms>
  150.8337  133.8049  159.3088 H   0  0  0  0  0  0  0  0  0  0  0  0  # atno 6907 bound_to 6896
  151.5772  135.1058  160.0018 H   0  0  0  0  0  0  0  0  0  0  0  0  # atno 6908 bound_to 6896
  152.4412  133.7410  159.6697 H   0  0  0  0  0  0  0  0  0  0  0  0  # atno 6909 bound_to 6896
  144.9595  140.7431  143.4738 H   0  0  0  0  0  0  0  0  0  0  0  0  # atno 7974 bound_to 7965
  155.1526  140.3276  155.4428 H   0  0  0  0  0  0  0  0  0  0  0  0  # atno 8008 bound_to 7997
  156.2569  140.1974  156.6587 H   0  0  0  0  0  0  0  0  0  0  0  0  # atno 8009 bound_to 7997
  154.6462  140.0564  156.9890 H   0  0  0  0  0  0  0  0  0  0  0  0  # atno 8010 bound_to 7997
  140.6394  143.2499  151.5029 H   0  0  0  0  0  0  0  0  0  0  0  0  # atno 10167 bound_to 10162
  156.8887  130.5679  149.5650 H   0  0  0  0  0  0  0  0  0  0  0  0  # atno 10718 bound_to 10713
  154.8305  135.4524  154.1055 H   0  0  0  0  0  0  0  0  0  0  0  0  # atno 10763 bound_to 10752
  153.2332  135.6908  153.7873 H   0  0  0  0  0  0  0  0  0  0  0  0  # atno 10764 bound_to 10752
  153.7248  135.3336  155.3250 H   0  0  0  0  0  0  0  0  0  0  0  0  # atno 10765 bound_to 10752
  140.9404  133.7282  156.1067 H   0  0  0  0  0  0  0  0  0  0  0  0  # atno 11005 bound_to 11000
  145.2722  139.1950  143.4835 LP  0  0  0  0  0  0  0  0  0  0  0  0  # atno 17320 bound_to 7965
  146.3348  140.2670  142.8604 LP  0  0  0  0  0  0  0  0  0  0  0  0  # atno 17321 bound_to 7965
  139.5604  144.2171  152.1681 LP  0  0  0  0  0  0  0  0  0  0  0  0  # atno 17342 bound_to 10162
  140.1437  144.5178  150.6728 LP  0  0  0  0  0  0  0  0  0  0  0  0  # atno 17343 bound_to 10162
  156.0640  130.5687  150.9251 LP  0  0  0  0  0  0  0  0  0  0  0  0  # atno 17370 bound_to 10713
  157.6097  131.0937  150.8817 LP  0  0  0  0  0  0  0  0  0  0  0  0  # atno 17371 bound_to 10713
  140.7742  134.3798  157.5501 LP  0  0  0  0  0  0  0  0  0  0  0  0  # atno 17394 bound_to 11000
  139.8819  134.9041  156.2870 LP  0  0  0  0  0  0  0  0  0  0  0  0  # atno 17395 bound_to 11000

$$$$
