AV-unprocessed.smi:17|AV-procd|sdf|103|dock2
  -GOLD-   2262015253D 1   1.00000     0.00000
 Structure written by MMmdl.
 57 59  0  0  0  0  0  0  0  0  1 V2000
  153.3929  136.9802  162.4777 C   0  0  0  0  0  0  0  0  0  0  0  0
  153.2100  136.5277  161.0203 C   0  0  0  0  0  0  0  0  0  0  0  0
  153.2477  137.6362  160.0617 N   0  0  0  0  0  0  0  0  0  0  0  0
  152.1041  137.9335  159.3854 C   0  0  0  0  0  0  0  0  0  0  0  0
  151.0499  137.0775  159.4610 N   0  0  0  0  0  0  0  0  0  0  0  0
  149.9157  137.3341  158.8043 C   0  0  0  0  0  0  0  0  0  0  0  0
  149.6217  138.3750  158.0251 N   0  0  0  0  0  0  0  0  0  0  0  0
  150.6703  139.2419  157.9441 C   0  0  0  0  0  0  0  0  0  0  0  0
  151.9369  139.0995  158.5812 C   0  0  0  0  0  0  0  0  0  0  0  0
  152.7405  140.1905  158.2674 N   0  0  0  0  0  0  0  0  0  0  0  0
  151.9957  140.9310  157.4937 C   0  0  0  0  0  0  0  0  0  0  0  0
  150.7344  140.4393  157.2530 N   0  0  0  0  0  0  0  0  0  0  0  0
  149.7050  141.0630  156.4394 C   0  0  0  0  0  0  0  0  0  0  0  0
  148.6813  140.0481  155.8636 C   0  0  2  0  0  0  0  0  0  0  0  0
  149.3098  139.1845  154.7393 C   0  0  0  0  0  0  0  0  0  0  0  0
  149.9946  139.9833  153.7965 O   0  0  0  0  0  0  0  0  0  0  0  0
  147.3576  140.7535  155.4365 C   0  0  2  0  0  0  0  0  0  0  0  0
  146.3312  139.8111  154.8138 C   0  0  0  0  0  0  0  0  0  0  0  0
  146.7126  139.7798  153.3316 C   0  0  0  0  0  0  0  0  0  0  0  0
  147.5199  140.9309  153.1091 O   0  0  0  0  0  0  0  0  0  0  0  0
  147.4924  141.7438  154.2724 C   0  0  0  0  0  0  0  0  0  0  0  0
  154.3346  138.6256  160.0990 C   0  0  1  0  0  0  0  0  0  0  0  0
  153.9515  139.8601  160.9330 C   0  0  0  0  0  0  0  0  0  0  0  0
  155.6752  138.0189  160.5670 C   0  0  0  0  0  0  0  0  0  0  0  0
  157.1492  138.9990  160.0224 S   0  0  0  0  0  0  0  0  0  0  0  0
  158.5591  137.9299  160.5283 C   0  0  0  0  0  0  0  0  0  0  0  0
  157.1535  139.0983  158.5547 O   0  0  0  0  0  0  0  0  0  0  0  0
  157.2062  140.2213  160.8382 O   0  0  0  0  0  0  0  0  0  0  0  0
  153.4008  136.1205  163.1475 H   0  0  0  0  0  0  0  0  0  0  0  0
  152.5843  137.6370  162.7989 H   0  0  0  0  0  0  0  0  0  0  0  0
  154.3326  137.5146  162.6162 H   0  0  0  0  0  0  0  0  0  0  0  0
  154.0028  135.8201  160.7817 H   0  0  0  0  0  0  0  0  0  0  0  0
  152.2839  135.9658  160.9150 H   0  0  0  0  0  0  0  0  0  0  0  0
  149.1310  136.6014  158.9211 H   0  0  0  0  0  0  0  0  0  0  0  0
  152.3446  141.8661  157.0800 H   0  0  0  0  0  0  0  0  0  0  0  0
  149.2177  141.8097  157.0634 H   0  0  0  0  0  0  0  0  0  0  0  0
  150.1852  141.6140  155.6298 H   0  0  0  0  0  0  0  0  0  0  0  0
  148.4345  139.3555  156.6696 H   0  0  0  0  0  0  0  0  0  0  0  0
  150.0075  138.4530  155.1456 H   0  0  0  0  0  0  0  0  0  0  0  0
  148.5557  138.5934  154.2226 H   0  0  0  0  0  0  0  0  0  0  0  0
  149.6937  139.7515  152.9311 H   0  0  0  0  0  0  0  0  0  0  0  0
  146.9340  141.2592  156.3055 H   0  0  0  0  0  0  0  0  0  0  0  0
  146.2868  138.8156  155.2516 H   0  0  0  0  0  0  0  0  0  0  0  0
  145.3363  140.2471  154.9177 H   0  0  0  0  0  0  0  0  0  0  0  0
  147.2953  138.8899  153.0927 H   0  0  0  0  0  0  0  0  0  0  0  0
  145.8312  139.7912  152.6901 H   0  0  0  0  0  0  0  0  0  0  0  0
  146.6071  142.3801  154.2243 H   0  0  0  0  0  0  0  0  0  0  0  0
  148.3510  142.4100  154.3255 H   0  0  0  0  0  0  0  0  0  0  0  0
  154.5184  138.9890  159.0880 H   0  0  0  0  0  0  0  0  0  0  0  0
  154.7238  140.6273  160.8715 H   0  0  0  0  0  0  0  0  0  0  0  0
  153.8203  139.6096  161.9857 H   0  0  0  0  0  0  0  0  0  0  0  0
  153.0221  140.3044  160.5759 H   0  0  0  0  0  0  0  0  0  0  0  0
  155.6982  138.0195  161.6570 H   0  0  0  0  0  0  0  0  0  0  0  0
  155.8046  136.9828  160.2571 H   0  0  0  0  0  0  0  0  0  0  0  0
  159.4931  138.4660  160.3630 H   0  0  0  0  0  0  0  0  0  0  0  0
  158.5677  137.0189  159.9348 H   0  0  0  0  0  0  0  0  0  0  0  0
  158.4703  137.6787  161.5849 H   0  0  0  0  0  0  0  0  0  0  0  0
  1  2  1  0  0  0  0
  1 29  1  0  0  0  0
  1 30  1  0  0  0  0
  1 31  1  0  0  0  0
  2  3  1  0  0  0  0
  2 32  1  0  0  0  0
  2 33  1  0  0  0  0
  3  4  1  0  0  0  0
  3 22  1  0  0  0  0
  4  9  1  0  0  0  0
  4  5  2  0  0  0  0
  5  6  1  0  0  0  0
  6  7  2  0  0  0  0
  6 34  1  0  0  0  0
  7  8  1  0  0  0  0
  8 12  1  0  0  0  0
  8  9  2  0  0  0  0
  9 10  1  0  0  0  0
 10 11  2  0  0  0  0
 11 12  1  0  0  0  0
 11 35  1  0  0  0  0
 12 13  1  0  0  0  0
 13 14  1  0  0  0  0
 13 36  1  0  0  0  0
 13 37  1  0  0  0  0
 14 15  1  0  0  0  0
 14 17  1  0  0  0  0
 14 38  1  0  0  0  0
 15 16  1  0  0  0  0
 15 39  1  0  0  0  0
 15 40  1  0  0  0  0
 16 41  1  0  0  0  0
 17 21  1  0  0  0  0
 17 18  1  0  0  0  0
 17 42  1  0  0  0  0
 18 19  1  0  0  0  0
 18 43  1  0  0  0  0
 18 44  1  0  0  0  0
 19 20  1  0  0  0  0
 19 45  1  0  0  0  0
 19 46  1  0  0  0  0
 20 21  1  0  0  0  0
 21 47  1  0  0  0  0
 21 48  1  0  0  0  0
 22 23  1  0  0  0  0
 22 24  1  0  0  0  0
 22 49  1  0  0  0  0
 23 50  1  0  0  0  0
 23 51  1  0  0  0  0
 23 52  1  0  0  0  0
 24 25  1  0  0  0  0
 24 53  1  0  0  0  0
 24 54  1  0  0  0  0
 25 26  1  0  0  0  0
 25 27  2  0  0  0  0
 25 28  2  0  0  0  0
 26 55  1  0  0  0  0
 26 56  1  0  0  0  0
 26 57  1  0  0  0  0
M  END
> <s_m_source_file>
AV-unprocessed.smi

> <i_m_source_file_index>
17

> <i_lp_mmshare_version>
43012

> <i_f3d_flags>
0

> <s_epik_input>
W0NIM11TKD1PKSg9TylbQ0gyXVtDQEBIXShbQ0gzXSlOKFtDSDJdW0NIM10pYyhuW2NIXW4xKWMoYzEyKW5bY0hdbjJbQ0gyXVtDQEhdKFtDSDJdW09IXSlbQ0BASF0zW0NIMl1bQ0gyXU9bQ0gyXTM=

> <s_epik_cmdline>
J2VwaWtfcHl0aG9uJywgJy1waCcsICc3LjAnLCAnLXRuJywgJzgnLCAnLW1hJywgJzIwMCcsICctbWV0YWxfYmluZGluZycsICctaW1hZScsICc8aW5maWxlLm1hZT4nLCAnLW9tYWUnLCAnPG91dGZpbGUubWFlPic=

> <r_lp_tautomer_probability>
1

> <r_epik_Ionization_Penalty>
0.00119955

> <r_epik_Ionization_Penalty_Charging>
0

> <r_epik_Ionization_Penalty_Neutral>
0.00119955

> <r_epik_State_Penalty>
0.000665399

> <r_epik_Charging_Adjusted_Penalty>
0.000665399

> <i_epik_Tot_Q>
0

> <i_epik_Tot_abs_Q>
0

> <r_epik_Metal_State_Penalty>
-0

> <b_epik_Metal_Only>
0

> <s_lp_Force_Field>
OPLS_2005

> <r_lp_Energy>
34.7732

> <b_lp_Chiralities_Consistent>
1

> <s_lp_Variant>
AV-unprocessed.smi:17-5

> <Gold.Version>
5.8.1

> <Gold.Id.Protein>
6NUR|6NUR_protein|mol2

> <Gold.PLP.Fitness>
48.7099

> <Gold.PLP.PLP>
-36.5379

> <Gold.PLP.part.hbond>
-6.0000

> <Gold.PLP.part.metal>
0.0000

> <Gold.PLP.part.buried>
-7.0939

> <Gold.PLP.part.nonpolar>
-24.3540

> <Gold.PLP.part.repulsive>
1.2382

> <Gold.PLP.ligand.clash>
0.0000

> <Gold.PLP.ligand.torsion>
1.4986

> <Gold.PLP.Chemscore.Hbond>
4.4047

> <Gold.PLP.Chemscore.CHOScore>
0.0000

> <Gold.PLP.Chemscore.Metal>
0.0000

> <Gold.Chemscore.Hbonds>
donor molecule, donor type, donor heavy atom, donor atom, acceptor molecule, acceptor atom, score
      L1  H    16    41       P1  7957  1.00
      P1  H  6896  6907       L1     5  1.00
      P1  H  7989  7998       L1    16  0.82
      P1  H  7997  8008       L1    27  0.53
      P1  H  7997  8009       L1    10  0.44

> <Gold.PLP.Chemscore.Internal.Correction>
1.9552

> <Gold.Rescore>
     Score         DG    S(hbond)    S(metal)    S(lipo)     H(rot)  DE(clash)    DE(int)     intcor
      5.93     -16.09       3.52        0.00      66.94       3.51       1.51       8.66       ----

> <Gold.Chemscore.Fitness>
5.9315

> <Gold.Chemscore.DG>
-16.0932

> <Gold.Chemscore.ZeroCoef>
-5.4800

> <Gold.Chemscore.Hbond>
3.5197

> <Gold.Chemscore.Metal>
0.0000

> <Gold.Chemscore.Lipo>
66.9445

> <Gold.Chemscore.Internal_Hbond>
0.0000

> <Gold.Chemscore.DEClash>
1.5053

> <Gold.Chemscore.DEInternal>
8.6563

> <Gold.Chemscore.Rot>
3.5059

> <Gold.Chemscore.Internal.Correction>
   9.000000E+99

> <Gold.Chemscore.Hbonds>
donor molecule, donor type, donor heavy atom, donor atom, acceptor molecule, acceptor atom, score
      L1  H    16    41       P1  7957  0.95
      P1  H  6896  6907       L1     5  0.85
      P1  H  7989  7998       L1    16  0.32
      P1  H  7997  8008       L1    27  0.52
      P1  H  7997  8009       L1    10  0.07

> <Gold.Chemscore.Hbond.Weighted>
-11.7557

> <Gold.Chemscore.Metal.Weighted>
-0.0000

> <Gold.Chemscore.Lipo.Weighted>
-7.8325

> <Gold.Chemscore.Internal_Hbond.Weighted>
0.0000

> <Gold.Chemscore.DEClash.Weighted>
1.5053

> <Gold.Chemscore.DEInternal.Weighted>
8.6563

> <Gold.Chemscore.Rot.Weighted>
8.9750

> <Gold.Chemscore.Internal.Correction.Weighted>
   9.000000E+99

> <Gold.Protein.RotatedTorsions>
[ 6907 6896 6895 6894 ] final   -4.22 input  -60.11 | X-H torsion
[ 7974 7965 7964 7962 ] final   80.52 input  175.53 | X-H torsion
[ 8008 7997 7996 7995 ] final  163.99 input   59.86 | X-H torsion
[ 10167 10162 10161 10158 ] final   61.81 input  -65.29 | X-H torsion
[ 10718 10713 10712 10709 ] final -137.34 input   66.30 | X-H torsion
[ 10763 10752 10751 10750 ] final -135.51 input  -60.55 | X-H torsion
[ 11005 11000 10999 10996 ] final -118.40 input  -57.11 | X-H torsion

> <Gold.Protein.ActiveResidues>
 VAL166  LYS551  ARG553  GLY616  TRP617  ASP618  TYR619  PRO620  LYS621  CYS622 
 ASP623  PHE694  ASN695  SER759  ASP760  ASP761  ALA762  ILE779  LEU786  VAL792 
 PHE793  MET794  SER795  GLU796  ALA797  LYS798  CYS799  TRP800  GLU811  SER814 

> <Gold.Protein.RotatedAtoms>
  151.5012  135.1062  159.9828 H   0  0  0  0  0  0  0  0  0  0  0  0  # atno 6907 bound_to 6896
  152.4701  133.8006  159.6961 H   0  0  0  0  0  0  0  0  0  0  0  0  # atno 6908 bound_to 6896
  150.8705  133.7449  159.2988 H   0  0  0  0  0  0  0  0  0  0  0  0  # atno 6909 bound_to 6896
  145.6501  139.2445  143.1981 H   0  0  0  0  0  0  0  0  0  0  0  0  # atno 7974 bound_to 7965
  156.1915  140.1709  156.8083 H   0  0  0  0  0  0  0  0  0  0  0  0  # atno 8008 bound_to 7997
  154.5477  140.0724  156.8647 H   0  0  0  0  0  0  0  0  0  0  0  0  # atno 8009 bound_to 7997
  155.3090  140.3366  155.4247 H   0  0  0  0  0  0  0  0  0  0  0  0  # atno 8010 bound_to 7997
  140.1508  144.4465  150.6760 H   0  0  0  0  0  0  0  0  0  0  0  0  # atno 10167 bound_to 10162
  156.2870  130.7353  151.1368 H   0  0  0  0  0  0  0  0  0  0  0  0  # atno 10718 bound_to 10713
  154.8701  135.3701  154.4910 H   0  0  0  0  0  0  0  0  0  0  0  0  # atno 10763 bound_to 10752
  153.5557  135.7024  153.5575 H   0  0  0  0  0  0  0  0  0  0  0  0  # atno 10764 bound_to 10752
  153.3674  135.4030  155.1727 H   0  0  0  0  0  0  0  0  0  0  0  0  # atno 10765 bound_to 10752
  141.0288  134.0012  157.3174 H   0  0  0  0  0  0  0  0  0  0  0  0  # atno 11005 bound_to 11000
  146.1210  140.7308  142.9457 LP  0  0  0  0  0  0  0  0  0  0  0  0  # atno 17320 bound_to 7965
  144.7125  140.4093  143.7069 LP  0  0  0  0  0  0  0  0  0  0  0  0  # atno 17321 bound_to 7965
  140.6704  143.2283  151.5640 LP  0  0  0  0  0  0  0  0  0  0  0  0  # atno 17342 bound_to 10162
  139.5427  144.2604  152.1382 LP  0  0  0  0  0  0  0  0  0  0  0  0  # atno 17343 bound_to 10162
  157.7331  131.0593  150.5592 LP  0  0  0  0  0  0  0  0  0  0  0  0  # atno 17370 bound_to 10713
  156.5704  130.4278  149.6022 LP  0  0  0  0  0  0  0  0  0  0  0  0  # atno 17371 bound_to 10713
  139.9194  135.0199  156.8006 LP  0  0  0  0  0  0  0  0  0  0  0  0  # atno 17394 bound_to 11000
  140.6443  133.9790  155.7723 LP  0  0  0  0  0  0  0  0  0  0  0  0  # atno 17395 bound_to 11000

$$$$
