AV-unprocessed.smi:1913|AV-procd|sdf|7753|dock5
  -GOLD-   22720 9493D 1   1.00000     0.00000
 Structure written by MMmdl.
 40 42  0  0  0  0  0  0  0  0  1 V2000
  155.5032  137.5772  164.0957 C   0  0  0  0  0  0  0  0  0  0  0  0
  156.8526  137.5344  163.6548 O   0  0  0  0  0  0  0  0  0  0  0  0
  157.2350  138.3986  162.6511 C   0  0  0  0  0  0  0  0  0  0  0  0
  158.5544  138.8763  162.4717 C   0  0  0  0  0  0  0  0  0  0  0  0
  158.8551  139.7648  161.4229 C   0  0  0  0  0  0  0  0  0  0  0  0
  157.8477  140.1956  160.5243 C   0  0  0  0  0  0  0  0  0  0  0  0
  158.0810  141.0784  159.4890 O   0  0  0  0  0  0  0  0  0  0  0  0
  159.3659  141.6724  159.3810 C   0  0  0  0  0  0  0  0  0  0  0  0
  156.5290  139.7074  160.6918 C   0  0  0  0  0  0  0  0  0  0  0  0
  155.4222  140.1565  159.7418 C   0  0  1  0  0  0  0  0  0  0  0  0
  154.9774  139.1246  158.8803 O   0  0  0  0  0  0  0  0  0  0  0  0
  154.2233  140.7329  160.5184 C   0  0  0  0  0  0  0  0  0  0  0  0
  153.1131  141.0692  159.6466 N   0  0  0  0  0  0  0  0  0  0  0  0
  152.1676  140.2387  159.1665 C   0  0  0  0  0  0  0  0  0  0  0  0
  151.2383  140.7673  158.3746 N   0  0  0  0  0  0  0  0  0  0  0  0
  151.6265  142.0958  158.3365 C   0  0  0  0  0  0  0  0  0  0  0  0
  151.0563  143.2003  157.6639 C   0  0  0  0  0  0  0  0  0  0  0  0
  151.6363  144.4815  157.7750 C   0  0  0  0  0  0  0  0  0  0  0  0
  152.7933  144.6781  158.5569 C   0  0  0  0  0  0  0  0  0  0  0  0
  153.3795  143.5929  159.2360 C   0  0  0  0  0  0  0  0  0  0  0  0
  152.7967  142.3170  159.1233 C   0  0  0  0  0  0  0  0  0  0  0  0
  156.2356  138.8250  161.7558 C   0  0  0  0  0  0  0  0  0  0  0  0
  155.3585  136.8386  164.8841 H   0  0  0  0  0  0  0  0  0  0  0  0
  154.8113  137.3357  163.2878 H   0  0  0  0  0  0  0  0  0  0  0  0
  155.2498  138.5544  164.5090 H   0  0  0  0  0  0  0  0  0  0  0  0
  159.3567  138.5797  163.1300 H   0  0  0  0  0  0  0  0  0  0  0  0
  159.8754  140.1048  161.3321 H   0  0  0  0  0  0  0  0  0  0  0  0
  159.3765  142.3486  158.5264 H   0  0  0  0  0  0  0  0  0  0  0  0
  160.1400  140.9216  159.2172 H   0  0  0  0  0  0  0  0  0  0  0  0
  159.6103  142.2586  160.2680 H   0  0  0  0  0  0  0  0  0  0  0  0
  155.8239  140.9296  159.0862 H   0  0  0  0  0  0  0  0  0  0  0  0
  154.4692  138.5104  159.3877 H   0  0  0  0  0  0  0  0  0  0  0  0
  153.8804  140.0293  161.2784 H   0  0  0  0  0  0  0  0  0  0  0  0
  154.5186  141.6413  161.0449 H   0  0  0  0  0  0  0  0  0  0  0  0
  152.1638  139.1861  159.4093 H   0  0  0  0  0  0  0  0  0  0  0  0
  150.1708  143.0616  157.0615 H   0  0  0  0  0  0  0  0  0  0  0  0
  151.1911  145.3182  157.2570 H   0  0  0  0  0  0  0  0  0  0  0  0
  153.2309  145.6625  158.6349 H   0  0  0  0  0  0  0  0  0  0  0  0
  154.2662  143.7378  159.8356 H   0  0  0  0  0  0  0  0  0  0  0  0
  155.2262  138.4668  161.8973 H   0  0  0  0  0  0  0  0  0  0  0  0
  1  2  1  0  0  0  0
  1 23  1  0  0  0  0
  1 24  1  0  0  0  0
  1 25  1  0  0  0  0
  2  3  1  0  0  0  0
  3 22  1  0  0  0  0
  3  4  2  0  0  0  0
  4  5  1  0  0  0  0
  4 26  1  0  0  0  0
  5  6  2  0  0  0  0
  5 27  1  0  0  0  0
  6  7  1  0  0  0  0
  6  9  1  0  0  0  0
  7  8  1  0  0  0  0
  8 28  1  0  0  0  0
  8 29  1  0  0  0  0
  8 30  1  0  0  0  0
  9 10  1  0  0  0  0
  9 22  2  0  0  0  0
 10 11  1  0  0  0  0
 10 12  1  0  0  0  0
 10 31  1  0  0  0  0
 11 32  1  0  0  0  0
 12 13  1  0  0  0  0
 12 33  1  0  0  0  0
 12 34  1  0  0  0  0
 13 21  1  0  0  0  0
 13 14  1  0  0  0  0
 14 15  2  0  0  0  0
 14 35  1  0  0  0  0
 15 16  1  0  0  0  0
 16 21  2  0  0  0  0
 16 17  1  0  0  0  0
 17 18  2  0  0  0  0
 17 36  1  0  0  0  0
 18 19  1  0  0  0  0
 18 37  1  0  0  0  0
 19 20  2  0  0  0  0
 19 38  1  0  0  0  0
 20 21  1  0  0  0  0
 20 39  1  0  0  0  0
 22 40  1  0  0  0  0
M  END
> <s_m_source_file>
AV-unprocessed.smi

> <i_m_source_file_index>
1913

> <i_lp_mmshare_version>
43012

> <i_f3d_flags>
0

> <s_epik_input>
W0NIM11PYzFbY0hdW2NIXWMoT1tDSDNdKWMoW2NIXTEpW0NASF0oW09IXSlbQ0gyXW4oW2NIXW4yKWMoYzIzKVtjSF1bY0hdW2NIXVtjSF0z

> <s_epik_cmdline>
J2VwaWtfcHl0aG9uJywgJy1waCcsICc3LjAnLCAnLXRuJywgJzgnLCAnLW1hJywgJzIwMCcsICctbWV0YWxfYmluZGluZycsICctaW1hZScsICc8aW5maWxlLm1hZT4nLCAnLW9tYWUnLCAnPG91dGZpbGUubWFlPic=

> <r_lp_tautomer_probability>
1

> <r_epik_Ionization_Penalty>
0.0696512

> <r_epik_Ionization_Penalty_Charging>
0

> <r_epik_Ionization_Penalty_Neutral>
0.0696512

> <r_epik_State_Penalty>
0.0610247

> <r_epik_Charging_Adjusted_Penalty>
0.0610247

> <i_epik_Tot_Q>
0

> <i_epik_Tot_abs_Q>
0

> <r_epik_Metal_State_Penalty>
6.42746e-05

> <b_epik_Metal_Only>
0

> <s_lp_Force_Field>
OPLS_2005

> <r_lp_Energy>
19.1382

> <b_lp_Chiralities_Consistent>
1

> <s_lp_Variant>
AV-unprocessed.smi:1913-2

> <Gold.Version>
5.8.1

> <Gold.Id.Protein>
6NUR|6NUR_protein|mol2

> <Gold.PLP.Fitness>
40.5234

> <Gold.PLP.PLP>
-39.2683

> <Gold.PLP.part.hbond>
-1.0000

> <Gold.PLP.part.metal>
0.0000

> <Gold.PLP.part.buried>
-4.9582

> <Gold.PLP.part.nonpolar>
-33.4067

> <Gold.PLP.part.repulsive>
0.0713

> <Gold.PLP.ligand.clash>
0.0000

> <Gold.PLP.ligand.torsion>
0.8913

> <Gold.PLP.Chemscore.Hbond>
1.0000

> <Gold.PLP.Chemscore.CHOScore>
0.0000

> <Gold.PLP.Chemscore.Metal>
0.0000

> <Gold.Chemscore.Hbonds>
donor molecule, donor type, donor heavy atom, donor atom, acceptor molecule, acceptor atom, score
      P1  H  7997  8009       L1    11  0.99

> <Gold.PLP.Chemscore.Internal.Correction>
0.0376

> <Gold.Rescore>
     Score         DG    S(hbond)    S(metal)    S(lipo)     H(rot)  DE(clash)    DE(int)     intcor
     15.24     -16.01       0.66        0.00     122.33       2.33       0.08       0.68       ----

> <Gold.Chemscore.Fitness>
15.2437

> <Gold.Chemscore.DG>
-16.0098

> <Gold.Chemscore.ZeroCoef>
-5.4800

> <Gold.Chemscore.Hbond>
0.6552

> <Gold.Chemscore.Metal>
0.0000

> <Gold.Chemscore.Lipo>
122.3280

> <Gold.Chemscore.Internal_Hbond>
0.0000

> <Gold.Chemscore.DEClash>
0.0812

> <Gold.Chemscore.DEInternal>
0.6849

> <Gold.Chemscore.Rot>
2.3323

> <Gold.Chemscore.Internal.Correction>
   9.000000E+99

> <Gold.Chemscore.Hbonds>
donor molecule, donor type, donor heavy atom, donor atom, acceptor molecule, acceptor atom, score
      P1  H  7997  8009       L1    11  0.33

> <Gold.Chemscore.Hbond.Weighted>
-2.1882

> <Gold.Chemscore.Metal.Weighted>
-0.0000

> <Gold.Chemscore.Lipo.Weighted>
-14.3124

> <Gold.Chemscore.Internal_Hbond.Weighted>
0.0000

> <Gold.Chemscore.DEClash.Weighted>
0.0812

> <Gold.Chemscore.DEInternal.Weighted>
0.6849

> <Gold.Chemscore.Rot.Weighted>
5.9708

> <Gold.Chemscore.Internal.Correction.Weighted>
   9.000000E+99

> <Gold.Protein.RotatedTorsions>
[ 6907 6896 6895 6894 ] final  165.31 input  -60.11 | X-H torsion
[ 7974 7965 7964 7962 ] final  145.83 input  175.53 | X-H torsion
[ 8008 7997 7996 7995 ] final  136.66 input   59.86 | X-H torsion
[ 10167 10162 10161 10158 ] final -131.83 input  -65.29 | X-H torsion
[ 10718 10713 10712 10709 ] final   56.76 input   66.30 | X-H torsion
[ 10763 10752 10751 10750 ] final  -54.90 input  -60.55 | X-H torsion
[ 11005 11000 10999 10996 ] final   47.23 input  -57.11 | X-H torsion

> <Gold.Protein.ActiveResidues>
 VAL166  LYS551  ARG553  GLY616  TRP617  ASP618  TYR619  PRO620  LYS621  CYS622 
 ASP623  PHE694  ASN695  SER759  ASP760  ASP761  ALA762  ILE779  LEU786  VAL792 
 PHE793  MET794  SER795  GLU796  ALA797  LYS798  CYS799  TRP800  GLU811  SER814 

> <Gold.Protein.RotatedAtoms>
  151.8964  133.3527  159.3815 H   0  0  0  0  0  0  0  0  0  0  0  0  # atno 6907 bound_to 6896
  150.7091  134.4873  159.5508 H   0  0  0  0  0  0  0  0  0  0  0  0  # atno 6908 bound_to 6896
  152.2453  134.8188  160.0505 H   0  0  0  0  0  0  0  0  0  0  0  0  # atno 6909 bound_to 6896
  144.8721  139.5830  143.5882 H   0  0  0  0  0  0  0  0  0  0  0  0  # atno 7974 bound_to 7965
  156.3004  140.2439  156.3782 H   0  0  0  0  0  0  0  0  0  0  0  0  # atno 8008 bound_to 7997
  154.8725  140.0415  157.1753 H   0  0  0  0  0  0  0  0  0  0  0  0  # atno 8009 bound_to 7997
  154.8780  140.2945  155.5446 H   0  0  0  0  0  0  0  0  0  0  0  0  # atno 8010 bound_to 7997
  139.9148  143.6451  152.2567 H   0  0  0  0  0  0  0  0  0  0  0  0  # atno 10167 bound_to 10162
  157.5458  130.8729  149.8888 H   0  0  0  0  0  0  0  0  0  0  0  0  # atno 10718 bound_to 10713
  154.1823  135.6441  153.5037 H   0  0  0  0  0  0  0  0  0  0  0  0  # atno 10763 bound_to 10752
  153.0056  135.5409  154.6502 H   0  0  0  0  0  0  0  0  0  0  0  0  # atno 10764 bound_to 10752
  154.5869  135.2930  155.0648 H   0  0  0  0  0  0  0  0  0  0  0  0  # atno 10765 bound_to 10752
  140.1297  134.4721  155.8531 H   0  0  0  0  0  0  0  0  0  0  0  0  # atno 11005 bound_to 11000
  146.2937  139.7214  142.9142 LP  0  0  0  0  0  0  0  0  0  0  0  0  # atno 17320 bound_to 7965
  145.4112  141.0396  143.3016 LP  0  0  0  0  0  0  0  0  0  0  0  0  # atno 17321 bound_to 7965
  139.6911  144.7646  151.1437 LP  0  0  0  0  0  0  0  0  0  0  0  0  # atno 17342 bound_to 10162
  140.7676  143.5587  150.9122 LP  0  0  0  0  0  0  0  0  0  0  0  0  # atno 17343 bound_to 10162
  156.0534  130.3713  150.1148 LP  0  0  0  0  0  0  0  0  0  0  0  0  # atno 17370 bound_to 10713
  156.9324  130.9718  151.3530 LP  0  0  0  0  0  0  0  0  0  0  0  0  # atno 17371 bound_to 10713
  141.2168  133.6791  156.7046 LP  0  0  0  0  0  0  0  0  0  0  0  0  # atno 17394 bound_to 11000
  140.2858  134.8280  157.3973 LP  0  0  0  0  0  0  0  0  0  0  0  0  # atno 17395 bound_to 11000

$$$$
