AV-unprocessed.smi:513|AV-procd|sdf|2774|dock10
  -GOLD-   2262023243D 1   1.00000     0.00000
 Structure written by MMmdl.
 42 44  0  0  0  0  0  0  0  0  3 V2000
  148.1726  141.5554  154.3652 C   0  0  0  0  0  0  0  0  0  0  0  0
  148.5566  140.2569  153.9488 O   0  0  0  0  0  0  0  0  0  0  0  0
  149.2137  139.5320  154.9741 C   0  0  0  0  0  0  0  0  0  0  0  0
  150.5194  140.2510  155.3317 C   0  0  0  0  0  0  0  0  0  0  0  0
  150.9882  139.8729  156.6629 N   0  0  0  0  0  0  0  0  0  0  0  0
  150.9024  140.5838  157.8210 C   0  0  0  0  0  0  0  0  0  0  0  0
  150.2978  141.8408  157.8863 N   0  0  0  0  0  0  0  0  0  0  0  0
  148.9099  142.0863  157.5026 C   0  0  0  0  0  0  0  0  0  0  0  0
  148.1623  142.8847  158.5864 C   0  0  0  0  0  0  0  0  0  0  0  0
  148.8636  144.1524  158.8785 N   0  3  0  0  0  0  0  0  0  0  0  0
  150.2938  143.9521  159.1908 C   0  0  0  0  0  0  0  0  0  0  0  0
  150.9735  143.1222  158.0859 C   0  0  0  0  0  0  0  0  0  0  0  0
  151.4933  140.0106  158.8705 N   0  0  0  0  0  0  0  0  0  0  0  0
  151.9810  138.8241  158.3453 C   0  0  0  0  0  0  0  0  0  0  0  0
  151.7056  138.7247  157.0170 C   0  0  0  0  0  0  0  0  0  0  0  0
  152.1502  137.5953  156.1694 C   0  0  0  0  0  0  0  0  0  0  0  0
  151.9100  137.5719  154.9644 O   0  0  0  0  0  0  0  0  0  0  0  0
  152.8354  136.6489  156.8858 N   0  5  0  0  0  0  0  0  0  0  0  0
  153.1265  136.7045  158.2318 C   0  0  0  0  0  0  0  0  0  0  0  0
  153.7546  135.8095  158.7988 O   0  0  0  0  0  0  0  0  0  0  0  0
  152.7140  137.7805  158.9730 N   0  0  0  0  0  0  0  0  0  0  0  0
  153.0182  137.8719  160.4039 C   0  0  0  0  0  0  0  0  0  0  0  0
  147.6769  142.0722  153.5437 H   0  0  0  0  0  0  0  0  0  0  0  0
  149.0398  142.1472  154.6608 H   0  0  0  0  0  0  0  0  0  0  0  0
  147.4765  141.5104  155.2038 H   0  0  0  0  0  0  0  0  0  0  0  0
  148.5734  139.4547  155.8542 H   0  0  0  0  0  0  0  0  0  0  0  0
  149.4261  138.5187  154.6293 H   0  0  0  0  0  0  0  0  0  0  0  0
  151.2778  140.0266  154.5896 H   0  0  0  0  0  0  0  0  0  0  0  0
  150.3958  141.3307  155.2744 H   0  0  0  0  0  0  0  0  0  0  0  0
  148.8887  142.6213  156.5523 H   0  0  0  0  0  0  0  0  0  0  0  0
  148.4019  141.1357  157.3354 H   0  0  0  0  0  0  0  0  0  0  0  0
  147.1427  143.1019  158.2674 H   0  0  0  0  0  0  0  0  0  0  0  0
  148.0933  142.2973  159.5032 H   0  0  0  0  0  0  0  0  0  0  0  0
  148.8001  144.7419  158.0610 H   0  0  0  0  0  0  0  0  0  0  0  0
  150.7790  144.9227  159.2936 H   0  0  0  0  0  0  0  0  0  0  0  0
  150.3778  143.4482  160.1544 H   0  0  0  0  0  0  0  0  0  0  0  0
  152.0294  142.9696  158.3064 H   0  0  0  0  0  0  0  0  0  0  0  0
  150.9500  143.6754  157.1460 H   0  0  0  0  0  0  0  0  0  0  0  0
  152.6304  137.0019  160.9358 H   0  0  0  0  0  0  0  0  0  0  0  0
  152.5847  138.7557  160.8710 H   0  0  0  0  0  0  0  0  0  0  0  0
  154.0968  137.9144  160.5602 H   0  0  0  0  0  0  0  0  0  0  0  0
  148.4115  144.6168  159.6532 H   0  0  0  0  0  0  0  0  0  0  0  0
  1  2  1  0  0  0  0
  1 23  1  0  0  0  0
  1 24  1  0  0  0  0
  1 25  1  0  0  0  0
  2  3  1  0  0  0  0
  3  4  1  0  0  0  0
  3 26  1  0  0  0  0
  3 27  1  0  0  0  0
  4  5  1  0  0  0  0
  4 28  1  0  0  0  0
  4 29  1  0  0  0  0
  5 15  1  0  0  0  0
  5  6  1  0  0  0  0
  6  7  1  0  0  0  0
  6 13  2  0  0  0  0
  7 12  1  0  0  0  0
  7  8  1  0  0  0  0
  8  9  1  0  0  0  0
  8 30  1  0  0  0  0
  8 31  1  0  0  0  0
  9 10  1  0  0  0  0
  9 32  1  0  0  0  0
  9 33  1  0  0  0  0
 10 11  1  0  0  0  0
 10 34  1  0  0  0  0
 10 42  1  0  0  0  0
 11 12  1  0  0  0  0
 11 35  1  0  0  0  0
 11 36  1  0  0  0  0
 12 37  1  0  0  0  0
 12 38  1  0  0  0  0
 13 14  1  0  0  0  0
 14 21  1  0  0  0  0
 14 15  2  0  0  0  0
 15 16  1  0  0  0  0
 16 17  2  0  0  0  0
 16 18  1  0  0  0  0
 18 19  1  0  0  0  0
 19 20  2  0  0  0  0
 19 21  1  0  0  0  0
 21 22  1  0  0  0  0
 22 39  1  0  0  0  0
 22 40  1  0  0  0  0
 22 41  1  0  0  0  0
M  CHG  1  10   1
M  CHG  1  18  -1
M  END
> <s_m_source_file>
AV-unprocessed.smi

> <i_m_source_file_index>
513

> <i_lp_mmshare_version>
43012

> <i_f3d_flags>
0

> <s_epik_input>
W0NIM11uMWMoPU8pW25IXWMoPU8pYyhjMTIpbihbQ0gyXVtDSDJdT1tDSDNdKWMobjIpTjNbQ0gyXVtDSDJdW05IXVtDSDJdW0NIMl0z

> <s_epik_cmdline>
J2VwaWtfcHl0aG9uJywgJy1waCcsICc3LjAnLCAnLXRuJywgJzgnLCAnLW1hJywgJzIwMCcsICctbWV0YWxfYmluZGluZycsICctaW1hZScsICc8aW5maWxlLm1hZT4nLCAnLW9tYWUnLCAnPG91dGZpbGUubWFlPic=

> <r_epik_Ionization_Penalty>
5.91573

> <r_epik_Ionization_Penalty_Charging>
0.0691516

> <r_epik_Ionization_Penalty_Neutral>
5.84657

> <r_epik_State_Penalty>
5.85298

> <r_epik_Charging_Adjusted_Penalty>
5.92213

> <i_epik_Tot_Q>
0

> <i_epik_Tot_abs_Q>
2

> <r_epik_Metal_State_Penalty>
1.81849

> <b_epik_Metal_Only>
1

> <s_lp_Force_Field>
OPLS_2005

> <r_lp_Energy>
49.8146

> <b_lp_Chiralities_Consistent>
1

> <s_lp_Variant>
AV-unprocessed.smi:513-3

> <Gold.Version>
5.8.1

> <Gold.Id.Protein>
6NUR|6NUR_protein|mol2

> <Gold.PLP.Fitness>
39.9579

> <Gold.PLP.PLP>
-29.0049

> <Gold.PLP.part.hbond>
-4.1820

> <Gold.PLP.part.metal>
0.0000

> <Gold.PLP.part.buried>
-6.2353

> <Gold.PLP.part.nonpolar>
-21.7285

> <Gold.PLP.part.repulsive>
1.4257

> <Gold.PLP.ligand.clash>
0.0000

> <Gold.PLP.ligand.torsion>
1.5472

> <Gold.PLP.Chemscore.Hbond>
4.5057

> <Gold.PLP.Chemscore.CHOScore>
0.0000

> <Gold.PLP.Chemscore.Metal>
0.0000

> <Gold.Chemscore.Hbonds>
donor molecule, donor type, donor heavy atom, donor atom, acceptor molecule, acceptor atom, score
      L1  H    10    34       P1  8029  1.86
      P1  H  6896  6907       L1    20  0.70
      P1  H 10752 10764       L1    18  1.46

> <Gold.PLP.Chemscore.Internal.Correction>
0.5302

> <Gold.Rescore>
     Score         DG    S(hbond)    S(metal)    S(lipo)     H(rot)  DE(clash)    DE(int)     intcor
     12.28     -13.92       1.93        0.00      51.08       1.55       0.06       1.57       ----

> <Gold.Chemscore.Fitness>
12.2849

> <Gold.Chemscore.DG>
-13.9209

> <Gold.Chemscore.ZeroCoef>
-5.4800

> <Gold.Chemscore.Hbond>
1.9280

> <Gold.Chemscore.Metal>
0.0000

> <Gold.Chemscore.Lipo>
51.0772

> <Gold.Chemscore.Internal_Hbond>
0.0000

> <Gold.Chemscore.DEClash>
0.0619

> <Gold.Chemscore.DEInternal>
1.5741

> <Gold.Chemscore.Rot>
1.5526

> <Gold.Chemscore.Internal.Correction>
   9.000000E+99

> <Gold.Chemscore.Hbonds>
donor molecule, donor type, donor heavy atom, donor atom, acceptor molecule, acceptor atom, score
      L1  H    10    34       P1  8029  0.27
      P1  H  6896  6907       L1    20  0.55
      P1  H 10752 10764       L1    18  0.28

> <Gold.Chemscore.Hbond.Weighted>
-6.4394

> <Gold.Chemscore.Metal.Weighted>
-0.0000

> <Gold.Chemscore.Lipo.Weighted>
-5.9760

> <Gold.Chemscore.Internal_Hbond.Weighted>
0.0000

> <Gold.Chemscore.DEClash.Weighted>
0.0619

> <Gold.Chemscore.DEInternal.Weighted>
1.5741

> <Gold.Chemscore.Rot.Weighted>
3.9745

> <Gold.Chemscore.Internal.Correction.Weighted>
   9.000000E+99

> <Gold.Protein.RotatedTorsions>
[ 6907 6896 6895 6894 ] final   63.25 input  -60.11 | X-H torsion
[ 7974 7965 7964 7962 ] final   57.48 input  175.53 | X-H torsion
[ 8008 7997 7996 7995 ] final  -39.78 input   59.86 | X-H torsion
[ 10167 10162 10161 10158 ] final    5.70 input  -65.29 | X-H torsion
[ 10718 10713 10712 10709 ] final  -91.44 input   66.30 | X-H torsion
[ 10763 10752 10751 10750 ] final    4.41 input  -60.55 | X-H torsion
[ 11005 11000 10999 10996 ] final  -70.68 input  -57.11 | X-H torsion

> <Gold.Protein.ActiveResidues>
 VAL166  LYS551  ARG553  GLY616  TRP617  ASP618  TYR619  PRO620  LYS621  CYS622 
 ASP623  PHE694  ASN695  SER759  ASP760  ASP761  ALA762  ILE779  LEU786  VAL792 
 PHE793  MET794  SER795  GLU796  ALA797  LYS798  CYS799  TRP800  GLU811  SER814 

> <Gold.Protein.RotatedAtoms>
  152.4238  134.5906  159.9972 H   0  0  0  0  0  0  0  0  0  0  0  0  # atno 6907 bound_to 6896
  151.6048  133.3347  159.3063 H   0  0  0  0  0  0  0  0  0  0  0  0  # atno 6908 bound_to 6896
  150.8127  134.7329  159.6768 H   0  0  0  0  0  0  0  0  0  0  0  0  # atno 6909 bound_to 6896
  145.9286  139.3788  143.0435 H   0  0  0  0  0  0  0  0  0  0  0  0  # atno 7974 bound_to 7965
  154.4019  140.1542  156.2920 H   0  0  0  0  0  0  0  0  0  0  0  0  # atno 8008 bound_to 7997
  155.8777  140.3445  155.5844 H   0  0  0  0  0  0  0  0  0  0  0  0  # atno 8009 bound_to 7997
  155.7702  140.0829  157.2102 H   0  0  0  0  0  0  0  0  0  0  0  0  # atno 8010 bound_to 7997
  140.6468  143.7643  150.7511 H   0  0  0  0  0  0  0  0  0  0  0  0  # atno 10167 bound_to 10162
  155.9994  130.4948  150.5474 H   0  0  0  0  0  0  0  0  0  0  0  0  # atno 10718 bound_to 10713
  153.2716  135.6932  153.7474 H   0  0  0  0  0  0  0  0  0  0  0  0  # atno 10763 bound_to 10752
  153.6495  135.3379  155.3096 H   0  0  0  0  0  0  0  0  0  0  0  0  # atno 10764 bound_to 10752
  154.8466  135.4451  154.1741 H   0  0  0  0  0  0  0  0  0  0  0  0  # atno 10765 bound_to 10752
  141.1578  133.6796  156.6790 H   0  0  0  0  0  0  0  0  0  0  0  0  # atno 11005 bound_to 11000
  145.8456  140.9557  143.0776 LP  0  0  0  0  0  0  0  0  0  0  0  0  # atno 17320 bound_to 7965
  144.6762  140.0340  143.7482 LP  0  0  0  0  0  0  0  0  0  0  0  0  # atno 17321 bound_to 7965
  140.1285  143.4547  152.2269 LP  0  0  0  0  0  0  0  0  0  0  0  0  # atno 17342 bound_to 10162
  139.5679  144.7446  151.3971 LP  0  0  0  0  0  0  0  0  0  0  0  0  # atno 17343 bound_to 10162
  157.3402  131.0715  151.1794 LP  0  0  0  0  0  0  0  0  0  0  0  0  # atno 17370 bound_to 10713
  157.2645  130.6674  149.5990 LP  0  0  0  0  0  0  0  0  0  0  0  0  # atno 17371 bound_to 10713
  140.3117  134.8080  157.4181 LP  0  0  0  0  0  0  0  0  0  0  0  0  # atno 17394 bound_to 11000
  140.1173  134.5266  155.8214 LP  0  0  0  0  0  0  0  0  0  0  0  0  # atno 17395 bound_to 11000

$$$$
