AV-unprocessed.smi:3250|AV-procd|sdf|12434|dock10
  -GOLD-   2272018323D 1   1.00000     0.00000
 Structure written by MMmdl.
 40 41  0  0  0  0  0  0  0  0  3 V2000
  149.5599  137.3618  158.4394 C   0  0  0  0  0  0  0  0  0  0  0  0
  148.3864  138.0211  157.7013 C   0  0  0  0  0  0  0  0  0  0  0  0
  148.8313  138.8997  156.5907 N   0  3  2  0  0  0  0  0  0  0  0  0
  149.4417  138.1311  155.4803 C   0  0  0  0  0  0  0  0  0  0  0  0
  149.8527  139.0709  154.3364 C   0  0  0  0  0  0  0  0  0  0  0  0
  150.7439  140.0601  154.8351 O   0  0  0  0  0  0  0  0  0  0  0  0
  150.1378  140.8816  155.8280 C   0  0  2  0  0  0  0  0  0  0  0  0
  151.1492  141.9619  156.2379 C   0  0  0  0  0  0  0  0  0  0  0  0
  150.5091  143.0601  156.9470 N   0  0  0  0  0  0  0  0  0  0  0  0
  150.8342  143.4295  158.2390 C   0  0  0  0  0  0  0  0  0  0  0  0
  150.1683  144.4630  158.7753 N   0  3  0  0  0  0  0  0  0  0  0  0
  150.4559  144.8680  160.0368 C   0  0  0  0  0  0  0  0  0  0  0  0
  151.4465  144.2083  160.7862 C   0  0  0  0  0  0  0  0  0  0  0  0
  152.1020  143.1315  160.1668 C   0  0  0  0  0  0  0  0  0  0  0  0
  153.0787  142.4434  160.8565 O   0  0  0  0  0  0  0  0  0  0  0  0
  152.9824  142.3741  162.2750 C   0  0  0  0  0  0  0  0  0  0  0  0
  151.7874  142.7595  158.9030 N   0  0  0  0  0  0  0  0  0  0  0  0
  149.7381  139.9928  157.0237 C   0  0  0  0  0  0  0  0  0  0  0  0
  149.2019  136.8035  159.3048 H   0  0  0  0  0  0  0  0  0  0  0  0
  150.2692  138.1077  158.7993 H   0  0  0  0  0  0  0  0  0  0  0  0
  150.0995  136.6595  157.8048 H   0  0  0  0  0  0  0  0  0  0  0  0
  147.6936  137.2656  157.3277 H   0  0  0  0  0  0  0  0  0  0  0  0
  147.8305  138.6188  158.4251 H   0  0  0  0  0  0  0  0  0  0  0  0
  150.3129  137.5862  155.8473 H   0  0  0  0  0  0  0  0  0  0  0  0
  148.7332  137.3905  155.1075 H   0  0  0  0  0  0  0  0  0  0  0  0
  150.3539  138.5079  153.5489 H   0  0  0  0  0  0  0  0  0  0  0  0
  148.9788  139.5427  153.8841 H   0  0  0  0  0  0  0  0  0  0  0  0
  149.2470  141.3608  155.4166 H   0  0  0  0  0  0  0  0  0  0  0  0
  151.9074  141.5276  156.8907 H   0  0  0  0  0  0  0  0  0  0  0  0
  151.6661  142.3484  155.3586 H   0  0  0  0  0  0  0  0  0  0  0  0
  149.9021  143.6760  156.4259 H   0  0  0  0  0  0  0  0  0  0  0  0
  149.8833  145.7068  160.4050 H   0  0  0  0  0  0  0  0  0  0  0  0
  151.6906  144.5143  161.7931 H   0  0  0  0  0  0  0  0  0  0  0  0
  153.8248  141.8033  162.6658 H   0  0  0  0  0  0  0  0  0  0  0  0
  152.0672  141.8709  162.5900 H   0  0  0  0  0  0  0  0  0  0  0  0
  153.0188  143.3668  162.7259 H   0  0  0  0  0  0  0  0  0  0  0  0
  149.2508  140.6080  157.7796 H   0  0  0  0  0  0  0  0  0  0  0  0
  150.6285  139.5634  157.4866 H   0  0  0  0  0  0  0  0  0  0  0  0
  147.9998  139.3319  156.2136 H   0  0  0  0  0  0  0  0  0  0  0  0
  149.4472  144.9538  158.2463 H   0  0  0  0  0  0  0  0  0  0  0  0
  1  2  1  0  0  0  0
  1 19  1  0  0  0  0
  1 20  1  0  0  0  0
  1 21  1  0  0  0  0
  2  3  1  0  0  0  0
  2 22  1  0  0  0  0
  2 23  1  0  0  0  0
  3 18  1  0  0  0  0
  3  4  1  0  0  0  0
  3 39  1  0  0  0  0
  4  5  1  0  0  0  0
  4 24  1  0  0  0  0
  4 25  1  0  0  0  0
  5  6  1  0  0  0  0
  5 26  1  0  0  0  0
  5 27  1  0  0  0  0
  6  7  1  0  0  0  0
  7  8  1  0  0  0  0
  7 18  1  0  0  0  0
  7 28  1  0  0  0  0
  8  9  1  0  0  0  0
  8 29  1  0  0  0  0
  8 30  1  0  0  0  0
  9 10  1  0  0  0  0
  9 31  1  0  0  0  0
 10 17  1  0  0  0  0
 10 11  2  0  0  0  0
 11 12  1  0  0  0  0
 11 40  1  0  0  0  0
 12 13  2  0  0  0  0
 12 32  1  0  0  0  0
 13 14  1  0  0  0  0
 13 33  1  0  0  0  0
 14 15  1  0  0  0  0
 14 17  2  0  0  0  0
 15 16  1  0  0  0  0
 16 34  1  0  0  0  0
 16 35  1  0  0  0  0
 16 36  1  0  0  0  0
 18 37  1  0  0  0  0
 18 38  1  0  0  0  0
M  CHG  1   3   1
M  CHG  1  11   1
M  END
> <s_m_source_file>
AV-unprocessed.smi

> <i_m_source_file_index>
3250

> <i_lp_mmshare_version>
43012

> <i_f3d_flags>
0

> <s_epik_input>
W0NIM11bQ0gyXU4xW0NIMl1bQ0gyXU9bQ0BIXShbQ0gyXTEpW0NIMl1bTkhdYzJuW2NIXVtjSF1jKG4yKU9bQ0gzXQ==

> <s_epik_cmdline>
J2VwaWtfcHl0aG9uJywgJy1waCcsICc3LjAnLCAnLXRuJywgJzgnLCAnLW1hJywgJzIwMCcsICctbWV0YWxfYmluZGluZycsICctaW1hZScsICc8aW5maWxlLm1hZT4nLCAnLW9tYWUnLCAnPG91dGZpbGUubWFlPic=

> <r_lp_tautomer_probability>
0.999985

> <r_epik_Ionization_Penalty>
2.24691

> <r_epik_Ionization_Penalty_Charging>
2.24686

> <r_epik_Ionization_Penalty_Neutral>
4.52111e-05

> <r_epik_State_Penalty>
2.24709

> <r_epik_Charging_Adjusted_Penalty>
4.49395

> <i_epik_Tot_Q>
2

> <i_epik_Tot_abs_Q>
2

> <r_epik_Metal_State_Penalty>
2.26327

> <b_epik_Metal_Only>
0

> <s_lp_Force_Field>
OPLS_2005

> <r_lp_Energy>
18.1158

> <b_lp_Chiralities_Consistent>
1

> <s_lp_Variant>
AV-unprocessed.smi:3250-10

> <Gold.Version>
5.8.1

> <Gold.Id.Protein>
6NUR|6NUR_protein|mol2

> <Gold.PLP.Fitness>
46.3981

> <Gold.PLP.PLP>
-32.4356

> <Gold.PLP.part.hbond>
-3.2489

> <Gold.PLP.part.metal>
0.0000

> <Gold.PLP.part.buried>
-8.3851

> <Gold.PLP.part.nonpolar>
-21.4776

> <Gold.PLP.part.repulsive>
0.2728

> <Gold.PLP.ligand.clash>
0.0000

> <Gold.PLP.ligand.torsion>
0.5258

> <Gold.PLP.Chemscore.Hbond>
5.0000

> <Gold.PLP.Chemscore.CHOScore>
0.0000

> <Gold.PLP.Chemscore.Metal>
0.0000

> <Gold.Chemscore.Hbonds>
donor molecule, donor type, donor heavy atom, donor atom, acceptor molecule, acceptor atom, score
      L1  H     9    31       P1  8028  2.00
      L1  H    11    40       P1  8029  1.79
      P1  H  7989  7998       L1     6  1.00

> <Gold.PLP.Chemscore.Internal.Correction>
0.0141

> <Gold.Rescore>
     Score         DG    S(hbond)    S(metal)    S(lipo)     H(rot)  DE(clash)    DE(int)     intcor
     16.21     -16.74       2.54        0.00      62.23       1.75       0.00       0.53       ----

> <Gold.Chemscore.Fitness>
16.2117

> <Gold.Chemscore.DG>
-16.7437

> <Gold.Chemscore.ZeroCoef>
-5.4800

> <Gold.Chemscore.Hbond>
2.5362

> <Gold.Chemscore.Metal>
0.0000

> <Gold.Chemscore.Lipo>
62.2256

> <Gold.Chemscore.Internal_Hbond>
0.0000

> <Gold.Chemscore.DEClash>
0.0000

> <Gold.Chemscore.DEInternal>
0.5320

> <Gold.Chemscore.Rot>
1.7530

> <Gold.Chemscore.Internal.Correction>
   9.000000E+99

> <Gold.Chemscore.Hbonds>
donor molecule, donor type, donor heavy atom, donor atom, acceptor molecule, acceptor atom, score
      L1  H     9    31       P1  8028  1.00
      L1  H    11    40       P1  8029  0.35
      P1  H  7989  7998       L1     6  0.75

> <Gold.Chemscore.Hbond.Weighted>
-8.4709

> <Gold.Chemscore.Metal.Weighted>
-0.0000

> <Gold.Chemscore.Lipo.Weighted>
-7.2804

> <Gold.Chemscore.Internal_Hbond.Weighted>
0.0000

> <Gold.Chemscore.DEClash.Weighted>
0.0000

> <Gold.Chemscore.DEInternal.Weighted>
0.5320

> <Gold.Chemscore.Rot.Weighted>
4.4876

> <Gold.Chemscore.Internal.Correction.Weighted>
   9.000000E+99

> <Gold.Protein.RotatedTorsions>
[ 6907 6896 6895 6894 ] final   -6.06 input  -60.11 | X-H torsion
[ 7974 7965 7964 7962 ] final  -93.96 input  175.53 | X-H torsion
[ 8008 7997 7996 7995 ] final  -30.20 input   59.86 | X-H torsion
[ 10167 10162 10161 10158 ] final   -1.56 input  -65.29 | X-H torsion
[ 10718 10713 10712 10709 ] final  -36.11 input   66.30 | X-H torsion
[ 10763 10752 10751 10750 ] final   72.78 input  -60.55 | X-H torsion
[ 11005 11000 10999 10996 ] final -176.35 input  -57.11 | X-H torsion

> <Gold.Protein.ActiveResidues>
 VAL166  LYS551  ARG553  GLY616  TRP617  ASP618  TYR619  PRO620  LYS621  CYS622 
 ASP623  PHE694  ASN695  SER759  ASP760  ASP761  ALA762  ILE779  LEU786  VAL792 
 PHE793  MET794  SER795  GLU796  ALA797  LYS798  CYS799  TRP800  GLU811  SER814 

> <Gold.Protein.RotatedAtoms>
  151.4717  135.1046  159.9752 H   0  0  0  0  0  0  0  0  0  0  0  0  # atno 6907 bound_to 6896
  152.4814  133.8260  159.7089 H   0  0  0  0  0  0  0  0  0  0  0  0  # atno 6908 bound_to 6896
  150.8889  133.7209  159.2937 H   0  0  0  0  0  0  0  0  0  0  0  0  # atno 6909 bound_to 6896
  145.3796  140.9516  143.2401 H   0  0  0  0  0  0  0  0  0  0  0  0  # atno 7974 bound_to 7965
  154.4260  140.1797  156.1369 H   0  0  0  0  0  0  0  0  0  0  0  0  # atno 8008 bound_to 7997
  156.0023  140.3359  155.6833 H   0  0  0  0  0  0  0  0  0  0  0  0  # atno 8009 bound_to 7997
  155.6226  140.0661  157.2664 H   0  0  0  0  0  0  0  0  0  0  0  0  # atno 8010 bound_to 7997
  140.6815  143.6760  150.8145 H   0  0  0  0  0  0  0  0  0  0  0  0  # atno 10167 bound_to 10162
  156.3307  130.4279  149.7875 H   0  0  0  0  0  0  0  0  0  0  0  0  # atno 10718 bound_to 10713
  153.0480  135.5087  154.7795 H   0  0  0  0  0  0  0  0  0  0  0  0  # atno 10763 bound_to 10752
  154.6679  135.2948  154.9783 H   0  0  0  0  0  0  0  0  0  0  0  0  # atno 10764 bound_to 10752
  154.0611  135.6691  153.4864 H   0  0  0  0  0  0  0  0  0  0  0  0  # atno 10765 bound_to 10752
  140.4531  134.6325  157.4810 H   0  0  0  0  0  0  0  0  0  0  0  0  # atno 11005 bound_to 11000
  144.8517  139.5312  143.6853 LP  0  0  0  0  0  0  0  0  0  0  0  0  # atno 17320 bound_to 7965
  146.2848  139.6974  142.9203 LP  0  0  0  0  0  0  0  0  0  0  0  0  # atno 17321 bound_to 7965
  140.0461  143.5296  152.2695 LP  0  0  0  0  0  0  0  0  0  0  0  0  # atno 17342 bound_to 10162
  139.6141  144.7615  151.2885 LP  0  0  0  0  0  0  0  0  0  0  0  0  # atno 17343 bound_to 10162
  156.5149  130.8189  151.3182 LP  0  0  0  0  0  0  0  0  0  0  0  0  # atno 17370 bound_to 10713
  157.7430  130.9902  150.2556 LP  0  0  0  0  0  0  0  0  0  0  0  0  # atno 17371 bound_to 10713
  139.9994  134.6860  155.9556 LP  0  0  0  0  0  0  0  0  0  0  0  0  # atno 17394 bound_to 11000
  141.1655  133.6537  156.4465 LP  0  0  0  0  0  0  0  0  0  0  0  0  # atno 17395 bound_to 11000

$$$$
