AV-unprocessed.smi:2305|AV-procd|sdf|9246|dock7
  -GOLD-   2272012463D 1   1.00000     0.00000
 Structure written by MMmdl.
 40 41  0  0  0  0  0  0  0  0  1 V2000
  145.9172  138.2381  154.2237 C   0  0  0  0  0  0  0  0  0  0  0  0
  147.4212  138.2729  154.4304 C   0  0  0  0  0  0  0  0  0  0  0  0
  147.9953  137.0835  154.8881 N   0  0  0  0  0  0  0  0  0  0  0  0
  149.2706  137.0192  155.0913 C   0  0  0  0  0  0  0  0  0  0  0  0
  150.1093  138.1239  154.8708 N   0  0  0  0  0  0  0  0  0  0  0  0
  151.5426  137.9201  155.1410 C   0  0  0  0  0  0  0  0  0  0  0  0
  152.1220  139.0150  156.0649 C   0  0  2  0  0  0  0  0  0  0  0  0
  153.4651  138.6848  156.3599 O   0  0  0  0  0  0  0  0  0  0  0  0
  151.3558  139.1040  157.3986 C   0  0  0  0  0  0  0  0  0  0  0  0
  151.4078  140.4913  158.0136 C   0  0  0  0  0  0  0  0  0  0  0  0
  152.3651  140.7894  159.0047 C   0  0  0  0  0  0  0  0  0  0  0  0
  152.4131  142.0742  159.5791 C   0  0  0  0  0  0  0  0  0  0  0  0
  151.5071  143.0750  159.1672 C   0  0  0  0  0  0  0  0  0  0  0  0
  151.5631  144.4569  159.8017 C   0  0  0  0  0  0  0  0  0  0  0  0
  152.2279  144.4358  160.9576 F   0  0  0  0  0  0  0  0  0  0  0  0
  152.1773  145.2975  158.9701 F   0  0  0  0  0  0  0  0  0  0  0  0
  150.3312  144.9091  160.0373 F   0  0  0  0  0  0  0  0  0  0  0  0
  150.5455  142.7715  158.1783 C   0  0  0  0  0  0  0  0  0  0  0  0
  150.4978  141.4869  157.6025 C   0  0  0  0  0  0  0  0  0  0  0  0
  149.6324  139.3195  154.4175 C   0  0  0  0  0  0  0  0  0  0  0  0
  150.3801  140.2782  154.2136 O   0  0  0  0  0  0  0  0  0  0  0  0
  148.1796  139.3770  154.1889 C   0  0  0  0  0  0  0  0  0  0  0  0
  147.6109  140.6975  153.6847 C   0  0  0  0  0  0  0  0  0  0  0  0
  145.4283  138.9909  154.8426 H   0  0  0  0  0  0  0  0  0  0  0  0
  145.5018  137.2655  154.4908 H   0  0  0  0  0  0  0  0  0  0  0  0
  145.6710  138.4308  153.1792 H   0  0  0  0  0  0  0  0  0  0  0  0
  149.7686  136.1125  155.4395 H   0  0  0  0  0  0  0  0  0  0  0  0
  151.6603  136.9431  155.6130 H   0  0  0  0  0  0  0  0  0  0  0  0
  152.1303  137.8434  154.2236 H   0  0  0  0  0  0  0  0  0  0  0  0
  152.0859  139.9840  155.5653 H   0  0  0  0  0  0  0  0  0  0  0  0
  153.8400  138.2565  155.6052 H   0  0  0  0  0  0  0  0  0  0  0  0
  150.3041  138.8657  157.2336 H   0  0  0  0  0  0  0  0  0  0  0  0
  151.7231  138.3614  158.1089 H   0  0  0  0  0  0  0  0  0  0  0  0
  153.0638  140.0318  159.3290 H   0  0  0  0  0  0  0  0  0  0  0  0
  153.1483  142.2897  160.3406 H   0  0  0  0  0  0  0  0  0  0  0  0
  149.8371  143.5202  157.8562 H   0  0  0  0  0  0  0  0  0  0  0  0
  149.7579  141.2676  156.8465 H   0  0  0  0  0  0  0  0  0  0  0  0
  148.0721  140.9665  152.7337 H   0  0  0  0  0  0  0  0  0  0  0  0
  147.8200  141.4943  154.3993 H   0  0  0  0  0  0  0  0  0  0  0  0
  146.5337  140.6699  153.5290 H   0  0  0  0  0  0  0  0  0  0  0  0
  1  2  1  0  0  0  0
  1 24  1  0  0  0  0
  1 25  1  0  0  0  0
  1 26  1  0  0  0  0
  2 22  2  0  0  0  0
  2  3  1  0  0  0  0
  3  4  2  0  0  0  0
  4  5  1  0  0  0  0
  4 27  1  0  0  0  0
  5  6  1  0  0  0  0
  5 20  1  0  0  0  0
  6  7  1  0  0  0  0
  6 28  1  0  0  0  0
  6 29  1  0  0  0  0
  7  8  1  0  0  0  0
  7  9  1  0  0  0  0
  7 30  1  0  0  0  0
  8 31  1  0  0  0  0
  9 10  1  0  0  0  0
  9 32  1  0  0  0  0
  9 33  1  0  0  0  0
 10 19  1  0  0  0  0
 10 11  2  0  0  0  0
 11 12  1  0  0  0  0
 11 34  1  0  0  0  0
 12 13  2  0  0  0  0
 12 35  1  0  0  0  0
 13 14  1  0  0  0  0
 13 18  1  0  0  0  0
 14 15  1  0  0  0  0
 14 16  1  0  0  0  0
 14 17  1  0  0  0  0
 18 19  2  0  0  0  0
 18 36  1  0  0  0  0
 19 37  1  0  0  0  0
 20 21  2  0  0  0  0
 20 22  1  0  0  0  0
 22 23  1  0  0  0  0
 23 38  1  0  0  0  0
 23 39  1  0  0  0  0
 23 40  1  0  0  0  0
M  END
> <s_m_source_file>
AV-unprocessed.smi

> <i_m_source_file_index>
2305

> <i_lp_mmshare_version>
43012

> <i_f3d_flags>
0

> <s_epik_input>
W0NIM11jMW5bY0hdbihjKD1PKWMxW0NIM10pW0NIMl1bQ0BIXShbT0hdKVtDSDJdYzJbY0hdW2NIXWMoQyhGKShGKUYpW2NIXVtjSF0y

> <s_epik_cmdline>
J2VwaWtfcHl0aG9uJywgJy1waCcsICc3LjAnLCAnLXRuJywgJzgnLCAnLW1hJywgJzIwMCcsICctbWV0YWxfYmluZGluZycsICctaW1hZScsICc8aW5maWxlLm1hZT4nLCAnLW9tYWUnLCAnPG91dGZpbGUubWFlPic=

> <r_lp_tautomer_probability>
1

> <r_epik_Ionization_Penalty>
8.92636e-05

> <r_epik_Ionization_Penalty_Charging>
8.63033e-08

> <r_epik_Ionization_Penalty_Neutral>
8.91773e-05

> <r_epik_State_Penalty>
-0

> <r_epik_Charging_Adjusted_Penalty>
8.63033e-08

> <i_epik_Tot_Q>
0

> <i_epik_Tot_abs_Q>
0

> <r_epik_Metal_State_Penalty>
-0

> <b_epik_Metal_Only>
0

> <s_lp_Force_Field>
OPLS_2005

> <r_lp_Energy>
20.2426

> <b_lp_Chiralities_Consistent>
1

> <s_lp_Variant>
AV-unprocessed.smi:2305-1

> <Gold.Version>
5.8.1

> <Gold.Id.Protein>
6NUR|6NUR_protein|mol2

> <Gold.PLP.Fitness>
48.2972

> <Gold.PLP.PLP>
-45.2449

> <Gold.PLP.part.hbond>
-1.7608

> <Gold.PLP.part.metal>
0.0000

> <Gold.PLP.part.buried>
-7.9445

> <Gold.PLP.part.nonpolar>
-37.1349

> <Gold.PLP.part.repulsive>
0.2328

> <Gold.PLP.ligand.clash>
0.3365

> <Gold.PLP.ligand.torsion>
1.5238

> <Gold.PLP.Chemscore.Hbond>
1.9193

> <Gold.PLP.Chemscore.CHOScore>
0.0000

> <Gold.PLP.Chemscore.Metal>
0.0000

> <Gold.Chemscore.Hbonds>
donor molecule, donor type, donor heavy atom, donor atom, acceptor molecule, acceptor atom, score
      P1  H  7989  7998       L1    21  1.00
      P1  H  7997  8010       L1     8  0.91

> <Gold.PLP.Chemscore.Internal.Correction>
0.6785

> <Gold.Rescore>
     Score         DG    S(hbond)    S(metal)    S(lipo)     H(rot)  DE(clash)    DE(int)     intcor
     13.01     -15.75       1.75        0.00      89.54       2.37       0.10       2.63       ----

> <Gold.Chemscore.Fitness>
13.0114

> <Gold.Chemscore.DG>
-15.7491

> <Gold.Chemscore.ZeroCoef>
-5.4800

> <Gold.Chemscore.Hbond>
1.7530

> <Gold.Chemscore.Metal>
0.0000

> <Gold.Chemscore.Lipo>
89.5425

> <Gold.Chemscore.Internal_Hbond>
0.0000

> <Gold.Chemscore.DEClash>
0.1041

> <Gold.Chemscore.DEInternal>
2.6336

> <Gold.Chemscore.Rot>
2.3681

> <Gold.Chemscore.Internal.Correction>
   9.000000E+99

> <Gold.Chemscore.Hbonds>
donor molecule, donor type, donor heavy atom, donor atom, acceptor molecule, acceptor atom, score
      P1  H  7989  7998       L1    21  0.91
      P1  H  7997  8010       L1     8  0.26

> <Gold.Chemscore.Hbond.Weighted>
-5.8550

> <Gold.Chemscore.Metal.Weighted>
-0.0000

> <Gold.Chemscore.Lipo.Weighted>
-10.4765

> <Gold.Chemscore.Internal_Hbond.Weighted>
0.0000

> <Gold.Chemscore.DEClash.Weighted>
0.1041

> <Gold.Chemscore.DEInternal.Weighted>
2.6336

> <Gold.Chemscore.Rot.Weighted>
6.0624

> <Gold.Chemscore.Internal.Correction.Weighted>
   9.000000E+99

> <Gold.Protein.RotatedTorsions>
[ 6907 6896 6895 6894 ] final  -34.82 input  -60.11 | X-H torsion
[ 7974 7965 7964 7962 ] final  -20.62 input  175.53 | X-H torsion
[ 8008 7997 7996 7995 ] final   66.81 input   59.86 | X-H torsion
[ 10167 10162 10161 10158 ] final   93.22 input  -65.29 | X-H torsion
[ 10718 10713 10712 10709 ] final -114.22 input   66.30 | X-H torsion
[ 10763 10752 10751 10750 ] final -114.10 input  -60.55 | X-H torsion
[ 11005 11000 10999 10996 ] final  152.24 input  -57.11 | X-H torsion

> <Gold.Protein.ActiveResidues>
 VAL166  LYS551  ARG553  GLY616  TRP617  ASP618  TYR619  PRO620  LYS621  CYS622 
 ASP623  PHE694  ASN695  SER759  ASP760  ASP761  ALA762  ILE779  LEU786  VAL792 
 PHE793  MET794  SER795  GLU796  ALA797  LYS798  CYS799  TRP800  GLU811  SER814 

> <Gold.Protein.RotatedAtoms>
  151.0477  134.9651  159.8194 H   0  0  0  0  0  0  0  0  0  0  0  0  # atno 6907 bound_to 6896
  152.5375  134.2577  159.8933 H   0  0  0  0  0  0  0  0  0  0  0  0  # atno 6908 bound_to 6896
  151.2592  133.4268  159.2649 H   0  0  0  0  0  0  0  0  0  0  0  0  # atno 6909 bound_to 6896
  146.1778  140.4227  142.8506 H   0  0  0  0  0  0  0  0  0  0  0  0  # atno 7974 bound_to 7965
  155.6832  140.3496  155.4863 H   0  0  0  0  0  0  0  0  0  0  0  0  # atno 8008 bound_to 7997
  155.9589  140.1133  157.0935 H   0  0  0  0  0  0  0  0  0  0  0  0  # atno 8009 bound_to 7997
  154.4138  140.1179  156.5138 H   0  0  0  0  0  0  0  0  0  0  0  0  # atno 8010 bound_to 7997
  139.8201  144.6735  150.9530 H   0  0  0  0  0  0  0  0  0  0  0  0  # atno 10167 bound_to 10162
  156.0816  130.6015  150.8746 H   0  0  0  0  0  0  0  0  0  0  0  0  # atno 10718 bound_to 10713
  154.8425  135.4430  154.1454 H   0  0  0  0  0  0  0  0  0  0  0  0  # atno 10763 bound_to 10752
  153.2628  135.6938  153.7567 H   0  0  0  0  0  0  0  0  0  0  0  0  # atno 10764 bound_to 10752
  153.6837  135.3399  155.3160 H   0  0  0  0  0  0  0  0  0  0  0  0  # atno 10765 bound_to 10752
  140.1290  134.8814  157.2178 H   0  0  0  0  0  0  0  0  0  0  0  0  # atno 11005 bound_to 11000
  144.8265  140.6637  143.6319 LP  0  0  0  0  0  0  0  0  0  0  0  0  # atno 17320 bound_to 7965
  145.4162  139.1571  143.4099 LP  0  0  0  0  0  0  0  0  0  0  0  0  # atno 17321 bound_to 7965
  140.7814  143.4100  151.1008 LP  0  0  0  0  0  0  0  0  0  0  0  0  # atno 17342 bound_to 10162
  139.7761  143.8423  152.3129 LP  0  0  0  0  0  0  0  0  0  0  0  0  # atno 17343 bound_to 10162
  157.5935  131.0944  150.9079 LP  0  0  0  0  0  0  0  0  0  0  0  0  # atno 17370 bound_to 10713
  156.9250  130.5329  149.5279 LP  0  0  0  0  0  0  0  0  0  0  0  0  # atno 17371 bound_to 10713
  140.2866  134.3288  155.7327 LP  0  0  0  0  0  0  0  0  0  0  0  0  # atno 17394 bound_to 11000
  141.2167  133.7510  156.9442 LP  0  0  0  0  0  0  0  0  0  0  0  0  # atno 17395 bound_to 11000

$$$$
