AV-unprocessed.smi:822|AV-procd|sdf|3843|dock5
  -GOLD-   22720 1293D 1   1.00000     0.00000
 Structure written by MMmdl.
 38 39  0  0  0  0  0  0  0  0  1 V2000
  152.9927  139.9213  157.6162 O   0  0  0  0  0  0  0  0  0  0  0  0
  152.0476  140.4529  158.1990 C   0  0  0  0  0  0  0  0  0  0  0  0
  152.2347  141.0294  159.6067 C   0  0  0  0  0  0  0  0  0  0  0  0
  152.5303  142.5463  159.6260 C   0  0  0  0  0  0  0  0  0  0  0  0
  151.9586  143.1944  160.9042 C   0  0  0  0  0  0  0  0  0  0  0  0
  152.2420  144.7043  160.9564 C   0  0  0  0  0  0  0  0  0  0  0  0
  151.6998  145.4148  159.7075 C   0  0  0  0  0  0  0  0  0  0  0  0
  152.2674  144.7858  158.4266 C   0  0  0  0  0  0  0  0  0  0  0  0
  151.9877  143.2750  158.3743 C   0  0  0  0  0  0  0  0  0  0  0  0
  150.8206  140.5610  157.6668 N   0  0  0  0  0  0  0  0  0  0  0  0
  150.4362  140.0788  156.3459 C   0  0  0  0  0  0  0  0  0  0  0  0
  149.9352  141.2245  155.4522 C   0  0  0  0  0  0  0  0  0  0  0  0
  148.7027  140.8711  154.7780 N   0  0  0  0  0  0  0  0  0  0  0  0
  147.6272  141.7064  154.5066 C   0  0  0  0  0  0  0  0  0  0  0  0
  146.6902  140.9398  153.8513 C   0  0  0  0  0  0  0  0  0  0  0  0
  147.1658  139.6384  153.7084 N   0  0  0  0  0  0  0  0  0  0  0  0
  148.3626  139.6741  154.2807 C   0  0  0  0  0  0  0  0  0  0  0  0
  151.3543  140.8176  160.2154 H   0  0  0  0  0  0  0  0  0  0  0  0
  153.0616  140.4895  160.0697 H   0  0  0  0  0  0  0  0  0  0  0  0
  153.6129  142.6827  159.6505 H   0  0  0  0  0  0  0  0  0  0  0  0
  150.8818  143.0265  160.9520 H   0  0  0  0  0  0  0  0  0  0  0  0
  152.3832  142.7159  161.7874 H   0  0  0  0  0  0  0  0  0  0  0  0
  151.7938  145.1350  161.8523 H   0  0  0  0  0  0  0  0  0  0  0  0
  153.3167  144.8731  161.0363 H   0  0  0  0  0  0  0  0  0  0  0  0
  150.6108  145.3524  159.6947 H   0  0  0  0  0  0  0  0  0  0  0  0
  151.9490  146.4757  159.7442 H   0  0  0  0  0  0  0  0  0  0  0  0
  151.8369  145.2734  157.5513 H   0  0  0  0  0  0  0  0  0  0  0  0
  153.3430  144.9597  158.3790 H   0  0  0  0  0  0  0  0  0  0  0  0
  152.4341  142.8656  157.4679 H   0  0  0  0  0  0  0  0  0  0  0  0
  150.9129  143.1089  158.2899 H   0  0  0  0  0  0  0  0  0  0  0  0
  150.1031  141.0138  158.2145 H   0  0  0  0  0  0  0  0  0  0  0  0
  151.3083  139.6071  155.8919 H   0  0  0  0  0  0  0  0  0  0  0  0
  149.6756  139.3011  156.4363 H   0  0  0  0  0  0  0  0  0  0  0  0
  149.7620  142.1270  156.0404 H   0  0  0  0  0  0  0  0  0  0  0  0
  150.6822  141.4753  154.6979 H   0  0  0  0  0  0  0  0  0  0  0  0
  147.6181  142.7478  154.7933 H   0  0  0  0  0  0  0  0  0  0  0  0
  145.7183  141.2225  153.4740 H   0  0  0  0  0  0  0  0  0  0  0  0
  149.0074  138.8092  154.3376 H   0  0  0  0  0  0  0  0  0  0  0  0
  1  2  2  0  0  0  0
  2  3  1  0  0  0  0
  2 10  1  0  0  0  0
  3  4  1  0  0  0  0
  3 18  1  0  0  0  0
  3 19  1  0  0  0  0
  4  9  1  0  0  0  0
  4  5  1  0  0  0  0
  4 20  1  0  0  0  0
  5  6  1  0  0  0  0
  5 21  1  0  0  0  0
  5 22  1  0  0  0  0
  6  7  1  0  0  0  0
  6 23  1  0  0  0  0
  6 24  1  0  0  0  0
  7  8  1  0  0  0  0
  7 25  1  0  0  0  0
  7 26  1  0  0  0  0
  8  9  1  0  0  0  0
  8 27  1  0  0  0  0
  8 28  1  0  0  0  0
  9 29  1  0  0  0  0
  9 30  1  0  0  0  0
 10 11  1  0  0  0  0
 10 31  1  0  0  0  0
 11 12  1  0  0  0  0
 11 32  1  0  0  0  0
 11 33  1  0  0  0  0
 12 13  1  0  0  0  0
 12 34  1  0  0  0  0
 12 35  1  0  0  0  0
 13 17  1  0  0  0  0
 13 14  1  0  0  0  0
 14 15  2  0  0  0  0
 14 36  1  0  0  0  0
 15 16  1  0  0  0  0
 15 37  1  0  0  0  0
 16 17  2  0  0  0  0
 17 38  1  0  0  0  0
M  END
> <s_m_source_file>
AV-unprocessed.smi

> <i_m_source_file_index>
822

> <i_lp_mmshare_version>
43012

> <i_f3d_flags>
0

> <s_epik_input>
W0NIMl0xW0NIMl1bQ0gyXVtDSDJdW0NIMl1bQ0hdMVtDSDJdQyg9TylbTkhdW0NIMl1bQ0gyXW4yW2NIXVtjSF1uW2NIXTI=

> <s_epik_cmdline>
J2VwaWtfcHl0aG9uJywgJy1waCcsICc3LjAnLCAnLXRuJywgJzgnLCAnLW1hJywgJzIwMCcsICctbWV0YWxfYmluZGluZycsICctaW1hZScsICc8aW5maWxlLm1hZT4nLCAnLW9tYWUnLCAnPG91dGZpbGUubWFlPic=

> <r_lp_tautomer_probability>
1

> <r_epik_Ionization_Penalty>
0.600603

> <r_epik_Ionization_Penalty_Charging>
0.600603

> <r_epik_Ionization_Penalty_Neutral>
2.18922e-08

> <r_epik_State_Penalty>
0.614954

> <r_epik_Charging_Adjusted_Penalty>
1.21556

> <i_epik_Tot_Q>
0

> <i_epik_Tot_abs_Q>
0

> <r_epik_Metal_State_Penalty>
0.301281

> <b_epik_Metal_Only>
0

> <s_lp_Force_Field>
OPLS_2005

> <r_lp_Energy>
10.0857

> <b_lp_Chiralities_Consistent>
1

> <s_lp_Variant>
AV-unprocessed.smi:822-2

> <Gold.Version>
5.8.1

> <Gold.Id.Protein>
6NUR|6NUR_protein|mol2

> <Gold.PLP.Fitness>
47.1359

> <Gold.PLP.PLP>
-41.0178

> <Gold.PLP.part.hbond>
-1.0000

> <Gold.PLP.part.metal>
0.0000

> <Gold.PLP.part.buried>
-3.3960

> <Gold.PLP.part.nonpolar>
-37.8407

> <Gold.PLP.part.repulsive>
0.2602

> <Gold.PLP.ligand.clash>
0.0000

> <Gold.PLP.ligand.torsion>
1.4387

> <Gold.PLP.Chemscore.Hbond>
1.0000

> <Gold.PLP.Chemscore.CHOScore>
1.9828

> <Gold.PLP.Chemscore.Metal>
0.0000

> <Gold.Chemscore.Hbonds>
donor molecule, donor type, donor heavy atom, donor atom, acceptor molecule, acceptor atom, score
      P1  H  7997  8009       L1     1  1.00
      L1  C    14    36       P1  8028  1.00
      L1  C    15    37       P1 10175  1.00

> <Gold.PLP.Chemscore.Internal.Correction>
0.0471

> <Gold.Rescore>
     Score         DG    S(hbond)    S(metal)    S(lipo)     H(rot)  DE(clash)    DE(int)     intcor
     13.86     -16.09       0.99        0.00     105.42       1.97       0.11       2.12       ----

> <Gold.Chemscore.Fitness>
13.8586

> <Gold.Chemscore.DG>
-16.0869

> <Gold.Chemscore.ZeroCoef>
-5.4800

> <Gold.Chemscore.Hbond>
0.9922

> <Gold.Chemscore.Metal>
0.0000

> <Gold.Chemscore.Lipo>
105.4195

> <Gold.Chemscore.Internal_Hbond>
0.0000

> <Gold.Chemscore.DEClash>
0.1089

> <Gold.Chemscore.DEInternal>
2.1195

> <Gold.Chemscore.Rot>
1.9692

> <Gold.Chemscore.Internal.Correction>
   9.000000E+99

> <Gold.Chemscore.Hbonds>
donor molecule, donor type, donor heavy atom, donor atom, acceptor molecule, acceptor atom, score
      P1  H  7997  8009       L1     1  0.97

> <Gold.Chemscore.Hbond.Weighted>
-3.3138

> <Gold.Chemscore.Metal.Weighted>
-0.0000

> <Gold.Chemscore.Lipo.Weighted>
-12.3341

> <Gold.Chemscore.Internal_Hbond.Weighted>
0.0000

> <Gold.Chemscore.DEClash.Weighted>
0.1089

> <Gold.Chemscore.DEInternal.Weighted>
2.1195

> <Gold.Chemscore.Rot.Weighted>
5.0410

> <Gold.Chemscore.Internal.Correction.Weighted>
   9.000000E+99

> <Gold.Protein.RotatedTorsions>
[ 6907 6896 6895 6894 ] final -139.30 input  -60.11 | X-H torsion
[ 7974 7965 7964 7962 ] final -111.21 input  175.53 | X-H torsion
[ 8008 7997 7996 7995 ] final  179.58 input   59.86 | X-H torsion
[ 10167 10162 10161 10158 ] final -177.46 input  -65.29 | X-H torsion
[ 10718 10713 10712 10709 ] final  157.03 input   66.30 | X-H torsion
[ 10763 10752 10751 10750 ] final  -67.21 input  -60.55 | X-H torsion
[ 11005 11000 10999 10996 ] final -157.31 input  -57.11 | X-H torsion

> <Gold.Protein.ActiveResidues>
 VAL166  LYS551  ARG553  GLY616  TRP617  ASP618  TYR619  PRO620  LYS621  CYS622 
 ASP623  PHE694  ASN695  SER759  ASP760  ASP761  ALA762  ILE779  LEU786  VAL792 
 PHE793  MET794  SER795  GLU796  ALA797  LYS798  CYS799  TRP800  GLU811  SER814 

> <Gold.Protein.RotatedAtoms>
  151.0461  133.5664  159.2646 H   0  0  0  0  0  0  0  0  0  0  0  0  # atno 6907 bound_to 6896
  151.2693  135.0678  159.9137 H   0  0  0  0  0  0  0  0  0  0  0  0  # atno 6908 bound_to 6896
  152.5373  134.0194  159.8028 H   0  0  0  0  0  0  0  0  0  0  0  0  # atno 6909 bound_to 6896
  145.1588  140.8868  143.3603 H   0  0  0  0  0  0  0  0  0  0  0  0  # atno 7974 bound_to 7965
  156.0418  140.1305  157.0148 H   0  0  0  0  0  0  0  0  0  0  0  0  # atno 8008 bound_to 7997
  154.4394  140.1029  156.6318 H   0  0  0  0  0  0  0  0  0  0  0  0  # atno 8009 bound_to 7997
  155.5656  140.3465  155.4504 H   0  0  0  0  0  0  0  0  0  0  0  0  # atno 8010 bound_to 7997
  139.5479  144.2186  152.1023 H   0  0  0  0  0  0  0  0  0  0  0  0  # atno 10167 bound_to 10162
  157.1970  131.0667  151.2047 H   0  0  0  0  0  0  0  0  0  0  0  0  # atno 10718 bound_to 10713
  154.3712  135.6095  153.5741 H   0  0  0  0  0  0  0  0  0  0  0  0  # atno 10763 bound_to 10752
  152.9790  135.5838  154.4520 H   0  0  0  0  0  0  0  0  0  0  0  0  # atno 10764 bound_to 10752
  154.4274  135.2847  155.1913 H   0  0  0  0  0  0  0  0  0  0  0  0  # atno 10765 bound_to 10752
  140.6661  134.4298  157.5233 H   0  0  0  0  0  0  0  0  0  0  0  0  # atno 11005 bound_to 11000
  145.0352  139.3306  143.6004 LP  0  0  0  0  0  0  0  0  0  0  0  0  # atno 17320 bound_to 7965
  146.3485  139.9705  142.8707 LP  0  0  0  0  0  0  0  0  0  0  0  0  # atno 17321 bound_to 7965
  140.1676  144.4966  150.6597 LP  0  0  0  0  0  0  0  0  0  0  0  0  # atno 17342 bound_to 10162
  140.6733  143.2294  151.5570 LP  0  0  0  0  0  0  0  0  0  0  0  0  # atno 17343 bound_to 10162
  157.3804  130.7228  149.6626 LP  0  0  0  0  0  0  0  0  0  0  0  0  # atno 17370 bound_to 10713
  155.9705  130.4174  150.4277 LP  0  0  0  0  0  0  0  0  0  0  0  0  # atno 17371 bound_to 10713
  139.8997  134.8585  156.1950 LP  0  0  0  0  0  0  0  0  0  0  0  0  # atno 17394 bound_to 11000
  141.0428  133.6929  156.1629 LP  0  0  0  0  0  0  0  0  0  0  0  0  # atno 17395 bound_to 11000

$$$$
