AV-unprocessed.smi:2822|AV-procd|sdf|10864|dock4
  -GOLD-   2272015303D 1   1.00000     0.00000
 Structure written by MMmdl.
 41 43  0  0  0  0  0  0  0  0  3 V2000
  150.1309  138.2452  154.5124 Cl  0  0  0  0  0  0  0  0  0  0  0  0
  149.0638  139.6048  154.4632 C   0  0  0  0  0  0  0  0  0  0  0  0
  149.3778  140.7546  155.2172 C   0  0  0  0  0  0  0  0  0  0  0  0
  148.5549  141.8242  155.1928 N   0  3  0  0  0  0  0  0  0  0  0  0
  147.4189  141.8533  154.4648 C   0  0  0  0  0  0  0  0  0  0  0  0
  147.0517  140.7346  153.6895 C   0  0  0  0  0  0  0  0  0  0  0  0
  147.8809  139.5848  153.6831 C   0  0  0  0  0  0  0  0  0  0  0  0
  147.5702  138.4398  152.9329 N   0  0  0  0  0  0  0  0  0  0  0  0
  146.2535  138.2731  152.3353 C   0  0  0  0  0  0  0  0  0  0  0  0
  145.5265  137.0433  152.8988 C   0  0  2  0  0  0  0  0  0  0  0  0
  146.3081  135.7462  152.6209 C   0  0  0  0  0  0  0  0  0  0  0  0
  145.5462  134.5650  153.0971 N   0  3  2  0  0  0  0  0  0  0  0  0
  146.2618  133.2746  152.9177 C   0  0  0  0  0  0  0  0  0  0  0  0
  146.2562  132.8037  151.4507 C   0  0  0  0  0  0  0  0  0  0  0  0
  144.8265  132.7399  150.8969 C   0  0  0  0  0  0  0  0  0  0  0  0
  144.1183  134.0885  151.0873 C   0  0  0  0  0  0  0  0  0  0  0  0
  144.1552  134.5323  152.5665 C   0  0  2  0  0  0  0  0  0  0  0  0
  143.4653  135.8912  152.7965 C   0  0  0  0  0  0  0  0  0  0  0  0
  144.2572  136.9449  152.2612 O   0  0  0  0  0  0  0  0  0  0  0  0
  150.2582  140.8492  155.8360 H   0  0  0  0  0  0  0  0  0  0  0  0
  146.8414  142.7646  154.5224 H   0  0  0  0  0  0  0  0  0  0  0  0
  146.1413  140.7792  153.1108 H   0  0  0  0  0  0  0  0  0  0  0  0
  148.1605  137.6246  153.0242 H   0  0  0  0  0  0  0  0  0  0  0  0
  145.6549  139.1703  152.4994 H   0  0  0  0  0  0  0  0  0  0  0  0
  146.3777  138.1566  151.2579 H   0  0  0  0  0  0  0  0  0  0  0  0
  145.3937  137.1660  153.9758 H   0  0  0  0  0  0  0  0  0  0  0  0
  146.5150  135.6608  151.5540 H   0  0  0  0  0  0  0  0  0  0  0  0
  147.2736  135.7796  153.1271 H   0  0  0  0  0  0  0  0  0  0  0  0
  147.2841  133.3601  153.2881 H   0  0  0  0  0  0  0  0  0  0  0  0
  145.7732  132.5237  153.5399 H   0  0  0  0  0  0  0  0  0  0  0  0
  146.8592  133.4736  150.8372 H   0  0  0  0  0  0  0  0  0  0  0  0
  146.7246  131.8219  151.3767 H   0  0  0  0  0  0  0  0  0  0  0  0
  144.8431  132.4686  149.8408 H   0  0  0  0  0  0  0  0  0  0  0  0
  144.2683  131.9562  151.4107 H   0  0  0  0  0  0  0  0  0  0  0  0
  144.5845  134.8412  150.4508 H   0  0  0  0  0  0  0  0  0  0  0  0
  143.0846  134.0058  150.7501 H   0  0  0  0  0  0  0  0  0  0  0  0
  143.6089  133.7854  153.1446 H   0  0  0  0  0  0  0  0  0  0  0  0
  142.4842  135.9054  152.3214 H   0  0  0  0  0  0  0  0  0  0  0  0
  143.2983  136.0622  153.8612 H   0  0  0  0  0  0  0  0  0  0  0  0
  145.4580  134.6939  154.0950 H   0  0  0  0  0  0  0  0  0  0  0  0
  148.8027  142.6448  155.7465 H   0  0  0  0  0  0  0  0  0  0  0  0
  1  2  1  0  0  0  0
  2  7  1  0  0  0  0
  2  3  2  0  0  0  0
  3  4  1  0  0  0  0
  3 20  1  0  0  0  0
  4  5  2  0  0  0  0
  4 41  1  0  0  0  0
  5  6  1  0  0  0  0
  5 21  1  0  0  0  0
  6  7  2  0  0  0  0
  6 22  1  0  0  0  0
  7  8  1  0  0  0  0
  8  9  1  0  0  0  0
  8 23  1  0  0  0  0
  9 10  1  0  0  0  0
  9 24  1  0  0  0  0
  9 25  1  0  0  0  0
 10 19  1  0  0  0  0
 10 11  1  0  0  0  0
 10 26  1  0  0  0  0
 11 12  1  0  0  0  0
 11 27  1  0  0  0  0
 11 28  1  0  0  0  0
 12 17  1  0  0  0  0
 12 13  1  0  0  0  0
 12 40  1  0  0  0  0
 13 14  1  0  0  0  0
 13 29  1  0  0  0  0
 13 30  1  0  0  0  0
 14 15  1  0  0  0  0
 14 31  1  0  0  0  0
 14 32  1  0  0  0  0
 15 16  1  0  0  0  0
 15 33  1  0  0  0  0
 15 34  1  0  0  0  0
 16 17  1  0  0  0  0
 16 35  1  0  0  0  0
 16 36  1  0  0  0  0
 17 18  1  0  0  0  0
 17 37  1  0  0  0  0
 18 19  1  0  0  0  0
 18 38  1  0  0  0  0
 18 39  1  0  0  0  0
M  CHG  1   4   1
M  CHG  1  12   1
M  END
> <s_m_source_file>
AV-unprocessed.smi

> <i_m_source_file_index>
2822

> <i_lp_mmshare_version>
43012

> <i_f3d_flags>
0

> <s_epik_input>
Q2xjMVtjSF1uW2NIXVtjSF1jMVtOSF1bQ0gyXVtDQEhdKFtDSDJdMilPW0NIMl1bQ0BASF0oTjIzKVtDSDJdW0NIMl1bQ0gyXVtDSDJdMw==

> <s_epik_cmdline>
J2VwaWtfcHl0aG9uJywgJy1waCcsICc3LjAnLCAnLXRuJywgJzgnLCAnLW1hJywgJzIwMCcsICctbWV0YWxfYmluZGluZycsICctaW1hZScsICc8aW5maWxlLm1hZT4nLCAnLW9tYWUnLCAnPG91dGZpbGUubWFlPic=

> <r_lp_tautomer_probability>
1

> <r_epik_Ionization_Penalty>
0.254999

> <r_epik_Ionization_Penalty_Charging>
0.254956

> <r_epik_Ionization_Penalty_Neutral>
4.33524e-05

> <r_epik_State_Penalty>
0.230978

> <r_epik_Charging_Adjusted_Penalty>
0.485934

> <i_epik_Tot_Q>
2

> <i_epik_Tot_abs_Q>
2

> <r_epik_Metal_State_Penalty>
3.47007

> <b_epik_Metal_Only>
0

> <s_lp_Force_Field>
OPLS_2005

> <r_lp_Energy>
39.695

> <b_lp_Chiralities_Consistent>
1

> <s_lp_Variant>
AV-unprocessed.smi:2822-5

> <Gold.Version>
5.8.1

> <Gold.Id.Protein>
6NUR|6NUR_protein|mol2

> <Gold.PLP.Fitness>
40.3496

> <Gold.PLP.PLP>
-31.7333

> <Gold.PLP.part.hbond>
-3.0000

> <Gold.PLP.part.metal>
0.0000

> <Gold.PLP.part.buried>
0.8191

> <Gold.PLP.part.nonpolar>
-31.7891

> <Gold.PLP.part.repulsive>
1.9326

> <Gold.PLP.ligand.clash>
0.0000

> <Gold.PLP.ligand.torsion>
0.0362

> <Gold.PLP.Chemscore.Hbond>
2.8960

> <Gold.PLP.Chemscore.CHOScore>
0.0000

> <Gold.PLP.Chemscore.Metal>
0.0000

> <Gold.Chemscore.Hbonds>
donor molecule, donor type, donor heavy atom, donor atom, acceptor molecule, acceptor atom, score
      L1  H     4    41       P1  8028  1.49
      L1  H     8    23       P1  7948  0.75

> <Gold.PLP.Chemscore.Internal.Correction>
0.0008

> <Gold.Rescore>
     Score         DG    S(hbond)    S(metal)    S(lipo)     H(rot)  DE(clash)    DE(int)     intcor
     15.75     -19.12       1.79        0.00      91.60       1.20       3.31       0.06       ----

> <Gold.Chemscore.Fitness>
15.7507

> <Gold.Chemscore.DG>
-19.1188

> <Gold.Chemscore.ZeroCoef>
-5.4800

> <Gold.Chemscore.Hbond>
1.7915

> <Gold.Chemscore.Metal>
0.0000

> <Gold.Chemscore.Lipo>
91.6029

> <Gold.Chemscore.Internal_Hbond>
0.0000

> <Gold.Chemscore.DEClash>
3.3120

> <Gold.Chemscore.DEInternal>
0.0560

> <Gold.Chemscore.Rot>
1.1962

> <Gold.Chemscore.Internal.Correction>
   9.000000E+99

> <Gold.Chemscore.Hbonds>
donor molecule, donor type, donor heavy atom, donor atom, acceptor molecule, acceptor atom, score
      L1  H     4    41       P1  8028  0.72
      L1  H     8    23       P1  7948  0.74

> <Gold.Chemscore.Hbond.Weighted>
-5.9836

> <Gold.Chemscore.Metal.Weighted>
-0.0000

> <Gold.Chemscore.Lipo.Weighted>
-10.7175

> <Gold.Chemscore.Internal_Hbond.Weighted>
0.0000

> <Gold.Chemscore.DEClash.Weighted>
3.3120

> <Gold.Chemscore.DEInternal.Weighted>
0.0560

> <Gold.Chemscore.Rot.Weighted>
3.0623

> <Gold.Chemscore.Internal.Correction.Weighted>
   9.000000E+99

> <Gold.Protein.RotatedTorsions>
[ 6907 6896 6895 6894 ] final  -52.39 input  -60.11 | X-H torsion
[ 7974 7965 7964 7962 ] final -170.66 input  175.53 | X-H torsion
[ 8008 7997 7996 7995 ] final  -30.36 input   59.86 | X-H torsion
[ 10167 10162 10161 10158 ] final  -37.15 input  -65.29 | X-H torsion
[ 10718 10713 10712 10709 ] final -143.69 input   66.30 | X-H torsion
[ 10763 10752 10751 10750 ] final  121.22 input  -60.55 | X-H torsion
[ 11005 11000 10999 10996 ] final   89.31 input  -57.11 | X-H torsion

> <Gold.Protein.ActiveResidues>
 VAL166  LYS551  ARG553  GLY616  TRP617  ASP618  TYR619  PRO620  LYS621  CYS622 
 ASP623  PHE694  ASN695  SER759  ASP760  ASP761  ALA762  ILE779  LEU786  VAL792 
 PHE793  MET794  SER795  GLU796  ALA797  LYS798  CYS799  TRP800  GLU811  SER814 

> <Gold.Protein.RotatedAtoms>
  150.8522  134.7850  159.7017 H   0  0  0  0  0  0  0  0  0  0  0  0  # atno 6907 bound_to 6896
  152.4584  134.5237  159.9800 H   0  0  0  0  0  0  0  0  0  0  0  0  # atno 6908 bound_to 6896
  151.5356  133.3403  159.2962 H   0  0  0  0  0  0  0  0  0  0  0  0  # atno 6909 bound_to 6896
  144.7167  140.2038  143.6335 H   0  0  0  0  0  0  0  0  0  0  0  0  # atno 7974 bound_to 7965
  154.4253  140.1793  156.1395 H   0  0  0  0  0  0  0  0  0  0  0  0  # atno 8008 bound_to 7997
  156.0003  140.3360  155.6814 H   0  0  0  0  0  0  0  0  0  0  0  0  # atno 8009 bound_to 7997
  155.6251  140.0664  157.2657 H   0  0  0  0  0  0  0  0  0  0  0  0  # atno 8010 bound_to 7997
  140.7125  143.3361  151.2460 H   0  0  0  0  0  0  0  0  0  0  0  0  # atno 10167 bound_to 10162
  156.3611  130.7738  151.1906 H   0  0  0  0  0  0  0  0  0  0  0  0  # atno 10718 bound_to 10713
  153.6108  135.3431  155.2978 H   0  0  0  0  0  0  0  0  0  0  0  0  # atno 10763 bound_to 10752
  154.8619  135.4249  154.2312 H   0  0  0  0  0  0  0  0  0  0  0  0  # atno 10764 bound_to 10752
  153.3162  135.7035  153.7143 H   0  0  0  0  0  0  0  0  0  0  0  0  # atno 10765 bound_to 10752
  139.8878  134.8543  156.3124 H   0  0  0  0  0  0  0  0  0  0  0  0  # atno 11005 bound_to 11000
  145.8654  139.2244  143.1692 LP  0  0  0  0  0  0  0  0  0  0  0  0  # atno 17320 bound_to 7965
  146.0134  140.8414  142.9959 LP  0  0  0  0  0  0  0  0  0  0  0  0  # atno 17321 bound_to 7965
  139.6856  143.9779  152.2832 LP  0  0  0  0  0  0  0  0  0  0  0  0  # atno 17342 bound_to 10162
  139.9424  144.6673  150.8253 LP  0  0  0  0  0  0  0  0  0  0  0  0  # atno 17343 bound_to 10162
  157.7473  131.0400  150.4576 LP  0  0  0  0  0  0  0  0  0  0  0  0  # atno 17370 bound_to 10713
  156.4787  130.4069  149.6474 LP  0  0  0  0  0  0  0  0  0  0  0  0  # atno 17371 bound_to 10713
  140.9841  133.7249  156.0716 LP  0  0  0  0  0  0  0  0  0  0  0  0  # atno 17394 bound_to 11000
  140.7711  134.3832  157.5507 LP  0  0  0  0  0  0  0  0  0  0  0  0  # atno 17395 bound_to 11000

$$$$
