#       Name:                AV-unprocessed.smi:2882
#       Creating user name   scv26
#       Creation time:       Fri Mar 27 15:54:51 2020


#       File generated by GOLD software.
#

@<TRIPOS>MOLECULE
AV-unprocessed.smi:2882
    33    35     1
SMALL
NO_CHARGES


@<TRIPOS>ATOM
      1 ****        -1.2275  -4.4782  -0.3628 N.1            1 S1                 0.0000
      2 ****        -1.7453  -3.4460  -0.2886 C.1            1 S1                 0.0000
      3 ****        -2.3964  -2.1455  -0.1946 C.ar           1 S1                 0.0000
      4 ****        -3.7347  -2.1492   0.0066 N.ar           1 S1                 0.0000
      5 ****        -4.3491  -0.9510   0.1023 C.ar           1 S1                 0.0000
      6 ****        -3.6316   0.2562  -0.0024 C.ar           1 S1                 0.0000
      7 ****        -2.2970   0.2694  -0.2040 N.ar           1 S1                 0.0000
      8 ****        -1.6666  -0.9280  -0.3014 C.ar           1 S1                 0.0000
      9 ****        -0.2760  -0.9298  -0.5152 N.pl3          1 S1                 0.0000
     10 ****         0.5154   0.2871  -0.3692 C.3            1 S1                 0.0000
     11 ****         0.6792   0.7259   1.0919 C.3            1 S1                 0.0000
     12 ****         2.2049   0.7860   1.2364 C.3            1 S1                 0.0000
     13 ****         2.8223   1.9351   0.4275 C.3            1 S1                 0.0000
     14 ****         2.6915   1.4153  -1.0037 C.3            1 S1                 0.0000
     15 ****         1.9795   0.0729  -0.7885 C.3            1 S1                 0.0000
     16 ****         2.5719  -0.3247   0.4379 O.3            1 S1                 0.0000
     17 ****        -5.4170  -0.9555   0.2628 H              1 S1                 0.0000
     18 ****        -4.1285   1.2119   0.0746 H              1 S1                 0.0000
     19 ****         0.2149  -1.8122  -0.5466 H              1 S1                 0.0000
     20 ****         0.0726   1.0777  -0.9769 H              1 S1                 0.0000
     21 ****         0.2023   1.6846   1.2974 H              1 S1                 0.0000
     22 ****         0.2667  -0.0110   1.7827 H              1 S1                 0.0000
     23 ****         2.5531   0.7327   2.2681 H              1 S1                 0.0000
     24 ****         2.3003   2.8794   0.5855 H              1 S1                 0.0000
     25 ****         3.8718   2.0762   0.6882 H              1 S1                 0.0000
     26 ****         2.1280   2.0890  -1.6502 H              1 S1                 0.0000
     27 ****         3.6767   1.2629  -1.4457 H              1 S1                 0.0000
     28 ****         2.1180  -0.6300  -1.6110 H              1 S1                 0.0000
     29 ****        -0.7800  -5.3702  -0.4270 LP             1 S1                 0.0000
     30 ****        -4.2474  -3.0045   0.0813 LP             1 S1                 0.0000
     31 ****        -1.7920   1.1292  -0.2788 LP             1 S1                 0.0000
     32 ****         2.1819  -1.1786   0.7825 LP             1 S1                 0.0000
     33 ****         3.5645  -0.4188   0.3610 LP             1 S1                 0.0000
@<TRIPOS>BOND
    1    1    2 3     
    2    2    3 1     
    3    3    8 ar    
    4    3    4 ar    
    5    4    5 ar    
    6    5    6 ar    
    7    5   17 1     
    8    6    7 ar    
    9    6   18 1     
   10    7    8 ar    
   11    8    9 1     
   12    9   10 1     
   13    9   19 1     
   14   10   15 1     
   15   10   11 1     
   16   10   20 1     
   17   11   12 1     
   18   11   21 1     
   19   11   22 1     
   20   12   16 1     
   21   12   13 1     
   22   12   23 1     
   23   13   14 1     
   24   13   24 1     
   25   13   25 1     
   26   14   15 1     
   27   14   26 1     
   28   14   27 1     
   29   15   16 1     
   30   15   28 1     
   31    1   29 1     
   32    4   30 1     
   33    7   31 1     
   34   16   32 1     
   35   16   33 1     
@<TRIPOS>SUBSTRUCTURE
      1 S1             1
@<TRIPOS>SET
LONE_PAIRS      STATIC     ATOMS    <user>   **** ""
5 29 30 31 32 33
DONOR_HYDROGENS      STATIC     ATOMS    <user>   **** ""
1 19
ATOM$BLUE        STATIC     ATOMS    COLORGROUP SYSTEM
5 29 30 31 32 33
ATOM$RED        STATIC     ATOMS    COLORGROUP SYSTEM
1 19
