AV-unprocessed.smi:712|AV-procd|sdf|3469|dock5
  -GOLD-   22720 0463D 1   1.00000     0.00000
 Structure written by MMmdl.
 51 52  0  0  0  0  0  0  0  0  2 V2000
  152.8339  143.1510  160.6933 C   0  0  0  0  0  0  0  0  0  0  0  0
  152.3592  142.5497  159.3868 C   0  0  0  0  0  0  0  0  0  0  0  0
  151.9199  143.3985  158.2986 C   0  0  0  0  0  0  0  0  0  0  0  0
  151.5007  142.8329  157.1558 C   0  0  0  0  0  0  0  0  0  0  0  0
  151.4747  141.4372  156.9837 N   0  0  0  0  0  0  0  0  0  0  0  0
  150.9777  140.9222  155.6972 C   0  0  0  0  0  0  0  0  0  0  0  0
  149.5062  141.2885  155.4752 C   0  0  0  0  0  0  0  0  0  0  0  0
  148.8262  141.7159  156.4081 O   0  0  0  0  0  0  0  0  0  0  0  0
  149.0254  141.0928  154.2386 N   0  0  0  0  0  0  0  0  0  0  0  0
  147.6278  141.2272  153.8426 C   0  0  0  0  0  0  0  0  0  0  0  0
  146.8830  139.8808  153.9392 C   0  0  1  0  0  0  0  0  0  0  0  0
  147.4381  138.7962  152.9825 C   0  0  0  0  0  0  0  0  0  0  0  0
  146.7683  137.4858  153.1799 N   0  3  2  0  0  0  0  0  0  0  0  0
  145.4276  137.3754  152.5438 C   0  0  0  0  0  0  0  0  0  0  0  0
  144.9849  135.9100  152.3378 C   0  0  0  0  0  0  0  0  0  0  0  0
  145.5354  135.3579  151.0147 C   0  0  0  0  0  0  0  0  0  0  0  0
  143.4557  135.7603  152.3883 C   0  0  0  0  0  0  0  0  0  0  0  0
  146.7908  137.0982  154.6110 C   0  0  0  0  0  0  0  0  0  0  0  0
  146.2441  138.2262  155.5029 C   0  0  0  0  0  0  0  0  0  0  0  0
  146.9979  139.4114  155.2782 O   0  0  0  0  0  0  0  0  0  0  0  0
  151.8745  140.5803  157.9725 C   0  0  0  0  0  0  0  0  0  0  0  0
  151.8448  139.3567  157.8323 O   0  0  0  0  0  0  0  0  0  0  0  0
  152.3314  141.2096  159.2165 C   0  0  0  0  0  0  0  0  0  0  0  0
  153.0298  144.2182  160.5852 H   0  0  0  0  0  0  0  0  0  0  0  0
  153.7545  142.6701  161.0259 H   0  0  0  0  0  0  0  0  0  0  0  0
  152.0769  143.0182  161.4667 H   0  0  0  0  0  0  0  0  0  0  0  0
  151.9240  144.4737  158.4022 H   0  0  0  0  0  0  0  0  0  0  0  0
  151.1542  143.4094  156.3104 H   0  0  0  0  0  0  0  0  0  0  0  0
  151.5583  141.3203  154.8640 H   0  0  0  0  0  0  0  0  0  0  0  0
  151.1130  139.8397  155.6523 H   0  0  0  0  0  0  0  0  0  0  0  0
  149.6651  140.7554  153.5335 H   0  0  0  0  0  0  0  0  0  0  0  0
  147.1201  141.9973  154.4260 H   0  0  0  0  0  0  0  0  0  0  0  0
  147.6189  141.5720  152.8083 H   0  0  0  0  0  0  0  0  0  0  0  0
  145.8285  140.0658  153.7289 H   0  0  0  0  0  0  0  0  0  0  0  0
  147.3479  139.1061  151.9435 H   0  0  0  0  0  0  0  0  0  0  0  0
  148.5047  138.6627  153.1684 H   0  0  0  0  0  0  0  0  0  0  0  0
  144.6829  137.8698  153.1693 H   0  0  0  0  0  0  0  0  0  0  0  0
  145.4212  137.9113  151.5947 H   0  0  0  0  0  0  0  0  0  0  0  0
  145.4021  135.2928  153.1320 H   0  0  0  0  0  0  0  0  0  0  0  0
  145.1602  135.9235  150.1612 H   0  0  0  0  0  0  0  0  0  0  0  0
  145.2501  134.3149  150.8745 H   0  0  0  0  0  0  0  0  0  0  0  0
  146.6247  135.4033  150.9925 H   0  0  0  0  0  0  0  0  0  0  0  0
  142.9723  136.3515  151.6097 H   0  0  0  0  0  0  0  0  0  0  0  0
  143.0545  136.0824  153.3493 H   0  0  0  0  0  0  0  0  0  0  0  0
  143.1595  134.7204  152.2468 H   0  0  0  0  0  0  0  0  0  0  0  0
  146.2386  136.1715  154.7706 H   0  0  0  0  0  0  0  0  0  0  0  0
  147.8240  136.8888  154.8914 H   0  0  0  0  0  0  0  0  0  0  0  0
  145.1852  138.4057  155.3112 H   0  0  0  0  0  0  0  0  0  0  0  0
  146.3321  137.9481  156.5531 H   0  0  0  0  0  0  0  0  0  0  0  0
  152.6550  140.5708  160.0256 H   0  0  0  0  0  0  0  0  0  0  0  0
  147.3355  136.7985  152.7041 H   0  0  0  0  0  0  0  0  0  0  0  0
  1  2  1  0  0  0  0
  1 24  1  0  0  0  0
  1 25  1  0  0  0  0
  1 26  1  0  0  0  0
  2 23  2  0  0  0  0
  2  3  1  0  0  0  0
  3  4  2  0  0  0  0
  3 27  1  0  0  0  0
  4  5  1  0  0  0  0
  4 28  1  0  0  0  0
  5  6  1  0  0  0  0
  5 21  1  0  0  0  0
  6  7  1  0  0  0  0
  6 29  1  0  0  0  0
  6 30  1  0  0  0  0
  7  8  2  0  0  0  0
  7  9  1  0  0  0  0
  9 10  1  0  0  0  0
  9 31  1  0  0  0  0
 10 11  1  0  0  0  0
 10 32  1  0  0  0  0
 10 33  1  0  0  0  0
 11 20  1  0  0  0  0
 11 12  1  0  0  0  0
 11 34  1  0  0  0  0
 12 13  1  0  0  0  0
 12 35  1  0  0  0  0
 12 36  1  0  0  0  0
 13 14  1  0  0  0  0
 13 18  1  0  0  0  0
 13 51  1  0  0  0  0
 14 15  1  0  0  0  0
 14 37  1  0  0  0  0
 14 38  1  0  0  0  0
 15 16  1  0  0  0  0
 15 17  1  0  0  0  0
 15 39  1  0  0  0  0
 16 40  1  0  0  0  0
 16 41  1  0  0  0  0
 16 42  1  0  0  0  0
 17 43  1  0  0  0  0
 17 44  1  0  0  0  0
 17 45  1  0  0  0  0
 18 19  1  0  0  0  0
 18 46  1  0  0  0  0
 18 47  1  0  0  0  0
 19 20  1  0  0  0  0
 19 48  1  0  0  0  0
 19 49  1  0  0  0  0
 21 22  2  0  0  0  0
 21 23  1  0  0  0  0
 23 50  1  0  0  0  0
M  CHG  1  13   1
M  END
> <s_m_source_file>
AV-unprocessed.smi

> <i_m_source_file_index>
712

> <i_lp_mmshare_version>
43012

> <i_f3d_flags>
0

> <s_epik_input>
W0NIM11jMVtjSF1bY0hdbihjKD1PKVtjSF0xKVtDSDJdQyg9TylbTkhdW0NIMl1bQ0BASF0yW0NIMl1OKFtDSDJdW0NIMl1PMilbQ0gyXVtDSF0oW0NIM10pW0NIM10=

> <s_epik_cmdline>
J2VwaWtfcHl0aG9uJywgJy1waCcsICc3LjAnLCAnLXRuJywgJzgnLCAnLW1hJywgJzIwMCcsICctbWV0YWxfYmluZGluZycsICctaW1hZScsICc8aW5maWxlLm1hZT4nLCAnLW9tYWUnLCAnPG91dGZpbGUubWFlPic=

> <r_lp_tautomer_probability>
1

> <r_epik_Ionization_Penalty>
0.0975935

> <r_epik_Ionization_Penalty_Charging>
0.0975934

> <r_epik_Ionization_Penalty_Neutral>
6.27044e-08

> <r_epik_State_Penalty>
0.0877056

> <r_epik_Charging_Adjusted_Penalty>
0.185299

> <i_epik_Tot_Q>
1

> <i_epik_Tot_abs_Q>
1

> <r_epik_Metal_State_Penalty>
0.0877109

> <b_epik_Metal_Only>
0

> <s_lp_Force_Field>
OPLS_2005

> <r_lp_Energy>
28.3742

> <b_lp_Chiralities_Consistent>
1

> <s_lp_Variant>
AV-unprocessed.smi:712-2

> <Gold.Version>
5.8.1

> <Gold.Id.Protein>
6NUR|6NUR_protein|mol2

> <Gold.PLP.Fitness>
47.1523

> <Gold.PLP.PLP>
-39.6302

> <Gold.PLP.part.hbond>
-1.0000

> <Gold.PLP.part.metal>
0.0000

> <Gold.PLP.part.buried>
-3.8656

> <Gold.PLP.part.nonpolar>
-34.8056

> <Gold.PLP.part.repulsive>
1.0813

> <Gold.PLP.ligand.clash>
0.0000

> <Gold.PLP.ligand.torsion>
0.7995

> <Gold.PLP.Chemscore.Hbond>
2.0000

> <Gold.PLP.Chemscore.CHOScore>
1.0000

> <Gold.PLP.Chemscore.Metal>
0.0000

> <Gold.Chemscore.Hbonds>
donor molecule, donor type, donor heavy atom, donor atom, acceptor molecule, acceptor atom, score
      L1  H    13    51       P1  7948  2.00
      L1  C     4    28       P1  8028  0.62

> <Gold.PLP.Chemscore.Internal.Correction>
0.1210

> <Gold.Rescore>
     Score         DG    S(hbond)    S(metal)    S(lipo)     H(rot)  DE(clash)    DE(int)     intcor
     13.34     -17.99       1.55        0.00     104.09       1.89       1.76       2.90       ----

> <Gold.Chemscore.Fitness>
13.3380

> <Gold.Chemscore.DG>
-17.9928

> <Gold.Chemscore.ZeroCoef>
-5.4800

> <Gold.Chemscore.Hbond>
1.5465

> <Gold.Chemscore.Metal>
0.0000

> <Gold.Chemscore.Lipo>
104.0898

> <Gold.Chemscore.Internal_Hbond>
0.0000

> <Gold.Chemscore.DEClash>
1.7571

> <Gold.Chemscore.DEInternal>
2.8977

> <Gold.Chemscore.Rot>
1.8871

> <Gold.Chemscore.Internal.Correction>
   9.000000E+99

> <Gold.Chemscore.Hbonds>
donor molecule, donor type, donor heavy atom, donor atom, acceptor molecule, acceptor atom, score
      L1  H     9    31       P1  7957  0.02
      L1  H    13    51       P1  7948  0.96

> <Gold.Chemscore.Hbond.Weighted>
-5.1652

> <Gold.Chemscore.Metal.Weighted>
-0.0000

> <Gold.Chemscore.Lipo.Weighted>
-12.1785

> <Gold.Chemscore.Internal_Hbond.Weighted>
0.0000

> <Gold.Chemscore.DEClash.Weighted>
1.7571

> <Gold.Chemscore.DEInternal.Weighted>
2.8977

> <Gold.Chemscore.Rot.Weighted>
4.8309

> <Gold.Chemscore.Internal.Correction.Weighted>
   9.000000E+99

> <Gold.Protein.RotatedTorsions>
[ 6907 6896 6895 6894 ] final  -51.90 input  -60.11 | X-H torsion
[ 7974 7965 7964 7962 ] final -131.35 input  175.53 | X-H torsion
[ 8008 7997 7996 7995 ] final  114.52 input   59.86 | X-H torsion
[ 10167 10162 10161 10158 ] final   48.84 input  -65.29 | X-H torsion
[ 10718 10713 10712 10709 ] final  160.04 input   66.30 | X-H torsion
[ 10763 10752 10751 10750 ] final  -39.68 input  -60.55 | X-H torsion
[ 11005 11000 10999 10996 ] final  145.77 input  -57.11 | X-H torsion

> <Gold.Protein.ActiveResidues>
 VAL166  LYS551  ARG553  GLY616  TRP617  ASP618  TYR619  PRO620  LYS621  CYS622 
 ASP623  PHE694  ASN695  SER759  ASP760  ASP761  ALA762  ILE779  LEU786  VAL792 
 PHE793  MET794  SER795  GLU796  ALA797  LYS798  CYS799  TRP800  GLU811  SER814 

> <Gold.Protein.RotatedAtoms>
  150.8568  134.7908  159.7051 H   0  0  0  0  0  0  0  0  0  0  0  0  # atno 6907 bound_to 6896
  152.4617  134.5166  159.9780 H   0  0  0  0  0  0  0  0  0  0  0  0  # atno 6908 bound_to 6896
  151.5277  133.3416  159.2948 H   0  0  0  0  0  0  0  0  0  0  0  0  # atno 6909 bound_to 6896
  144.9388  140.7214  143.4860 H   0  0  0  0  0  0  0  0  0  0  0  0  # atno 7974 bound_to 7965
  156.2326  140.2957  156.0228 H   0  0  0  0  0  0  0  0  0  0  0  0  # atno 8008 bound_to 7997
  155.2183  140.0415  157.2961 H   0  0  0  0  0  0  0  0  0  0  0  0  # atno 8009 bound_to 7997
  154.6022  140.2430  155.7785 H   0  0  0  0  0  0  0  0  0  0  0  0  # atno 8010 bound_to 7997
  140.2891  144.3067  150.6245 H   0  0  0  0  0  0  0  0  0  0  0  0  # atno 10167 bound_to 10162
  157.1559  131.0575  151.2257 H   0  0  0  0  0  0  0  0  0  0  0  0  # atno 10718 bound_to 10713
  153.9335  135.6769  153.4745 H   0  0  0  0  0  0  0  0  0  0  0  0  # atno 10763 bound_to 10752
  153.0968  135.4847  154.8790 H   0  0  0  0  0  0  0  0  0  0  0  0  # atno 10764 bound_to 10752
  154.7415  135.3162  154.8677 H   0  0  0  0  0  0  0  0  0  0  0  0  # atno 10765 bound_to 10752
  140.0739  134.9136  157.1390 H   0  0  0  0  0  0  0  0  0  0  0  0  # atno 11005 bound_to 11000
  145.3024  139.1846  143.4682 LP  0  0  0  0  0  0  0  0  0  0  0  0  # atno 17320 bound_to 7965
  146.3277  140.3017  142.8621 LP  0  0  0  0  0  0  0  0  0  0  0  0  # atno 17321 bound_to 7965
  140.5747  143.2177  151.7536 LP  0  0  0  0  0  0  0  0  0  0  0  0  # atno 17342 bound_to 10162
  139.4942  144.4166  152.0023 LP  0  0  0  0  0  0  0  0  0  0  0  0  # atno 17343 bound_to 10162
  157.4177  130.7420  149.6889 LP  0  0  0  0  0  0  0  0  0  0  0  0  # atno 17370 bound_to 10713
  155.9762  130.4078  150.3795 LP  0  0  0  0  0  0  0  0  0  0  0  0  # atno 17371 bound_to 10713
  140.3587  134.2518  155.7189 LP  0  0  0  0  0  0  0  0  0  0  0  0  # atno 17394 bound_to 11000
  141.2022  133.7943  157.0402 LP  0  0  0  0  0  0  0  0  0  0  0  0  # atno 17395 bound_to 11000

$$$$
