AV-unprocessed.smi:1947|AV-procd|sdf|7871|dock10
  -GOLD-   2272010 23D 1   1.00000     0.00000
 Structure written by MMmdl.
 38 39  0  0  0  0  0  0  0  0  2 V2000
  150.9932  141.7879  157.0488 C   0  0  0  0  0  0  0  0  0  0  0  0
  150.4815  141.1443  155.7507 C   0  0  2  0  0  0  0  0  0  0  0  0
  148.9797  141.4158  155.5283 C   0  0  0  0  0  0  0  0  0  0  0  0
  148.4827  140.7995  154.2107 C   0  0  0  0  0  0  0  0  0  0  0  0
  148.7898  139.2957  154.1463 C   0  0  0  0  0  0  0  0  0  0  0  0
  150.2876  139.0243  154.3649 C   0  0  0  0  0  0  0  0  0  0  0  0
  150.7881  139.6308  155.6940 C   0  0  2  0  0  0  0  0  0  0  0  0
  150.1393  138.9984  156.7904 O   0  0  0  0  0  0  0  0  0  0  0  0
  150.1136  137.5802  156.7295 C   0  0  0  0  0  0  0  0  0  0  0  0
  150.5032  137.0273  158.1033 C   0  0  0  0  0  0  0  0  0  0  0  0
  149.5104  137.4129  159.0976 N   0  0  0  0  0  0  0  0  0  0  0  0
  148.7356  136.5687  159.7897 C   0  0  0  0  0  0  0  0  0  0  0  0
  148.8287  135.3539  159.6001 O   0  0  0  0  0  0  0  0  0  0  0  0
  147.9036  137.1851  160.6600 N   0  5  0  0  0  0  0  0  0  0  0  0
  147.0048  136.4691  161.3552 C   0  0  0  0  0  0  0  0  0  0  0  0
  145.6909  136.7447  161.3270 N   0  0  0  0  0  0  0  0  0  0  0  0
  144.9371  135.8929  162.1230 N   0  0  0  0  0  0  0  0  0  0  0  0
  145.7067  134.9964  162.7395 C   0  0  0  0  0  0  0  0  0  0  0  0
  147.4215  135.1125  162.4056 S   0  0  0  0  0  0  0  0  0  0  0  0
  150.4853  141.3812  157.9238 H   0  0  0  0  0  0  0  0  0  0  0  0
  150.8290  142.8658  157.0422 H   0  0  0  0  0  0  0  0  0  0  0  0
  152.0626  141.6181  157.1759 H   0  0  0  0  0  0  0  0  0  0  0  0
  151.0227  141.6167  154.9296 H   0  0  0  0  0  0  0  0  0  0  0  0
  148.4018  141.0102  156.3601 H   0  0  0  0  0  0  0  0  0  0  0  0
  148.7919  142.4899  155.5200 H   0  0  0  0  0  0  0  0  0  0  0  0
  147.4101  140.9647  154.1043 H   0  0  0  0  0  0  0  0  0  0  0  0
  148.9583  141.3054  153.3696 H   0  0  0  0  0  0  0  0  0  0  0  0
  148.2067  138.7698  154.9037 H   0  0  0  0  0  0  0  0  0  0  0  0
  148.4760  138.8933  153.1829 H   0  0  0  0  0  0  0  0  0  0  0  0
  150.4768  137.9520  154.3282 H   0  0  0  0  0  0  0  0  0  0  0  0
  150.8538  139.4557  153.5387 H   0  0  0  0  0  0  0  0  0  0  0  0
  151.8679  139.4927  155.7763 H   0  0  0  0  0  0  0  0  0  0  0  0
  149.1297  137.2052  156.4471 H   0  0  0  0  0  0  0  0  0  0  0  0
  150.8200  137.2398  155.9714 H   0  0  0  0  0  0  0  0  0  0  0  0
  150.5628  135.9389  158.0606 H   0  0  0  0  0  0  0  0  0  0  0  0
  151.4879  137.3961  158.3950 H   0  0  0  0  0  0  0  0  0  0  0  0
  149.4089  138.3999  159.2838 H   0  0  0  0  0  0  0  0  0  0  0  0
  145.2624  134.2645  163.3972 H   0  0  0  0  0  0  0  0  0  0  0  0
  1  2  1  0  0  0  0
  1 20  1  0  0  0  0
  1 21  1  0  0  0  0
  1 22  1  0  0  0  0
  2  7  1  0  0  0  0
  2  3  1  0  0  0  0
  2 23  1  0  0  0  0
  3  4  1  0  0  0  0
  3 24  1  0  0  0  0
  3 25  1  0  0  0  0
  4  5  1  0  0  0  0
  4 26  1  0  0  0  0
  4 27  1  0  0  0  0
  5  6  1  0  0  0  0
  5 28  1  0  0  0  0
  5 29  1  0  0  0  0
  6  7  1  0  0  0  0
  6 30  1  0  0  0  0
  6 31  1  0  0  0  0
  7  8  1  0  0  0  0
  7 32  1  0  0  0  0
  8  9  1  0  0  0  0
  9 10  1  0  0  0  0
  9 33  1  0  0  0  0
  9 34  1  0  0  0  0
 10 11  1  0  0  0  0
 10 35  1  0  0  0  0
 10 36  1  0  0  0  0
 11 12  1  0  0  0  0
 11 37  1  0  0  0  0
 12 13  2  0  0  0  0
 12 14  1  0  0  0  0
 14 15  1  0  0  0  0
 15 19  1  0  0  0  0
 15 16  2  0  0  0  0
 16 17  1  0  0  0  0
 17 18  2  0  0  0  0
 18 19  1  0  0  0  0
 18 38  1  0  0  0  0
M  CHG  1  14  -1
M  END
> <s_m_source_file>
AV-unprocessed.smi

> <i_m_source_file_index>
1947

> <i_lp_mmshare_version>
43012

> <i_f3d_flags>
0

> <s_epik_input>
W0NIM11bQ0BASF0xW0NIMl1bQ0gyXVtDSDJdW0NIMl1bQ0BIXTFPW0NIMl1bQ0gyXVtOSF1DKD1PKVtOSF1jMm5uW2NIXXMy

> <s_epik_cmdline>
J2VwaWtfcHl0aG9uJywgJy1waCcsICc3LjAnLCAnLXRuJywgJzgnLCAnLW1hJywgJzIwMCcsICctbWV0YWxfYmluZGluZycsICctaW1hZScsICc8aW5maWxlLm1hZT4nLCAnLW9tYWUnLCAnPG91dGZpbGUubWFlPic=

> <r_lp_tautomer_probability>
1

> <r_epik_Ionization_Penalty>
3.35961

> <r_epik_Ionization_Penalty_Charging>
3.31977

> <r_epik_Ionization_Penalty_Neutral>
0.0398394

> <r_epik_State_Penalty>
3.31759

> <r_epik_Charging_Adjusted_Penalty>
6.63736

> <i_epik_Tot_Q>
-1

> <i_epik_Tot_abs_Q>
1

> <r_epik_Metal_State_Penalty>
0.484557

> <b_epik_Metal_Only>
1

> <s_lp_Force_Field>
OPLS_2005

> <r_lp_Energy>
9.4778

> <b_lp_Chiralities_Consistent>
1

> <s_lp_Variant>
AV-unprocessed.smi:1947-7

> <Gold.Version>
5.8.1

> <Gold.Id.Protein>
6NUR|6NUR_protein|mol2

> <Gold.PLP.Fitness>
43.8619

> <Gold.PLP.PLP>
-32.9006

> <Gold.PLP.part.hbond>
-3.0000

> <Gold.PLP.part.metal>
0.0000

> <Gold.PLP.part.buried>
-3.4066

> <Gold.PLP.part.nonpolar>
-27.4231

> <Gold.PLP.part.repulsive>
0.2160

> <Gold.PLP.ligand.clash>
0.0000

> <Gold.PLP.ligand.torsion>
0.9265

> <Gold.PLP.Chemscore.Hbond>
4.2640

> <Gold.PLP.Chemscore.CHOScore>
0.0000

> <Gold.PLP.Chemscore.Metal>
0.0000

> <Gold.Chemscore.Hbonds>
donor molecule, donor type, donor heavy atom, donor atom, acceptor molecule, acceptor atom, score
      P1  H  6896  6907       L1    13  1.00
      P1  H  6931  6943       L1    14  1.63
      P1  H  6934  6947       L1    14  1.63

> <Gold.PLP.Chemscore.Internal.Correction>
0.0223

> <Gold.Rescore>
     Score         DG    S(hbond)    S(metal)    S(lipo)     H(rot)  DE(clash)    DE(int)     intcor
     13.47     -14.64       1.71        0.00      70.92       1.90       0.11       1.06       ----

> <Gold.Chemscore.Fitness>
13.4705

> <Gold.Chemscore.DG>
-14.6382

> <Gold.Chemscore.ZeroCoef>
-5.4800

> <Gold.Chemscore.Hbond>
1.7128

> <Gold.Chemscore.Metal>
0.0000

> <Gold.Chemscore.Lipo>
70.9154

> <Gold.Chemscore.Internal_Hbond>
0.0000

> <Gold.Chemscore.DEClash>
0.1103

> <Gold.Chemscore.DEInternal>
1.0574

> <Gold.Chemscore.Rot>
1.8984

> <Gold.Chemscore.Internal.Correction>
   9.000000E+99

> <Gold.Chemscore.Hbonds>
donor molecule, donor type, donor heavy atom, donor atom, acceptor molecule, acceptor atom, score
      P1  H  6896  6907       L1    13  0.90
      P1  H  6931  6943       L1    14  0.37
      P1  H  6934  6947       L1    14  0.24

> <Gold.Chemscore.Hbond.Weighted>
-5.7209

> <Gold.Chemscore.Metal.Weighted>
-0.0000

> <Gold.Chemscore.Lipo.Weighted>
-8.2971

> <Gold.Chemscore.Internal_Hbond.Weighted>
0.0000

> <Gold.Chemscore.DEClash.Weighted>
0.1103

> <Gold.Chemscore.DEInternal.Weighted>
1.0574

> <Gold.Chemscore.Rot.Weighted>
4.8598

> <Gold.Chemscore.Internal.Correction.Weighted>
   9.000000E+99

> <Gold.Protein.RotatedTorsions>
[ 6907 6896 6895 6894 ] final  -69.42 input  -60.11 | X-H torsion
[ 7974 7965 7964 7962 ] final  109.86 input  175.53 | X-H torsion
[ 8008 7997 7996 7995 ] final  117.43 input   59.86 | X-H torsion
[ 10167 10162 10161 10158 ] final   70.06 input  -65.29 | X-H torsion
[ 10718 10713 10712 10709 ] final   -7.41 input   66.30 | X-H torsion
[ 10763 10752 10751 10750 ] final  -45.63 input  -60.55 | X-H torsion
[ 11005 11000 10999 10996 ] final   72.41 input  -57.11 | X-H torsion

> <Gold.Protein.ActiveResidues>
 VAL166  LYS551  ARG553  GLY616  TRP617  ASP618  TYR619  PRO620  LYS621  CYS622 
 ASP623  PHE694  ASN695  SER759  ASP760  ASP761  ALA762  ILE779  LEU786  VAL792 
 PHE793  MET794  SER795  GLU796  ALA797  LYS798  CYS799  TRP800  GLU811  SER814 

> <Gold.Protein.RotatedAtoms>
  150.7307  134.5600  159.5836 H   0  0  0  0  0  0  0  0  0  0  0  0  # atno 6907 bound_to 6896
  152.3065  134.7545  160.0355 H   0  0  0  0  0  0  0  0  0  0  0  0  # atno 6908 bound_to 6896
  151.8108  133.3346  159.3591 H   0  0  0  0  0  0  0  0  0  0  0  0  # atno 6909 bound_to 6896
  145.2624  139.2697  143.4010 H   0  0  0  0  0  0  0  0  0  0  0  0  # atno 7974 bound_to 7965
  156.2493  140.2896  156.0677 H   0  0  0  0  0  0  0  0  0  0  0  0  # atno 8008 bound_to 7997
  155.1706  140.0401  157.2879 H   0  0  0  0  0  0  0  0  0  0  0  0  # atno 8009 bound_to 7997
  154.6329  140.2503  155.7420 H   0  0  0  0  0  0  0  0  0  0  0  0  # atno 8010 bound_to 7997
  140.0610  144.5233  150.7294 H   0  0  0  0  0  0  0  0  0  0  0  0  # atno 10167 bound_to 10162
  156.7176  130.5141  149.5876 H   0  0  0  0  0  0  0  0  0  0  0  0  # atno 10718 bound_to 10713
  154.0317  135.6656  153.4781 H   0  0  0  0  0  0  0  0  0  0  0  0  # atno 10763 bound_to 10752
  153.0538  135.5068  154.7927 H   0  0  0  0  0  0  0  0  0  0  0  0  # atno 10764 bound_to 10752
  154.6874  135.3055  154.9493 H   0  0  0  0  0  0  0  0  0  0  0  0  # atno 10765 bound_to 10752
  139.9492  134.7257  156.0904 H   0  0  0  0  0  0  0  0  0  0  0  0  # atno 11005 bound_to 11000
  146.3271  140.3044  142.8623 LP  0  0  0  0  0  0  0  0  0  0  0  0  # atno 17320 bound_to 7965
  144.9407  140.8075  143.5632 LP  0  0  0  0  0  0  0  0  0  0  0  0  # atno 17321 bound_to 7965
  140.7172  143.2555  151.4397 LP  0  0  0  0  0  0  0  0  0  0  0  0  # atno 17342 bound_to 10162
  139.5894  144.1533  152.2069 LP  0  0  0  0  0  0  0  0  0  0  0  0  # atno 17343 bound_to 10162
  156.1617  130.6378  151.0727 LP  0  0  0  0  0  0  0  0  0  0  0  0  # atno 17370 bound_to 10713
  157.6911  131.0809  150.7105 LP  0  0  0  0  0  0  0  0  0  0  0  0  # atno 17371 bound_to 10713
  141.1151  133.6630  156.3073 LP  0  0  0  0  0  0  0  0  0  0  0  0  # atno 17394 bound_to 11000
  140.5760  134.5793  157.5468 LP  0  0  0  0  0  0  0  0  0  0  0  0  # atno 17395 bound_to 11000

$$$$
