AV-unprocessed.smi:2888|AV-procd|sdf|11100|dock2
  -GOLD-   2272015573D 1   1.00000     0.00000
 Structure written by MMmdl.
 33 35  0  0  0  0  0  0  0  0  1 V2000
  153.5386  140.9810  159.6367 C   0  0  0  0  0  0  0  0  0  0  0  0
  152.6148  142.1213  159.2653 C   0  0  0  0  0  0  0  0  0  0  0  0
  152.7289  143.3915  159.8680 C   0  0  0  0  0  0  0  0  0  0  0  0
  151.8080  144.3683  159.4345 C   0  0  0  0  0  0  0  0  0  0  0  0
  151.8215  145.7741  159.9962 C   0  0  0  0  0  0  0  0  0  0  0  0
  150.8735  144.0995  158.4955 N   0  0  0  0  0  0  0  0  0  0  0  0
  150.8586  142.8636  157.9895 C   0  0  0  0  0  0  0  0  0  0  0  0
  149.8960  142.6272  157.0255 N   0  0  0  0  0  0  0  0  0  0  0  0
  149.5890  141.3131  156.4748 C   0  0  2  0  0  0  0  0  0  0  0  0
  150.8071  140.6313  155.8388 C   0  0  0  0  0  0  0  0  0  0  0  0
  150.3045  140.3478  154.4179 C   0  0  1  0  0  0  0  0  0  0  0  0
  149.2126  139.2693  154.3916 C   0  0  0  0  0  0  0  0  0  0  0  0
  148.0150  140.0234  154.9690 C   0  0  0  0  0  0  0  0  0  0  0  0
  148.6254  141.3971  155.2791 C   0  0  2  0  0  0  0  0  0  0  0  0
  149.5299  141.5121  154.1920 O   0  0  0  0  0  0  0  0  0  0  0  0
  151.6795  141.8611  158.3259 N   0  0  0  0  0  0  0  0  0  0  0  0
  154.2019  141.2620  160.4552 H   0  0  0  0  0  0  0  0  0  0  0  0
  154.1521  140.6984  158.7809 H   0  0  0  0  0  0  0  0  0  0  0  0
  152.9616  140.1105  159.9498 H   0  0  0  0  0  0  0  0  0  0  0  0
  153.4781  143.6038  160.6166 H   0  0  0  0  0  0  0  0  0  0  0  0
  152.5289  145.8612  160.8212 H   0  0  0  0  0  0  0  0  0  0  0  0
  150.8327  146.0463  160.3664 H   0  0  0  0  0  0  0  0  0  0  0  0
  152.1084  146.4873  159.2234 H   0  0  0  0  0  0  0  0  0  0  0  0
  149.5024  143.4347  156.5646 H   0  0  0  0  0  0  0  0  0  0  0  0
  149.1523  140.6951  157.2605 H   0  0  0  0  0  0  0  0  0  0  0  0
  151.6704  141.2979  155.8048 H   0  0  0  0  0  0  0  0  0  0  0  0
  151.1035  139.7241  156.3663 H   0  0  0  0  0  0  0  0  0  0  0  0
  151.1014  140.1905  153.6907 H   0  0  0  0  0  0  0  0  0  0  0  0
  149.0057  138.9477  153.3703 H   0  0  0  0  0  0  0  0  0  0  0  0
  149.4852  138.3917  154.9787 H   0  0  0  0  0  0  0  0  0  0  0  0
  147.2244  140.1124  154.2231 H   0  0  0  0  0  0  0  0  0  0  0  0
  147.5966  139.5422  155.8536 H   0  0  0  0  0  0  0  0  0  0  0  0
  147.8873  142.1974  155.3453 H   0  0  0  0  0  0  0  0  0  0  0  0
  1  2  1  0  0  0  0
  1 17  1  0  0  0  0
  1 18  1  0  0  0  0
  1 19  1  0  0  0  0
  2 16  1  0  0  0  0
  2  3  2  0  0  0  0
  3  4  1  0  0  0  0
  3 20  1  0  0  0  0
  4  5  1  0  0  0  0
  4  6  2  0  0  0  0
  5 21  1  0  0  0  0
  5 22  1  0  0  0  0
  5 23  1  0  0  0  0
  6  7  1  0  0  0  0
  7  8  1  0  0  0  0
  7 16  2  0  0  0  0
  8  9  1  0  0  0  0
  8 24  1  0  0  0  0
  9 14  1  0  0  0  0
  9 10  1  0  0  0  0
  9 25  1  0  0  0  0
 10 11  1  0  0  0  0
 10 26  1  0  0  0  0
 10 27  1  0  0  0  0
 11 15  1  0  0  0  0
 11 12  1  0  0  0  0
 11 28  1  0  0  0  0
 12 13  1  0  0  0  0
 12 29  1  0  0  0  0
 12 30  1  0  0  0  0
 13 14  1  0  0  0  0
 13 31  1  0  0  0  0
 13 32  1  0  0  0  0
 14 15  1  0  0  0  0
 14 33  1  0  0  0  0
M  END
> <s_m_source_file>
AV-unprocessed.smi

> <i_m_source_file_index>
2888

> <i_lp_mmshare_version>
43012

> <i_f3d_flags>
0

> <s_epik_input>
W0NIM11jMVtjSF1jKFtDSDNdKW5jKG4xKVtOSF1bQ0BIXShbQ0gyXVtDQEBIXTIzKVtDQEBIXShPMylbQ0gyXVtDSDJdMg==

> <s_epik_cmdline>
J2VwaWtfcHl0aG9uJywgJy1waCcsICc3LjAnLCAnLXRuJywgJzgnLCAnLW1hJywgJzIwMCcsICctbWV0YWxfYmluZGluZycsICctaW1hZScsICc8aW5maWxlLm1hZT4nLCAnLW9tYWUnLCAnPG91dGZpbGUubWFlPic=

> <r_lp_tautomer_probability>
1

> <r_epik_Ionization_Penalty>
0.00890508

> <r_epik_Ionization_Penalty_Charging>
0

> <r_epik_Ionization_Penalty_Neutral>
0.00890508

> <r_epik_State_Penalty>
0.0067342

> <r_epik_Charging_Adjusted_Penalty>
0.0067342

> <i_epik_Tot_Q>
0

> <i_epik_Tot_abs_Q>
0

> <r_epik_Metal_State_Penalty>
0.00663442

> <b_epik_Metal_Only>
0

> <s_lp_Force_Field>
OPLS_2005

> <r_lp_Energy>
31.5378

> <b_lp_Chiralities_Consistent>
1

> <s_lp_Variant>
AV-unprocessed.smi:2888-1

> <Gold.Version>
5.8.1

> <Gold.Id.Protein>
6NUR|6NUR_protein|mol2

> <Gold.PLP.Fitness>
38.6444

> <Gold.PLP.PLP>
-34.0624

> <Gold.PLP.part.hbond>
-3.0000

> <Gold.PLP.part.metal>
0.0000

> <Gold.PLP.part.buried>
0.0844

> <Gold.PLP.part.nonpolar>
-30.7578

> <Gold.PLP.part.repulsive>
0.3609

> <Gold.PLP.ligand.clash>
0.0000

> <Gold.PLP.ligand.torsion>
0.0549

> <Gold.PLP.Chemscore.Hbond>
1.5577

> <Gold.PLP.Chemscore.CHOScore>
0.0000

> <Gold.PLP.Chemscore.Metal>
0.0000

> <Gold.Chemscore.Hbonds>
donor molecule, donor type, donor heavy atom, donor atom, acceptor molecule, acceptor atom, score
      L1  H     8    24       P1  8028  1.00
      P1  H  8011  8017       L1    15  0.53

> <Gold.PLP.Chemscore.Internal.Correction>
0.0187

> <Gold.Rescore>
     Score         DG    S(hbond)    S(metal)    S(lipo)     H(rot)  DE(clash)    DE(int)     intcor
     16.73     -19.85       1.78        0.00      93.79       1.00       1.76       1.37       ----

> <Gold.Chemscore.Fitness>
16.7258

> <Gold.Chemscore.DG>
-19.8505

> <Gold.Chemscore.ZeroCoef>
-5.4800

> <Gold.Chemscore.Hbond>
1.7836

> <Gold.Chemscore.Metal>
0.0000

> <Gold.Chemscore.Lipo>
93.7883

> <Gold.Chemscore.Internal_Hbond>
0.0000

> <Gold.Chemscore.DEClash>
1.7564

> <Gold.Chemscore.DEInternal>
1.3683

> <Gold.Chemscore.Rot>
1.0000

> <Gold.Chemscore.Internal.Correction>
   9.000000E+99

> <Gold.Chemscore.Hbonds>
donor molecule, donor type, donor heavy atom, donor atom, acceptor molecule, acceptor atom, score
      L1  H     8    24       P1  8028  1.00
      P1  H  8011  8017       L1    15  0.49

> <Gold.Chemscore.Hbond.Weighted>
-5.9572

> <Gold.Chemscore.Metal.Weighted>
-0.0000

> <Gold.Chemscore.Lipo.Weighted>
-10.9732

> <Gold.Chemscore.Internal_Hbond.Weighted>
0.0000

> <Gold.Chemscore.DEClash.Weighted>
1.7564

> <Gold.Chemscore.DEInternal.Weighted>
1.3683

> <Gold.Chemscore.Rot.Weighted>
2.5600

> <Gold.Chemscore.Internal.Correction.Weighted>
   9.000000E+99

> <Gold.Protein.RotatedTorsions>
[ 6907 6896 6895 6894 ] final -154.55 input  -60.11 | X-H torsion
[ 7974 7965 7964 7962 ] final  109.44 input  175.53 | X-H torsion
[ 8008 7997 7996 7995 ] final -134.45 input   59.86 | X-H torsion
[ 10167 10162 10161 10158 ] final  -69.46 input  -65.29 | X-H torsion
[ 10718 10713 10712 10709 ] final   53.32 input   66.30 | X-H torsion
[ 10763 10752 10751 10750 ] final -145.42 input  -60.55 | X-H torsion
[ 11005 11000 10999 10996 ] final   86.42 input  -57.11 | X-H torsion

> <Gold.Protein.ActiveResidues>
 VAL166  LYS551  ARG553  GLY616  TRP617  ASP618  TYR619  PRO620  LYS621  CYS622 
 ASP623  PHE694  ASN695  SER759  ASP760  ASP761  ALA762  ILE779  LEU786  VAL792 
 PHE793  MET794  SER795  GLU796  ALA797  LYS798  CYS799  TRP800  GLU811  SER814 

> <Gold.Protein.RotatedAtoms>
  151.2592  133.4311  159.2614 H   0  0  0  0  0  0  0  0  0  0  0  0  # atno 6907 bound_to 6896
  151.0546  134.9696  159.8239 H   0  0  0  0  0  0  0  0  0  0  0  0  # atno 6908 bound_to 6896
  152.5388  134.2545  159.8964 H   0  0  0  0  0  0  0  0  0  0  0  0  # atno 6909 bound_to 6896
  145.2677  139.2678  143.3983 H   0  0  0  0  0  0  0  0  0  0  0  0  # atno 7974 bound_to 7965
  155.3622  140.0483  157.3046 H   0  0  0  0  0  0  0  0  0  0  0  0  # atno 8008 bound_to 7997
  154.5172  140.2212  155.9007 H   0  0  0  0  0  0  0  0  0  0  0  0  # atno 8009 bound_to 7997
  156.1650  140.3108  155.8878 H   0  0  0  0  0  0  0  0  0  0  0  0  # atno 8010 bound_to 7997
  140.5428  143.2314  151.7057 H   0  0  0  0  0  0  0  0  0  0  0  0  # atno 10167 bound_to 10162
  157.5156  130.8530  149.8491 H   0  0  0  0  0  0  0  0  0  0  0  0  # atno 10718 bound_to 10713
  154.8384  135.3413  154.6502 H   0  0  0  0  0  0  0  0  0  0  0  0  # atno 10763 bound_to 10752
  153.7114  135.6963  153.5041 H   0  0  0  0  0  0  0  0  0  0  0  0  # atno 10764 bound_to 10752
  153.2448  135.4372  155.0690 H   0  0  0  0  0  0  0  0  0  0  0  0  # atno 10765 bound_to 10752
  139.8945  134.8354  156.2718 H   0  0  0  0  0  0  0  0  0  0  0  0  # atno 11005 bound_to 11000
  146.3256  140.3112  142.8627 LP  0  0  0  0  0  0  0  0  0  0  0  0  # atno 17320 bound_to 7965
  144.9362  140.8029  143.5659 LP  0  0  0  0  0  0  0  0  0  0  0  0  # atno 17321 bound_to 7965
  139.4995  144.3941  152.0249 LP  0  0  0  0  0  0  0  0  0  0  0  0  # atno 17342 bound_to 10162
  140.3052  144.3601  150.6049 LP  0  0  0  0  0  0  0  0  0  0  0  0  # atno 17343 bound_to 10162
  156.0318  130.3762  150.1667 LP  0  0  0  0  0  0  0  0  0  0  0  0  # atno 17370 bound_to 10713
  156.9856  130.9877  151.3427 LP  0  0  0  0  0  0  0  0  0  0  0  0  # atno 17371 bound_to 10713
  141.0096  133.7103  156.1090 LP  0  0  0  0  0  0  0  0  0  0  0  0  # atno 17394 bound_to 11000
  140.7386  134.4175  157.5557 LP  0  0  0  0  0  0  0  0  0  0  0  0  # atno 17395 bound_to 11000

$$$$
