AV-unprocessed.smi:1820|AV-procd|sdf|7384|dock10
  -GOLD-   22720 9 53D 1   1.00000     0.00000
 Structure written by MMmdl.
 34 35  0  0  0  0  0  0  0  0  1 V2000
  147.3494  142.8247  160.2753 O   0  0  0  0  0  0  0  0  0  0  0  0
  147.4635  143.7780  159.5055 C   0  0  0  0  0  0  0  0  0  0  0  0
  148.5727  144.0263  158.7952 N   0  0  0  0  0  0  0  0  0  0  0  0
  149.7790  143.2028  158.8006 C   0  0  0  0  0  0  0  0  0  0  0  0
  151.0676  144.0090  158.4931 C   0  0  0  0  0  0  0  0  0  0  0  0
  151.0328  144.4027  157.1351 O   0  0  0  0  0  0  0  0  0  0  0  0
  151.3132  145.2118  159.4183 C   0  0  0  0  0  0  0  0  0  0  0  0
  151.9597  144.6160  160.6729 C   0  0  0  0  0  0  0  0  0  0  0  0
  152.6652  143.3297  160.2150 C   0  0  0  0  0  0  0  0  0  0  0  0
  152.3230  143.1564  158.7285 C   0  0  0  0  0  0  0  0  0  0  0  0
  146.5229  144.7101  159.2724 N   0  0  0  0  0  0  0  0  0  0  0  0
  145.2139  144.8146  159.8174 C   0  0  0  0  0  0  0  0  0  0  0  0
  144.3542  145.7899  159.2704 C   0  0  0  0  0  0  0  0  0  0  0  0
  143.0465  145.9073  159.7818 C   0  0  0  0  0  0  0  0  0  0  0  0
  142.5636  145.1257  160.7700 N   0  0  0  0  0  0  0  0  0  0  0  0
  143.3825  144.1836  161.2833 C   0  0  0  0  0  0  0  0  0  0  0  0
  144.7064  143.9820  160.8440 C   0  0  0  0  0  0  0  0  0  0  0  0
  148.5793  144.8346  158.1909 H   0  0  0  0  0  0  0  0  0  0  0  0
  149.8456  142.7719  159.7999 H   0  0  0  0  0  0  0  0  0  0  0  0
  149.6812  142.3532  158.1224 H   0  0  0  0  0  0  0  0  0  0  0  0
  150.1303  144.4815  156.8671 H   0  0  0  0  0  0  0  0  0  0  0  0
  152.0282  145.8911  158.9509 H   0  0  0  0  0  0  0  0  0  0  0  0
  150.4219  145.7985  159.6402 H   0  0  0  0  0  0  0  0  0  0  0  0
  152.6477  145.3188  161.1442 H   0  0  0  0  0  0  0  0  0  0  0  0
  151.1904  144.3711  161.4064 H   0  0  0  0  0  0  0  0  0  0  0  0
  153.7439  143.3840  160.3652 H   0  0  0  0  0  0  0  0  0  0  0  0
  152.2990  142.4799  160.7922 H   0  0  0  0  0  0  0  0  0  0  0  0
  152.1889  142.1111  158.4474 H   0  0  0  0  0  0  0  0  0  0  0  0
  153.1536  143.5436  158.1353 H   0  0  0  0  0  0  0  0  0  0  0  0
  146.7969  145.4691  158.6662 H   0  0  0  0  0  0  0  0  0  0  0  0
  144.6873  146.4419  158.4763 H   0  0  0  0  0  0  0  0  0  0  0  0
  142.3699  146.6493  159.3842 H   0  0  0  0  0  0  0  0  0  0  0  0
  142.9679  143.5656  162.0659 H   0  0  0  0  0  0  0  0  0  0  0  0
  145.2915  143.1943  161.2924 H   0  0  0  0  0  0  0  0  0  0  0  0
  1  2  2  0  0  0  0
  2  3  1  0  0  0  0
  2 11  1  0  0  0  0
  3  4  1  0  0  0  0
  3 18  1  0  0  0  0
  4  5  1  0  0  0  0
  4 19  1  0  0  0  0
  4 20  1  0  0  0  0
  5 10  1  0  0  0  0
  5  6  1  0  0  0  0
  5  7  1  0  0  0  0
  6 21  1  0  0  0  0
  7  8  1  0  0  0  0
  7 22  1  0  0  0  0
  7 23  1  0  0  0  0
  8  9  1  0  0  0  0
  8 24  1  0  0  0  0
  8 25  1  0  0  0  0
  9 10  1  0  0  0  0
  9 26  1  0  0  0  0
  9 27  1  0  0  0  0
 10 28  1  0  0  0  0
 10 29  1  0  0  0  0
 11 12  1  0  0  0  0
 11 30  1  0  0  0  0
 12 17  1  0  0  0  0
 12 13  2  0  0  0  0
 13 14  1  0  0  0  0
 13 31  1  0  0  0  0
 14 15  2  0  0  0  0
 14 32  1  0  0  0  0
 15 16  1  0  0  0  0
 16 17  2  0  0  0  0
 16 33  1  0  0  0  0
 17 34  1  0  0  0  0
M  END
> <s_m_source_file>
AV-unprocessed.smi

> <i_m_source_file_index>
1820

> <i_lp_mmshare_version>
43012

> <i_f3d_flags>
0

> <s_epik_input>
W2NIXTFbY0hdbltjSF1bY0hdYzFbTkhdQyg9TylbTkhdW0NIMl1DMihbT0hdKVtDSDJdW0NIMl1bQ0gyXVtDSDJdMg==

> <s_epik_cmdline>
J2VwaWtfcHl0aG9uJywgJy1waCcsICc3LjAnLCAnLXRuJywgJzgnLCAnLW1hJywgJzIwMCcsICctbWV0YWxfYmluZGluZycsICctaW1hZScsICc8aW5maWxlLm1hZT4nLCAnLW9tYWUnLCAnPG91dGZpbGUubWFlPic=

> <r_epik_Ionization_Penalty>
0.127626

> <r_epik_Ionization_Penalty_Charging>
0

> <r_epik_Ionization_Penalty_Neutral>
0.127626

> <r_epik_State_Penalty>
0.11702

> <r_epik_Charging_Adjusted_Penalty>
0.11702

> <i_epik_Tot_Q>
0

> <i_epik_Tot_abs_Q>
0

> <r_epik_Metal_State_Penalty>
0.0961027

> <b_epik_Metal_Only>
0

> <s_lp_Force_Field>
OPLS_2005

> <r_lp_Energy>
30.5055

> <b_lp_Chiralities_Consistent>
1

> <s_lp_Variant>
AV-unprocessed.smi:1820-1

> <Gold.Version>
5.8.1

> <Gold.Id.Protein>
6NUR|6NUR_protein|mol2

> <Gold.PLP.Fitness>
43.2083

> <Gold.PLP.PLP>
-30.2741

> <Gold.PLP.part.hbond>
-5.4512

> <Gold.PLP.part.metal>
0.0000

> <Gold.PLP.part.buried>
-2.6754

> <Gold.PLP.part.nonpolar>
-23.1355

> <Gold.PLP.part.repulsive>
0.2520

> <Gold.PLP.ligand.clash>
0.0000

> <Gold.PLP.ligand.torsion>
0.2477

> <Gold.PLP.Chemscore.Hbond>
4.4734

> <Gold.PLP.Chemscore.CHOScore>
0.0000

> <Gold.PLP.Chemscore.Metal>
0.0000

> <Gold.Chemscore.Hbonds>
donor molecule, donor type, donor heavy atom, donor atom, acceptor molecule, acceptor atom, score
      L1  H     3    18       P1  8029  1.00
      L1  H     6    21       P1  8028  1.00
      L1  H    11    30       P1  8029  0.91
      P1  H  6933  6944       L1     1  0.90
      P1  H  6934  6946       L1     1  0.64

> <Gold.PLP.Chemscore.Internal.Correction>
0.0096

> <Gold.Rescore>
     Score         DG    S(hbond)    S(metal)    S(lipo)     H(rot)  DE(clash)    DE(int)     intcor
     23.08     -24.56       4.05        0.00      85.77       1.76       0.01       1.47       ----

> <Gold.Chemscore.Fitness>
23.0820

> <Gold.Chemscore.DG>
-24.5550

> <Gold.Chemscore.ZeroCoef>
-5.4800

> <Gold.Chemscore.Hbond>
4.0529

> <Gold.Chemscore.Metal>
0.0000

> <Gold.Chemscore.Lipo>
85.7665

> <Gold.Chemscore.Internal_Hbond>
0.0000

> <Gold.Chemscore.DEClash>
0.0073

> <Gold.Chemscore.DEInternal>
1.4657

> <Gold.Chemscore.Rot>
1.7564

> <Gold.Chemscore.Internal.Correction>
   9.000000E+99

> <Gold.Chemscore.Hbonds>
donor molecule, donor type, donor heavy atom, donor atom, acceptor molecule, acceptor atom, score
      L1  H     3    18       P1  8029  0.63
      L1  H     6    21       P1  8028  0.75
      L1  H    11    30       P1  8029  0.90
      P1  H  6933  6944       L1     1  0.88
      P1  H  6934  6946       L1     1  0.60

> <Gold.Chemscore.Hbond.Weighted>
-13.5367

> <Gold.Chemscore.Metal.Weighted>
-0.0000

> <Gold.Chemscore.Lipo.Weighted>
-10.0347

> <Gold.Chemscore.Internal_Hbond.Weighted>
0.0000

> <Gold.Chemscore.DEClash.Weighted>
0.0073

> <Gold.Chemscore.DEInternal.Weighted>
1.4657

> <Gold.Chemscore.Rot.Weighted>
4.4963

> <Gold.Chemscore.Internal.Correction.Weighted>
   9.000000E+99

> <Gold.Protein.RotatedTorsions>
[ 6907 6896 6895 6894 ] final -104.09 input  -60.11 | X-H torsion
[ 7974 7965 7964 7962 ] final   41.74 input  175.53 | X-H torsion
[ 8008 7997 7996 7995 ] final -130.51 input   59.86 | X-H torsion
[ 10167 10162 10161 10158 ] final  109.89 input  -65.29 | X-H torsion
[ 10718 10713 10712 10709 ] final   84.03 input   66.30 | X-H torsion
[ 10763 10752 10751 10750 ] final  111.07 input  -60.55 | X-H torsion
[ 11005 11000 10999 10996 ] final  103.61 input  -57.11 | X-H torsion

> <Gold.Protein.ActiveResidues>
 VAL166  LYS551  ARG553  GLY616  TRP617  ASP618  TYR619  PRO620  LYS621  CYS622 
 ASP623  PHE694  ASN695  SER759  ASP760  ASP761  ALA762  ILE779  LEU786  VAL792 
 PHE793  MET794  SER795  GLU796  ALA797  LYS798  CYS799  TRP800  GLU811  SER814 

> <Gold.Protein.RotatedAtoms>
  150.7270  134.0331  159.3739 H   0  0  0  0  0  0  0  0  0  0  0  0  # atno 6907 bound_to 6896
  151.8301  135.0622  160.0445 H   0  0  0  0  0  0  0  0  0  0  0  0  # atno 6908 bound_to 6896
  152.2940  133.5553  159.5612 H   0  0  0  0  0  0  0  0  0  0  0  0  # atno 6909 bound_to 6896
  146.0798  139.5380  142.9544 H   0  0  0  0  0  0  0  0  0  0  0  0  # atno 7974 bound_to 7965
  155.2970  140.0451  157.3027 H   0  0  0  0  0  0  0  0  0  0  0  0  # atno 8008 bound_to 7997
  154.5508  140.2317  155.8455 H   0  0  0  0  0  0  0  0  0  0  0  0  # atno 8009 bound_to 7997
  156.1965  140.3037  155.9445 H   0  0  0  0  0  0  0  0  0  0  0  0  # atno 8010 bound_to 7997
  139.6731  144.7124  151.1651 H   0  0  0  0  0  0  0  0  0  0  0  0  # atno 10167 bound_to 10162
  157.6890  131.0116  150.2612 H   0  0  0  0  0  0  0  0  0  0  0  0  # atno 10718 bound_to 10713
  153.4581  135.3728  155.2322 H   0  0  0  0  0  0  0  0  0  0  0  0  # atno 10763 bound_to 10752
  154.8757  135.3902  154.3958 H   0  0  0  0  0  0  0  0  0  0  0  0  # atno 10764 bound_to 10752
  153.4527  135.7086  153.6163 H   0  0  0  0  0  0  0  0  0  0  0  0  # atno 10765 bound_to 10752
  139.8785  134.9269  156.5235 H   0  0  0  0  0  0  0  0  0  0  0  0  # atno 11005 bound_to 11000
  145.6239  141.0317  143.1900 LP  0  0  0  0  0  0  0  0  0  0  0  0  # atno 17320 bound_to 7965
  144.7285  139.7798  143.7356 LP  0  0  0  0  0  0  0  0  0  0  0  0  # atno 17321 bound_to 7965
  140.7625  143.5813  150.8891 LP  0  0  0  0  0  0  0  0  0  0  0  0  # atno 17342 bound_to 10162
  139.9480  143.6305  152.3036 LP  0  0  0  0  0  0  0  0  0  0  0  0  # atno 17343 bound_to 10162
  156.3191  130.3783  149.7591 LP  0  0  0  0  0  0  0  0  0  0  0  0  # atno 17370 bound_to 10713
  156.5167  130.8196  151.3189 LP  0  0  0  0  0  0  0  0  0  0  0  0  # atno 17371 bound_to 10713
  140.8433  133.8188  155.9096 LP  0  0  0  0  0  0  0  0  0  0  0  0  # atno 17394 bound_to 11000
  140.9216  134.2134  157.4923 LP  0  0  0  0  0  0  0  0  0  0  0  0  # atno 17395 bound_to 11000

$$$$
