AV-unprocessed.smi:2922|AV-procd|sdf|11199|dock4
  -GOLD-   2272016 93D 1   1.00000     0.00000
 Structure written by MMmdl.
 30 31  0  0  0  0  0  0  0  0  1 V2000
  150.9915  136.5851  154.0081 N   0  0  0  0  0  0  0  0  0  0  0  0
  151.5891  137.5569  154.7036 C   0  0  0  0  0  0  0  0  0  0  0  0
  152.4765  137.3174  155.5205 O   0  0  0  0  0  0  0  0  0  0  0  0
  151.1111  138.9980  154.4688 C   0  0  1  0  0  0  0  0  0  0  0  0
  149.5804  139.1603  154.3988 C   0  0  0  0  0  0  0  0  0  0  0  0
  149.2626  140.1234  155.5284 C   0  0  0  0  0  0  0  0  0  0  0  0
  150.5797  140.8722  155.7107 C   0  0  1  0  0  0  0  0  0  0  0  0
  150.7499  141.5354  157.0837 C   0  0  0  0  0  0  0  0  0  0  0  0
  152.0098  141.1631  157.7094 N   0  0  0  0  0  0  0  0  0  0  0  0
  152.3514  141.4741  159.0117 C   0  0  0  0  0  0  0  0  0  0  0  0
  151.6401  142.4148  159.6460 N   0  0  0  0  0  0  0  0  0  0  0  0
  151.9939  142.6988  160.9187 C   0  0  0  0  0  0  0  0  0  0  0  0
  153.0631  142.0345  161.5519 C   0  0  0  0  0  0  0  0  0  0  0  0
  153.5189  142.3909  163.1771 Cl  0  0  0  0  0  0  0  0  0  0  0  0
  153.7405  141.0632  160.7881 C   0  0  0  0  0  0  0  0  0  0  0  0
  153.3801  140.7864  159.5151 N   0  0  0  0  0  0  0  0  0  0  0  0
  151.5303  139.8329  155.5482 O   0  0  0  0  0  0  0  0  0  0  0  0
  151.2806  135.6258  154.1323 H   0  0  0  0  0  0  0  0  0  0  0  0
  150.2545  136.8173  153.3576 H   0  0  0  0  0  0  0  0  0  0  0  0
  151.5618  139.3704  153.5478 H   0  0  0  0  0  0  0  0  0  0  0  0
  149.2995  139.5959  153.4391 H   0  0  0  0  0  0  0  0  0  0  0  0
  149.0246  138.2282  154.5099 H   0  0  0  0  0  0  0  0  0  0  0  0
  148.4246  140.7834  155.3021 H   0  0  0  0  0  0  0  0  0  0  0  0
  149.0194  139.5629  156.4323 H   0  0  0  0  0  0  0  0  0  0  0  0
  150.7195  141.6010  154.9098 H   0  0  0  0  0  0  0  0  0  0  0  0
  150.6945  142.6206  156.9885 H   0  0  0  0  0  0  0  0  0  0  0  0
  149.9342  141.2300  157.7401 H   0  0  0  0  0  0  0  0  0  0  0  0
  152.6733  140.6246  157.1714 H   0  0  0  0  0  0  0  0  0  0  0  0
  151.4210  143.4573  161.4314 H   0  0  0  0  0  0  0  0  0  0  0  0
  154.5714  140.5072  161.1963 H   0  0  0  0  0  0  0  0  0  0  0  0
  1  2  1  0  0  0  0
  1 18  1  0  0  0  0
  1 19  1  0  0  0  0
  2  3  2  0  0  0  0
  2  4  1  0  0  0  0
  4 17  1  0  0  0  0
  4  5  1  0  0  0  0
  4 20  1  0  0  0  0
  5  6  1  0  0  0  0
  5 21  1  0  0  0  0
  5 22  1  0  0  0  0
  6  7  1  0  0  0  0
  6 23  1  0  0  0  0
  6 24  1  0  0  0  0
  7  8  1  0  0  0  0
  7 17  1  0  0  0  0
  7 25  1  0  0  0  0
  8  9  1  0  0  0  0
  8 26  1  0  0  0  0
  8 27  1  0  0  0  0
  9 10  1  0  0  0  0
  9 28  1  0  0  0  0
 10 16  1  0  0  0  0
 10 11  2  0  0  0  0
 11 12  1  0  0  0  0
 12 13  2  0  0  0  0
 12 29  1  0  0  0  0
 13 14  1  0  0  0  0
 13 15  1  0  0  0  0
 15 16  2  0  0  0  0
 15 30  1  0  0  0  0
M  END
> <s_m_source_file>
AV-unprocessed.smi

> <i_m_source_file_index>
2922

> <i_lp_mmshare_version>
43012

> <i_f3d_flags>
0

> <s_epik_input>
W05IMl1DKD1PKVtDQEBIXTFbQ0gyXVtDSDJdW0NASF0oTzEpW0NIMl1bTkhdYzJuW2NIXWMoQ2wpW2NIXW4y

> <s_epik_cmdline>
J2VwaWtfcHl0aG9uJywgJy1waCcsICc3LjAnLCAnLXRuJywgJzgnLCAnLW1hJywgJzIwMCcsICctbWV0YWxfYmluZGluZycsICctaW1hZScsICc8aW5maWxlLm1hZT4nLCAnLW9tYWUnLCAnPG91dGZpbGUubWFlPic=

> <r_lp_tautomer_probability>
1

> <r_epik_Ionization_Penalty>
6.13883e-06

> <r_epik_Ionization_Penalty_Charging>
0

> <r_epik_Ionization_Penalty_Neutral>
6.13883e-06

> <r_epik_State_Penalty>
-0

> <r_epik_Charging_Adjusted_Penalty>
0

> <i_epik_Tot_Q>
0

> <i_epik_Tot_abs_Q>
0

> <r_epik_Metal_State_Penalty>
-0

> <b_epik_Metal_Only>
0

> <s_lp_Force_Field>
OPLS_2005

> <r_lp_Energy>
9.86334

> <b_lp_Chiralities_Consistent>
1

> <s_lp_Variant>
AV-unprocessed.smi:2922-2

> <Gold.Version>
5.8.1

> <Gold.Id.Protein>
6NUR|6NUR_protein|mol2

> <Gold.PLP.Fitness>
38.8406

> <Gold.PLP.PLP>
-35.6763

> <Gold.PLP.part.hbond>
-3.0947

> <Gold.PLP.part.metal>
0.0000

> <Gold.PLP.part.buried>
-3.5964

> <Gold.PLP.part.nonpolar>
-29.0049

> <Gold.PLP.part.repulsive>
0.2010

> <Gold.PLP.ligand.clash>
0.0000

> <Gold.PLP.ligand.torsion>
1.2152

> <Gold.PLP.Chemscore.Hbond>
1.8560

> <Gold.PLP.Chemscore.CHOScore>
0.0000

> <Gold.PLP.Chemscore.Metal>
0.0000

> <Gold.Chemscore.Hbonds>
donor molecule, donor type, donor heavy atom, donor atom, acceptor molecule, acceptor atom, score
      L1  H     1    19       P1  7948  0.54
      P1  H 10752 10763       L1     3  0.67

> <Gold.PLP.Chemscore.Internal.Correction>
0.0267

> <Gold.Rescore>
     Score         DG    S(hbond)    S(metal)    S(lipo)     H(rot)  DE(clash)    DE(int)     intcor
     11.82     -13.34       1.20        0.00      74.90       1.91       0.16       1.37       ----

> <Gold.Chemscore.Fitness>
11.8163

> <Gold.Chemscore.DG>
-13.3424

> <Gold.Chemscore.ZeroCoef>
-5.4800

> <Gold.Chemscore.Hbond>
1.1975

> <Gold.Chemscore.Metal>
0.0000

> <Gold.Chemscore.Lipo>
74.8981

> <Gold.Chemscore.Internal_Hbond>
0.0000

> <Gold.Chemscore.DEClash>
0.1556

> <Gold.Chemscore.DEInternal>
1.3704

> <Gold.Chemscore.Rot>
1.9142

> <Gold.Chemscore.Internal.Correction>
   9.000000E+99

> <Gold.Chemscore.Hbonds>
donor molecule, donor type, donor heavy atom, donor atom, acceptor molecule, acceptor atom, score
      L1  H     1    19       P1  7948  0.03
      P1  H 10752 10763       L1     3  0.22

> <Gold.Chemscore.Hbond.Weighted>
-3.9995

> <Gold.Chemscore.Metal.Weighted>
-0.0000

> <Gold.Chemscore.Lipo.Weighted>
-8.7631

> <Gold.Chemscore.Internal_Hbond.Weighted>
0.0000

> <Gold.Chemscore.DEClash.Weighted>
0.1556

> <Gold.Chemscore.DEInternal.Weighted>
1.3704

> <Gold.Chemscore.Rot.Weighted>
4.9002

> <Gold.Chemscore.Internal.Correction.Weighted>
   9.000000E+99

> <Gold.Protein.RotatedTorsions>
[ 6907 6896 6895 6894 ] final   39.34 input  -60.11 | X-H torsion
[ 7974 7965 7964 7962 ] final   76.31 input  175.53 | X-H torsion
[ 8008 7997 7996 7995 ] final   75.45 input   59.86 | X-H torsion
[ 10167 10162 10161 10158 ] final -130.15 input  -65.29 | X-H torsion
[ 10718 10713 10712 10709 ] final  -30.75 input   66.30 | X-H torsion
[ 10763 10752 10751 10750 ] final   81.68 input  -60.55 | X-H torsion
[ 11005 11000 10999 10996 ] final  161.08 input  -57.11 | X-H torsion

> <Gold.Protein.ActiveResidues>
 VAL166  LYS551  ARG553  GLY616  TRP617  ASP618  TYR619  PRO620  LYS621  CYS622 
 ASP623  PHE694  ASN695  SER759  ASP760  ASP761  ALA762  ILE779  LEU786  VAL792 
 PHE793  MET794  SER795  GLU796  ALA797  LYS798  CYS799  TRP800  GLU811  SER814 

> <Gold.Protein.RotatedAtoms>
  152.1683  134.8855  160.0536 H   0  0  0  0  0  0  0  0  0  0  0  0  # atno 6907 bound_to 6896
  151.9825  133.3757  159.4121 H   0  0  0  0  0  0  0  0  0  0  0  0  # atno 6908 bound_to 6896
  150.6898  134.3947  159.5136 H   0  0  0  0  0  0  0  0  0  0  0  0  # atno 6909 bound_to 6896
  145.7044  139.2593  143.1686 H   0  0  0  0  0  0  0  0  0  0  0  0  # atno 7974 bound_to 7965
  155.8132  140.3472  155.5470 H   0  0  0  0  0  0  0  0  0  0  0  0  # atno 8008 bound_to 7997
  155.8419  140.0943  157.1749 H   0  0  0  0  0  0  0  0  0  0  0  0  # atno 8009 bound_to 7997
  154.4005  140.1392  156.3727 H   0  0  0  0  0  0  0  0  0  0  0  0  # atno 8010 bound_to 7997
  139.9323  143.6257  152.2526 H   0  0  0  0  0  0  0  0  0  0  0  0  # atno 10167 bound_to 10162
  156.3959  130.4381  149.7359 H   0  0  0  0  0  0  0  0  0  0  0  0  # atno 10718 bound_to 10713
  153.1137  135.4756  154.9080 H   0  0  0  0  0  0  0  0  0  0  0  0  # atno 10763 bound_to 10752
  154.7507  135.3105  154.8565 H   0  0  0  0  0  0  0  0  0  0  0  0  # atno 10764 bound_to 10752
  153.9147  135.6861  153.4803 H   0  0  0  0  0  0  0  0  0  0  0  0  # atno 10765 bound_to 10752
  140.2122  134.8258  157.3133 H   0  0  0  0  0  0  0  0  0  0  0  0  # atno 11005 bound_to 11000
  146.0769  140.7808  142.9661 LP  0  0  0  0  0  0  0  0  0  0  0  0  # atno 17320 bound_to 7965
  144.6959  140.3428  143.7196 LP  0  0  0  0  0  0  0  0  0  0  0  0  # atno 17321 bound_to 7965
  139.6772  144.7658  151.1675 LP  0  0  0  0  0  0  0  0  0  0  0  0  # atno 17342 bound_to 10162
  140.7634  143.5778  150.8927 LP  0  0  0  0  0  0  0  0  0  0  0  0  # atno 17343 bound_to 10162
  156.4394  130.7854  151.2875 LP  0  0  0  0  0  0  0  0  0  0  0  0  # atno 17370 bound_to 10713
  157.7501  131.0129  150.3404 LP  0  0  0  0  0  0  0  0  0  0  0  0  # atno 17371 bound_to 10713
  140.1938  134.4339  155.7700 LP  0  0  0  0  0  0  0  0  0  0  0  0  # atno 17394 bound_to 11000
  141.2226  133.7039  156.8071 LP  0  0  0  0  0  0  0  0  0  0  0  0  # atno 17395 bound_to 11000

$$$$
