AV-unprocessed.smi:861|AV-procd|sdf|3971|dock10
  -GOLD-   22720 1443D 1   1.00000     0.00000
 Structure written by MMmdl.
 43 44  0  0  0  0  0  0  0  0  1 V2000
  152.1264  144.8964  158.4550 C   0  0  0  0  0  0  0  0  0  0  0  0
  151.8628  143.7532  159.4500 C   0  0  0  0  0  0  0  0  0  0  0  0
  151.9652  144.2707  160.8932 C   0  0  0  0  0  0  0  0  0  0  0  0
  152.8035  142.5494  159.2342 C   0  0  0  0  0  0  0  0  0  0  0  0
  152.7911  141.5320  160.3926 C   0  0  0  0  0  0  0  0  0  0  0  0
  153.7479  140.4326  160.2644 N   0  0  0  0  0  0  0  0  0  0  0  0
  155.1171  140.9358  160.2531 C   0  0  0  0  0  0  0  0  0  0  0  0
  156.1449  139.8015  160.1131 C   0  0  0  0  0  0  0  0  0  0  0  0
  155.8655  139.0575  158.9329 O   0  0  0  0  0  0  0  0  0  0  0  0
  154.5578  138.4900  158.9252 C   0  0  2  0  0  0  0  0  0  0  0  0
  154.3573  137.7043  157.6178 C   0  0  0  0  0  0  0  0  0  0  0  0
  152.9725  137.2884  157.4254 N   0  0  0  0  0  0  0  0  0  0  0  0
  152.2282  137.7294  156.3214 C   0  0  0  0  0  0  0  0  0  0  0  0
  151.2091  136.8983  155.8146 C   0  0  0  0  0  0  0  0  0  0  0  0
  150.4745  137.3643  154.7106 C   0  0  0  0  0  0  0  0  0  0  0  0
  150.8141  138.6294  154.1975 C   0  0  0  0  0  0  0  0  0  0  0  0
  151.8004  139.3883  154.7254 N   0  0  0  0  0  0  0  0  0  0  0  0
  152.4971  138.9431  155.7772 N   0  0  0  0  0  0  0  0  0  0  0  0
  153.5307  139.6324  159.0601 C   0  0  0  0  0  0  0  0  0  0  0  0
  153.1534  145.2558  158.5272 H   0  0  0  0  0  0  0  0  0  0  0  0
  151.4661  145.7421  158.6493 H   0  0  0  0  0  0  0  0  0  0  0  0
  151.9516  144.5867  157.4252 H   0  0  0  0  0  0  0  0  0  0  0  0
  150.8377  143.4107  159.3032 H   0  0  0  0  0  0  0  0  0  0  0  0
  152.9729  144.6224  161.1168 H   0  0  0  0  0  0  0  0  0  0  0  0
  151.7181  143.4888  161.6119 H   0  0  0  0  0  0  0  0  0  0  0  0
  151.2775  145.0994  161.0641 H   0  0  0  0  0  0  0  0  0  0  0  0
  152.5487  142.0467  158.3002 H   0  0  0  0  0  0  0  0  0  0  0  0
  153.8154  142.9324  159.1054 H   0  0  0  0  0  0  0  0  0  0  0  0
  152.9539  142.0527  161.3374 H   0  0  0  0  0  0  0  0  0  0  0  0
  151.7904  141.1053  160.4556 H   0  0  0  0  0  0  0  0  0  0  0  0
  155.2460  141.6395  159.4292 H   0  0  0  0  0  0  0  0  0  0  0  0
  155.3170  141.4902  161.1707 H   0  0  0  0  0  0  0  0  0  0  0  0
  157.1538  140.2089  160.0466 H   0  0  0  0  0  0  0  0  0  0  0  0
  156.1197  139.1443  160.9835 H   0  0  0  0  0  0  0  0  0  0  0  0
  154.4512  137.8113  159.7740 H   0  0  0  0  0  0  0  0  0  0  0  0
  154.6099  138.3474  156.7744 H   0  0  0  0  0  0  0  0  0  0  0  0
  155.0414  136.8570  157.5627 H   0  0  0  0  0  0  0  0  0  0  0  0
  152.6556  136.4681  157.9214 H   0  0  0  0  0  0  0  0  0  0  0  0
  150.9965  135.9348  156.2544 H   0  0  0  0  0  0  0  0  0  0  0  0
  149.6816  136.7760  154.2737 H   0  0  0  0  0  0  0  0  0  0  0  0
  150.2857  139.0415  153.3507 H   0  0  0  0  0  0  0  0  0  0  0  0
  152.5328  139.1961  159.0724 H   0  0  0  0  0  0  0  0  0  0  0  0
  153.5818  140.2727  158.1782 H   0  0  0  0  0  0  0  0  0  0  0  0
  1  2  1  0  0  0  0
  1 20  1  0  0  0  0
  1 21  1  0  0  0  0
  1 22  1  0  0  0  0
  2  3  1  0  0  0  0
  2  4  1  0  0  0  0
  2 23  1  0  0  0  0
  3 24  1  0  0  0  0
  3 25  1  0  0  0  0
  3 26  1  0  0  0  0
  4  5  1  0  0  0  0
  4 27  1  0  0  0  0
  4 28  1  0  0  0  0
  5  6  1  0  0  0  0
  5 29  1  0  0  0  0
  5 30  1  0  0  0  0
  6 19  1  0  0  0  0
  6  7  1  0  0  0  0
  7  8  1  0  0  0  0
  7 31  1  0  0  0  0
  7 32  1  0  0  0  0
  8  9  1  0  0  0  0
  8 33  1  0  0  0  0
  8 34  1  0  0  0  0
  9 10  1  0  0  0  0
 10 11  1  0  0  0  0
 10 19  1  0  0  0  0
 10 35  1  0  0  0  0
 11 12  1  0  0  0  0
 11 36  1  0  0  0  0
 11 37  1  0  0  0  0
 12 13  1  0  0  0  0
 12 38  1  0  0  0  0
 13 18  1  0  0  0  0
 13 14  2  0  0  0  0
 14 15  1  0  0  0  0
 14 39  1  0  0  0  0
 15 16  2  0  0  0  0
 15 40  1  0  0  0  0
 16 17  1  0  0  0  0
 16 41  1  0  0  0  0
 17 18  2  0  0  0  0
 19 42  1  0  0  0  0
 19 43  1  0  0  0  0
M  END
> <s_m_source_file>
AV-unprocessed.smi

> <i_m_source_file_index>
861

> <i_lp_mmshare_version>
43012

> <i_f3d_flags>
0

> <s_epik_input>
W0NIM11bQ0hdKFtDSDNdKVtDSDJdW0NIMl1OMVtDSDJdW0NIMl1PW0NASF0oW0NIMl0xKVtDSDJdW05IXWMyW2NIXVtjSF1bY0hdbm4y

> <s_epik_cmdline>
J2VwaWtfcHl0aG9uJywgJy1waCcsICc3LjAnLCAnLXRuJywgJzgnLCAnLW1hJywgJzIwMCcsICctbWV0YWxfYmluZGluZycsICctaW1hZScsICc8aW5maWxlLm1hZT4nLCAnLW9tYWUnLCAnPG91dGZpbGUubWFlPic=

> <r_lp_tautomer_probability>
0.999978

> <r_epik_Ionization_Penalty>
1.1508

> <r_epik_Ionization_Penalty_Charging>
0

> <r_epik_Ionization_Penalty_Neutral>
1.1508

> <r_epik_State_Penalty>
1.22808

> <r_epik_Charging_Adjusted_Penalty>
1.22808

> <i_epik_Tot_Q>
0

> <i_epik_Tot_abs_Q>
0

> <r_epik_Metal_State_Penalty>
1.22149

> <b_epik_Metal_Only>
0

> <s_lp_Force_Field>
OPLS_2005

> <r_lp_Energy>
31.1204

> <b_lp_Chiralities_Consistent>
1

> <s_lp_Variant>
AV-unprocessed.smi:861-6

> <Gold.Version>
5.8.1

> <Gold.Id.Protein>
6NUR|6NUR_protein|mol2

> <Gold.PLP.Fitness>
45.0769

> <Gold.PLP.PLP>
-35.9628

> <Gold.PLP.part.hbond>
-2.3385

> <Gold.PLP.part.metal>
0.0000

> <Gold.PLP.part.buried>
-3.2128

> <Gold.PLP.part.nonpolar>
-29.7926

> <Gold.PLP.part.repulsive>
0.2260

> <Gold.PLP.ligand.clash>
0.0000

> <Gold.PLP.ligand.torsion>
0.3519

> <Gold.PLP.Chemscore.Hbond>
2.2538

> <Gold.PLP.Chemscore.CHOScore>
1.0000

> <Gold.PLP.Chemscore.Metal>
0.0000

> <Gold.Chemscore.Hbonds>
donor molecule, donor type, donor heavy atom, donor atom, acceptor molecule, acceptor atom, score
      P1  H  7989  7998       L1    17  0.85
      P1  H  7997  8008       L1     9  1.00
      P1  H  7997  8009       L1    18  0.46
      L1  C    16    41       P1  7957  1.00

> <Gold.PLP.Chemscore.Internal.Correction>
0.0567

> <Gold.Rescore>
     Score         DG    S(hbond)    S(metal)    S(lipo)     H(rot)  DE(clash)    DE(int)     intcor
     17.52     -17.81       1.13        0.00     109.46       1.66       0.08       0.21       ----

> <Gold.Chemscore.Fitness>
17.5165

> <Gold.Chemscore.DG>
-17.8090

> <Gold.Chemscore.ZeroCoef>
-5.4800

> <Gold.Chemscore.Hbond>
1.1286

> <Gold.Chemscore.Metal>
0.0000

> <Gold.Chemscore.Lipo>
109.4618

> <Gold.Chemscore.Internal_Hbond>
0.0000

> <Gold.Chemscore.DEClash>
0.0825

> <Gold.Chemscore.DEInternal>
0.2100

> <Gold.Chemscore.Rot>
1.6591

> <Gold.Chemscore.Internal.Correction>
   9.000000E+99

> <Gold.Chemscore.Hbonds>
donor molecule, donor type, donor heavy atom, donor atom, acceptor molecule, acceptor atom, score
      P1  H  7989  7998       L1    17  0.14
      P1  H  7997  8008       L1     9  0.23
      P1  H  7997  8009       L1    18  0.42

> <Gold.Chemscore.Hbond.Weighted>
-3.7694

> <Gold.Chemscore.Metal.Weighted>
-0.0000

> <Gold.Chemscore.Lipo.Weighted>
-12.8070

> <Gold.Chemscore.Internal_Hbond.Weighted>
0.0000

> <Gold.Chemscore.DEClash.Weighted>
0.0825

> <Gold.Chemscore.DEInternal.Weighted>
0.2100

> <Gold.Chemscore.Rot.Weighted>
4.2474

> <Gold.Chemscore.Internal.Correction.Weighted>
   9.000000E+99

> <Gold.Protein.RotatedTorsions>
[ 6907 6896 6895 6894 ] final -113.30 input  -60.11 | X-H torsion
[ 7974 7965 7964 7962 ] final   15.83 input  175.53 | X-H torsion
[ 8008 7997 7996 7995 ] final -162.04 input   59.86 | X-H torsion
[ 10167 10162 10161 10158 ] final  112.80 input  -65.29 | X-H torsion
[ 10718 10713 10712 10709 ] final  151.68 input   66.30 | X-H torsion
[ 10763 10752 10751 10750 ] final -155.39 input  -60.55 | X-H torsion
[ 11005 11000 10999 10996 ] final   89.16 input  -57.11 | X-H torsion

> <Gold.Protein.ActiveResidues>
 VAL166  LYS551  ARG553  GLY616  TRP617  ASP618  TYR619  PRO620  LYS621  CYS622 
 ASP623  PHE694  ASN695  SER759  ASP760  ASP761  ALA762  ILE779  LEU786  VAL792 
 PHE793  MET794  SER795  GLU796  ALA797  LYS798  CYS799  TRP800  GLU811  SER814 

> <Gold.Protein.RotatedAtoms>
  150.7819  133.8964  159.3328 H   0  0  0  0  0  0  0  0  0  0  0  0  # atno 6907 bound_to 6896
  151.6824  135.0958  160.0228 H   0  0  0  0  0  0  0  0  0  0  0  0  # atno 6908 bound_to 6896
  152.3873  133.6591  159.6245 H   0  0  0  0  0  0  0  0  0  0  0  0  # atno 6909 bound_to 6896
  146.2267  139.8836  142.8566 H   0  0  0  0  0  0  0  0  0  0  0  0  # atno 7974 bound_to 7965
  155.8011  140.0892  157.1957 H   0  0  0  0  0  0  0  0  0  0  0  0  # atno 8008 bound_to 7997
  154.3982  140.1472  156.3334 H   0  0  0  0  0  0  0  0  0  0  0  0  # atno 8009 bound_to 7997
  155.8462  140.3436  155.5666 H   0  0  0  0  0  0  0  0  0  0  0  0  # atno 8010 bound_to 7997
  139.6508  144.7128  151.2052 H   0  0  0  0  0  0  0  0  0  0  0  0  # atno 10167 bound_to 10162
  157.2676  131.0810  151.1622 H   0  0  0  0  0  0  0  0  0  0  0  0  # atno 10718 bound_to 10713
  154.7790  135.3169  154.8030 H   0  0  0  0  0  0  0  0  0  0  0  0  # atno 10763 bound_to 10752
  153.8746  135.6841  153.4776 H   0  0  0  0  0  0  0  0  0  0  0  0  # atno 10764 bound_to 10752
  153.1422  135.4734  154.9449 H   0  0  0  0  0  0  0  0  0  0  0  0  # atno 10765 bound_to 10752
  139.8881  134.8533  156.3102 H   0  0  0  0  0  0  0  0  0  0  0  0  # atno 11005 bound_to 11000
  145.2488  141.0036  143.3893 LP  0  0  0  0  0  0  0  0  0  0  0  0  # atno 17320 bound_to 7965
  144.9392  139.4209  143.6457 LP  0  0  0  0  0  0  0  0  0  0  0  0  # atno 17321 bound_to 7965
  140.7537  143.6153  150.8565 LP  0  0  0  0  0  0  0  0  0  0  0  0  # atno 17342 bound_to 10162
  139.9801  143.5961  152.2945 LP  0  0  0  0  0  0  0  0  0  0  0  0  # atno 17343 bound_to 10162
  157.3107  130.6888  149.6214 LP  0  0  0  0  0  0  0  0  0  0  0  0  # atno 17370 bound_to 10713
  155.9663  130.4364  150.5133 LP  0  0  0  0  0  0  0  0  0  0  0  0  # atno 17371 bound_to 10713
  140.9855  133.7241  156.0736 LP  0  0  0  0  0  0  0  0  0  0  0  0  # atno 17394 bound_to 11000
  140.7693  134.3850  157.5511 LP  0  0  0  0  0  0  0  0  0  0  0  0  # atno 17395 bound_to 11000

$$$$
