AV-unprocessed.smi:16|AV-procd|sdf|87|dock8
  -GOLD-   2262015223D 1   1.00000     0.00000
 Structure written by MMmdl.
 60 64  0  0  0  0  0  0  0  0  2 V2000
  146.8740  142.1292  153.8662 C   0  0  0  0  0  0  0  0  0  0  0  0
  147.3373  140.7272  153.4488 C   0  0  0  0  0  0  0  0  0  0  0  0
  148.7560  140.4665  153.8092 N   0  3  1  0  0  0  0  0  0  0  0  0
  149.2819  141.2944  154.9273 C   0  0  0  0  0  0  0  0  0  0  0  0
  148.7883  140.7966  156.2951 C   0  0  0  0  0  0  0  0  0  0  0  0
  149.1520  139.3126  156.4995 C   0  0  1  0  0  0  0  0  0  0  0  0
  148.7184  138.8119  157.7643 O   0  0  0  0  0  0  0  0  0  0  0  0
  147.3083  138.6492  157.8844 C   0  0  0  0  0  0  0  0  0  0  0  0
  146.7952  137.7153  156.7810 C   0  0  0  0  0  0  0  0  0  0  0  0
  147.1908  138.2042  155.4647 N   0  0  0  0  0  0  0  0  0  0  0  0
  146.5783  137.4812  154.4973 C   0  0  0  0  0  0  0  0  0  0  0  0
  145.6840  138.0688  153.6591 N   0  0  0  0  0  0  0  0  0  0  0  0
  145.0927  137.3478  152.7017 C   0  0  0  0  0  0  0  0  0  0  0  0
  145.2513  136.0541  152.4131 N   0  0  0  0  0  0  0  0  0  0  0  0
  146.1576  135.4652  153.2458 C   0  0  0  0  0  0  0  0  0  0  0  0
  146.8620  136.1036  154.3041 C   0  0  0  0  0  0  0  0  0  0  0  0
  147.6937  135.1943  154.9436 N   0  0  0  0  0  0  0  0  0  0  0  0
  147.4934  134.0776  154.2980 C   0  0  0  0  0  0  0  0  0  0  0  0
  146.5906  134.1500  153.2597 N   0  0  0  0  0  0  0  0  0  0  0  0
  146.1811  133.0755  152.4003 C   0  0  0  0  0  0  0  0  0  0  0  0
  146.4695  133.1198  150.8996 C   0  0  0  0  0  0  0  0  0  0  0  0
  145.1607  132.3421  150.6334 C   0  0  0  0  0  0  0  0  0  0  0  0
  144.3392  132.8368  149.4316 C   0  0  0  0  0  0  0  0  0  0  0  0
  143.1159  132.1371  149.3254 O   0  0  0  0  0  0  0  0  0  0  0  0
  145.3159  130.8102  150.5437 C   0  0  0  0  0  0  0  0  0  0  0  0
  146.5245  130.3773  151.1350 O   0  0  0  0  0  0  0  0  0  0  0  0
  144.7139  132.8798  152.0129 C   0  0  0  0  0  0  0  0  0  0  0  0
  148.6377  138.4253  155.3410 C   0  0  1  0  0  0  0  0  0  0  0  0
  149.0856  139.0241  153.9762 C   0  0  0  0  0  0  0  0  0  0  0  0
  150.2408  139.2469  156.5099 H   0  0  0  0  0  0  0  0  0  0  0  0
  149.1119  137.4481  155.4461 H   0  0  0  0  0  0  0  0  0  0  0  0
  145.8650  142.3214  153.5008 H   0  0  0  0  0  0  0  0  0  0  0  0
  147.5260  142.8996  153.4534 H   0  0  0  0  0  0  0  0  0  0  0  0
  146.8527  142.2487  154.9489 H   0  0  0  0  0  0  0  0  0  0  0  0
  146.6793  139.9703  153.8748 H   0  0  0  0  0  0  0  0  0  0  0  0
  147.2275  140.6554  152.3661 H   0  0  0  0  0  0  0  0  0  0  0  0
  150.3714  141.2474  154.9006 H   0  0  0  0  0  0  0  0  0  0  0  0
  149.0252  142.3441  154.7897 H   0  0  0  0  0  0  0  0  0  0  0  0
  149.2371  141.3959  157.0876 H   0  0  0  0  0  0  0  0  0  0  0  0
  147.7135  140.9559  156.3671 H   0  0  0  0  0  0  0  0  0  0  0  0
  147.0904  138.2205  158.8626 H   0  0  0  0  0  0  0  0  0  0  0  0
  146.7970  139.6108  157.8514 H   0  0  0  0  0  0  0  0  0  0  0  0
  147.1986  136.7122  156.9289 H   0  0  0  0  0  0  0  0  0  0  0  0
  145.7091  137.6358  156.8480 H   0  0  0  0  0  0  0  0  0  0  0  0
  144.3933  137.8839  152.0771 H   0  0  0  0  0  0  0  0  0  0  0  0
  148.0024  133.1631  154.5663 H   0  0  0  0  0  0  0  0  0  0  0  0
  146.5760  132.1551  152.8334 H   0  0  0  0  0  0  0  0  0  0  0  0
  146.4497  134.1345  150.4974 H   0  0  0  0  0  0  0  0  0  0  0  0
  147.3800  132.6001  150.5996 H   0  0  0  0  0  0  0  0  0  0  0  0
  144.1336  133.9055  149.4961 H   0  0  0  0  0  0  0  0  0  0  0  0
  144.8872  132.6877  148.5010 H   0  0  0  0  0  0  0  0  0  0  0  0
  142.4087  132.7629  149.3589 H   0  0  0  0  0  0  0  0  0  0  0  0
  144.4854  130.2954  151.0272 H   0  0  0  0  0  0  0  0  0  0  0  0
  145.3149  130.4743  149.5067 H   0  0  0  0  0  0  0  0  0  0  0  0
  147.2447  130.7845  150.6781 H   0  0  0  0  0  0  0  0  0  0  0  0
  144.1784  132.1635  152.6368 H   0  0  0  0  0  0  0  0  0  0  0  0
  144.1621  133.8186  151.9438 H   0  0  0  0  0  0  0  0  0  0  0  0
  148.7129  138.4514  153.1272 H   0  0  0  0  0  0  0  0  0  0  0  0
  150.1714  138.9411  153.9135 H   0  0  0  0  0  0  0  0  0  0  0  0
  149.2747  140.7543  152.9916 H   0  0  0  0  0  0  0  0  0  0  0  0
  1  2  1  0  0  0  0
  1 32  1  0  0  0  0
  1 33  1  0  0  0  0
  1 34  1  0  0  0  0
  2  3  1  0  0  0  0
  2 35  1  0  0  0  0
  2 36  1  0  0  0  0
  3 29  1  0  0  0  0
  3  4  1  0  0  0  0
  3 60  1  0  0  0  0
  4  5  1  0  0  0  0
  4 37  1  0  0  0  0
  4 38  1  0  0  0  0
  5  6  1  0  0  0  0
  5 39  1  0  0  0  0
  5 40  1  0  0  0  0
  6 30  1  0  0  0  0
  6 28  1  0  0  0  0
  6  7  1  0  0  0  0
  7  8  1  0  0  0  0
  8  9  1  0  0  0  0
  8 41  1  0  0  0  0
  8 42  1  0  0  0  0
  9 10  1  0  0  0  0
  9 43  1  0  0  0  0
  9 44  1  0  0  0  0
 10 11  1  0  0  0  0
 10 28  1  0  0  0  0
 11 16  1  0  0  0  0
 11 12  2  0  0  0  0
 12 13  1  0  0  0  0
 13 14  2  0  0  0  0
 13 45  1  0  0  0  0
 14 15  1  0  0  0  0
 15 19  1  0  0  0  0
 15 16  2  0  0  0  0
 16 17  1  0  0  0  0
 17 18  2  0  0  0  0
 18 19  1  0  0  0  0
 18 46  1  0  0  0  0
 19 20  1  0  0  0  0
 20 27  1  0  0  0  0
 20 21  1  0  0  0  0
 20 47  1  0  0  0  0
 21 22  1  0  0  0  0
 21 48  1  0  0  0  0
 21 49  1  0  0  0  0
 22 23  1  0  0  0  0
 22 25  1  0  0  0  0
 22 27  1  0  0  0  0
 23 24  1  0  0  0  0
 23 50  1  0  0  0  0
 23 51  1  0  0  0  0
 24 52  1  0  0  0  0
 25 26  1  0  0  0  0
 25 53  1  0  0  0  0
 25 54  1  0  0  0  0
 26 55  1  0  0  0  0
 27 56  1  0  0  0  0
 27 57  1  0  0  0  0
 28 31  1  0  0  0  0
 28 29  1  0  0  0  0
 29 58  1  0  0  0  0
 29 59  1  0  0  0  0
M  CHG  1   3   1
M  END
> <s_m_source_file>
AV-unprocessed.smi

> <i_m_source_file_index>
16

> <i_lp_mmshare_version>
43012

> <i_f3d_flags>
0

> <s_epik_input>
W0NIM11bQ0gyXU4oW0NIMl1bQ0gyXTEpW0NIMl1bQ0BASF0oW0NAQEhdMTIpTihbQ0gyXVtDSDJdTzIpYyhuW2NIXW4zKWMoYzM0KW5bY0hdbjRbQ0hdKFtDSDJdNSlbQ0gyXUM1KFtDSDJdW09IXSlbQ0gyXVtPSF0=

> <s_epik_cmdline>
J2VwaWtfcHl0aG9uJywgJy1waCcsICc3LjAnLCAnLXRuJywgJzgnLCAnLW1hJywgJzIwMCcsICctbWV0YWxfYmluZGluZycsICctaW1hZScsICc8aW5maWxlLm1hZT4nLCAnLW9tYWUnLCAnPG91dGZpbGUubWFlPic=

> <r_lp_tautomer_probability>
1

> <r_epik_Ionization_Penalty>
0.0135603

> <r_epik_Ionization_Penalty_Charging>
0.0131385

> <r_epik_Ionization_Penalty_Neutral>
0.000421734

> <r_epik_State_Penalty>
0.0102091

> <r_epik_Charging_Adjusted_Penalty>
0.0233476

> <i_epik_Tot_Q>
1

> <i_epik_Tot_abs_Q>
1

> <r_epik_Metal_State_Penalty>
0.0103746

> <b_epik_Metal_Only>
0

> <s_lp_Force_Field>
OPLS_2005

> <r_lp_Energy>
65.3073

> <b_lp_Chiralities_Consistent>
1

> <s_lp_Variant>
AV-unprocessed.smi:16-1

> <Gold.Version>
5.8.1

> <Gold.Id.Protein>
6NUR|6NUR_protein|mol2

> <Gold.PLP.Fitness>
48.2264

> <Gold.PLP.PLP>
-34.8702

> <Gold.PLP.part.hbond>
-4.6337

> <Gold.PLP.part.metal>
0.0000

> <Gold.PLP.part.buried>
-6.0628

> <Gold.PLP.part.nonpolar>
-25.9964

> <Gold.PLP.part.repulsive>
0.5548

> <Gold.PLP.ligand.clash>
0.0017

> <Gold.PLP.ligand.torsion>
1.3633

> <Gold.PLP.Chemscore.Hbond>
3.4338

> <Gold.PLP.Chemscore.CHOScore>
1.7024

> <Gold.PLP.Chemscore.Metal>
0.0000

> <Gold.Chemscore.Hbonds>
donor molecule, donor type, donor heavy atom, donor atom, acceptor molecule, acceptor atom, score
      L1  H     3    60       P1  7957  0.75
      L1  H    24    52       P1 10186  0.65
      L1  H    26    55       P1 10747  0.99
      P1  H 10785 10796       L1    24  0.88
      L1  C    13    45       P1 10171  1.00
      L1  C    13    45       P1 10175  0.56

> <Gold.PLP.Chemscore.Internal.Correction>
0.6760

> <Gold.Rescore>
     Score         DG    S(hbond)    S(metal)    S(lipo)     H(rot)  DE(clash)    DE(int)     intcor
     14.72     -18.00       3.24        0.00      87.17       3.33       0.77       2.52       ----

> <Gold.Chemscore.Fitness>
14.7162

> <Gold.Chemscore.DG>
-18.0034

> <Gold.Chemscore.ZeroCoef>
-5.4800

> <Gold.Chemscore.Hbond>
3.2446

> <Gold.Chemscore.Metal>
0.0000

> <Gold.Chemscore.Lipo>
87.1677

> <Gold.Chemscore.Internal_Hbond>
0.0000

> <Gold.Chemscore.DEClash>
0.7659

> <Gold.Chemscore.DEInternal>
2.5214

> <Gold.Chemscore.Rot>
3.3251

> <Gold.Chemscore.Internal.Correction>
   9.000000E+99

> <Gold.Chemscore.Hbonds>
donor molecule, donor type, donor heavy atom, donor atom, acceptor molecule, acceptor atom, score
      L1  H     3    60       P1  7957  0.71
      L1  H    24    52       P1 10186  0.65
      L1  H    26    55       P1 10747  0.94
      P1  H 10785 10796       L1    24  0.81

> <Gold.Chemscore.Hbond.Weighted>
-10.8370

> <Gold.Chemscore.Metal.Weighted>
-0.0000

> <Gold.Chemscore.Lipo.Weighted>
-10.1986

> <Gold.Chemscore.Internal_Hbond.Weighted>
0.0000

> <Gold.Chemscore.DEClash.Weighted>
0.7659

> <Gold.Chemscore.DEInternal.Weighted>
2.5214

> <Gold.Chemscore.Rot.Weighted>
8.5122

> <Gold.Chemscore.Internal.Correction.Weighted>
   9.000000E+99

> <Gold.Protein.RotatedTorsions>
[ 6907 6896 6895 6894 ] final   74.34 input  -60.11 | X-H torsion
[ 7974 7965 7964 7962 ] final   78.85 input  175.53 | X-H torsion
[ 8008 7997 7996 7995 ] final -163.42 input   59.86 | X-H torsion
[ 10167 10162 10161 10158 ] final  -26.09 input  -65.29 | X-H torsion
[ 10718 10713 10712 10709 ] final  134.43 input   66.30 | X-H torsion
[ 10763 10752 10751 10750 ] final  154.16 input  -60.55 | X-H torsion
[ 11005 11000 10999 10996 ] final   36.63 input  -57.11 | X-H torsion

> <Gold.Protein.ActiveResidues>
 VAL166  LYS551  ARG553  GLY616  TRP617  ASP618  TYR619  PRO620  LYS621  CYS622 
 ASP623  PHE694  ASN695  SER759  ASP760  ASP761  ALA762  ILE779  LEU786  VAL792 
 PHE793  MET794  SER795  GLU796  ALA797  LYS798  CYS799  TRP800  GLU811  SER814 

> <Gold.Protein.RotatedAtoms>
  152.4971  134.4286  159.9504 H   0  0  0  0  0  0  0  0  0  0  0  0  # atno 6907 bound_to 6896
  151.4263  133.3677  159.2770 H   0  0  0  0  0  0  0  0  0  0  0  0  # atno 6908 bound_to 6896
  150.9186  134.8627  159.7533 H   0  0  0  0  0  0  0  0  0  0  0  0  # atno 6909 bound_to 6896
  145.6719  139.2499  143.1864 H   0  0  0  0  0  0  0  0  0  0  0  0  # atno 7974 bound_to 7965
  155.8211  140.0919  157.1848 H   0  0  0  0  0  0  0  0  0  0  0  0  # atno 8008 bound_to 7997
  154.3979  140.1436  156.3561 H   0  0  0  0  0  0  0  0  0  0  0  0  # atno 8009 bound_to 7997
  155.8265  140.3444  155.5548 H   0  0  0  0  0  0  0  0  0  0  0  0  # atno 8010 bound_to 7997
  140.7284  143.4209  151.0954 H   0  0  0  0  0  0  0  0  0  0  0  0  # atno 10167 bound_to 10162
  157.4673  131.1078  150.9846 H   0  0  0  0  0  0  0  0  0  0  0  0  # atno 10718 bound_to 10713
  154.1479  135.2817  155.3143 H   0  0  0  0  0  0  0  0  0  0  0  0  # atno 10763 bound_to 10752
  154.6239  135.5458  153.7609 H   0  0  0  0  0  0  0  0  0  0  0  0  # atno 10764 bound_to 10752
  153.0230  135.6446  154.1624 H   0  0  0  0  0  0  0  0  0  0  0  0  # atno 10765 bound_to 10752
  140.2306  134.3532  155.7965 H   0  0  0  0  0  0  0  0  0  0  0  0  # atno 11005 bound_to 11000
  146.1038  140.7511  142.9536 LP  0  0  0  0  0  0  0  0  0  0  0  0  # atno 17320 bound_to 7965
  144.7054  140.3830  143.7122 LP  0  0  0  0  0  0  0  0  0  0  0  0  # atno 17321 bound_to 7965
  139.7854  143.8295  152.3144 LP  0  0  0  0  0  0  0  0  0  0  0  0  # atno 17342 bound_to 10162
  139.8260  144.7275  150.9511 LP  0  0  0  0  0  0  0  0  0  0  0  0  # atno 17343 bound_to 10162
  157.0623  130.5830  149.5388 LP  0  0  0  0  0  0  0  0  0  0  0  0  # atno 17370 bound_to 10713
  156.0056  130.5143  150.7819 LP  0  0  0  0  0  0  0  0  0  0  0  0  # atno 17371 bound_to 10713
  141.2218  133.7243  156.8725 LP  0  0  0  0  0  0  0  0  0  0  0  0  # atno 17394 bound_to 11000
  140.1755  134.9070  157.2885 LP  0  0  0  0  0  0  0  0  0  0  0  0  # atno 17395 bound_to 11000

$$$$
