#       Name:                AV-unprocessed.smi:1413
#       Creating user name   scv26
#       Creation time:       Fri Mar 27 05:39:20 2020


#       File generated by GOLD software.
#

@<TRIPOS>MOLECULE
AV-unprocessed.smi:1413
    61    63     1
SMALL
NO_CHARGES


@<TRIPOS>ATOM
      1 ****        -6.5724  -2.2323   0.4626 C.3            1 S1                 0.0000
      2 ****        -6.1756  -0.9278   1.1762 C.3            1 S1                 0.0000
      3 ****        -4.6512  -0.7308   1.2934 C.3            1 S1                 0.0000
      4 ****        -4.0732  -0.3270   0.0148 N.3            1 S1                 0.0000
      5 ****        -2.6656  -0.3955  -0.0592 C.ar           1 S1                 0.0000
      6 ****        -1.9975  -1.6030   0.2484 C.ar           1 S1                 0.0000
      7 ****        -0.5927  -1.6472   0.1741 C.ar           1 S1                 0.0000
      8 ****         0.1175  -0.4920  -0.2064 C.ar           1 S1                 0.0000
      9 ****         1.5367  -0.5803  -0.2572 N.am           1 S1                 0.0000
     10 ****         2.4358   0.3250  -0.6814 C.2            1 S1                 0.0000
     11 ****         2.1742   1.4367  -1.1379 O.2            1 S1                 0.0000
     12 ****         3.6854  -0.1430  -0.5521 N.am           1 S1                 0.0000
     13 ****         4.9030   0.5835  -0.9071 C.3            1 S1                 0.0000
     14 ****         5.2130   0.3869  -2.4004 C.3            1 S1                 0.0000
     15 ****         6.0692   0.1203  -0.0128 C.3            1 S1                 0.0000
     16 ****         5.8099   0.2503   1.4910 C.3            1 S1                 0.0000
     17 ****         7.2125   0.3817   2.0370 C.3            1 S1                 0.0000
     18 ****         7.8726   1.2498   0.9719 C.3            1 S1                 0.0000
     19 ****         7.2307   0.9131  -0.2549 O.3            1 S1                 0.0000
     20 ****        -0.6369   0.6705  -0.4969 C.ar           1 S1                 0.0000
     21 ****        -1.9844   0.7160  -0.4291 N.ar           1 S1                 0.0000
     22 ****        -4.7365   0.8338  -0.5724 C.3            1 S1                 0.0000
     23 ****        -6.2492   0.5787  -0.6977 C.3            1 S1                 0.0000
     24 ****        -6.9999   1.8194  -1.1924 C.3            1 S1                 0.0000
     25 ****        -6.7806   0.2204   0.5773 O.3            1 S1                 0.0000
     26 ****        -6.2101  -3.0991   1.0153 H              1 S1                 0.0000
     27 ****        -6.1597  -2.2964  -0.5439 H              1 S1                 0.0000
     28 ****        -7.6564  -2.3189   0.3875 H              1 S1                 0.0000
     29 ****        -6.5784  -0.9894   2.1875 H              1 S1                 0.0000
     30 ****        -4.4406   0.0528   2.0223 H              1 S1                 0.0000
     31 ****        -4.1963  -1.6426   1.6781 H              1 S1                 0.0000
     32 ****        -2.5444  -2.4918   0.5262 H              1 S1                 0.0000
     33 ****        -0.0691  -2.5632   0.4064 H              1 S1                 0.0000
     34 ****         1.9197  -1.4581   0.0616 H              1 S1                 0.0000
     35 ****         3.8077  -1.0699  -0.1715 H              1 S1                 0.0000
     36 ****         4.7462   1.6482  -0.7239 H              1 S1                 0.0000
     37 ****         6.1079   0.9371  -2.6918 H              1 S1                 0.0000
     38 ****         4.3942   0.7455  -3.0248 H              1 S1                 0.0000
     39 ****         5.3776  -0.6647  -2.6372 H              1 S1                 0.0000
     40 ****         6.3269  -0.9164  -0.2371 H              1 S1                 0.0000
     41 ****         5.2414   1.1560   1.7073 H              1 S1                 0.0000
     42 ****         5.2685  -0.6001   1.9060 H              1 S1                 0.0000
     43 ****         7.2479   0.8249   3.0324 H              1 S1                 0.0000
     44 ****         7.6926  -0.5969   2.0784 H              1 S1                 0.0000
     45 ****         7.6926   2.3058   1.1770 H              1 S1                 0.0000
     46 ****         8.9501   1.0939   0.9151 H              1 S1                 0.0000
     47 ****        -0.1807   1.6040  -0.7832 H              1 S1                 0.0000
     48 ****        -4.5512   1.7077   0.0539 H              1 S1                 0.0000
     49 ****        -4.3229   1.0457  -1.5592 H              1 S1                 0.0000
     50 ****        -6.4261  -0.2275  -1.4098 H              1 S1                 0.0000
     51 ****        -6.6351   2.1350  -2.1702 H              1 S1                 0.0000
     52 ****        -6.8779   2.6556  -0.5034 H              1 S1                 0.0000
     53 ****        -8.0672   1.6171  -1.2854 H              1 S1                 0.0000
     54 ****        -4.3006  -1.0522  -0.6352 LP             1 S1                 0.0000
     55 ****         1.2224   1.7330  -1.2180 LP             1 S1                 0.0000
     56 ****         2.9132   2.0442  -1.4290 LP             1 S1                 0.0000
     57 ****         6.9628   1.7529  -0.7270 LP             1 S1                 0.0000
     58 ****         7.8672   0.3970  -0.8281 LP             1 S1                 0.0000
     59 ****        -2.4740   1.5597  -0.6492 LP             1 S1                 0.0000
     60 ****        -6.6559   0.9962   1.1957 LP             1 S1                 0.0000
     61 ****        -7.7572   0.0358   0.4668 LP             1 S1                 0.0000
@<TRIPOS>BOND
    1    1    2 1     
    2    1   26 1     
    3    1   27 1     
    4    1   28 1     
    5    2   25 1     
    6    2    3 1     
    7    2   29 1     
    8    3    4 1     
    9    3   30 1     
   10    3   31 1     
   11    4    5 1     
   12    4   22 1     
   13    5   21 ar    
   14    5    6 ar    
   15    6    7 ar    
   16    6   32 1     
   17    7    8 ar    
   18    7   33 1     
   19    8    9 1     
   20    8   20 ar    
   21    9   10 am    
   22    9   34 1     
   23   10   11 2     
   24   10   12 am    
   25   12   13 1     
   26   12   35 1     
   27   13   14 1     
   28   13   15 1     
   29   13   36 1     
   30   14   37 1     
   31   14   38 1     
   32   14   39 1     
   33   15   19 1     
   34   15   16 1     
   35   15   40 1     
   36   16   17 1     
   37   16   41 1     
   38   16   42 1     
   39   17   18 1     
   40   17   43 1     
   41   17   44 1     
   42   18   19 1     
   43   18   45 1     
   44   18   46 1     
   45   20   21 ar    
   46   20   47 1     
   47   22   23 1     
   48   22   48 1     
   49   22   49 1     
   50   23   24 1     
   51   23   25 1     
   52   23   50 1     
   53   24   51 1     
   54   24   52 1     
   55   24   53 1     
   56    4   54 1     
   57   11   55 1     
   58   11   56 1     
   59   19   57 1     
   60   19   58 1     
   61   21   59 1     
   62   25   60 1     
   63   25   61 1     
@<TRIPOS>SUBSTRUCTURE
      1 S1             1
@<TRIPOS>SET
LONE_PAIRS      STATIC     ATOMS    <user>   **** ""
8 54 55 56 57 58 59 60 61
DONOR_HYDROGENS      STATIC     ATOMS    <user>   **** ""
2 34 35
ATOM$BLUE        STATIC     ATOMS    COLORGROUP SYSTEM
8 54 55 56 57 58 59 60 61
ATOM$RED        STATIC     ATOMS    COLORGROUP SYSTEM
2 34 35
