AV-unprocessed.smi:283|AV-procd|sdf|2148|dock10
  -GOLD-   2262021483D 1   1.00000     0.00000
 Structure written by MMmdl.
 48 51  0  0  0  0  0  0  0  0  1 V2000
  147.9159  142.6101  158.4001 C   0  0  0  0  0  0  0  0  0  0  0  0
  149.2507  141.9280  158.0501 C   0  0  1  0  0  0  0  0  0  0  0  0
  149.4802  141.9269  156.6055 N   0  0  0  0  0  0  0  0  0  0  0  0
  149.5171  140.7800  155.8911 C   0  0  0  0  0  0  0  0  0  0  0  0
  150.6779  140.0995  155.7039 N   0  0  0  0  0  0  0  0  0  0  0  0
  150.6820  138.9682  154.9927 C   0  0  0  0  0  0  0  0  0  0  0  0
  149.6599  138.3595  154.3873 N   0  0  0  0  0  0  0  0  0  0  0  0
  148.4935  139.0465  154.5607 C   0  0  0  0  0  0  0  0  0  0  0  0
  148.3401  140.2504  155.3021 C   0  0  0  0  0  0  0  0  0  0  0  0
  147.0095  140.6452  155.2864 N   0  0  0  0  0  0  0  0  0  0  0  0
  146.4147  139.7200  154.5825 C   0  0  0  0  0  0  0  0  0  0  0  0
  147.2400  138.7395  154.0713 N   0  0  0  0  0  0  0  0  0  0  0  0
  146.8769  137.5346  153.2537 C   0  0  1  0  0  0  0  0  0  0  0  0
  146.3379  136.5664  154.1082 O   0  0  0  0  0  0  0  0  0  0  0  0
  144.9172  136.5354  154.0058 C   0  0  1  0  0  0  0  0  0  0  0  0
  144.2902  137.5100  155.0286 C   0  0  0  0  0  0  0  0  0  0  0  0
  144.7886  137.2653  156.3275 O   0  0  0  0  0  0  0  0  0  0  0  0
  144.6904  136.8654  152.5244 C   0  0  1  0  0  0  0  0  0  0  0  0
  143.4088  137.4048  152.2661 O   0  0  0  0  0  0  0  0  0  0  0  0
  145.7939  137.8677  152.2054 C   0  0  2  0  0  0  0  0  0  0  0  0
  146.2611  137.6601  150.8872 O   0  0  0  0  0  0  0  0  0  0  0  0
  150.3921  142.5831  158.8269 C   0  0  0  0  0  0  0  0  0  0  0  0
  150.2193  143.8704  159.3887 C   0  0  0  0  0  0  0  0  0  0  0  0
  151.2592  144.4846  160.1117 C   0  0  0  0  0  0  0  0  0  0  0  0
  152.4833  143.8154  160.2882 C   0  0  0  0  0  0  0  0  0  0  0  0
  152.6627  142.5299  159.7456 C   0  0  0  0  0  0  0  0  0  0  0  0
  151.6253  141.9098  159.0207 C   0  0  0  0  0  0  0  0  0  0  0  0
  151.8987  140.3215  158.3933 Cl  0  0  0  0  0  0  0  0  0  0  0  0
  147.8270  137.2003  152.8348 H   0  0  0  0  0  0  0  0  0  0  0  0
  144.5831  135.5217  154.2310 H   0  0  0  0  0  0  0  0  0  0  0  0
  144.8226  135.9524  151.9409 H   0  0  0  0  0  0  0  0  0  0  0  0
  145.4406  138.8919  152.3348 H   0  0  0  0  0  0  0  0  0  0  0  0
  147.7248  142.5655  159.4727 H   0  0  0  0  0  0  0  0  0  0  0  0
  147.0721  142.1322  157.9024 H   0  0  0  0  0  0  0  0  0  0  0  0
  147.9204  143.6605  158.1078 H   0  0  0  0  0  0  0  0  0  0  0  0
  149.2015  140.8857  158.3626 H   0  0  0  0  0  0  0  0  0  0  0  0
  149.5410  142.8377  156.1742 H   0  0  0  0  0  0  0  0  0  0  0  0
  151.6414  138.4822  154.8925 H   0  0  0  0  0  0  0  0  0  0  0  0
  145.3477  139.7357  154.4172 H   0  0  0  0  0  0  0  0  0  0  0  0
  144.5581  138.5355  154.7759 H   0  0  0  0  0  0  0  0  0  0  0  0
  143.2015  137.4515  155.0303 H   0  0  0  0  0  0  0  0  0  0  0  0
  144.9730  136.3420  156.4095 H   0  0  0  0  0  0  0  0  0  0  0  0
  143.4790  138.3469  152.2415 H   0  0  0  0  0  0  0  0  0  0  0  0
  145.5708  137.8887  150.2842 H   0  0  0  0  0  0  0  0  0  0  0  0
  149.2839  144.3982  159.2743 H   0  0  0  0  0  0  0  0  0  0  0  0
  151.1162  145.4684  160.5335 H   0  0  0  0  0  0  0  0  0  0  0  0
  153.2821  144.2847  160.8432 H   0  0  0  0  0  0  0  0  0  0  0  0
  153.6014  142.0155  159.8901 H   0  0  0  0  0  0  0  0  0  0  0  0
  1  2  1  0  0  0  0
  1 33  1  0  0  0  0
  1 34  1  0  0  0  0
  1 35  1  0  0  0  0
  2  3  1  0  0  0  0
  2 22  1  0  0  0  0
  2 36  1  0  0  0  0
  3  4  1  0  0  0  0
  3 37  1  0  0  0  0
  4  9  1  0  0  0  0
  4  5  2  0  0  0  0
  5  6  1  0  0  0  0
  6  7  2  0  0  0  0
  6 38  1  0  0  0  0
  7  8  1  0  0  0  0
  8 12  1  0  0  0  0
  8  9  2  0  0  0  0
  9 10  1  0  0  0  0
 10 11  2  0  0  0  0
 11 12  1  0  0  0  0
 11 39  1  0  0  0  0
 12 13  1  0  0  0  0
 13 29  1  0  0  0  0
 13 20  1  0  0  0  0
 13 14  1  0  0  0  0
 14 15  1  0  0  0  0
 15 30  1  0  0  0  0
 15 16  1  0  0  0  0
 15 18  1  0  0  0  0
 16 17  1  0  0  0  0
 16 40  1  0  0  0  0
 16 41  1  0  0  0  0
 17 42  1  0  0  0  0
 18 31  1  0  0  0  0
 18 19  1  0  0  0  0
 18 20  1  0  0  0  0
 19 43  1  0  0  0  0
 20 32  1  0  0  0  0
 20 21  1  0  0  0  0
 21 44  1  0  0  0  0
 22 27  1  0  0  0  0
 22 23  2  0  0  0  0
 23 24  1  0  0  0  0
 23 45  1  0  0  0  0
 24 25  2  0  0  0  0
 24 46  1  0  0  0  0
 25 26  1  0  0  0  0
 25 47  1  0  0  0  0
 26 27  2  0  0  0  0
 26 48  1  0  0  0  0
 27 28  1  0  0  0  0
M  END
> <s_m_source_file>
AV-unprocessed.smi

> <i_m_source_file_index>
283

> <i_lp_mmshare_version>
43012

> <i_f3d_flags>
0

> <s_epik_input>
Q2xjMVtjSF1bY0hdW2NIXVtjSF1jMVtDQEhdKFtDSDNdKVtOSF1jKG5bY0hdbjIpYyhjMjMpbltjSF1uM1tDQEBIXTRPW0NASF0oW0NIMl1bT0hdKVtDQEBIXShbT0hdKVtDQEhdNFtPSF0=

> <s_epik_cmdline>
J2VwaWtfcHl0aG9uJywgJy1waCcsICc3LjAnLCAnLXRuJywgJzgnLCAnLW1hJywgJzIwMCcsICctbWV0YWxfYmluZGluZycsICctaW1hZScsICc8aW5maWxlLm1hZT4nLCAnLW9tYWUnLCAnPG91dGZpbGUubWFlPic=

> <r_lp_tautomer_probability>
1

> <r_epik_Ionization_Penalty>
0.000266407

> <r_epik_Ionization_Penalty_Charging>
0

> <r_epik_Ionization_Penalty_Neutral>
0.000266407

> <r_epik_State_Penalty>
-0

> <r_epik_Charging_Adjusted_Penalty>
0

> <i_epik_Tot_Q>
0

> <i_epik_Tot_abs_Q>
0

> <r_epik_Metal_State_Penalty>
-0

> <b_epik_Metal_Only>
0

> <s_epik_Chemistry_Notes>
This compound contains an acetal/aminal-like group ( X-CH(R)-Y where X, Y are N, S, or O) that may be acid/base labile, releasing an aldehyde.

> <s_lp_Force_Field>
OPLS_2005

> <r_lp_Energy>
43.8521

> <b_lp_Chiralities_Consistent>
1

> <s_lp_Variant>
AV-unprocessed.smi:283-24

> <Gold.Version>
5.8.1

> <Gold.Id.Protein>
6NUR|6NUR_protein|mol2

> <Gold.PLP.Fitness>
51.9653

> <Gold.PLP.PLP>
-41.0339

> <Gold.PLP.part.hbond>
-6.3303

> <Gold.PLP.part.metal>
0.0000

> <Gold.PLP.part.buried>
-0.2510

> <Gold.PLP.part.nonpolar>
-34.6529

> <Gold.PLP.part.repulsive>
0.9953

> <Gold.PLP.ligand.clash>
0.0000

> <Gold.PLP.ligand.torsion>
1.8598

> <Gold.PLP.Chemscore.Hbond>
3.9600

> <Gold.PLP.Chemscore.CHOScore>
0.8890

> <Gold.PLP.Chemscore.Metal>
0.0000

> <Gold.Chemscore.Hbonds>
donor molecule, donor type, donor heavy atom, donor atom, acceptor molecule, acceptor atom, score
      L1  H     3    37       P1  8028  0.93
      L1  H    19    43       P1 10175  0.83
      L1  H    21    44       P1 10171  1.00
      P1  H  7954  7966       L1    21  0.70
      L1  C    11    39       P1 10175  0.67

> <Gold.PLP.Chemscore.Internal.Correction>
0.1039

> <Gold.Rescore>
     Score         DG    S(hbond)    S(metal)    S(lipo)     H(rot)  DE(clash)    DE(int)     intcor
     13.88     -18.07       3.66        0.00      92.72       4.10       1.39       2.80       ----

> <Gold.Chemscore.Fitness>
13.8818

> <Gold.Chemscore.DG>
-18.0711

> <Gold.Chemscore.ZeroCoef>
-5.4800

> <Gold.Chemscore.Hbond>
3.6620

> <Gold.Chemscore.Metal>
0.0000

> <Gold.Chemscore.Lipo>
92.7187

> <Gold.Chemscore.Internal_Hbond>
0.0000

> <Gold.Chemscore.DEClash>
1.3893

> <Gold.Chemscore.DEInternal>
2.7999

> <Gold.Chemscore.Rot>
4.0968

> <Gold.Chemscore.Internal.Correction>
   9.000000E+99

> <Gold.Chemscore.Hbonds>
donor molecule, donor type, donor heavy atom, donor atom, acceptor molecule, acceptor atom, score
      L1  H     3    37       P1  8028  0.87
      L1  H    19    43       P1 10175  0.82
      L1  H    21    44       P1 10171  0.98
      P1  H  7954  7966       L1    21  0.47

> <Gold.Chemscore.Hbond.Weighted>
-12.2310

> <Gold.Chemscore.Metal.Weighted>
-0.0000

> <Gold.Chemscore.Lipo.Weighted>
-10.8481

> <Gold.Chemscore.Internal_Hbond.Weighted>
0.0000

> <Gold.Chemscore.DEClash.Weighted>
1.3893

> <Gold.Chemscore.DEInternal.Weighted>
2.7999

> <Gold.Chemscore.Rot.Weighted>
10.4879

> <Gold.Chemscore.Internal.Correction.Weighted>
   9.000000E+99

> <Gold.Protein.RotatedTorsions>
[ 6907 6896 6895 6894 ] final   67.54 input  -60.11 | X-H torsion
[ 7974 7965 7964 7962 ] final  -45.13 input  175.53 | X-H torsion
[ 8008 7997 7996 7995 ] final  -22.63 input   59.86 | X-H torsion
[ 10167 10162 10161 10158 ] final -116.50 input  -65.29 | X-H torsion
[ 10718 10713 10712 10709 ] final  155.45 input   66.30 | X-H torsion
[ 10763 10752 10751 10750 ] final   44.60 input  -60.55 | X-H torsion
[ 11005 11000 10999 10996 ] final    3.15 input  -57.11 | X-H torsion

> <Gold.Protein.ActiveResidues>
 VAL166  LYS551  ARG553  GLY616  TRP617  ASP618  TYR619  PRO620  LYS621  CYS622 
 ASP623  PHE694  ASN695  SER759  ASP760  ASP761  ALA762  ILE779  LEU786  VAL792 
 PHE793  MET794  SER795  GLU796  ALA797  LYS798  CYS799  TRP800  GLU811  SER814 

> <Gold.Protein.RotatedAtoms>
  152.4559  134.5292  159.9805 H   0  0  0  0  0  0  0  0  0  0  0  0  # atno 6907 bound_to 6896
  151.5353  133.3436  159.2933 H   0  0  0  0  0  0  0  0  0  0  0  0  # atno 6908 bound_to 6896
  150.8503  134.7856  159.7066 H   0  0  0  0  0  0  0  0  0  0  0  0  # atno 6909 bound_to 6896
  145.9852  140.7241  142.9344 H   0  0  0  0  0  0  0  0  0  0  0  0  # atno 7974 bound_to 7965
  154.4633  140.2002  156.0186 H   0  0  0  0  0  0  0  0  0  0  0  0  # atno 8008 bound_to 7997
  156.0880  140.3262  155.7750 H   0  0  0  0  0  0  0  0  0  0  0  0  # atno 8009 bound_to 7997
  155.5003  140.0553  157.2931 H   0  0  0  0  0  0  0  0  0  0  0  0  # atno 8010 bound_to 7997
  140.0785  143.4810  152.1939 H   0  0  0  0  0  0  0  0  0  0  0  0  # atno 10167 bound_to 10162
  157.2181  131.0712  151.1928 H   0  0  0  0  0  0  0  0  0  0  0  0  # atno 10718 bound_to 10713
  152.9838  135.6066  154.3300 H   0  0  0  0  0  0  0  0  0  0  0  0  # atno 10763 bound_to 10752
  154.3004  135.2773  155.2615 H   0  0  0  0  0  0  0  0  0  0  0  0  # atno 10764 bound_to 10752
  154.4870  135.5902  153.6487 H   0  0  0  0  0  0  0  0  0  0  0  0  # atno 10765 bound_to 10752
  140.5963  133.9877  155.8111 H   0  0  0  0  0  0  0  0  0  0  0  0  # atno 11005 bound_to 11000
  144.6872  140.2976  143.7268 LP  0  0  0  0  0  0  0  0  0  0  0  0  # atno 17320 bound_to 7965
  145.7711  139.1858  143.2211 LP  0  0  0  0  0  0  0  0  0  0  0  0  # atno 17321 bound_to 7965
  139.5793  144.7503  151.3681 LP  0  0  0  0  0  0  0  0  0  0  0  0  # atno 17342 bound_to 10162
  140.7090  143.7441  150.7532 LP  0  0  0  0  0  0  0  0  0  0  0  0  # atno 17343 bound_to 10162
  157.3603  130.7128  149.6498 LP  0  0  0  0  0  0  0  0  0  0  0  0  # atno 17370 bound_to 10713
  155.9684  130.4227  150.4529 LP  0  0  0  0  0  0  0  0  0  0  0  0  # atno 17371 bound_to 10713
  141.0902  133.9929  157.3250 LP  0  0  0  0  0  0  0  0  0  0  0  0  # atno 17394 bound_to 11000
  139.9252  135.0201  156.8208 LP  0  0  0  0  0  0  0  0  0  0  0  0  # atno 17395 bound_to 11000

$$$$
