AV-unprocessed.smi:1884|AV-procd|sdf|7646|dock7
  -GOLD-   22720 9373D 1   1.00000     0.00000
 Structure written by MMmdl.
 40 42  0  0  0  0  0  0  0  0  1 V2000
  151.9598  138.9082  157.8580 C   0  0  0  0  0  0  0  0  0  0  0  0
  151.9420  140.3549  158.2370 C   0  0  0  0  0  0  0  0  0  0  0  0
  152.2155  140.7695  159.4742 N   0  0  0  0  0  0  0  0  0  0  0  0
  152.0750  142.1402  159.3720 C   0  0  0  0  0  0  0  0  0  0  0  0
  152.2317  143.1546  160.3437 C   0  0  0  0  0  0  0  0  0  0  0  0
  152.0327  144.5081  160.0014 C   0  0  0  0  0  0  0  0  0  0  0  0
  151.6754  144.8665  158.6852 C   0  0  0  0  0  0  0  0  0  0  0  0
  151.5153  143.8718  157.7014 C   0  0  0  0  0  0  0  0  0  0  0  0
  151.7145  142.5220  158.0484 C   0  0  0  0  0  0  0  0  0  0  0  0
  151.6424  141.3261  157.3400 N   0  0  0  0  0  0  0  0  0  0  0  0
  151.3090  141.1716  155.9303 C   0  0  0  0  0  0  0  0  0  0  0  0
  150.2543  140.0736  155.6828 C   0  0  2  0  0  0  0  0  0  0  0  0
  150.3157  139.6395  154.3388 O   0  0  0  0  0  0  0  0  0  0  0  0
  148.8250  140.5576  155.9671 C   0  0  0  0  0  0  0  0  0  0  0  0
  148.3298  141.2443  154.8251 O   0  0  0  0  0  0  0  0  0  0  0  0
  147.2036  142.0255  154.9722 C   0  0  0  0  0  0  0  0  0  0  0  0
  146.7343  142.6952  153.8235 C   0  0  0  0  0  0  0  0  0  0  0  0
  145.5915  143.5158  153.8821 C   0  0  0  0  0  0  0  0  0  0  0  0
  144.9014  143.6770  155.0996 C   0  0  0  0  0  0  0  0  0  0  0  0
  143.7233  144.5256  155.1650 C   0  0  0  0  0  0  0  0  0  0  0  0
  142.7856  145.2014  155.2173 N   0  0  0  0  0  0  0  0  0  0  0  0
  145.3590  143.0123  156.2542 C   0  0  0  0  0  0  0  0  0  0  0  0
  146.5023  142.1918  156.1934 C   0  0  0  0  0  0  0  0  0  0  0  0
  152.2498  138.2936  158.7110 H   0  0  0  0  0  0  0  0  0  0  0  0
  152.6730  138.7343  157.0527 H   0  0  0  0  0  0  0  0  0  0  0  0
  150.9697  138.5919  157.5294 H   0  0  0  0  0  0  0  0  0  0  0  0
  152.5057  142.8907  161.3545 H   0  0  0  0  0  0  0  0  0  0  0  0
  152.1544  145.2751  160.7522 H   0  0  0  0  0  0  0  0  0  0  0  0
  151.5249  145.9055  158.4315 H   0  0  0  0  0  0  0  0  0  0  0  0
  151.2447  144.1440  156.6920 H   0  0  0  0  0  0  0  0  0  0  0  0
  150.9581  142.1296  155.5463 H   0  0  0  0  0  0  0  0  0  0  0  0
  152.2240  140.9463  155.3812 H   0  0  0  0  0  0  0  0  0  0  0  0
  150.4658  139.2093  156.3129 H   0  0  0  0  0  0  0  0  0  0  0  0
  149.4441  139.6713  153.9744 H   0  0  0  0  0  0  0  0  0  0  0  0
  148.1845  139.7094  156.2153 H   0  0  0  0  0  0  0  0  0  0  0  0
  148.8333  141.2371  156.8212 H   0  0  0  0  0  0  0  0  0  0  0  0
  147.2568  142.5779  152.8854 H   0  0  0  0  0  0  0  0  0  0  0  0
  145.2499  144.0190  152.9886 H   0  0  0  0  0  0  0  0  0  0  0  0
  144.8372  143.1277  157.1936 H   0  0  0  0  0  0  0  0  0  0  0  0
  146.8214  141.7015  157.1005 H   0  0  0  0  0  0  0  0  0  0  0  0
  1  2  1  0  0  0  0
  1 24  1  0  0  0  0
  1 25  1  0  0  0  0
  1 26  1  0  0  0  0
  2 10  1  0  0  0  0
  2  3  2  0  0  0  0
  3  4  1  0  0  0  0
  4  9  2  0  0  0  0
  4  5  1  0  0  0  0
  5  6  2  0  0  0  0
  5 27  1  0  0  0  0
  6  7  1  0  0  0  0
  6 28  1  0  0  0  0
  7  8  2  0  0  0  0
  7 29  1  0  0  0  0
  8  9  1  0  0  0  0
  8 30  1  0  0  0  0
  9 10  1  0  0  0  0
 10 11  1  0  0  0  0
 11 12  1  0  0  0  0
 11 31  1  0  0  0  0
 11 32  1  0  0  0  0
 12 13  1  0  0  0  0
 12 14  1  0  0  0  0
 12 33  1  0  0  0  0
 13 34  1  0  0  0  0
 14 15  1  0  0  0  0
 14 35  1  0  0  0  0
 14 36  1  0  0  0  0
 15 16  1  0  0  0  0
 16 23  1  0  0  0  0
 16 17  2  0  0  0  0
 17 18  1  0  0  0  0
 17 37  1  0  0  0  0
 18 19  2  0  0  0  0
 18 38  1  0  0  0  0
 19 20  1  0  0  0  0
 19 22  1  0  0  0  0
 20 21  3  0  0  0  0
 22 23  2  0  0  0  0
 22 39  1  0  0  0  0
 23 40  1  0  0  0  0
M  END
> <s_m_source_file>
AV-unprocessed.smi

> <i_m_source_file_index>
1884

> <i_lp_mmshare_version>
43012

> <i_f3d_flags>
0

> <s_epik_input>
W2NIXTFbY0hdW2NIXVtjSF1jKGMxMiluKGMobjIpW0NIM10pW0NIMl1bQ0BIXShbT0hdKVtDSDJdT2MzW2NIXVtjSF1jKEMjTilbY0hdW2NIXTM=

> <s_epik_cmdline>
J2VwaWtfcHl0aG9uJywgJy1waCcsICc3LjAnLCAnLXRuJywgJzgnLCAnLW1hJywgJzIwMCcsICctbWV0YWxfYmluZGluZycsICctaW1hZScsICc8aW5maWxlLm1hZT4nLCAnLW9tYWUnLCAnPG91dGZpbGUubWFlPic=

> <r_epik_Ionization_Penalty>
0.110799

> <r_epik_Ionization_Penalty_Charging>
0

> <r_epik_Ionization_Penalty_Neutral>
0.110799

> <r_epik_State_Penalty>
0.100537

> <r_epik_Charging_Adjusted_Penalty>
0.100537

> <i_epik_Tot_Q>
0

> <i_epik_Tot_abs_Q>
0

> <r_epik_Metal_State_Penalty>
0.000109561

> <b_epik_Metal_Only>
0

> <s_lp_Force_Field>
OPLS_2005

> <r_lp_Energy>
14.1942

> <b_lp_Chiralities_Consistent>
1

> <s_lp_Variant>
AV-unprocessed.smi:1884-1

> <Gold.Version>
5.8.1

> <Gold.Id.Protein>
6NUR|6NUR_protein|mol2

> <Gold.PLP.Fitness>
49.0906

> <Gold.PLP.PLP>
-47.2202

> <Gold.PLP.part.hbond>
-1.1409

> <Gold.PLP.part.metal>
0.0000

> <Gold.PLP.part.buried>
-7.9749

> <Gold.PLP.part.nonpolar>
-37.7797

> <Gold.PLP.part.repulsive>
0.1757

> <Gold.PLP.ligand.clash>
0.0109

> <Gold.PLP.ligand.torsion>
0.6134

> <Gold.PLP.Chemscore.Hbond>
1.0000

> <Gold.PLP.Chemscore.CHOScore>
0.0000

> <Gold.PLP.Chemscore.Metal>
0.0000

> <Gold.Chemscore.Hbonds>
donor molecule, donor type, donor heavy atom, donor atom, acceptor molecule, acceptor atom, score
      P1  H  7989  7998       L1    13  1.00

> <Gold.PLP.Chemscore.Internal.Correction>
0.1081

> <Gold.Rescore>
     Score         DG    S(hbond)    S(metal)    S(lipo)     H(rot)  DE(clash)    DE(int)     intcor
     13.91     -15.57       0.68        0.00     117.43       2.31       0.05       1.61       ----

> <Gold.Chemscore.Fitness>
13.9062

> <Gold.Chemscore.DG>
-15.5696

> <Gold.Chemscore.ZeroCoef>
-5.4800

> <Gold.Chemscore.Hbond>
0.6779

> <Gold.Chemscore.Metal>
0.0000

> <Gold.Chemscore.Lipo>
117.4332

> <Gold.Chemscore.Internal_Hbond>
0.0000

> <Gold.Chemscore.DEClash>
0.0487

> <Gold.Chemscore.DEInternal>
1.6148

> <Gold.Chemscore.Rot>
2.3102

> <Gold.Chemscore.Internal.Correction>
   9.000000E+99

> <Gold.Chemscore.Hbonds>
donor molecule, donor type, donor heavy atom, donor atom, acceptor molecule, acceptor atom, score
      P1  H  7989  7998       L1    13  0.44

> <Gold.Chemscore.Hbond.Weighted>
-2.2641

> <Gold.Chemscore.Metal.Weighted>
-0.0000

> <Gold.Chemscore.Lipo.Weighted>
-13.7397

> <Gold.Chemscore.Internal_Hbond.Weighted>
0.0000

> <Gold.Chemscore.DEClash.Weighted>
0.0487

> <Gold.Chemscore.DEInternal.Weighted>
1.6148

> <Gold.Chemscore.Rot.Weighted>
5.9141

> <Gold.Chemscore.Internal.Correction.Weighted>
   9.000000E+99

> <Gold.Protein.RotatedTorsions>
[ 6907 6896 6895 6894 ] final   87.38 input  -60.11 | X-H torsion
[ 7974 7965 7964 7962 ] final   51.02 input  175.53 | X-H torsion
[ 8008 7997 7996 7995 ] final   32.91 input   59.86 | X-H torsion
[ 10167 10162 10161 10158 ] final   27.88 input  -65.29 | X-H torsion
[ 10718 10713 10712 10709 ] final  -15.83 input   66.30 | X-H torsion
[ 10763 10752 10751 10750 ] final    9.26 input  -60.55 | X-H torsion
[ 11005 11000 10999 10996 ] final  -96.78 input  -57.11 | X-H torsion

> <Gold.Protein.ActiveResidues>
 VAL166  LYS551  ARG553  GLY616  TRP617  ASP618  TYR619  PRO620  LYS621  CYS622 
 ASP623  PHE694  ASN695  SER759  ASP760  ASP761  ALA762  ILE779  LEU786  VAL792 
 PHE793  MET794  SER795  GLU796  ALA797  LYS798  CYS799  TRP800  GLU811  SER814 

> <Gold.Protein.RotatedAtoms>
  152.5410  134.2285  159.8815 H   0  0  0  0  0  0  0  0  0  0  0  0  # atno 6907 bound_to 6896
  151.2258  133.4470  159.2609 H   0  0  0  0  0  0  0  0  0  0  0  0  # atno 6908 bound_to 6896
  151.0762  134.9843  159.8389 H   0  0  0  0  0  0  0  0  0  0  0  0  # atno 6909 bound_to 6896
  145.9954  139.4383  143.0047 H   0  0  0  0  0  0  0  0  0  0  0  0  # atno 7974 bound_to 7965
  155.1301  140.3256  155.4476 H   0  0  0  0  0  0  0  0  0  0  0  0  # atno 8008 bound_to 7997
  156.2637  140.2012  156.6369 H   0  0  0  0  0  0  0  0  0  0  0  0  # atno 8009 bound_to 7997
  154.6619  140.0546  157.0058 H   0  0  0  0  0  0  0  0  0  0  0  0  # atno 8010 bound_to 7997
  140.4901  144.0481  150.6294 H   0  0  0  0  0  0  0  0  0  0  0  0  # atno 10167 bound_to 10162
  156.5962  130.4812  149.6259 H   0  0  0  0  0  0  0  0  0  0  0  0  # atno 10718 bound_to 10713
  153.2160  135.6875  153.8057 H   0  0  0  0  0  0  0  0  0  0  0  0  # atno 10763 bound_to 10752
  153.7273  135.3258  155.3280 H   0  0  0  0  0  0  0  0  0  0  0  0  # atno 10764 bound_to 10752
  154.8246  135.4627  154.0987 H   0  0  0  0  0  0  0  0  0  0  0  0  # atno 10765 bound_to 10752
  141.1400  133.8122  157.0617 H   0  0  0  0  0  0  0  0  0  0  0  0  # atno 11005 bound_to 11000
  145.7567  140.9951  143.1221 LP  0  0  0  0  0  0  0  0  0  0  0  0  # atno 17320 bound_to 7965
  144.6902  139.9280  143.7470 LP  0  0  0  0  0  0  0  0  0  0  0  0  # atno 17321 bound_to 7965
  140.3747  143.2835  152.0238 LP  0  0  0  0  0  0  0  0  0  0  0  0  # atno 17342 bound_to 10162
  139.4849  144.6202  151.7270 LP  0  0  0  0  0  0  0  0  0  0  0  0  # atno 17343 bound_to 10162
  156.2508  130.6906  151.1643 LP  0  0  0  0  0  0  0  0  0  0  0  0  # atno 17370 bound_to 10713
  157.7291  131.0626  150.5788 LP  0  0  0  0  0  0  0  0  0  0  0  0  # atno 17371 bound_to 10713
  140.0567  134.9777  157.1233 LP  0  0  0  0  0  0  0  0  0  0  0  0  # atno 17394 bound_to 11000
  140.3909  134.2186  155.7166 LP  0  0  0  0  0  0  0  0  0  0  0  0  # atno 17395 bound_to 11000

$$$$
