#       Name:                AV-unprocessed.smi:2260
#       Creating user name   scv26
#       Creation time:       Fri Mar 27 12:34:07 2020


#       File generated by GOLD software.
#

@<TRIPOS>MOLECULE
AV-unprocessed.smi:2260
    45    46     1
SMALL
NO_CHARGES


@<TRIPOS>ATOM
      1 ****        -2.8033   2.2920  -2.5824 C.3            1 S1                 0.0000
      2 ****        -3.6785   2.2257  -1.3427 C.2            1 S1                 0.0000
      3 ****        -5.0145   2.2786  -1.3278 C.2            1 S1                 0.0000
      4 ****        -5.6789   2.1404   0.2827 S.3            1 S1                 0.0000
      5 ****        -4.0192   1.9966   0.9659 C.2            1 S1                 0.0000
      6 ****        -3.8018   1.8541   2.1682 O.2            1 S1                 0.0000
      7 ****        -3.0979   2.0749  -0.0769 N.am           1 S1                 0.0000
      8 ****        -1.6543   1.9997   0.1603 C.3            1 S1                 0.0000
      9 ****        -1.1715   0.5416   0.1621 C.3            1 S1                 0.0000
     10 ****         0.2683   0.5137   0.3680 N.3            1 S1                 0.0000
     11 ****         0.8321  -0.8296   0.2599 C.3            1 S1                 0.0000
     12 ****         0.5553  -1.6335   1.5529 C.3            1 S1                 0.0000
     13 ****         1.1582  -3.0428   1.4791 C.3            1 S1                 0.0000
     14 ****         2.6590  -2.9896   1.1715 C.3            1 S1                 0.0000
     15 ****         2.9310  -2.1919  -0.1149 C.3            1 S1                 0.0000
     16 ****         2.3533  -0.7531  -0.0861 C.3            1 S1                 0.0000
     17 ****         2.5367  -0.1481  -1.4950 C.3            1 S1                 0.0000
     18 ****         3.1511   0.1109   0.9217 C.3            1 S1                 0.0000
     19 ****        -3.3868   2.0476  -3.4706 H              1 S1                 0.0000
     20 ****        -1.9741   1.5864  -2.5342 H              1 S1                 0.0000
     21 ****        -2.4015   3.2976  -2.7079 H              1 S1                 0.0000
     22 ****        -5.6608   2.3833  -2.1868 H              1 S1                 0.0000
     23 ****        -1.1134   2.5840  -0.5842 H              1 S1                 0.0000
     24 ****        -1.4172   2.4676   1.1175 H              1 S1                 0.0000
     25 ****        -1.6786  -0.0163   0.9490 H              1 S1                 0.0000
     26 ****        -1.4156   0.0644  -0.7874 H              1 S1                 0.0000
     27 ****         0.5105   0.9241   1.2587 H              1 S1                 0.0000
     28 ****         0.3379  -1.3403  -0.5684 H              1 S1                 0.0000
     29 ****         0.9548  -1.1094   2.4215 H              1 S1                 0.0000
     30 ****        -0.5164  -1.7281   1.7257 H              1 S1                 0.0000
     31 ****         0.9891  -3.5707   2.4181 H              1 S1                 0.0000
     32 ****         0.6476  -3.6169   0.7049 H              1 S1                 0.0000
     33 ****         3.1945  -2.5476   2.0118 H              1 S1                 0.0000
     34 ****         3.0476  -4.0028   1.0650 H              1 S1                 0.0000
     35 ****         4.0050  -2.1633  -0.3032 H              1 S1                 0.0000
     36 ****         2.4979  -2.7392  -0.9537 H              1 S1                 0.0000
     37 ****         3.5856  -0.1505  -1.7936 H              1 S1                 0.0000
     38 ****         2.1918   0.8855  -1.5407 H              1 S1                 0.0000
     39 ****         1.9815  -0.7102  -2.2466 H              1 S1                 0.0000
     40 ****         4.2168   0.0967   0.6913 H              1 S1                 0.0000
     41 ****         3.0402  -0.2349   1.9485 H              1 S1                 0.0000
     42 ****         2.8367   1.1546   0.8980 H              1 S1                 0.0000
     43 ****        -4.5650   1.8136   2.8130 LP             1 S1                 0.0000
     44 ****        -2.8617   1.7787   2.5009 LP             1 S1                 0.0000
     45 ****         0.6702   1.0592  -0.3675 LP             1 S1                 0.0000
@<TRIPOS>BOND
    1    1    2 1     
    2    1   19 1     
    3    1   20 1     
    4    1   21 1     
    5    2    7 1     
    6    2    3 2     
    7    3    4 1     
    8    3   22 1     
    9    4    5 1     
   10    5    6 2     
   11    5    7 am    
   12    7    8 1     
   13    8    9 1     
   14    8   23 1     
   15    8   24 1     
   16    9   10 1     
   17    9   25 1     
   18    9   26 1     
   19   10   11 1     
   20   10   27 1     
   21   11   16 1     
   22   11   12 1     
   23   11   28 1     
   24   12   13 1     
   25   12   29 1     
   26   12   30 1     
   27   13   14 1     
   28   13   31 1     
   29   13   32 1     
   30   14   15 1     
   31   14   33 1     
   32   14   34 1     
   33   15   16 1     
   34   15   35 1     
   35   15   36 1     
   36   16   17 1     
   37   16   18 1     
   38   17   37 1     
   39   17   38 1     
   40   17   39 1     
   41   18   40 1     
   42   18   41 1     
   43   18   42 1     
   44    6   43 1     
   45    6   44 1     
   46   10   45 1     
@<TRIPOS>SUBSTRUCTURE
      1 S1             1
@<TRIPOS>SET
LONE_PAIRS      STATIC     ATOMS    <user>   **** ""
3 43 44 45
DONOR_HYDROGENS      STATIC     ATOMS    <user>   **** ""
1 27
ATOM$BLUE        STATIC     ATOMS    COLORGROUP SYSTEM
3 43 44 45
ATOM$RED        STATIC     ATOMS    COLORGROUP SYSTEM
1 27
