AV-unprocessed.smi:1466|AV-procd|sdf|5953|dock7
  -GOLD-   22720 6 43D 1   1.00000     0.00000
 Structure written by MMmdl.
 49 50  0  0  0  0  0  0  0  0  2 V2000
  144.8199  131.4974  152.3338 C   0  0  0  0  0  0  0  0  0  0  0  0
  144.3951  132.4170  151.2868 N   0  0  0  0  0  0  0  0  0  0  0  0
  144.2966  131.9638  149.9039 C   0  0  0  0  0  0  0  0  0  0  0  0
  144.0698  133.7513  151.6133 C   0  0  0  0  0  0  0  0  0  0  0  0
  144.6558  134.8709  150.9732 C   0  0  0  0  0  0  0  0  0  0  0  0
  144.2823  136.1762  151.3543 C   0  0  0  0  0  0  0  0  0  0  0  0
  143.3278  136.3575  152.3847 C   0  0  0  0  0  0  0  0  0  0  0  0
  142.8732  137.6268  152.8342 N   0  0  0  0  0  0  0  0  0  0  0  0
  141.7484  137.9187  153.5099 C   0  0  0  0  0  0  0  0  0  0  0  0
  140.8934  137.1021  153.8522 O   0  0  0  0  0  0  0  0  0  0  0  0
  141.6541  139.2334  153.7537 N   0  0  0  0  0  0  0  0  0  0  0  0
  140.5429  139.8746  154.4468 C   0  0  0  0  0  0  0  0  0  0  0  0
  139.7940  140.8548  153.5248 C   0  0  0  0  0  0  0  0  0  0  0  0
  138.6802  140.1962  152.8329 N   0  0  0  0  0  0  0  0  0  0  0  0
  139.0499  139.2474  151.7710 C   0  0  0  0  0  0  0  0  0  0  0  0
  138.7826  137.7690  152.1361 C   0  0  0  0  0  0  0  0  0  0  0  0
  137.6003  137.5067  153.0901 C   0  0  0  0  0  0  0  0  0  0  0  0
  136.2645  138.1561  152.6708 C   0  0  0  0  0  0  0  0  0  0  0  0
  136.2866  139.6819  152.4116 C   0  0  0  0  0  0  0  0  0  0  0  0
  137.3895  140.4416  153.1670 C   0  0  0  0  0  0  0  0  0  0  0  0
  137.0643  141.2422  154.0443 O   0  0  0  0  0  0  0  0  0  0  0  0
  142.7628  135.2110  152.9780 C   0  0  0  0  0  0  0  0  0  0  0  0
  143.1497  133.9792  152.5823 N   0  3  0  0  0  0  0  0  0  0  0  0
  144.0561  131.4170  153.1080 H   0  0  0  0  0  0  0  0  0  0  0  0
  145.7473  131.8419  152.7921 H   0  0  0  0  0  0  0  0  0  0  0  0
  144.9958  130.4979  151.9360 H   0  0  0  0  0  0  0  0  0  0  0  0
  143.2671  132.0324  149.5514 H   0  0  0  0  0  0  0  0  0  0  0  0
  144.6162  130.9265  149.8026 H   0  0  0  0  0  0  0  0  0  0  0  0
  144.9281  132.5711  149.2544 H   0  0  0  0  0  0  0  0  0  0  0  0
  145.3864  134.7523  150.1875 H   0  0  0  0  0  0  0  0  0  0  0  0
  144.7281  137.0115  150.8368 H   0  0  0  0  0  0  0  0  0  0  0  0
  143.4380  138.4149  152.5533 H   0  0  0  0  0  0  0  0  0  0  0  0
  142.3994  139.8353  153.4344 H   0  0  0  0  0  0  0  0  0  0  0  0
  139.8655  139.1165  154.8436 H   0  0  0  0  0  0  0  0  0  0  0  0
  140.9454  140.4097  155.3073 H   0  0  0  0  0  0  0  0  0  0  0  0
  139.4297  141.7050  154.1034 H   0  0  0  0  0  0  0  0  0  0  0  0
  140.4800  141.2840  152.7921 H   0  0  0  0  0  0  0  0  0  0  0  0
  138.5101  139.5040  150.8593 H   0  0  0  0  0  0  0  0  0  0  0  0
  140.0985  139.3635  151.4943 H   0  0  0  0  0  0  0  0  0  0  0  0
  138.6433  137.1998  151.2164 H   0  0  0  0  0  0  0  0  0  0  0  0
  139.6800  137.3599  152.6013 H   0  0  0  0  0  0  0  0  0  0  0  0
  137.4548  136.4299  153.1797 H   0  0  0  0  0  0  0  0  0  0  0  0
  137.8663  137.8388  154.0946 H   0  0  0  0  0  0  0  0  0  0  0  0
  135.8962  137.6576  151.7737 H   0  0  0  0  0  0  0  0  0  0  0  0
  135.5261  137.9441  153.4448 H   0  0  0  0  0  0  0  0  0  0  0  0
  136.3906  139.8791  151.3452 H   0  0  0  0  0  0  0  0  0  0  0  0
  135.3165  140.1034  152.6782 H   0  0  0  0  0  0  0  0  0  0  0  0
  142.0189  135.2391  153.7613 H   0  0  0  0  0  0  0  0  0  0  0  0
  142.7242  133.1733  153.0406 H   0  0  0  0  0  0  0  0  0  0  0  0
  1  2  1  0  0  0  0
  1 24  1  0  0  0  0
  1 25  1  0  0  0  0
  1 26  1  0  0  0  0
  2  3  1  0  0  0  0
  2  4  1  0  0  0  0
  3 27  1  0  0  0  0
  3 28  1  0  0  0  0
  3 29  1  0  0  0  0
  4 23  1  0  0  0  0
  4  5  2  0  0  0  0
  5  6  1  0  0  0  0
  5 30  1  0  0  0  0
  6  7  2  0  0  0  0
  6 31  1  0  0  0  0
  7  8  1  0  0  0  0
  7 22  1  0  0  0  0
  8  9  1  0  0  0  0
  8 32  1  0  0  0  0
  9 10  2  0  0  0  0
  9 11  1  0  0  0  0
 11 12  1  0  0  0  0
 11 33  1  0  0  0  0
 12 13  1  0  0  0  0
 12 34  1  0  0  0  0
 12 35  1  0  0  0  0
 13 14  1  0  0  0  0
 13 36  1  0  0  0  0
 13 37  1  0  0  0  0
 14 20  1  0  0  0  0
 14 15  1  0  0  0  0
 15 16  1  0  0  0  0
 15 38  1  0  0  0  0
 15 39  1  0  0  0  0
 16 17  1  0  0  0  0
 16 40  1  0  0  0  0
 16 41  1  0  0  0  0
 17 18  1  0  0  0  0
 17 42  1  0  0  0  0
 17 43  1  0  0  0  0
 18 19  1  0  0  0  0
 18 44  1  0  0  0  0
 18 45  1  0  0  0  0
 19 20  1  0  0  0  0
 19 46  1  0  0  0  0
 19 47  1  0  0  0  0
 20 21  2  0  0  0  0
 22 23  2  0  0  0  0
 22 48  1  0  0  0  0
 23 49  1  0  0  0  0
M  CHG  1  23   1
M  END
> <s_m_source_file>
AV-unprocessed.smi

> <i_m_source_file_index>
1466

> <i_lp_mmshare_version>
43012

> <i_f3d_flags>
0

> <s_epik_input>
W0NIM11OKFtDSDNdKWMxW2NIXVtjSF1jKFtjSF1uMSlbTkhdQyg9TylbTkhdW0NIMl1bQ0gyXU4yW0NIMl1bQ0gyXVtDSDJdW0NIMl1bQ0gyXUMyPU8=

> <s_epik_cmdline>
J2VwaWtfcHl0aG9uJywgJy1waCcsICc3LjAnLCAnLXRuJywgJzgnLCAnLW1hJywgJzIwMCcsICctbWV0YWxfYmluZGluZycsICctaW1hZScsICc8aW5maWxlLm1hZT4nLCAnLW9tYWUnLCAnPG91dGZpbGUubWFlPic=

> <r_lp_tautomer_probability>
0.999994

> <r_epik_Ionization_Penalty>
0.269687

> <r_epik_Ionization_Penalty_Charging>
0.269668

> <r_epik_Ionization_Penalty_Neutral>
1.89217e-05

> <r_epik_State_Penalty>
0.261755

> <r_epik_Charging_Adjusted_Penalty>
0.531423

> <i_epik_Tot_Q>
1

> <i_epik_Tot_abs_Q>
1

> <r_epik_Metal_State_Penalty>
0.546954

> <b_epik_Metal_Only>
0

> <s_lp_Force_Field>
OPLS_2005

> <r_lp_Energy>
31.5815

> <b_lp_Chiralities_Consistent>
1

> <s_lp_Variant>
AV-unprocessed.smi:1466-1

> <Gold.Version>
5.8.1

> <Gold.Id.Protein>
6NUR|6NUR_protein|mol2

> <Gold.PLP.Fitness>
46.6777

> <Gold.PLP.PLP>
-37.8755

> <Gold.PLP.part.hbond>
-2.9499

> <Gold.PLP.part.metal>
0.0000

> <Gold.PLP.part.buried>
-2.0899

> <Gold.PLP.part.nonpolar>
-34.0072

> <Gold.PLP.part.repulsive>
0.0497

> <Gold.PLP.ligand.clash>
0.0000

> <Gold.PLP.ligand.torsion>
1.4005

> <Gold.PLP.Chemscore.Hbond>
3.8561

> <Gold.PLP.Chemscore.CHOScore>
0.0000

> <Gold.PLP.Chemscore.Metal>
0.0000

> <Gold.Chemscore.Hbonds>
donor molecule, donor type, donor heavy atom, donor atom, acceptor molecule, acceptor atom, score
      L1  H     8    32       P1 10175  0.94
      L1  H    11    33       P1 10175  1.00
      L1  H    23    49       P1 10957  1.01

> <Gold.PLP.Chemscore.Internal.Correction>
0.0350

> <Gold.Rescore>
     Score         DG    S(hbond)    S(metal)    S(lipo)     H(rot)  DE(clash)    DE(int)     intcor
     14.85     -19.30       2.75        0.00      72.43       1.50       0.55       3.91       ----

> <Gold.Chemscore.Fitness>
14.8460

> <Gold.Chemscore.DG>
-19.3001

> <Gold.Chemscore.ZeroCoef>
-5.4800

> <Gold.Chemscore.Hbond>
2.7539

> <Gold.Chemscore.Metal>
0.0000

> <Gold.Chemscore.Lipo>
72.4309

> <Gold.Chemscore.Internal_Hbond>
0.0000

> <Gold.Chemscore.DEClash>
0.5464

> <Gold.Chemscore.DEInternal>
3.9078

> <Gold.Chemscore.Rot>
1.5047

> <Gold.Chemscore.Internal.Correction>
   9.000000E+99

> <Gold.Chemscore.Hbonds>
donor molecule, donor type, donor heavy atom, donor atom, acceptor molecule, acceptor atom, score
      L1  H     8    32       P1 10175  0.85
      L1  H    11    33       P1 10175  0.95
      L1  H    23    49       P1 10957  0.34

> <Gold.Chemscore.Hbond.Weighted>
-9.1979

> <Gold.Chemscore.Metal.Weighted>
-0.0000

> <Gold.Chemscore.Lipo.Weighted>
-8.4744

> <Gold.Chemscore.Internal_Hbond.Weighted>
0.0000

> <Gold.Chemscore.DEClash.Weighted>
0.5464

> <Gold.Chemscore.DEInternal.Weighted>
3.9078

> <Gold.Chemscore.Rot.Weighted>
3.8522

> <Gold.Chemscore.Internal.Correction.Weighted>
   9.000000E+99

> <Gold.Protein.RotatedTorsions>
[ 6907 6896 6895 6894 ] final   -3.55 input  -60.11 | X-H torsion
[ 7974 7965 7964 7962 ] final   57.05 input  175.53 | X-H torsion
[ 8008 7997 7996 7995 ] final    1.85 input   59.86 | X-H torsion
[ 10167 10162 10161 10158 ] final  137.17 input  -65.29 | X-H torsion
[ 10718 10713 10712 10709 ] final  107.28 input   66.30 | X-H torsion
[ 10763 10752 10751 10750 ] final -108.35 input  -60.55 | X-H torsion
[ 11005 11000 10999 10996 ] final  -35.77 input  -57.11 | X-H torsion

> <Gold.Protein.ActiveResidues>
 VAL166  LYS551  ARG553  GLY616  TRP617  ASP618  TYR619  PRO620  LYS621  CYS622 
 ASP623  PHE694  ASN695  SER759  ASP760  ASP761  ALA762  ILE779  LEU786  VAL792 
 PHE793  MET794  SER795  GLU796  ALA797  LYS798  CYS799  TRP800  GLU811  SER814 

> <Gold.Protein.RotatedAtoms>
  151.5119  135.1065  159.9855 H   0  0  0  0  0  0  0  0  0  0  0  0  # atno 6907 bound_to 6896
  152.4658  133.7915  159.6915 H   0  0  0  0  0  0  0  0  0  0  0  0  # atno 6908 bound_to 6896
  150.8641  133.7537  159.3008 H   0  0  0  0  0  0  0  0  0  0  0  0  # atno 6909 bound_to 6896
  145.9333  139.3825  143.0408 H   0  0  0  0  0  0  0  0  0  0  0  0  # atno 7974 bound_to 7965
  154.6846  140.2640  155.6874 H   0  0  0  0  0  0  0  0  0  0  0  0  # atno 8008 bound_to 7997
  156.2709  140.2803  156.1325 H   0  0  0  0  0  0  0  0  0  0  0  0  # atno 8009 bound_to 7997
  155.0983  140.0374  157.2679 H   0  0  0  0  0  0  0  0  0  0  0  0  # atno 8010 bound_to 7997
  139.5154  144.6425  151.5531 H   0  0  0  0  0  0  0  0  0  0  0  0  # atno 10167 bound_to 10162
  157.6634  131.0869  150.6133 H   0  0  0  0  0  0  0  0  0  0  0  0  # atno 10718 bound_to 10713
  154.8130  135.4641  154.0567 H   0  0  0  0  0  0  0  0  0  0  0  0  # atno 10763 bound_to 10752
  153.1983  135.6865  153.8270 H   0  0  0  0  0  0  0  0  0  0  0  0  # atno 10764 bound_to 10752
  153.7764  135.3263  155.3336 H   0  0  0  0  0  0  0  0  0  0  0  0  # atno 10765 bound_to 10752
  140.9823  133.7050  156.1704 H   0  0  0  0  0  0  0  0  0  0  0  0  # atno 11005 bound_to 11000
  145.8398  140.9587  143.0805 LP  0  0  0  0  0  0  0  0  0  0  0  0  # atno 17320 bound_to 7965
  144.6768  140.0269  143.7483 LP  0  0  0  0  0  0  0  0  0  0  0  0  # atno 17321 bound_to 7965
  140.6197  143.9282  150.6516 LP  0  0  0  0  0  0  0  0  0  0  0  0  # atno 17342 bound_to 10162
  140.2552  143.3564  152.1371 LP  0  0  0  0  0  0  0  0  0  0  0  0  # atno 17343 bound_to 10162
  156.6435  130.4465  149.5744 LP  0  0  0  0  0  0  0  0  0  0  0  0  # atno 17370 bound_to 10713
  156.2191  130.6726  151.1350 LP  0  0  0  0  0  0  0  0  0  0  0  0  # atno 17371 bound_to 10713
  140.7168  134.4401  157.5578 LP  0  0  0  0  0  0  0  0  0  0  0  0  # atno 17394 bound_to 11000
  139.8955  134.8681  156.2128 LP  0  0  0  0  0  0  0  0  0  0  0  0  # atno 17395 bound_to 11000

$$$$
