AV-unprocessed.smi:2078|AV-procd|sdf|8472|dock1
  -GOLD-   2272011173D 1   1.00000     0.00000
 Structure written by MMmdl.
 41 42  0  0  0  0  0  0  0  0  3 V2000
  148.7683  133.8569  155.5573 C   0  0  0  0  0  0  0  0  0  0  0  0
  149.7184  135.0046  155.5108 C   0  0  0  0  0  0  0  0  0  0  0  0
  150.0968  135.9338  156.4383 C   0  0  0  0  0  0  0  0  0  0  0  0
  151.0294  136.7360  155.7280 C   0  0  0  0  0  0  0  0  0  0  0  0
  151.6625  137.8388  156.3597 N   0  0  0  0  0  0  0  0  0  0  0  0
  151.8792  139.0763  155.8785 C   0  0  0  0  0  0  0  0  0  0  0  0
  151.5300  139.3710  154.7291 O   0  0  0  0  0  0  0  0  0  0  0  0
  152.5001  139.8799  156.7859 N   0  5  0  0  0  0  0  0  0  0  0  0
  151.8391  140.5291  157.9163 C   0  0  0  0  0  0  0  0  0  0  0  0
  151.2700  141.8973  157.4903 C   0  0  0  0  0  0  0  0  0  0  0  0
  151.3163  142.8774  158.6067 N   0  3  2  0  0  0  0  0  0  0  0  0
  150.6136  144.1548  158.3042 C   0  0  0  0  0  0  0  0  0  0  0  0
  150.5360  145.0488  159.5513 C   0  0  0  0  0  0  0  0  0  0  0  0
  151.9348  145.3110  160.1275 C   0  0  0  0  0  0  0  0  0  0  0  0
  152.6927  143.9942  160.3805 C   0  0  1  0  0  0  0  0  0  0  0  0
  152.1677  143.2317  161.6098 C   0  0  0  0  0  0  0  0  0  0  0  0
  152.6945  143.1172  159.1111 C   0  0  0  0  0  0  0  0  0  0  0  0
  151.2057  136.3304  154.4791 N   0  0  0  0  0  0  0  0  0  0  0  0
  150.3659  135.2197  154.3333 O   0  0  0  0  0  0  0  0  0  0  0  0
  148.7504  133.4090  156.5510 H   0  0  0  0  0  0  0  0  0  0  0  0
  149.0540  133.0833  154.8443 H   0  0  0  0  0  0  0  0  0  0  0  0
  147.7571  134.1843  155.3156 H   0  0  0  0  0  0  0  0  0  0  0  0
  149.7586  136.0252  157.4598 H   0  0  0  0  0  0  0  0  0  0  0  0
  151.9815  137.6752  157.3030 H   0  0  0  0  0  0  0  0  0  0  0  0
  151.0359  139.9179  158.3302 H   0  0  0  0  0  0  0  0  0  0  0  0
  152.5360  140.6833  158.7404 H   0  0  0  0  0  0  0  0  0  0  0  0
  151.8600  142.2627  156.6482 H   0  0  0  0  0  0  0  0  0  0  0  0
  150.2481  141.8014  157.1192 H   0  0  0  0  0  0  0  0  0  0  0  0
  151.1347  144.6761  157.4996 H   0  0  0  0  0  0  0  0  0  0  0  0
  149.6036  143.9526  157.9452 H   0  0  0  0  0  0  0  0  0  0  0  0
  150.0558  145.9949  159.2999 H   0  0  0  0  0  0  0  0  0  0  0  0
  149.9039  144.5766  160.3040 H   0  0  0  0  0  0  0  0  0  0  0  0
  152.5008  145.9198  159.4211 H   0  0  0  0  0  0  0  0  0  0  0  0
  151.8638  145.8960  161.0452 H   0  0  0  0  0  0  0  0  0  0  0  0
  153.7291  144.2534  160.6003 H   0  0  0  0  0  0  0  0  0  0  0  0
  151.1396  142.8959  161.4730 H   0  0  0  0  0  0  0  0  0  0  0  0
  152.1960  143.8581  162.5016 H   0  0  0  0  0  0  0  0  0  0  0  0
  152.7761  142.3494  161.8104 H   0  0  0  0  0  0  0  0  0  0  0  0
  153.1819  142.1656  159.3296 H   0  0  0  0  0  0  0  0  0  0  0  0
  153.2819  143.5965  158.3261 H   0  0  0  0  0  0  0  0  0  0  0  0
  150.8157  142.4409  159.3676 H   0  0  0  0  0  0  0  0  0  0  0  0
  1  2  1  0  0  0  0
  1 20  1  0  0  0  0
  1 21  1  0  0  0  0
  1 22  1  0  0  0  0
  2 19  1  0  0  0  0
  2  3  2  0  0  0  0
  3  4  1  0  0  0  0
  3 23  1  0  0  0  0
  4  5  1  0  0  0  0
  4 18  2  0  0  0  0
  5  6  1  0  0  0  0
  5 24  1  0  0  0  0
  6  7  2  0  0  0  0
  6  8  1  0  0  0  0
  8  9  1  0  0  0  0
  9 10  1  0  0  0  0
  9 25  1  0  0  0  0
  9 26  1  0  0  0  0
 10 11  1  0  0  0  0
 10 27  1  0  0  0  0
 10 28  1  0  0  0  0
 11 17  1  0  0  0  0
 11 12  1  0  0  0  0
 11 41  1  0  0  0  0
 12 13  1  0  0  0  0
 12 29  1  0  0  0  0
 12 30  1  0  0  0  0
 13 14  1  0  0  0  0
 13 31  1  0  0  0  0
 13 32  1  0  0  0  0
 14 15  1  0  0  0  0
 14 33  1  0  0  0  0
 14 34  1  0  0  0  0
 15 16  1  0  0  0  0
 15 17  1  0  0  0  0
 15 35  1  0  0  0  0
 16 36  1  0  0  0  0
 16 37  1  0  0  0  0
 16 38  1  0  0  0  0
 17 39  1  0  0  0  0
 17 40  1  0  0  0  0
 18 19  1  0  0  0  0
M  CHG  1   8  -1
M  CHG  1  11   1
M  END
> <s_m_source_file>
AV-unprocessed.smi

> <i_m_source_file_index>
2078

> <i_lp_mmshare_version>
43012

> <i_f3d_flags>
0

> <s_epik_input>
W0NIM11jMVtjSF1jKG5vMSlbTkhdQyg9TylbTkhdW0NIMl1bQ0gyXU4yW0NIMl1bQ0gyXVtDSDJdW0NAQEhdKFtDSDNdKVtDSDJdMg==

> <s_epik_cmdline>
J2VwaWtfcHl0aG9uJywgJy1waCcsICc3LjAnLCAnLXRuJywgJzgnLCAnLW1hJywgJzIwMCcsICctbWV0YWxfYmluZGluZycsICctaW1hZScsICc8aW5maWxlLm1hZT4nLCAnLW9tYWUnLCAnPG91dGZpbGUubWFlPic=

> <r_epik_Ionization_Penalty>
6.76934

> <r_epik_Ionization_Penalty_Charging>
6.76934

> <r_epik_Ionization_Penalty_Neutral>
5.77849e-06

> <r_epik_State_Penalty>
6.79457

> <r_epik_Charging_Adjusted_Penalty>
13.5639

> <i_epik_Tot_Q>
0

> <i_epik_Tot_abs_Q>
2

> <r_epik_Metal_State_Penalty>
2.72837

> <b_epik_Metal_Only>
1

> <s_lp_Force_Field>
OPLS_2005

> <r_lp_Energy>
14.163

> <b_lp_Chiralities_Consistent>
1

> <s_lp_Variant>
AV-unprocessed.smi:2078-10

> <Gold.Version>
5.8.1

> <Gold.Id.Protein>
6NUR|6NUR_protein|mol2

> <Gold.PLP.Fitness>
42.6932

> <Gold.PLP.PLP>
-33.6442

> <Gold.PLP.part.hbond>
-3.0000

> <Gold.PLP.part.metal>
0.0000

> <Gold.PLP.part.buried>
-5.3433

> <Gold.PLP.part.nonpolar>
-26.5873

> <Gold.PLP.part.repulsive>
1.7493

> <Gold.PLP.ligand.clash>
0.0000

> <Gold.PLP.ligand.torsion>
1.4895

> <Gold.PLP.Chemscore.Hbond>
4.0000

> <Gold.PLP.Chemscore.CHOScore>
0.0000

> <Gold.PLP.Chemscore.Metal>
0.0000

> <Gold.Chemscore.Hbonds>
donor molecule, donor type, donor heavy atom, donor atom, acceptor molecule, acceptor atom, score
      P1  H  7989  7998       L1     7  1.00
      P1  H  7997  8010       L1     8  2.00
      P1  H 10752 10764       L1    18  0.95

> <Gold.PLP.Chemscore.Internal.Correction>
0.0281

> <Gold.Rescore>
     Score         DG    S(hbond)    S(metal)    S(lipo)     H(rot)  DE(clash)    DE(int)     intcor
     18.68     -20.25       2.36        0.00      92.61       1.54       0.02       1.55       ----

> <Gold.Chemscore.Fitness>
18.6813

> <Gold.Chemscore.DG>
-20.2493

> <Gold.Chemscore.ZeroCoef>
-5.4800

> <Gold.Chemscore.Hbond>
2.3588

> <Gold.Chemscore.Metal>
0.0000

> <Gold.Chemscore.Lipo>
92.6105

> <Gold.Chemscore.Internal_Hbond>
0.0000

> <Gold.Chemscore.DEClash>
0.0208

> <Gold.Chemscore.DEInternal>
1.5472

> <Gold.Chemscore.Rot>
1.5409

> <Gold.Chemscore.Internal.Correction>
   9.000000E+99

> <Gold.Chemscore.Hbonds>
donor molecule, donor type, donor heavy atom, donor atom, acceptor molecule, acceptor atom, score
      P1  H  7989  7998       L1     7  0.99
      P1  H  7997  8010       L1     8  0.87
      P1  H 10752 10764       L1    18  0.10

> <Gold.Chemscore.Hbond.Weighted>
-7.8785

> <Gold.Chemscore.Metal.Weighted>
-0.0000

> <Gold.Chemscore.Lipo.Weighted>
-10.8354

> <Gold.Chemscore.Internal_Hbond.Weighted>
0.0000

> <Gold.Chemscore.DEClash.Weighted>
0.0208

> <Gold.Chemscore.DEInternal.Weighted>
1.5472

> <Gold.Chemscore.Rot.Weighted>
3.9446

> <Gold.Chemscore.Internal.Correction.Weighted>
   9.000000E+99

> <Gold.Protein.RotatedTorsions>
[ 6907 6896 6895 6894 ] final -126.63 input  -60.11 | X-H torsion
[ 7974 7965 7964 7962 ] final -164.87 input  175.53 | X-H torsion
[ 8008 7997 7996 7995 ] final   69.86 input   59.86 | X-H torsion
[ 10167 10162 10161 10158 ] final   23.25 input  -65.29 | X-H torsion
[ 10718 10713 10712 10709 ] final  109.02 input   66.30 | X-H torsion
[ 10763 10752 10751 10750 ] final  -54.77 input  -60.55 | X-H torsion
[ 11005 11000 10999 10996 ] final  166.45 input  -57.11 | X-H torsion

> <Gold.Protein.ActiveResidues>
 VAL166  LYS551  ARG553  GLY616  TRP617  ASP618  TYR619  PRO620  LYS621  CYS622 
 ASP623  PHE694  ASN695  SER759  ASP760  ASP761  ALA762  ILE779  LEU786  VAL792 
 PHE793  MET794  SER795  GLU796  ALA797  LYS798  CYS799  TRP800  GLU811  SER814 

> <Gold.Protein.RotatedAtoms>
  150.8989  133.7144  159.2884 H   0  0  0  0  0  0  0  0  0  0  0  0  # atno 6907 bound_to 6896
  151.4669  135.1041  159.9750 H   0  0  0  0  0  0  0  0  0  0  0  0  # atno 6908 bound_to 6896
  152.4865  133.8338  159.7172 H   0  0  0  0  0  0  0  0  0  0  0  0  # atno 6909 bound_to 6896
  144.7285  140.2897  143.6222 H   0  0  0  0  0  0  0  0  0  0  0  0  # atno 7974 bound_to 7965
  155.7301  140.3492  155.5055 H   0  0  0  0  0  0  0  0  0  0  0  0  # atno 8008 bound_to 7997
  155.9190  140.1064  157.1243 H   0  0  0  0  0  0  0  0  0  0  0  0  # atno 8009 bound_to 7997
  154.4067  140.1253  156.4642 H   0  0  0  0  0  0  0  0  0  0  0  0  # atno 8010 bound_to 7997
  140.5284  143.9884  150.6452 H   0  0  0  0  0  0  0  0  0  0  0  0  # atno 10167 bound_to 10162
  157.6560  131.0905  150.6392 H   0  0  0  0  0  0  0  0  0  0  0  0  # atno 10718 bound_to 10713
  154.1801  135.6445  153.5032 H   0  0  0  0  0  0  0  0  0  0  0  0  # atno 10763 bound_to 10752
  153.0061  135.5404  154.6523 H   0  0  0  0  0  0  0  0  0  0  0  0  # atno 10764 bound_to 10752
  154.5885  135.2932  155.0632 H   0  0  0  0  0  0  0  0  0  0  0  0  # atno 10765 bound_to 10752
  140.2666  134.7860  157.3638 H   0  0  0  0  0  0  0  0  0  0  0  0  # atno 11005 bound_to 11000
  145.7867  139.1911  143.2126 LP  0  0  0  0  0  0  0  0  0  0  0  0  # atno 17320 bound_to 7965
  146.0789  140.7786  142.9651 LP  0  0  0  0  0  0  0  0  0  0  0  0  # atno 17321 bound_to 7965
  140.3252  143.3112  152.0744 LP  0  0  0  0  0  0  0  0  0  0  0  0  # atno 17342 bound_to 10162
  139.4946  144.6547  151.6599 LP  0  0  0  0  0  0  0  0  0  0  0  0  # atno 17343 bound_to 10162
  156.6699  130.4536  149.5660 LP  0  0  0  0  0  0  0  0  0  0  0  0  # atno 17370 bound_to 10713
  156.2005  130.6617  151.1162 LP  0  0  0  0  0  0  0  0  0  0  0  0  # atno 17371 bound_to 10713
  140.1413  134.4968  155.8029 LP  0  0  0  0  0  0  0  0  0  0  0  0  # atno 17394 bound_to 11000
  141.2183  133.6826  156.7216 LP  0  0  0  0  0  0  0  0  0  0  0  0  # atno 17395 bound_to 11000

$$$$
