AV-unprocessed.smi:3336|AV-procd|sdf|12858|dock10
  -GOLD-   2272019253D 1   1.00000     0.00000
 Structure written by MMmdl.
 41 42  0  0  0  0  0  0  0  0  1 V2000
  149.0588  132.1932  154.2255 C   0  0  0  0  0  0  0  0  0  0  0  0
  148.8377  133.7145  154.2040 C   0  0  1  0  0  0  0  0  0  0  0  0
  147.3730  134.1186  153.9419 C   0  0  0  0  0  0  0  0  0  0  0  0
  146.7886  133.4059  152.8199 N   0  0  0  0  0  0  0  0  0  0  0  0
  146.6492  133.8347  151.5168 C   0  0  0  0  0  0  0  0  0  0  0  0
  146.0421  132.8293  150.8206 C   0  0  0  0  0  0  0  0  0  0  0  0
  145.8459  131.8129  151.7970 C   0  0  0  0  0  0  0  0  0  0  0  0
  146.2916  132.1616  152.9931 N   0  0  0  0  0  0  0  0  0  0  0  0
  149.2274  134.2542  155.5031 N   0  0  0  0  0  0  0  0  0  0  0  0
  150.1969  135.3624  155.4288 C   0  0  2  0  0  0  0  0  0  0  0  0
  150.9712  135.4971  156.7563 C   0  0  0  0  0  0  0  0  0  0  0  0
  149.4908  136.6945  155.0934 C   0  0  0  0  0  0  0  0  0  0  0  0
  148.2620  136.7433  155.1850 O   0  0  0  0  0  0  0  0  0  0  0  0
  150.2183  137.7747  154.7096 N   0  0  0  0  0  0  0  0  0  0  0  0
  151.6820  137.8859  154.6726 C   0  0  0  0  0  0  0  0  0  0  0  0
  152.1169  138.9728  155.6729 C   0  0  0  0  0  0  0  0  0  0  0  0
  151.4854  140.2085  155.3506 O   0  0  0  0  0  0  0  0  0  0  0  0
  150.0634  140.1241  155.3626 C   0  0  0  0  0  0  0  0  0  0  0  0
  149.6044  139.0587  154.3519 C   0  0  0  0  0  0  0  0  0  0  0  0
  148.8328  131.7459  153.2573 H   0  0  0  0  0  0  0  0  0  0  0  0
  148.4263  131.7092  154.9706 H   0  0  0  0  0  0  0  0  0  0  0  0
  150.0959  131.9488  154.4584 H   0  0  0  0  0  0  0  0  0  0  0  0
  149.4537  134.1343  153.4071 H   0  0  0  0  0  0  0  0  0  0  0  0
  146.7619  133.9440  154.8296 H   0  0  0  0  0  0  0  0  0  0  0  0
  147.3104  135.1865  153.7281 H   0  0  0  0  0  0  0  0  0  0  0  0
  146.9908  134.8086  151.1980 H   0  0  0  0  0  0  0  0  0  0  0  0
  145.7780  132.8210  149.7735 H   0  0  0  0  0  0  0  0  0  0  0  0
  145.3948  130.8394  151.6728 H   0  0  0  0  0  0  0  0  0  0  0  0
  149.5529  133.5116  156.1056 H   0  0  0  0  0  0  0  0  0  0  0  0
  150.8794  135.1280  154.6127 H   0  0  0  0  0  0  0  0  0  0  0  0
  151.6631  136.3390  156.7391 H   0  0  0  0  0  0  0  0  0  0  0  0
  151.5623  134.6070  156.9707 H   0  0  0  0  0  0  0  0  0  0  0  0
  150.2924  135.6496  157.5965 H   0  0  0  0  0  0  0  0  0  0  0  0
  152.2096  136.9656  154.9101 H   0  0  0  0  0  0  0  0  0  0  0  0
  151.9953  138.1578  153.6635 H   0  0  0  0  0  0  0  0  0  0  0  0
  151.8668  138.6837  156.6949 H   0  0  0  0  0  0  0  0  0  0  0  0
  153.1977  139.1091  155.6359 H   0  0  0  0  0  0  0  0  0  0  0  0
  149.7101  139.8862  156.3672 H   0  0  0  0  0  0  0  0  0  0  0  0
  149.6503  141.0979  155.0993 H   0  0  0  0  0  0  0  0  0  0  0  0
  149.9161  139.3388  153.3447 H   0  0  0  0  0  0  0  0  0  0  0  0
  148.5147  139.0228  154.3279 H   0  0  0  0  0  0  0  0  0  0  0  0
  1  2  1  0  0  0  0
  1 20  1  0  0  0  0
  1 21  1  0  0  0  0
  1 22  1  0  0  0  0
  2  3  1  0  0  0  0
  2  9  1  0  0  0  0
  2 23  1  0  0  0  0
  3  4  1  0  0  0  0
  3 24  1  0  0  0  0
  3 25  1  0  0  0  0
  4  8  1  0  0  0  0
  4  5  1  0  0  0  0
  5  6  2  0  0  0  0
  5 26  1  0  0  0  0
  6  7  1  0  0  0  0
  6 27  1  0  0  0  0
  7  8  2  0  0  0  0
  7 28  1  0  0  0  0
  9 10  1  0  0  0  0
  9 29  1  0  0  0  0
 10 11  1  0  0  0  0
 10 12  1  0  0  0  0
 10 30  1  0  0  0  0
 11 31  1  0  0  0  0
 11 32  1  0  0  0  0
 11 33  1  0  0  0  0
 12 13  2  0  0  0  0
 12 14  1  0  0  0  0
 14 19  1  0  0  0  0
 14 15  1  0  0  0  0
 15 16  1  0  0  0  0
 15 34  1  0  0  0  0
 15 35  1  0  0  0  0
 16 17  1  0  0  0  0
 16 36  1  0  0  0  0
 16 37  1  0  0  0  0
 17 18  1  0  0  0  0
 18 19  1  0  0  0  0
 18 38  1  0  0  0  0
 18 39  1  0  0  0  0
 19 40  1  0  0  0  0
 19 41  1  0  0  0  0
M  END
> <s_m_source_file>
AV-unprocessed.smi

> <i_m_source_file_index>
3336

> <i_lp_mmshare_version>
43012

> <i_f3d_flags>
0

> <s_epik_input>
bjFbY0hdW2NIXVtjSF1uMVtDSDJdW0NAQEhdKFtDSDNdKVtOSF1bQ0BIXShbQ0gzXSlDKD1PKU4yW0NIMl1bQ0gyXU9bQ0gyXVtDSDJdMg==

> <s_epik_cmdline>
J2VwaWtfcHl0aG9uJywgJy1waCcsICc3LjAnLCAnLXRuJywgJzgnLCAnLW1hJywgJzIwMCcsICctbWV0YWxfYmluZGluZycsICctaW1hZScsICc8aW5maWxlLm1hZT4nLCAnLW9tYWUnLCAnPG91dGZpbGUubWFlPic=

> <r_lp_tautomer_probability>
1

> <r_epik_Ionization_Penalty>
0.739958

> <r_epik_Ionization_Penalty_Charging>
0

> <r_epik_Ionization_Penalty_Neutral>
0.739958

> <r_epik_State_Penalty>
0.765967

> <r_epik_Charging_Adjusted_Penalty>
0.765967

> <i_epik_Tot_Q>
0

> <i_epik_Tot_abs_Q>
0

> <r_epik_Metal_State_Penalty>
0.765947

> <b_epik_Metal_Only>
0

> <s_lp_Force_Field>
OPLS_2005

> <r_lp_Energy>
30.7433

> <b_lp_Chiralities_Consistent>
1

> <s_lp_Variant>
AV-unprocessed.smi:3336-6

> <Gold.Version>
5.8.1

> <Gold.Id.Protein>
6NUR|6NUR_protein|mol2

> <Gold.PLP.Fitness>
36.9866

> <Gold.PLP.PLP>
-34.0833

> <Gold.PLP.part.hbond>
-1.0000

> <Gold.PLP.part.metal>
0.0000

> <Gold.PLP.part.buried>
-3.2733

> <Gold.PLP.part.nonpolar>
-30.8318

> <Gold.PLP.part.repulsive>
0.2832

> <Gold.PLP.ligand.clash>
0.0000

> <Gold.PLP.ligand.torsion>
1.5896

> <Gold.PLP.Chemscore.Hbond>
1.0000

> <Gold.PLP.Chemscore.CHOScore>
1.0000

> <Gold.PLP.Chemscore.Metal>
0.0000

> <Gold.Chemscore.Hbonds>
donor molecule, donor type, donor heavy atom, donor atom, acceptor molecule, acceptor atom, score
      P1  H  7989  7998       L1    17  0.83
      L1  C     5    26       P1  7948  1.00

> <Gold.PLP.Chemscore.Internal.Correction>
0.0826

> <Gold.Rescore>
     Score         DG    S(hbond)    S(metal)    S(lipo)     H(rot)  DE(clash)    DE(int)     intcor
     10.29     -12.23       0.69        0.00      77.15       1.79       0.11       1.83       ----

> <Gold.Chemscore.Fitness>
10.2882

> <Gold.Chemscore.DG>
-12.2301

> <Gold.Chemscore.ZeroCoef>
-5.4800

> <Gold.Chemscore.Hbond>
0.6929

> <Gold.Chemscore.Metal>
0.0000

> <Gold.Chemscore.Lipo>
77.1547

> <Gold.Chemscore.Internal_Hbond>
0.0000

> <Gold.Chemscore.DEClash>
0.1083

> <Gold.Chemscore.DEInternal>
1.8336

> <Gold.Chemscore.Rot>
1.7935

> <Gold.Chemscore.Internal.Correction>
   9.000000E+99

> <Gold.Chemscore.Hbonds>
donor molecule, donor type, donor heavy atom, donor atom, acceptor molecule, acceptor atom, score
      P1  H  7989  7998       L1    17  0.13

> <Gold.Chemscore.Hbond.Weighted>
-2.3142

> <Gold.Chemscore.Metal.Weighted>
-0.0000

> <Gold.Chemscore.Lipo.Weighted>
-9.0271

> <Gold.Chemscore.Internal_Hbond.Weighted>
0.0000

> <Gold.Chemscore.DEClash.Weighted>
0.1083

> <Gold.Chemscore.DEInternal.Weighted>
1.8336

> <Gold.Chemscore.Rot.Weighted>
4.5912

> <Gold.Chemscore.Internal.Correction.Weighted>
   9.000000E+99

> <Gold.Protein.RotatedTorsions>
[ 6907 6896 6895 6894 ] final -124.26 input  -60.11 | X-H torsion
[ 7974 7965 7964 7962 ] final  165.84 input  175.53 | X-H torsion
[ 8008 7997 7996 7995 ] final   84.58 input   59.86 | X-H torsion
[ 10167 10162 10161 10158 ] final  159.53 input  -65.29 | X-H torsion
[ 10718 10713 10712 10709 ] final  147.66 input   66.30 | X-H torsion
[ 10763 10752 10751 10750 ] final   31.31 input  -60.55 | X-H torsion
[ 11005 11000 10999 10996 ] final -100.32 input  -57.11 | X-H torsion

> <Gold.Protein.ActiveResidues>
 VAL166  LYS551  ARG553  GLY616  TRP617  ASP618  TYR619  PRO620  LYS621  CYS622 
 ASP623  PHE694  ASN695  SER759  ASP760  ASP761  ALA762  ILE779  LEU786  VAL792 
 PHE793  MET794  SER795  GLU796  ALA797  LYS798  CYS799  TRP800  GLU811  SER814 

> <Gold.Protein.RotatedAtoms>
  150.8750  133.7451  159.2949 H   0  0  0  0  0  0  0  0  0  0  0  0  # atno 6907 bound_to 6896
  151.5051  135.1061  159.9848 H   0  0  0  0  0  0  0  0  0  0  0  0  # atno 6908 bound_to 6896
  152.4721  133.8009  159.7008 H   0  0  0  0  0  0  0  0  0  0  0  0  # atno 6909 bound_to 6896
  144.7486  139.8529  143.6374 H   0  0  0  0  0  0  0  0  0  0  0  0  # atno 7974 bound_to 7965
  155.9389  140.3409  155.6311 H   0  0  0  0  0  0  0  0  0  0  0  0  # atno 8008 bound_to 7997
  155.7064  140.0766  157.2407 H   0  0  0  0  0  0  0  0  0  0  0  0  # atno 8009 bound_to 7997
  154.4099  140.1630  156.2235 H   0  0  0  0  0  0  0  0  0  0  0  0  # atno 8010 bound_to 7997
  139.4833  144.4721  151.8561 H   0  0  0  0  0  0  0  0  0  0  0  0  # atno 10167 bound_to 10162
  157.3183  131.0900  151.1261 H   0  0  0  0  0  0  0  0  0  0  0  0  # atno 10718 bound_to 10713
  153.0323  135.6442  154.1179 H   0  0  0  0  0  0  0  0  0  0  0  0  # atno 10763 bound_to 10752
  154.0899  135.2867  155.3275 H   0  0  0  0  0  0  0  0  0  0  0  0  # atno 10764 bound_to 10752
  154.6472  135.5439  153.7922 H   0  0  0  0  0  0  0  0  0  0  0  0  # atno 10765 bound_to 10752
  141.1275  133.8390  157.1087 H   0  0  0  0  0  0  0  0  0  0  0  0  # atno 11005 bound_to 11000
  146.1403  139.4458  143.0113 LP  0  0  0  0  0  0  0  0  0  0  0  0  # atno 17320 bound_to 7965
  145.7028  141.0130  143.1495 LP  0  0  0  0  0  0  0  0  0  0  0  0  # atno 17321 bound_to 7965
  140.4191  144.2267  150.5887 LP  0  0  0  0  0  0  0  0  0  0  0  0  # atno 17342 bound_to 10162
  140.4891  143.2353  151.8844 LP  0  0  0  0  0  0  0  0  0  0  0  0  # atno 17343 bound_to 10162
  157.2556  130.6635  149.5951 LP  0  0  0  0  0  0  0  0  0  0  0  0  # atno 17370 bound_to 10713
  155.9683  130.4524  150.5774 LP  0  0  0  0  0  0  0  0  0  0  0  0  # atno 17371 bound_to 10713
  140.0288  134.9911  157.0740 LP  0  0  0  0  0  0  0  0  0  0  0  0  # atno 17394 bound_to 11000
  140.4318  134.1772  155.7168 LP  0  0  0  0  0  0  0  0  0  0  0  0  # atno 17395 bound_to 11000

$$$$
