#       Name:                AV-unprocessed.smi:2709
#       Creating user name   scv26
#       Creation time:       Fri Mar 27 14:50:22 2020


#       File generated by GOLD software.
#

@<TRIPOS>MOLECULE
AV-unprocessed.smi:2709
    46    48     1
SMALL
NO_CHARGES


@<TRIPOS>ATOM
      1 ****        -3.8579  -1.4931   4.1081 C.3            1 S1                 0.0000
      2 ****        -3.6375  -0.7891   2.8962 O.3            1 S1                 0.0000
      3 ****        -3.1687  -1.6093   1.8343 C.3            1 S1                 0.0000
      4 ****        -4.2721  -2.5200   1.2782 C.3            1 S1                 0.0000
      5 ****        -3.9142  -2.6969  -0.1926 C.3            1 S1                 0.0000
      6 ****        -3.3869  -1.3245  -0.6073 C.3            1 S1                 0.0000
      7 ****        -2.7094  -0.7351   0.6467 C.3            1 S1                 0.0000
      8 ****        -1.2535  -0.7580   0.5229 N.am           1 S1                 0.0000
      9 ****        -0.5241   0.1293  -0.1675 C.2            1 S1                 0.0000
     10 ****        -1.0122   1.0753  -0.7850 O.2            1 S1                 0.0000
     11 ****         0.7876  -0.1483  -0.0788 N.am           1 S1                 0.0000
     12 ****         1.8769   0.5269  -0.6922 C.ar           1 S1                 0.0000
     13 ****         3.1825   0.2934  -0.2115 C.ar           1 S1                 0.0000
     14 ****         4.2647   0.8890  -0.7568 N.ar           1 S1                 0.0000
     15 ****         4.0439   1.7189  -1.7800 C.ar           1 S1                 0.0000
     16 ****         5.2479   2.3509  -2.4068 C.3            1 S1                 0.0000
     17 ****         6.2210   3.1636  -1.5767 C.3            1 S1                 0.0000
     18 ****         5.3336   3.8542  -2.5741 C.3            1 S1                 0.0000
     19 ****         2.8625   1.9981  -2.3374 N.ar           1 S1                 0.0000
     20 ****         1.7741   1.4083  -1.7968 C.ar           1 S1                 0.0000
     21 ****        -4.1850  -0.7956   4.8789 H              1 S1                 0.0000
     22 ****        -2.9430  -1.9728   4.4578 H              1 S1                 0.0000
     23 ****        -4.6315  -2.2534   3.9972 H              1 S1                 0.0000
     24 ****        -2.3362  -2.2275   2.1780 H              1 S1                 0.0000
     25 ****        -4.3436  -3.4693   1.8098 H              1 S1                 0.0000
     26 ****        -5.2397  -2.0217   1.3553 H              1 S1                 0.0000
     27 ****        -3.1249  -3.4428  -0.2938 H              1 S1                 0.0000
     28 ****        -4.7623  -3.0209  -0.7960 H              1 S1                 0.0000
     29 ****        -2.7284  -1.3840  -1.4749 H              1 S1                 0.0000
     30 ****        -4.2277  -0.6896  -0.8897 H              1 S1                 0.0000
     31 ****        -3.0453   0.2945   0.7872 H              1 S1                 0.0000
     32 ****        -0.7691  -1.5002   1.0058 H              1 S1                 0.0000
     33 ****         1.0394  -0.9148   0.5279 H              1 S1                 0.0000
     34 ****         3.3622  -0.3756   0.6174 H              1 S1                 0.0000
     35 ****         5.6541   1.7269  -3.2006 H              1 S1                 0.0000
     36 ****         5.9940   3.3072  -0.5221 H              1 S1                 0.0000
     37 ****         7.2786   3.0805  -1.8183 H              1 S1                 0.0000
     38 ****         5.7957   4.2310  -3.4841 H              1 S1                 0.0000
     39 ****         4.5166   4.4569  -2.1822 H              1 S1                 0.0000
     40 ****         0.8360   1.6392  -2.2765 H              1 S1                 0.0000
     41 ****        -2.9591  -0.0742   3.0656 LP             1 S1                 0.0000
     42 ****        -4.5002  -0.3698   2.6136 LP             1 S1                 0.0000
     43 ****        -2.0027   1.2124  -0.7884 LP             1 S1                 0.0000
     44 ****        -0.4182   1.7068  -1.2834 LP             1 S1                 0.0000
     45 ****         5.1873   0.7170  -0.4112 LP             1 S1                 0.0000
     46 ****         2.7872   2.6161  -3.1199 LP             1 S1                 0.0000
@<TRIPOS>BOND
    1    1    2 1     
    2    1   21 1     
    3    1   22 1     
    4    1   23 1     
    5    2    3 1     
    6    3    7 1     
    7    3    4 1     
    8    3   24 1     
    9    4    5 1     
   10    4   25 1     
   11    4   26 1     
   12    5    6 1     
   13    5   27 1     
   14    5   28 1     
   15    6    7 1     
   16    6   29 1     
   17    6   30 1     
   18    7    8 1     
   19    7   31 1     
   20    8    9 am    
   21    8   32 1     
   22    9   10 2     
   23    9   11 am    
   24   11   12 1     
   25   11   33 1     
   26   12   20 ar    
   27   12   13 ar    
   28   13   14 ar    
   29   13   34 1     
   30   14   15 ar    
   31   15   16 1     
   32   15   19 ar    
   33   16   18 1     
   34   16   17 1     
   35   16   35 1     
   36   17   18 1     
   37   17   36 1     
   38   17   37 1     
   39   18   38 1     
   40   18   39 1     
   41   19   20 ar    
   42   20   40 1     
   43    2   41 1     
   44    2   42 1     
   45   10   43 1     
   46   10   44 1     
   47   14   45 1     
   48   19   46 1     
@<TRIPOS>SUBSTRUCTURE
      1 S1             1
@<TRIPOS>SET
LONE_PAIRS      STATIC     ATOMS    <user>   **** ""
6 41 42 43 44 45 46
DONOR_HYDROGENS      STATIC     ATOMS    <user>   **** ""
2 32 33
ATOM$BLUE        STATIC     ATOMS    COLORGROUP SYSTEM
6 41 42 43 44 45 46
ATOM$RED        STATIC     ATOMS    COLORGROUP SYSTEM
2 32 33
