AV-unprocessed.smi:2868|AV-procd|sdf|11027|dock1
  -GOLD-   2272015493D 1   1.00000     0.00000
 Structure written by MMmdl.
 49 50  0  0  0  0  0  0  0  0  1 V2000
  152.4386  145.0965  159.1660 C   0  0  0  0  0  0  0  0  0  0  0  0
  151.5172  144.1007  159.8919 C   0  0  0  0  0  0  0  0  0  0  0  0
  151.9270  144.0317  161.3782 C   0  0  0  0  0  0  0  0  0  0  0  0
  150.0560  144.5770  159.7511 C   0  0  0  0  0  0  0  0  0  0  0  0
  151.7036  142.7977  159.2423 N   0  0  0  0  0  0  0  0  0  0  0  0
  151.7188  142.5048  157.9272 C   0  0  0  0  0  0  0  0  0  0  0  0
  151.5809  143.3623  157.0541 O   0  0  0  0  0  0  0  0  0  0  0  0
  151.9134  141.1909  157.6457 N   0  0  0  0  0  0  0  0  0  0  0  0
  152.1741  140.1164  158.6188 C   0  0  0  0  0  0  0  0  0  0  0  0
  150.8977  139.2706  158.7753 C   0  0  0  0  0  0  0  0  0  0  0  0
  150.4242  138.7117  157.4157 C   0  0  0  0  0  0  0  0  0  0  0  0
  149.1195  138.0775  157.5759 N   0  0  0  0  0  0  0  0  0  0  0  0
  148.8498  137.0547  158.4020 C   0  0  0  0  0  0  0  0  0  0  0  0
  149.6925  136.5232  159.1245 O   0  0  0  0  0  0  0  0  0  0  0  0
  147.4046  136.5571  158.4209 C   0  0  0  0  0  0  0  0  0  0  0  0
  147.1129  135.8413  159.7271 C   0  0  0  0  0  0  0  0  0  0  0  0
  146.9821  136.5586  160.9345 C   0  0  0  0  0  0  0  0  0  0  0  0
  146.7133  135.8481  162.1202 C   0  0  0  0  0  0  0  0  0  0  0  0
  146.5855  134.4466  162.0478 C   0  0  0  0  0  0  0  0  0  0  0  0
  146.7080  133.7493  160.8979 N   0  0  0  0  0  0  0  0  0  0  0  0
  146.9668  134.4380  159.7655 C   0  0  0  0  0  0  0  0  0  0  0  0
  150.3667  139.8196  156.3379 C   0  0  0  0  0  0  0  0  0  0  0  0
  151.6700  140.6385  156.3077 C   0  0  0  0  0  0  0  0  0  0  0  0
  152.3517  146.0984  159.5879 H   0  0  0  0  0  0  0  0  0  0  0  0
  152.1935  145.1660  158.1054 H   0  0  0  0  0  0  0  0  0  0  0  0
  153.4855  144.7995  159.2425 H   0  0  0  0  0  0  0  0  0  0  0  0
  152.9462  143.6605  161.4924 H   0  0  0  0  0  0  0  0  0  0  0  0
  151.2718  143.3791  161.9551 H   0  0  0  0  0  0  0  0  0  0  0  0
  151.8838  145.0171  161.8431 H   0  0  0  0  0  0  0  0  0  0  0  0
  149.9343  145.5896  160.1375 H   0  0  0  0  0  0  0  0  0  0  0  0
  149.3621  143.9415  160.3011 H   0  0  0  0  0  0  0  0  0  0  0  0
  149.7399  144.5848  158.7074 H   0  0  0  0  0  0  0  0  0  0  0  0
  151.8330  142.0185  159.8711 H   0  0  0  0  0  0  0  0  0  0  0  0
  152.9891  139.4913  158.2509 H   0  0  0  0  0  0  0  0  0  0  0  0
  152.5055  140.4715  159.5944 H   0  0  0  0  0  0  0  0  0  0  0  0
  151.0767  138.4520  159.4733 H   0  0  0  0  0  0  0  0  0  0  0  0
  150.1137  139.8877  159.2173 H   0  0  0  0  0  0  0  0  0  0  0  0
  151.1490  137.9595  157.0979 H   0  0  0  0  0  0  0  0  0  0  0  0
  148.3622  138.4488  157.0211 H   0  0  0  0  0  0  0  0  0  0  0  0
  146.7128  137.3906  158.2900 H   0  0  0  0  0  0  0  0  0  0  0  0
  147.2418  135.8789  157.5822 H   0  0  0  0  0  0  0  0  0  0  0  0
  147.0886  137.6334  160.9533 H   0  0  0  0  0  0  0  0  0  0  0  0
  146.6082  136.3647  163.0628 H   0  0  0  0  0  0  0  0  0  0  0  0
  146.3793  133.8701  162.9375 H   0  0  0  0  0  0  0  0  0  0  0  0
  147.0615  133.8511  158.8637 H   0  0  0  0  0  0  0  0  0  0  0  0
  150.1829  139.3828  155.3558 H   0  0  0  0  0  0  0  0  0  0  0  0
  149.5290  140.4894  156.5394 H   0  0  0  0  0  0  0  0  0  0  0  0
  151.6088  141.4079  155.5368 H   0  0  0  0  0  0  0  0  0  0  0  0
  152.5066  140.0005  156.0191 H   0  0  0  0  0  0  0  0  0  0  0  0
  1  2  1  0  0  0  0
  1 24  1  0  0  0  0
  1 25  1  0  0  0  0
  1 26  1  0  0  0  0
  2  3  1  0  0  0  0
  2  4  1  0  0  0  0
  2  5  1  0  0  0  0
  3 27  1  0  0  0  0
  3 28  1  0  0  0  0
  3 29  1  0  0  0  0
  4 30  1  0  0  0  0
  4 31  1  0  0  0  0
  4 32  1  0  0  0  0
  5  6  1  0  0  0  0
  5 33  1  0  0  0  0
  6  7  2  0  0  0  0
  6  8  1  0  0  0  0
  8 23  1  0  0  0  0
  8  9  1  0  0  0  0
  9 10  1  0  0  0  0
  9 34  1  0  0  0  0
  9 35  1  0  0  0  0
 10 11  1  0  0  0  0
 10 36  1  0  0  0  0
 10 37  1  0  0  0  0
 11 12  1  0  0  0  0
 11 22  1  0  0  0  0
 11 38  1  0  0  0  0
 12 13  1  0  0  0  0
 12 39  1  0  0  0  0
 13 14  2  0  0  0  0
 13 15  1  0  0  0  0
 15 16  1  0  0  0  0
 15 40  1  0  0  0  0
 15 41  1  0  0  0  0
 16 21  1  0  0  0  0
 16 17  2  0  0  0  0
 17 18  1  0  0  0  0
 17 42  1  0  0  0  0
 18 19  2  0  0  0  0
 18 43  1  0  0  0  0
 19 20  1  0  0  0  0
 19 44  1  0  0  0  0
 20 21  2  0  0  0  0
 21 45  1  0  0  0  0
 22 23  1  0  0  0  0
 22 46  1  0  0  0  0
 22 47  1  0  0  0  0
 23 48  1  0  0  0  0
 23 49  1  0  0  0  0
M  END
> <s_m_source_file>
AV-unprocessed.smi

> <i_m_source_file_index>
2868

> <i_lp_mmshare_version>
43012

> <i_f3d_flags>
0

> <s_epik_input>
W0NIM11DKFtDSDNdKShbQ0gzXSlbTkhdQyg9TylOMVtDSDJdW0NIMl1bQ0hdKFtDSDJdW0NIMl0xKVtOSF1DKD1PKVtDSDJdYzJbY0hdW2NIXVtjSF1uW2NIXTI=

> <s_epik_cmdline>
J2VwaWtfcHl0aG9uJywgJy1waCcsICc3LjAnLCAnLXRuJywgJzgnLCAnLW1hJywgJzIwMCcsICctbWV0YWxfYmluZGluZycsICctaW1hZScsICc8aW5maWxlLm1hZT4nLCAnLW9tYWUnLCAnPG91dGZpbGUubWFlPic=

> <r_epik_Ionization_Penalty>
0.00419782

> <r_epik_Ionization_Penalty_Charging>
0

> <r_epik_Ionization_Penalty_Neutral>
0.00419782

> <r_epik_State_Penalty>
0.0029617

> <r_epik_Charging_Adjusted_Penalty>
0.0029617

> <i_epik_Tot_Q>
0

> <i_epik_Tot_abs_Q>
0

> <r_epik_Metal_State_Penalty>
-0

> <b_epik_Metal_Only>
0

> <s_lp_Force_Field>
OPLS_2005

> <r_lp_Energy>
29.348

> <b_lp_Chiralities_Consistent>
1

> <s_lp_Variant>
AV-unprocessed.smi:2868-1

> <Gold.Version>
5.8.1

> <Gold.Id.Protein>
6NUR|6NUR_protein|mol2

> <Gold.PLP.Fitness>
46.0839

> <Gold.PLP.PLP>
-44.4732

> <Gold.PLP.part.hbond>
-1.0000

> <Gold.PLP.part.metal>
0.0000

> <Gold.PLP.part.buried>
-8.2459

> <Gold.PLP.part.nonpolar>
-35.8887

> <Gold.PLP.part.repulsive>
1.1689

> <Gold.PLP.ligand.clash>
0.0000

> <Gold.PLP.ligand.torsion>
0.7315

> <Gold.PLP.Chemscore.Hbond>
1.0000

> <Gold.PLP.Chemscore.CHOScore>
0.0000

> <Gold.PLP.Chemscore.Metal>
0.0000

> <Gold.Chemscore.Hbonds>
donor molecule, donor type, donor heavy atom, donor atom, acceptor molecule, acceptor atom, score
      P1  H  6896  6909       L1    14  0.81

> <Gold.PLP.Chemscore.Internal.Correction>
0.0736

> <Gold.Rescore>
     Score         DG    S(hbond)    S(metal)    S(lipo)     H(rot)  DE(clash)    DE(int)     intcor
     15.55     -17.79       1.00        0.00     109.95       1.52       0.94       1.30       ----

> <Gold.Chemscore.Fitness>
15.5536

> <Gold.Chemscore.DG>
-17.7925

> <Gold.Chemscore.ZeroCoef>
-5.4800

> <Gold.Chemscore.Hbond>
0.9995

> <Gold.Chemscore.Metal>
0.0000

> <Gold.Chemscore.Lipo>
109.9529

> <Gold.Chemscore.Internal_Hbond>
0.0000

> <Gold.Chemscore.DEClash>
0.9392

> <Gold.Chemscore.DEInternal>
1.2997

> <Gold.Chemscore.Rot>
1.5197

> <Gold.Chemscore.Internal.Correction>
   9.000000E+99

> <Gold.Chemscore.Hbonds>
donor molecule, donor type, donor heavy atom, donor atom, acceptor molecule, acceptor atom, score
      P1  H  6896  6909       L1    14  0.80

> <Gold.Chemscore.Hbond.Weighted>
-3.3384

> <Gold.Chemscore.Metal.Weighted>
-0.0000

> <Gold.Chemscore.Lipo.Weighted>
-12.8645

> <Gold.Chemscore.Internal_Hbond.Weighted>
0.0000

> <Gold.Chemscore.DEClash.Weighted>
0.9392

> <Gold.Chemscore.DEInternal.Weighted>
1.2997

> <Gold.Chemscore.Rot.Weighted>
3.8904

> <Gold.Chemscore.Internal.Correction.Weighted>
   9.000000E+99

> <Gold.Protein.RotatedTorsions>
[ 6907 6896 6895 6894 ] final   65.41 input  -60.11 | X-H torsion
[ 7974 7965 7964 7962 ] final -108.39 input  175.53 | X-H torsion
[ 8008 7997 7996 7995 ] final  107.36 input   59.86 | X-H torsion
[ 10167 10162 10161 10158 ] final  111.26 input  -65.29 | X-H torsion
[ 10718 10713 10712 10709 ] final  -25.28 input   66.30 | X-H torsion
[ 10763 10752 10751 10750 ] final -156.03 input  -60.55 | X-H torsion
[ 11005 11000 10999 10996 ] final  175.56 input  -57.11 | X-H torsion

> <Gold.Protein.ActiveResidues>
 VAL166  LYS551  ARG553  GLY616  TRP617  ASP618  TYR619  PRO620  LYS621  CYS622 
 ASP623  PHE694  ASN695  SER759  ASP760  ASP761  ALA762  ILE779  LEU786  VAL792 
 PHE793  MET794  SER795  GLU796  ALA797  LYS798  CYS799  TRP800  GLU811  SER814 

> <Gold.Protein.RotatedAtoms>
  152.4405  134.5600  159.9891 H   0  0  0  0  0  0  0  0  0  0  0  0  # atno 6907 bound_to 6896
  151.5699  133.3385  159.2995 H   0  0  0  0  0  0  0  0  0  0  0  0  # atno 6908 bound_to 6896
  150.8311  134.7598  159.6918 H   0  0  0  0  0  0  0  0  0  0  0  0  # atno 6909 bound_to 6896
  145.1935  140.9025  143.3411 H   0  0  0  0  0  0  0  0  0  0  0  0  # atno 7974 bound_to 7965
  156.1818  140.3096  155.9162 H   0  0  0  0  0  0  0  0  0  0  0  0  # atno 8008 bound_to 7997
  155.3368  140.0463  157.3061 H   0  0  0  0  0  0  0  0  0  0  0  0  # atno 8009 bound_to 7997
  154.5351  140.2243  155.8747 H   0  0  0  0  0  0  0  0  0  0  0  0  # atno 8010 bound_to 7997
  139.6625  144.7128  151.1839 H   0  0  0  0  0  0  0  0  0  0  0  0  # atno 10167 bound_to 10162
  156.4664  130.4515  149.6896 H   0  0  0  0  0  0  0  0  0  0  0  0  # atno 10718 bound_to 10713
  154.7743  135.3155  154.8124 H   0  0  0  0  0  0  0  0  0  0  0  0  # atno 10763 bound_to 10752
  153.8851  135.6831  153.4768 H   0  0  0  0  0  0  0  0  0  0  0  0  # atno 10764 bound_to 10752
  153.1364  135.4758  154.9364 H   0  0  0  0  0  0  0  0  0  0  0  0  # atno 10765 bound_to 10752
  140.3635  134.7092  157.4347 H   0  0  0  0  0  0  0  0  0  0  0  0  # atno 11005 bound_to 11000
  145.0018  139.3591  143.6164 LP  0  0  0  0  0  0  0  0  0  0  0  0  # atno 17320 bound_to 7965
  146.3431  139.9244  142.8762 LP  0  0  0  0  0  0  0  0  0  0  0  0  # atno 17321 bound_to 7965
  140.7586  143.5972  150.8736 LP  0  0  0  0  0  0  0  0  0  0  0  0  # atno 17342 bound_to 10162
  139.9630  143.6142  152.2996 LP  0  0  0  0  0  0  0  0  0  0  0  0  # atno 17343 bound_to 10162
  156.3663  130.7507  151.2486 LP  0  0  0  0  0  0  0  0  0  0  0  0  # atno 17370 bound_to 10713
  157.7494  131.0336  150.4278 LP  0  0  0  0  0  0  0  0  0  0  0  0  # atno 17371 bound_to 10713
  140.0607  134.5999  155.8752 LP  0  0  0  0  0  0  0  0  0  0  0  0  # atno 17394 bound_to 11000
  141.1977  133.6597  156.5753 LP  0  0  0  0  0  0  0  0  0  0  0  0  # atno 17395 bound_to 11000

$$$$
