#       Name:                AV-unprocessed.smi:3336
#       Creating user name   scv26
#       Creation time:       Fri Mar 27 19:24:39 2020


#       File generated by GOLD software.
#

@<TRIPOS>MOLECULE
AV-unprocessed.smi:3336
    47    48     1
SMALL
NO_CHARGES


@<TRIPOS>ATOM
      1 ****        -1.2042  -1.6114   2.6480 C.3            1 S1                 0.0000
      2 ****        -0.7815  -1.2541   1.2132 C.3            1 S1                 0.0000
      3 ****        -1.3073  -2.2716   0.1744 C.3            1 S1                 0.0000
      4 ****        -2.7499  -2.4264   0.2131 N.pl3          1 S1                 0.0000
      5 ****        -3.4865  -3.5297   0.5910 C.2            1 S1                 0.0000
      6 ****        -4.8050  -3.2028   0.4539 C.2            1 S1                 0.0000
      7 ****        -4.7739  -1.8640  -0.0273 C.2            1 S1                 0.0000
      8 ****        -3.5419  -1.4032  -0.1735 N.2            1 S1                 0.0000
      9 ****         0.6962  -1.1537   1.1517 N.4            1 S1                 1.0000
     10 ****         1.2551  -0.3130   0.0633 C.3            1 S1                 0.0000
     11 ****         2.7328  -0.6842  -0.1455 C.3            1 S1                 0.0000
     12 ****         1.1230   1.1936   0.3780 C.2            1 S1                 0.0000
     13 ****         1.0309   1.5300   1.5602 O.2            1 S1                 0.0000
     14 ****         1.1169   2.1050  -0.6274 N.am           1 S1                 0.0000
     15 ****         0.9849   3.5471  -0.3908 C.3            1 S1                 0.0000
     16 ****         2.2662   4.2471  -0.8765 C.3            1 S1                 0.0000
     17 ****         2.4684   3.9635  -2.2576 O.3            1 S1                 0.0000
     18 ****         2.5815   2.5695  -2.5275 C.3            1 S1                 0.0000
     19 ****         1.3084   1.8409  -2.0587 C.3            1 S1                 0.0000
     20 ****        -2.2882  -1.5943   2.7638 H              1 S1                 0.0000
     21 ****        -0.7946  -0.8989   3.3651 H              1 S1                 0.0000
     22 ****        -0.8547  -2.6054   2.9298 H              1 S1                 0.0000
     23 ****        -1.2042  -0.2732   0.9916 H              1 S1                 0.0000
     24 ****        -1.0339  -1.9770  -0.8388 H              1 S1                 0.0000
     25 ****        -0.8538  -3.2488   0.3451 H              1 S1                 0.0000
     26 ****        -3.0179  -4.4440   0.9248 H              1 S1                 0.0000
     27 ****        -5.6617  -3.8262   0.6631 H              1 S1                 0.0000
     28 ****        -5.6039  -1.2185  -0.2741 H              1 S1                 0.0000
     29 ****         1.0219  -0.7604   2.0236 H              1 S1                 0.0000
     30 ****         0.7006  -0.5554  -0.8406 H              1 S1                 0.0000
     31 ****         3.1844  -0.1146  -0.9575 H              1 S1                 0.0000
     32 ****         2.8375  -1.7402  -0.3960 H              1 S1                 0.0000
     33 ****         3.3219  -0.4986   0.7538 H              1 S1                 0.0000
     34 ****         0.1206   3.9247  -0.9396 H              1 S1                 0.0000
     35 ****         0.8073   3.7967   0.6558 H              1 S1                 0.0000
     36 ****         2.1795   5.3259  -0.7473 H              1 S1                 0.0000
     37 ****         3.1319   3.9230  -0.2965 H              1 S1                 0.0000
     38 ****         2.7232   2.4291  -3.5991 H              1 S1                 0.0000
     39 ****         3.4663   2.1658  -2.0328 H              1 S1                 0.0000
     40 ****         1.3957   0.7878  -2.3136 H              1 S1                 0.0000
     41 ****         0.4419   2.2107  -2.6090 H              1 S1                 0.0000
     42 ****         1.0668  -2.0890   1.0658 H              1 S1                 0.0000
     43 ****        -3.2606  -0.5000  -0.4975 LP             1 S1                 0.0000
     44 ****         1.0431   0.8358   2.2800 LP             1 S1                 0.0000
     45 ****         0.9440   2.4970   1.7996 LP             1 S1                 0.0000
     46 ****         3.3090   4.4153  -2.5562 LP             1 S1                 0.0000
     47 ****         1.6931   4.3265  -2.7745 LP             1 S1                 0.0000
@<TRIPOS>BOND
    1    1    2 1     
    2    1   20 1     
    3    1   21 1     
    4    1   22 1     
    5    2    3 1     
    6    2    9 1     
    7    2   23 1     
    8    3    4 1     
    9    3   24 1     
   10    3   25 1     
   11    4    8 1     
   12    4    5 1     
   13    5    6 2     
   14    5   26 1     
   15    6    7 1     
   16    6   27 1     
   17    7    8 2     
   18    7   28 1     
   19    9   10 1     
   20    9   29 1     
   21    9   42 1     
   22   10   11 1     
   23   10   12 1     
   24   10   30 1     
   25   11   31 1     
   26   11   32 1     
   27   11   33 1     
   28   12   13 2     
   29   12   14 am    
   30   14   19 1     
   31   14   15 1     
   32   15   16 1     
   33   15   34 1     
   34   15   35 1     
   35   16   17 1     
   36   16   36 1     
   37   16   37 1     
   38   17   18 1     
   39   18   19 1     
   40   18   38 1     
   41   18   39 1     
   42   19   40 1     
   43   19   41 1     
   44    8   43 1     
   45   13   44 1     
   46   13   45 1     
   47   17   46 1     
   48   17   47 1     
@<TRIPOS>SUBSTRUCTURE
      1 S1             1
@<TRIPOS>SET
LONE_PAIRS      STATIC     ATOMS    <user>   **** ""
5 43 44 45 46 47
DONOR_HYDROGENS      STATIC     ATOMS    <user>   **** ""
2 29 42
ATOM$BLUE        STATIC     ATOMS    COLORGROUP SYSTEM
5 43 44 45 46 47
ATOM$RED        STATIC     ATOMS    COLORGROUP SYSTEM
2 29 42
