#       Name:                AV-unprocessed.smi:1529
#       Creating user name   scv26
#       Creation time:       Fri Mar 27 06:30:12 2020


#       File generated by GOLD software.
#

@<TRIPOS>MOLECULE
AV-unprocessed.smi:1529
    58    59     1
SMALL
NO_CHARGES


@<TRIPOS>ATOM
      1 ****        -7.4881   4.4913   0.0411 C.3            1 S1                 0.0000
      2 ****        -6.8945   3.2044   0.6033 C.2            1 S1                 0.0000
      3 ****        -6.4691   3.1724   1.7576 O.2            1 S1                 0.0000
      4 ****        -6.8712   2.1505  -0.2264 N.am           1 S1                 0.0000
      5 ****        -6.3489   0.8306   0.1087 C.3            1 S1                 0.0000
      6 ****        -4.8165   0.7791  -0.0044 C.3            1 S1                 0.0000
      7 ****        -4.2561  -0.6188   0.3038 C.3            1 S1                 0.0000
      8 ****        -2.8037  -0.6574   0.1777 N.am           1 S1                 0.0000
      9 ****        -1.9369  -0.2428   1.1163 C.2            1 S1                 0.0000
     10 ****        -2.2822   0.2060   2.2094 O.2            1 S1                 0.0000
     11 ****        -0.4838  -0.4226   0.7837 C.ar           1 S1                 0.0000
     12 ****        -0.0065  -0.3303  -0.5420 C.ar           1 S1                 0.0000
     13 ****         1.3710  -0.4888  -0.7876 C.ar           1 S1                 0.0000
     14 ****         2.2435  -0.7305   0.2995 C.ar           1 S1                 0.0000
     15 ****         3.6264  -0.9000   0.0741 N.3            1 S1                 0.0000
     16 ****         3.9844  -1.9187  -0.9076 C.3            1 S1                 0.0000
     17 ****         5.4556  -1.7615  -1.3308 C.3            1 S1                 0.0000
     18 ****         5.9056  -2.8935  -2.2604 C.3            1 S1                 0.0000
     19 ****         6.2916  -1.7808  -0.1743 O.3            1 S1                 0.0000
     20 ****         5.9916  -0.7768   0.7978 C.3            1 S1                 0.0000
     21 ****         6.3930   0.6312   0.3229 C.3            1 S1                 0.0000
     22 ****         4.5169  -0.8811   1.2328 C.3            1 S1                 0.0000
     23 ****         1.7857  -0.7980   1.5736 N.ar           1 S1                 0.0000
     24 ****         0.4647  -0.6450   1.8046 C.ar           1 S1                 0.0000
     25 ****        -6.9227   4.8217  -0.8307 H              1 S1                 0.0000
     26 ****        -7.4637   5.2879   0.7854 H              1 S1                 0.0000
     27 ****        -8.5250   4.3342  -0.2575 H              1 S1                 0.0000
     28 ****        -7.2466   2.2709  -1.1561 H              1 S1                 0.0000
     29 ****        -6.6677   0.5466   1.1130 H              1 S1                 0.0000
     30 ****        -6.7957   0.1081  -0.5746 H              1 S1                 0.0000
     31 ****        -4.5148   1.0785  -1.0090 H              1 S1                 0.0000
     32 ****        -4.3771   1.5067   0.6795 H              1 S1                 0.0000
     33 ****        -4.5539  -0.9386   1.3039 H              1 S1                 0.0000
     34 ****        -4.6736  -1.3473  -0.3915 H              1 S1                 0.0000
     35 ****        -2.4301  -1.0359  -0.6804 H              1 S1                 0.0000
     36 ****        -0.6760  -0.1354  -1.3673 H              1 S1                 0.0000
     37 ****         1.7426  -0.4076  -1.7982 H              1 S1                 0.0000
     38 ****         3.8244  -2.9020  -0.4628 H              1 S1                 0.0000
     39 ****         3.3517  -1.8668  -1.7926 H              1 S1                 0.0000
     40 ****         5.5845  -0.8188  -1.8627 H              1 S1                 0.0000
     41 ****         5.3053  -2.9168  -3.1701 H              1 S1                 0.0000
     42 ****         5.8136  -3.8647  -1.7733 H              1 S1                 0.0000
     43 ****         6.9476  -2.7651  -2.5539 H              1 S1                 0.0000
     44 ****         6.6091  -1.0025   1.6677 H              1 S1                 0.0000
     45 ****         6.2833   1.3560   1.1299 H              1 S1                 0.0000
     46 ****         5.7794   0.9791  -0.5076 H              1 S1                 0.0000
     47 ****         7.4346   0.6509   0.0021 H              1 S1                 0.0000
     48 ****         4.2701  -0.0487   1.8932 H              1 S1                 0.0000
     49 ****         4.3676  -1.7994   1.8028 H              1 S1                 0.0000
     50 ****         0.1621  -0.7091   2.8398 H              1 S1                 0.0000
     51 ****        -6.5123   3.9917   2.3292 LP             1 S1                 0.0000
     52 ****        -6.0803   2.3270   2.1239 LP             1 S1                 0.0000
     53 ****        -3.2535   0.2767   2.4366 LP             1 S1                 0.0000
     54 ****        -1.5915   0.4998   2.8700 LP             1 S1                 0.0000
     55 ****         3.8211  -0.0210  -0.3612 LP             1 S1                 0.0000
     56 ****         7.2377  -1.6531  -0.4720 LP             1 S1                 0.0000
     57 ****         6.1976  -2.6753   0.2628 LP             1 S1                 0.0000
     58 ****         2.4177  -0.9589   2.3316 LP             1 S1                 0.0000
@<TRIPOS>BOND
    1    1    2 1     
    2    1   25 1     
    3    1   26 1     
    4    1   27 1     
    5    2    3 2     
    6    2    4 am    
    7    4    5 1     
    8    4   28 1     
    9    5    6 1     
   10    5   29 1     
   11    5   30 1     
   12    6    7 1     
   13    6   31 1     
   14    6   32 1     
   15    7    8 1     
   16    7   33 1     
   17    7   34 1     
   18    8    9 am    
   19    8   35 1     
   20    9   10 2     
   21    9   11 1     
   22   11   24 ar    
   23   11   12 ar    
   24   12   13 ar    
   25   12   36 1     
   26   13   14 ar    
   27   13   37 1     
   28   14   15 1     
   29   14   23 ar    
   30   15   22 1     
   31   15   16 1     
   32   16   17 1     
   33   16   38 1     
   34   16   39 1     
   35   17   18 1     
   36   17   19 1     
   37   17   40 1     
   38   18   41 1     
   39   18   42 1     
   40   18   43 1     
   41   19   20 1     
   42   20   21 1     
   43   20   22 1     
   44   20   44 1     
   45   21   45 1     
   46   21   46 1     
   47   21   47 1     
   48   22   48 1     
   49   22   49 1     
   50   23   24 ar    
   51   24   50 1     
   52    3   51 1     
   53    3   52 1     
   54   10   53 1     
   55   10   54 1     
   56   15   55 1     
   57   19   56 1     
   58   19   57 1     
   59   23   58 1     
@<TRIPOS>SUBSTRUCTURE
      1 S1             1
@<TRIPOS>SET
LONE_PAIRS      STATIC     ATOMS    <user>   **** ""
8 51 52 53 54 55 56 57 58
DONOR_HYDROGENS      STATIC     ATOMS    <user>   **** ""
2 28 35
ATOM$BLUE        STATIC     ATOMS    COLORGROUP SYSTEM
8 51 52 53 54 55 56 57 58
ATOM$RED        STATIC     ATOMS    COLORGROUP SYSTEM
2 28 35
