#       Name:                AV-unprocessed.smi:1621
#       Creating user name   scv26
#       Creation time:       Fri Mar 27 07:15:55 2020


#       File generated by GOLD software.
#

@<TRIPOS>MOLECULE
AV-unprocessed.smi:1621
    42    43     1
SMALL
NO_CHARGES


@<TRIPOS>ATOM
      1 ****        -4.5551  -2.7799  -1.2010 C.3            1 S1                 0.0000
      2 ****        -3.0836  -2.6408  -1.1562 N.4            1 S1                 1.0000
      3 ****        -2.6239  -1.8962   0.0418 C.3            1 S1                 0.0000
      4 ****        -1.0885  -1.8728   0.1242 C.3            1 S1                 0.0000
      5 ****        -0.4661  -1.2762  -1.1541 C.3            1 S1                 0.0000
      6 ****         1.0771  -1.2723  -1.1212 C.3            1 S1                 0.0000
      7 ****         1.6164  -0.5086   0.0002 N.am           1 S1                 0.0000
      8 ****         1.7174   0.8277   0.0453 C.2            1 S1                 0.0000
      9 ****         1.3500   1.5640  -0.8694 O.2            1 S1                 0.0000
     10 ****         2.2732   1.2338   1.2006 N.am           1 S1                 0.0000
     11 ****         2.5793   2.5533   1.6361 C.ar           1 S1                 0.0000
     12 ****         3.4598   2.6833   2.7335 C.ar           1 S1                 0.0000
     13 ****         3.7908   3.9665   3.2145 C.ar           1 S1                 0.0000
     14 ****         3.2594   5.0610   2.6295 N.pl3          1 S1                 1.0000
     15 ****         2.4048   4.9883   1.5869 C.ar           1 S1                 0.0000
     16 ****         2.0367   3.7323   1.0624 C.ar           1 S1                 0.0000
     17 ****        -0.9933  -2.0505  -2.3757 C.3            1 S1                 0.0000
     18 ****        -2.5308  -2.0706  -2.4095 C.3            1 S1                 0.0000
     19 ****        -5.0379  -1.8054  -1.2856 H              1 S1                 0.0000
     20 ****        -4.9228  -3.2668  -0.2971 H              1 S1                 0.0000
     21 ****        -4.8595  -3.3881  -2.0534 H              1 S1                 0.0000
     22 ****        -3.0139  -0.8772   0.0118 H              1 S1                 0.0000
     23 ****        -3.0286  -2.3648   0.9399 H              1 S1                 0.0000
     24 ****        -0.7877  -1.2973   1.0000 H              1 S1                 0.0000
     25 ****        -0.7156  -2.8864   0.2780 H              1 S1                 0.0000
     26 ****        -0.8062  -0.2434  -1.2457 H              1 S1                 0.0000
     27 ****         1.4497  -2.2940  -1.0411 H              1 S1                 0.0000
     28 ****         1.4758  -0.8755  -2.0566 H              1 S1                 0.0000
     29 ****         1.9482  -1.0397   0.7923 H              1 S1                 0.0000
     30 ****         2.5668   0.4980   1.8263 H              1 S1                 0.0000
     31 ****         3.8850   1.8080   3.2030 H              1 S1                 0.0000
     32 ****         4.4587   4.1486   4.0438 H              1 S1                 0.0000
     33 ****         2.0386   5.9312   1.2077 H              1 S1                 0.0000
     34 ****         1.3399   3.7049   0.2395 H              1 S1                 0.0000
     35 ****        -0.6147  -1.6013  -3.2946 H              1 S1                 0.0000
     36 ****        -0.6171  -3.0745  -2.3555 H              1 S1                 0.0000
     37 ****        -2.8675  -2.6649  -3.2599 H              1 S1                 0.0000
     38 ****        -2.9176  -1.0606  -2.5554 H              1 S1                 0.0000
     39 ****        -2.7101  -3.5760  -1.0758 H              1 S1                 0.0000
     40 ****         3.5111   5.9810   2.9922 H              1 S1                 0.0000
     41 ****         0.9529   1.1711  -1.6988 LP             1 S1                 0.0000
     42 ****         1.4486   2.5555  -0.7835 LP             1 S1                 0.0000
@<TRIPOS>BOND
    1    1    2 1     
    2    1   19 1     
    3    1   20 1     
    4    1   21 1     
    5    2   18 1     
    6    2    3 1     
    7    2   39 1     
    8    3    4 1     
    9    3   22 1     
   10    3   23 1     
   11    4    5 1     
   12    4   24 1     
   13    4   25 1     
   14    5    6 1     
   15    5   17 1     
   16    5   26 1     
   17    6    7 1     
   18    6   27 1     
   19    6   28 1     
   20    7    8 am    
   21    7   29 1     
   22    8    9 2     
   23    8   10 am    
   24   10   11 1     
   25   10   30 1     
   26   11   16 ar    
   27   11   12 ar    
   28   12   13 ar    
   29   12   31 1     
   30   13   14 ar    
   31   13   32 1     
   32   14   15 ar    
   33   14   40 1     
   34   15   16 ar    
   35   15   33 1     
   36   16   34 1     
   37   17   18 1     
   38   17   35 1     
   39   17   36 1     
   40   18   37 1     
   41   18   38 1     
   42    9   41 1     
   43    9   42 1     
@<TRIPOS>SUBSTRUCTURE
      1 S1             1
@<TRIPOS>SET
LONE_PAIRS      STATIC     ATOMS    <user>   **** ""
2 41 42
DONOR_HYDROGENS      STATIC     ATOMS    <user>   **** ""
4 39 29 30 40
ATOM$BLUE        STATIC     ATOMS    COLORGROUP SYSTEM
2 41 42
ATOM$RED        STATIC     ATOMS    COLORGROUP SYSTEM
4 39 29 30 40
