AV-unprocessed.smi:1451|AV-procd|sdf|5900|dock8
  -GOLD-   22720 5583D 1   1.00000     0.00000
 Structure written by MMmdl.
 47 48  0  0  0  0  0  0  0  0  2 V2000
  145.5820  136.0776  150.9106 C   0  0  0  0  0  0  0  0  0  0  0  0
  145.0147  135.1899  152.0323 C   0  0  1  0  0  0  0  0  0  0  0  0
  145.1477  133.6867  151.7261 C   0  0  0  0  0  0  0  0  0  0  0  0
  146.6006  133.2153  151.8785 C   0  0  0  0  0  0  0  0  0  0  0  0
  147.1604  133.5920  153.2590 C   0  0  0  0  0  0  0  0  0  0  0  0
  147.0430  135.0522  153.5018 N   0  3  2  0  0  0  0  0  0  0  0  0
  147.7166  135.4770  154.7565 C   0  0  0  0  0  0  0  0  0  0  0  0
  147.2811  134.6551  155.9853 C   0  0  0  0  0  0  0  0  0  0  0  0
  147.4717  135.4092  157.2210 N   0  0  0  0  0  0  0  0  0  0  0  0
  148.4965  135.2698  158.0798 C   0  0  0  0  0  0  0  0  0  0  0  0
  149.4431  134.5131  157.8706 O   0  0  0  0  0  0  0  0  0  0  0  0
  148.4518  136.0589  159.3992 C   0  0  0  0  0  0  0  0  0  0  0  0
  147.7661  135.3669  160.5052 N   0  0  0  0  0  0  0  0  0  0  0  0
  147.5338  133.9871  160.3398 C   0  0  0  0  0  0  0  0  0  0  0  0
  146.9127  133.2321  161.2650 C   0  0  0  0  0  0  0  0  0  0  0  0
  146.6331  131.7577  161.0215 C   0  0  0  0  0  0  0  0  0  0  0  0
  145.5150  131.3654  161.6323 F   0  0  0  0  0  0  0  0  0  0  0  0
  146.5043  131.5152  159.7164 F   0  0  0  0  0  0  0  0  0  0  0  0
  147.6433  131.0203  161.4807 F   0  0  0  0  0  0  0  0  0  0  0  0
  146.4692  133.9159  162.4644 C   0  0  0  0  0  0  0  0  0  0  0  0
  146.6698  135.2378  162.6315 C   0  0  0  0  0  0  0  0  0  0  0  0
  147.3445  136.0464  161.6135 C   0  0  0  0  0  0  0  0  0  0  0  0
  147.5105  137.2588  161.7432 O   0  0  0  0  0  0  0  0  0  0  0  0
  145.6331  135.5172  153.4075 C   0  0  0  0  0  0  0  0  0  0  0  0
  146.6597  135.9581  150.8000 H   0  0  0  0  0  0  0  0  0  0  0  0
  145.3872  137.1312  151.1110 H   0  0  0  0  0  0  0  0  0  0  0  0
  145.1220  135.8390  149.9514 H   0  0  0  0  0  0  0  0  0  0  0  0
  143.9490  135.4153  152.0913 H   0  0  0  0  0  0  0  0  0  0  0  0
  144.5169  133.1225  152.4144 H   0  0  0  0  0  0  0  0  0  0  0  0
  144.7800  133.4643  150.7238 H   0  0  0  0  0  0  0  0  0  0  0  0
  146.6570  132.1357  151.7374 H   0  0  0  0  0  0  0  0  0  0  0  0
  147.2184  133.6578  151.0967 H   0  0  0  0  0  0  0  0  0  0  0  0
  146.6327  133.0471  154.0435 H   0  0  0  0  0  0  0  0  0  0  0  0
  148.2074  133.2908  153.3106 H   0  0  0  0  0  0  0  0  0  0  0  0
  148.7999  135.4442  154.6332 H   0  0  0  0  0  0  0  0  0  0  0  0
  147.4646  136.5197  154.9551 H   0  0  0  0  0  0  0  0  0  0  0  0
  146.2473  134.3248  155.8759 H   0  0  0  0  0  0  0  0  0  0  0  0
  147.8783  133.7450  156.0455 H   0  0  0  0  0  0  0  0  0  0  0  0
  146.7460  136.0688  157.4630 H   0  0  0  0  0  0  0  0  0  0  0  0
  149.4782  136.2826  159.6950 H   0  0  0  0  0  0  0  0  0  0  0  0
  147.9998  137.0325  159.2025 H   0  0  0  0  0  0  0  0  0  0  0  0
  147.8827  133.5824  159.4004 H   0  0  0  0  0  0  0  0  0  0  0  0
  145.9705  133.3613  163.2459 H   0  0  0  0  0  0  0  0  0  0  0  0
  146.3274  135.7141  163.5388 H   0  0  0  0  0  0  0  0  0  0  0  0
  145.5733  136.5908  153.5852 H   0  0  0  0  0  0  0  0  0  0  0  0
  145.0494  135.0410  154.1970 H   0  0  0  0  0  0  0  0  0  0  0  0
  147.5457  135.5010  152.7495 H   0  0  0  0  0  0  0  0  0  0  0  0
  1  2  1  0  0  0  0
  1 25  1  0  0  0  0
  1 26  1  0  0  0  0
  1 27  1  0  0  0  0
  2 24  1  0  0  0  0
  2  3  1  0  0  0  0
  2 28  1  0  0  0  0
  3  4  1  0  0  0  0
  3 29  1  0  0  0  0
  3 30  1  0  0  0  0
  4  5  1  0  0  0  0
  4 31  1  0  0  0  0
  4 32  1  0  0  0  0
  5  6  1  0  0  0  0
  5 33  1  0  0  0  0
  5 34  1  0  0  0  0
  6  7  1  0  0  0  0
  6 24  1  0  0  0  0
  6 47  1  0  0  0  0
  7  8  1  0  0  0  0
  7 35  1  0  0  0  0
  7 36  1  0  0  0  0
  8  9  1  0  0  0  0
  8 37  1  0  0  0  0
  8 38  1  0  0  0  0
  9 10  1  0  0  0  0
  9 39  1  0  0  0  0
 10 11  2  0  0  0  0
 10 12  1  0  0  0  0
 12 13  1  0  0  0  0
 12 40  1  0  0  0  0
 12 41  1  0  0  0  0
 13 22  1  0  0  0  0
 13 14  1  0  0  0  0
 14 15  2  0  0  0  0
 14 42  1  0  0  0  0
 15 16  1  0  0  0  0
 15 20  1  0  0  0  0
 16 17  1  0  0  0  0
 16 18  1  0  0  0  0
 16 19  1  0  0  0  0
 20 21  2  0  0  0  0
 20 43  1  0  0  0  0
 21 22  1  0  0  0  0
 21 44  1  0  0  0  0
 22 23  2  0  0  0  0
 24 45  1  0  0  0  0
 24 46  1  0  0  0  0
M  CHG  1   6   1
M  END
> <s_m_source_file>
AV-unprocessed.smi

> <i_m_source_file_index>
1451

> <i_lp_mmshare_version>
43012

> <i_f3d_flags>
0

> <s_epik_input>
W0NIM11bQ0BASF0xW0NIMl1bQ0gyXVtDSDJdTihbQ0gyXTEpW0NIMl1bQ0gyXVtOSF1DKD1PKVtDSDJdbjJbY0hdYyhDKEYpKEYpRilbY0hdW2NIXWMyPU8=

> <s_epik_cmdline>
J2VwaWtfcHl0aG9uJywgJy1waCcsICc3LjAnLCAnLXRuJywgJzgnLCAnLW1hJywgJzIwMCcsICctbWV0YWxfYmluZGluZycsICctaW1hZScsICc8aW5maWxlLm1hZT4nLCAnLW9tYWUnLCAnPG91dGZpbGUubWFlPic=

> <r_lp_tautomer_probability>
1

> <r_epik_Ionization_Penalty>
0.00192452

> <r_epik_Ionization_Penalty_Charging>
0.00192444

> <r_epik_Ionization_Penalty_Neutral>
8.16761e-08

> <r_epik_State_Penalty>
0.00131115

> <r_epik_Charging_Adjusted_Penalty>
0.00323559

> <i_epik_Tot_Q>
1

> <i_epik_Tot_abs_Q>
1

> <r_epik_Metal_State_Penalty>
-0

> <b_epik_Metal_Only>
0

> <s_lp_Force_Field>
OPLS_2005

> <r_lp_Energy>
37.139

> <b_lp_Chiralities_Consistent>
1

> <s_lp_Variant>
AV-unprocessed.smi:1451-2

> <Gold.Version>
5.8.1

> <Gold.Id.Protein>
6NUR|6NUR_protein|mol2

> <Gold.PLP.Fitness>
50.2773

> <Gold.PLP.PLP>
-40.1624

> <Gold.PLP.part.hbond>
-4.0000

> <Gold.PLP.part.metal>
0.0000

> <Gold.PLP.part.buried>
-3.6021

> <Gold.PLP.part.nonpolar>
-32.4307

> <Gold.PLP.part.repulsive>
0.0031

> <Gold.PLP.ligand.clash>
0.0243

> <Gold.PLP.ligand.torsion>
2.0436

> <Gold.PLP.Chemscore.Hbond>
4.7280

> <Gold.PLP.Chemscore.CHOScore>
0.0000

> <Gold.PLP.Chemscore.Metal>
0.0000

> <Gold.Chemscore.Hbonds>
donor molecule, donor type, donor heavy atom, donor atom, acceptor molecule, acceptor atom, score
      L1  H     6    47       P1  7948  2.00
      P1  H  6896  6909       L1    11  1.00
      P1  H  6931  6943       L1    23  0.93
      P1  H  6934  6947       L1    23  0.75

> <Gold.PLP.Chemscore.Internal.Correction>
0.0424

> <Gold.Rescore>
     Score         DG    S(hbond)    S(metal)    S(lipo)     H(rot)  DE(clash)    DE(int)     intcor
     18.78     -20.71       3.63        0.00      72.03       2.08       0.00       1.92       ----

> <Gold.Chemscore.Fitness>
18.7839

> <Gold.Chemscore.DG>
-20.7056

> <Gold.Chemscore.ZeroCoef>
-5.4800

> <Gold.Chemscore.Hbond>
3.6268

> <Gold.Chemscore.Metal>
0.0000

> <Gold.Chemscore.Lipo>
72.0268

> <Gold.Chemscore.Internal_Hbond>
0.0000

> <Gold.Chemscore.DEClash>
0.0000

> <Gold.Chemscore.DEInternal>
1.9217

> <Gold.Chemscore.Rot>
2.0762

> <Gold.Chemscore.Internal.Correction>
   9.000000E+99

> <Gold.Chemscore.Hbonds>
donor molecule, donor type, donor heavy atom, donor atom, acceptor molecule, acceptor atom, score
      L1  H     6    47       P1  7948  0.99
      P1  H  6896  6909       L1    11  0.89
      P1  H  6931  6943       L1    23  0.90
      P1  H  6934  6947       L1    23  0.75

> <Gold.Chemscore.Hbond.Weighted>
-12.1135

> <Gold.Chemscore.Metal.Weighted>
-0.0000

> <Gold.Chemscore.Lipo.Weighted>
-8.4271

> <Gold.Chemscore.Internal_Hbond.Weighted>
0.0000

> <Gold.Chemscore.DEClash.Weighted>
0.0000

> <Gold.Chemscore.DEInternal.Weighted>
1.9217

> <Gold.Chemscore.Rot.Weighted>
5.3150

> <Gold.Chemscore.Internal.Correction.Weighted>
   9.000000E+99

> <Gold.Protein.RotatedTorsions>
[ 6907 6896 6895 6894 ] final   27.95 input  -60.11 | X-H torsion
[ 7974 7965 7964 7962 ] final -165.44 input  175.53 | X-H torsion
[ 8008 7997 7996 7995 ] final  -28.13 input   59.86 | X-H torsion
[ 10167 10162 10161 10158 ] final  -41.35 input  -65.29 | X-H torsion
[ 10718 10713 10712 10709 ] final -132.79 input   66.30 | X-H torsion
[ 10763 10752 10751 10750 ] final -121.74 input  -60.55 | X-H torsion
[ 11005 11000 10999 10996 ] final  -97.72 input  -57.11 | X-H torsion

> <Gold.Protein.ActiveResidues>
 VAL166  LYS551  ARG553  GLY616  TRP617  ASP618  TYR619  PRO620  LYS621  CYS622 
 ASP623  PHE694  ASN695  SER759  ASP760  ASP761  ALA762  ILE779  LEU786  VAL792 
 PHE793  MET794  SER795  GLU796  ALA797  LYS798  CYS799  TRP800  GLU811  SER814 

> <Gold.Protein.RotatedAtoms>
  152.0098  134.9882  160.0567 H   0  0  0  0  0  0  0  0  0  0  0  0  # atno 6907 bound_to 6896
  152.1439  133.4476  159.4788 H   0  0  0  0  0  0  0  0  0  0  0  0  # atno 6908 bound_to 6896
  150.6868  134.2189  159.4432 H   0  0  0  0  0  0  0  0  0  0  0  0  # atno 6909 bound_to 6896
  144.7270  140.2813  143.6235 H   0  0  0  0  0  0  0  0  0  0  0  0  # atno 7974 bound_to 7965
  154.4346  140.1853  156.1041 H   0  0  0  0  0  0  0  0  0  0  0  0  # atno 8008 bound_to 7997
  156.0269  140.3335  155.7072 H   0  0  0  0  0  0  0  0  0  0  0  0  # atno 8009 bound_to 7997
  155.5896  140.0629  157.2753 H   0  0  0  0  0  0  0  0  0  0  0  0  # atno 8010 bound_to 7997
  140.7005  143.3099  151.3055 H   0  0  0  0  0  0  0  0  0  0  0  0  # atno 10167 bound_to 10162
  156.2382  130.7079  151.0929 H   0  0  0  0  0  0  0  0  0  0  0  0  # atno 10718 bound_to 10713
  154.8675  135.4157  154.2668 H   0  0  0  0  0  0  0  0  0  0  0  0  # atno 10763 bound_to 10752
  153.3586  135.7002  153.6736 H   0  0  0  0  0  0  0  0  0  0  0  0  # atno 10764 bound_to 10752
  153.5646  135.3603  155.2786 H   0  0  0  0  0  0  0  0  0  0  0  0  # atno 10765 bound_to 10752
  141.1369  133.8191  157.0743 H   0  0  0  0  0  0  0  0  0  0  0  0  # atno 11005 bound_to 11000
  145.7946  139.1940  143.2083 LP  0  0  0  0  0  0  0  0  0  0  0  0  # atno 17320 bound_to 7965
  146.0727  140.7851  142.9680 LP  0  0  0  0  0  0  0  0  0  0  0  0  # atno 17321 bound_to 7965
  139.6518  144.0347  152.2632 LP  0  0  0  0  0  0  0  0  0  0  0  0  # atno 17342 bound_to 10162
  139.9886  144.6377  150.7834 LP  0  0  0  0  0  0  0  0  0  0  0  0  # atno 17343 bound_to 10162
  157.7163  131.0707  150.6312 LP  0  0  0  0  0  0  0  0  0  0  0  0  # atno 17370 bound_to 10713
  156.6383  130.4451  149.5761 LP  0  0  0  0  0  0  0  0  0  0  0  0  # atno 17371 bound_to 10713
  140.0491  134.9815  157.1104 LP  0  0  0  0  0  0  0  0  0  0  0  0  # atno 17394 bound_to 11000
  140.4017  134.2076  155.7163 LP  0  0  0  0  0  0  0  0  0  0  0  0  # atno 17395 bound_to 11000

$$$$
