#       Name:                AV-unprocessed.smi:2172
#       Creating user name   scv26
#       Creation time:       Fri Mar 27 12:03:09 2020


#       File generated by GOLD software.
#

@<TRIPOS>MOLECULE
AV-unprocessed.smi:2172
    41    43     1
SMALL
NO_CHARGES


@<TRIPOS>ATOM
      1 ****        -1.0849   3.1929  -1.9153 O.3            1 S1                 0.0000
      2 ****        -1.4959   2.7867  -0.6288 C.3            1 S1                 0.0000
      3 ****        -1.9664   1.3698  -0.6050 C.2            1 S1                 0.0000
      4 ****        -3.2653   0.9586  -0.6355 N.pl3          1 S1                 1.0000
      5 ****        -3.3204  -0.4354  -0.6136 C.ar           1 S1                 0.0000
      6 ****        -4.4076  -1.3037  -0.6324 C.ar           1 S1                 0.0000
      7 ****        -4.1164  -2.6831  -0.6001 C.ar           1 S1                 0.0000
      8 ****        -2.7876  -3.1517  -0.5486 C.ar           1 S1                 0.0000
      9 ****        -1.6937  -2.2616  -0.5296 C.ar           1 S1                 0.0000
     10 ****        -1.9894  -0.8987  -0.5656 C.ar           1 S1                 0.0000
     11 ****        -1.1883   0.2500  -0.5640 N.pl3          1 S1                 0.0000
     12 ****         0.2774   0.1180  -0.5304 C.3            1 S1                 0.0000
     13 ****         0.8610   0.2078   0.8940 C.3            1 S1                 0.0000
     14 ****         0.3052  -0.8006   1.7157 O.3            1 S1                 0.0000
     15 ****         2.3806   0.1564   0.8677 C.ar           1 S1                 0.0000
     16 ****         3.0568  -1.0760   0.7281 C.ar           1 S1                 0.0000
     17 ****         4.4643  -1.1140   0.6948 C.ar           1 S1                 0.0000
     18 ****         5.2044   0.0797   0.7969 C.ar           1 S1                 0.0000
     19 ****         6.9285   0.0331   0.7508 Cl             1 S1                 0.0000
     20 ****         4.5354   1.3115   0.9335 C.ar           1 S1                 0.0000
     21 ****         3.1276   1.3497   0.9673 C.ar           1 S1                 0.0000
     22 ****        -0.7942   4.0911  -1.8700 H              1 S1                 0.0000
     23 ****        -0.6653   2.9077   0.0667 H              1 S1                 0.0000
     24 ****        -2.2978   3.4424  -0.2883 H              1 S1                 0.0000
     25 ****        -5.4265  -0.9472  -0.6703 H              1 S1                 0.0000
     26 ****        -4.9278  -3.3963  -0.6138 H              1 S1                 0.0000
     27 ****        -2.6027  -4.2158  -0.5217 H              1 S1                 0.0000
     28 ****        -0.6806  -2.6327  -0.4841 H              1 S1                 0.0000
     29 ****         0.5666  -0.8119  -1.0205 H              1 S1                 0.0000
     30 ****         0.6851   0.9199  -1.1472 H              1 S1                 0.0000
     31 ****         0.5623   1.1597   1.3347 H              1 S1                 0.0000
     32 ****         0.6128  -0.6684   2.5996 H              1 S1                 0.0000
     33 ****         2.4984  -1.9969   0.6432 H              1 S1                 0.0000
     34 ****         4.9748  -2.0600   0.5888 H              1 S1                 0.0000
     35 ****         5.1008   2.2286   1.0103 H              1 S1                 0.0000
     36 ****         2.6239   2.3000   1.0679 H              1 S1                 0.0000
     37 ****        -4.0557   1.5890  -0.6735 H              1 S1                 0.0000
     38 ****        -1.8518   3.1189  -2.5529 LP             1 S1                 0.0000
     39 ****        -0.3340   2.6113  -2.2283 LP             1 S1                 0.0000
     40 ****         0.5943  -1.7002   1.3885 LP             1 S1                 0.0000
     41 ****        -0.6928  -0.7426   1.6932 LP             1 S1                 0.0000
@<TRIPOS>BOND
    1    1    2 1     
    2    1   22 1     
    3    2    3 1     
    4    2   23 1     
    5    2   24 1     
    6    3   11 1     
    7    3    4 2     
    8    4    5 1     
    9    4   37 1     
   10    5   10 ar    
   11    5    6 ar    
   12    6    7 ar    
   13    6   25 1     
   14    7    8 ar    
   15    7   26 1     
   16    8    9 ar    
   17    8   27 1     
   18    9   10 ar    
   19    9   28 1     
   20   10   11 1     
   21   11   12 1     
   22   12   13 1     
   23   12   29 1     
   24   12   30 1     
   25   13   14 1     
   26   13   15 1     
   27   13   31 1     
   28   14   32 1     
   29   15   21 ar    
   30   15   16 ar    
   31   16   17 ar    
   32   16   33 1     
   33   17   18 ar    
   34   17   34 1     
   35   18   19 1     
   36   18   20 ar    
   37   20   21 ar    
   38   20   35 1     
   39   21   36 1     
   40    1   38 1     
   41    1   39 1     
   42   14   40 1     
   43   14   41 1     
@<TRIPOS>SUBSTRUCTURE
      1 S1             1
@<TRIPOS>SET
LONE_PAIRS      STATIC     ATOMS    <user>   **** ""
4 38 39 40 41
DONOR_HYDROGENS      STATIC     ATOMS    <user>   **** ""
3 22 37 32
ATOM$BLUE        STATIC     ATOMS    COLORGROUP SYSTEM
4 38 39 40 41
ATOM$RED        STATIC     ATOMS    COLORGROUP SYSTEM
3 22 37 32
