AV-unprocessed.smi:1803|AV-procd|sdf|7281|dock10
  -GOLD-   22720 8543D 1   1.00000     0.00000
 Structure written by MMmdl.
 36 38  0  0  0  0  0  0  0  0  2 V2000
  149.7879  134.4829  155.8765 O   0  0  0  0  0  0  0  0  0  0  0  0
  149.4808  134.9214  154.7697 C   0  0  0  0  0  0  0  0  0  0  0  0
  149.9869  136.0894  154.3191 N   0  0  0  0  0  0  0  0  0  0  0  0
  150.8908  137.0219  154.9082 C   0  0  0  0  0  0  0  0  0  0  0  0
  151.7969  136.7140  155.8510 N   0  0  0  0  0  0  0  0  0  0  0  0
  152.5498  137.8158  156.2336 N   0  0  0  0  0  0  0  0  0  0  0  0
  152.1893  138.9122  155.5613 C   0  0  0  0  0  0  0  0  0  0  0  0
  150.8937  138.7043  154.3962 S   0  0  0  0  0  0  0  0  0  0  0  0
  148.6374  134.2784  153.9456 N   0  0  0  0  0  0  0  0  0  0  0  0
  147.9675  133.0138  154.2304 C   0  0  2  0  0  0  0  0  0  0  0  0
  148.9455  131.9022  154.6502 C   0  0  0  0  0  0  0  0  0  0  0  0
  148.4069  130.6142  153.9968 C   0  0  0  0  0  0  0  0  0  0  0  0
  147.1397  131.0045  153.3504 N   0  3  2  0  0  0  0  0  0  0  0  0
  146.6750  130.1707  152.2205 C   0  0  0  0  0  0  0  0  0  0  0  0
  145.3034  130.6858  151.7397 C   0  0  0  0  0  0  0  0  0  0  0  0
  145.3394  132.1939  151.4187 C   0  0  0  0  0  0  0  0  0  0  0  0
  145.9203  133.0001  152.5963 C   0  0  0  0  0  0  0  0  0  0  0  0
  147.2902  132.4227  152.9912 C   0  0  1  0  0  0  0  0  0  0  0  0
  149.6927  136.3348  153.3845 H   0  0  0  0  0  0  0  0  0  0  0  0
  152.6905  139.8497  155.7521 H   0  0  0  0  0  0  0  0  0  0  0  0
  148.4415  134.7068  153.0516 H   0  0  0  0  0  0  0  0  0  0  0  0
  147.2292  133.1396  155.0253 H   0  0  0  0  0  0  0  0  0  0  0  0
  149.9559  132.1022  154.2900 H   0  0  0  0  0  0  0  0  0  0  0  0
  148.9971  131.8158  155.7360 H   0  0  0  0  0  0  0  0  0  0  0  0
  149.1135  130.2513  153.2487 H   0  0  0  0  0  0  0  0  0  0  0  0
  148.2417  129.8169  154.7220 H   0  0  0  0  0  0  0  0  0  0  0  0
  147.4029  130.2049  151.4085 H   0  0  0  0  0  0  0  0  0  0  0  0
  146.5958  129.1312  152.5403 H   0  0  0  0  0  0  0  0  0  0  0  0
  144.9790  130.1242  150.8632 H   0  0  0  0  0  0  0  0  0  0  0  0
  144.5582  130.5025  152.5152 H   0  0  0  0  0  0  0  0  0  0  0  0
  145.9493  132.3605  150.5298 H   0  0  0  0  0  0  0  0  0  0  0  0
  144.3376  132.5508  151.1770 H   0  0  0  0  0  0  0  0  0  0  0  0
  146.0159  134.0491  152.3152 H   0  0  0  0  0  0  0  0  0  0  0  0
  145.2370  132.9635  153.4460 H   0  0  0  0  0  0  0  0  0  0  0  0
  147.9735  132.4949  152.1413 H   0  0  0  0  0  0  0  0  0  0  0  0
  146.4283  130.9661  154.0664 H   0  0  0  0  0  0  0  0  0  0  0  0
  1  2  2  0  0  0  0
  2  3  1  0  0  0  0
  2  9  1  0  0  0  0
  3  4  1  0  0  0  0
  3 19  1  0  0  0  0
  4  8  1  0  0  0  0
  4  5  2  0  0  0  0
  5  6  1  0  0  0  0
  6  7  2  0  0  0  0
  7  8  1  0  0  0  0
  7 20  1  0  0  0  0
  9 10  1  0  0  0  0
  9 21  1  0  0  0  0
 10 18  1  0  0  0  0
 10 11  1  0  0  0  0
 10 22  1  0  0  0  0
 11 12  1  0  0  0  0
 11 23  1  0  0  0  0
 11 24  1  0  0  0  0
 12 13  1  0  0  0  0
 12 25  1  0  0  0  0
 12 26  1  0  0  0  0
 13 18  1  0  0  0  0
 13 14  1  0  0  0  0
 13 36  1  0  0  0  0
 14 15  1  0  0  0  0
 14 27  1  0  0  0  0
 14 28  1  0  0  0  0
 15 16  1  0  0  0  0
 15 29  1  0  0  0  0
 15 30  1  0  0  0  0
 16 17  1  0  0  0  0
 16 31  1  0  0  0  0
 16 32  1  0  0  0  0
 17 18  1  0  0  0  0
 17 33  1  0  0  0  0
 17 34  1  0  0  0  0
 18 35  1  0  0  0  0
M  CHG  1  13   1
M  END
> <s_m_source_file>
AV-unprocessed.smi

> <i_m_source_file_index>
1803

> <i_lp_mmshare_version>
43012

> <i_f3d_flags>
0

> <s_epik_input>
czFbY0hdbm5jMVtOSF1DKD1PKVtOSF1bQ0BIXShbQ0gyXVtDSDJdMilbQ0BASF0oTjIzKVtDSDJdW0NIMl1bQ0gyXVtDSDJdMw==

> <s_epik_cmdline>
J2VwaWtfcHl0aG9uJywgJy1waCcsICc3LjAnLCAnLXRuJywgJzgnLCAnLW1hJywgJzIwMCcsICctbWV0YWxfYmluZGluZycsICctaW1hZScsICc8aW5maWxlLm1hZT4nLCAnLW9tYWUnLCAnPG91dGZpbGUubWFlPic=

> <r_lp_tautomer_probability>
1

> <r_epik_Ionization_Penalty>
0.00213286

> <r_epik_Ionization_Penalty_Charging>
0.00107044

> <r_epik_Ionization_Penalty_Neutral>
0.00106242

> <r_epik_State_Penalty>
-0

> <r_epik_Charging_Adjusted_Penalty>
0.00107044

> <i_epik_Tot_Q>
1

> <i_epik_Tot_abs_Q>
1

> <r_epik_Metal_State_Penalty>
0.292783

> <b_epik_Metal_Only>
0

> <s_lp_Force_Field>
OPLS_2005

> <r_lp_Energy>
35.8307

> <b_lp_Chiralities_Consistent>
1

> <s_lp_Variant>
AV-unprocessed.smi:1803-3

> <Gold.Version>
5.8.1

> <Gold.Id.Protein>
6NUR|6NUR_protein|mol2

> <Gold.PLP.Fitness>
38.0841

> <Gold.PLP.PLP>
-29.9415

> <Gold.PLP.part.hbond>
-4.6927

> <Gold.PLP.part.metal>
0.0000

> <Gold.PLP.part.buried>
-0.2407

> <Gold.PLP.part.nonpolar>
-25.0740

> <Gold.PLP.part.repulsive>
0.1516

> <Gold.PLP.ligand.clash>
0.0000

> <Gold.PLP.ligand.torsion>
0.2055

> <Gold.PLP.Chemscore.Hbond>
2.8480

> <Gold.PLP.Chemscore.CHOScore>
0.0000

> <Gold.PLP.Chemscore.Metal>
0.0000

> <Gold.Chemscore.Hbonds>
donor molecule, donor type, donor heavy atom, donor atom, acceptor molecule, acceptor atom, score
      L1  H     3    19       P1  7948  1.00
      L1  H     9    21       P1  7948  0.86
      P1  H 10752 10765       L1     5  1.00

> <Gold.PLP.Chemscore.Internal.Correction>
0.0096

> <Gold.Rescore>
     Score         DG    S(hbond)    S(metal)    S(lipo)     H(rot)  DE(clash)    DE(int)     intcor
     16.98     -17.30       2.26        0.00      58.33       1.00       0.01       0.30       ----

> <Gold.Chemscore.Fitness>
16.9810

> <Gold.Chemscore.DG>
-17.2967

> <Gold.Chemscore.ZeroCoef>
-5.4800

> <Gold.Chemscore.Hbond>
2.2612

> <Gold.Chemscore.Metal>
0.0000

> <Gold.Chemscore.Lipo>
58.3280

> <Gold.Chemscore.Internal_Hbond>
0.0000

> <Gold.Chemscore.DEClash>
0.0126

> <Gold.Chemscore.DEInternal>
0.3031

> <Gold.Chemscore.Rot>
1.0000

> <Gold.Chemscore.Internal.Correction>
   9.000000E+99

> <Gold.Chemscore.Hbonds>
donor molecule, donor type, donor heavy atom, donor atom, acceptor molecule, acceptor atom, score
      L1  H     3    19       P1  7948  0.30
      L1  H     9    21       P1  7948  0.42
      P1  H 10752 10765       L1     5  0.25

> <Gold.Chemscore.Hbond.Weighted>
-7.5524

> <Gold.Chemscore.Metal.Weighted>
-0.0000

> <Gold.Chemscore.Lipo.Weighted>
-6.8244

> <Gold.Chemscore.Internal_Hbond.Weighted>
0.0000

> <Gold.Chemscore.DEClash.Weighted>
0.0126

> <Gold.Chemscore.DEInternal.Weighted>
0.3031

> <Gold.Chemscore.Rot.Weighted>
2.5600

> <Gold.Chemscore.Internal.Correction.Weighted>
   9.000000E+99

> <Gold.Protein.RotatedTorsions>
[ 6907 6896 6895 6894 ] final   93.85 input  -60.11 | X-H torsion
[ 7974 7965 7964 7962 ] final  -95.18 input  175.53 | X-H torsion
[ 8008 7997 7996 7995 ] final -108.01 input   59.86 | X-H torsion
[ 10167 10162 10161 10158 ] final  -83.08 input  -65.29 | X-H torsion
[ 10718 10713 10712 10709 ] final   15.09 input   66.30 | X-H torsion
[ 10763 10752 10751 10750 ] final -150.27 input  -60.55 | X-H torsion
[ 11005 11000 10999 10996 ] final  102.30 input  -57.11 | X-H torsion

> <Gold.Protein.ActiveResidues>
 VAL166  LYS551  ARG553  GLY616  TRP617  ASP618  TYR619  PRO620  LYS621  CYS622 
 ASP623  PHE694  ASN695  SER759  ASP760  ASP761  ALA762  ILE779  LEU786  VAL792 
 PHE793  MET794  SER795  GLU796  ALA797  LYS798  CYS799  TRP800  GLU811  SER814 

> <Gold.Protein.RotatedAtoms>
  152.5451  134.1284  159.8428 H   0  0  0  0  0  0  0  0  0  0  0  0  # atno 6907 bound_to 6896
  151.1333  133.5015  159.2606 H   0  0  0  0  0  0  0  0  0  0  0  0  # atno 6908 bound_to 6896
  151.1652  135.0302  159.8782 H   0  0  0  0  0  0  0  0  0  0  0  0  # atno 6909 bound_to 6896
  145.3635  140.9495  143.2487 H   0  0  0  0  0  0  0  0  0  0  0  0  # atno 7974 bound_to 7965
  154.9379  140.0403  157.2081 H   0  0  0  0  0  0  0  0  0  0  0  0  # atno 8008 bound_to 7997
  154.8097  140.2866  155.5840 H   0  0  0  0  0  0  0  0  0  0  0  0  # atno 8009 bound_to 7997
  156.2970  140.2539  156.2983 H   0  0  0  0  0  0  0  0  0  0  0  0  # atno 8010 bound_to 7997
  140.4260  143.2566  151.8825 H   0  0  0  0  0  0  0  0  0  0  0  0  # atno 10167 bound_to 10162
  157.0485  130.6260  149.5763 H   0  0  0  0  0  0  0  0  0  0  0  0  # atno 10718 bound_to 10713
  154.8129  135.3288  154.7257 H   0  0  0  0  0  0  0  0  0  0  0  0  # atno 10763 bound_to 10752
  153.7903  135.6911  153.4877 H   0  0  0  0  0  0  0  0  0  0  0  0  # atno 10764 bound_to 10752
  153.1921  135.4547  155.0109 H   0  0  0  0  0  0  0  0  0  0  0  0  # atno 10765 bound_to 10752
  139.8777  134.9218  156.5037 H   0  0  0  0  0  0  0  0  0  0  0  0  # atno 11005 bound_to 11000
  144.8629  139.5151  143.6804 LP  0  0  0  0  0  0  0  0  0  0  0  0  # atno 17320 bound_to 7965
  146.2917  139.7158  142.9156 LP  0  0  0  0  0  0  0  0  0  0  0  0  # atno 17321 bound_to 7965
  139.4783  144.5387  151.8561 LP  0  0  0  0  0  0  0  0  0  0  0  0  # atno 17342 bound_to 10162
  140.4481  144.1893  150.5895 LP  0  0  0  0  0  0  0  0  0  0  0  0  # atno 17343 bound_to 10162
  156.0015  130.5095  150.7680 LP  0  0  0  0  0  0  0  0  0  0  0  0  # atno 17370 bound_to 10713
  157.5049  131.0921  151.0269 LP  0  0  0  0  0  0  0  0  0  0  0  0  # atno 17371 bound_to 10713
  140.8571  133.8088  155.9227 LP  0  0  0  0  0  0  0  0  0  0  0  0  # atno 17394 bound_to 11000
  140.9087  134.2288  157.4999 LP  0  0  0  0  0  0  0  0  0  0  0  0  # atno 17395 bound_to 11000

$$$$
