AV-unprocessed.smi:224|AV-procd|sdf|1722|dock6
  -GOLD-   2262020203D 1   1.00000     0.00000
 Structure written by MMmdl.
 56 59  0  0  0  0  0  0  0  0  2 V2000
  146.5925  136.4974  151.8851 C   0  0  0  0  0  0  0  0  0  0  0  0
  146.0648  137.8382  152.4172 C   0  0  1  0  0  0  0  0  0  0  0  0
  144.6560  137.7588  152.4744 O   0  0  0  0  0  0  0  0  0  0  0  0
  146.5887  138.1755  153.8300 C   0  0  0  0  0  0  0  0  0  0  0  0
  148.0528  137.9373  153.9916 N   0  3  1  0  0  0  0  0  0  0  0  0
  148.8012  139.2188  154.1399 C   0  0  0  0  0  0  0  0  0  0  0  0
  150.3157  138.9974  154.2555 C   0  0  0  0  0  0  0  0  0  0  0  0
  150.6115  138.0839  155.3497 N   0  0  0  0  0  0  0  0  0  0  0  0
  150.7732  138.6380  156.5818 C   0  0  0  0  0  0  0  0  0  0  0  0
  150.9823  137.8363  157.6604 N   0  0  0  0  0  0  0  0  0  0  0  0
  151.1293  138.3627  158.8795 C   0  0  0  0  0  0  0  0  0  0  0  0
  151.1065  139.6459  159.2409 N   0  0  0  0  0  0  0  0  0  0  0  0
  150.9154  140.4602  158.1643 C   0  0  0  0  0  0  0  0  0  0  0  0
  150.7393  140.0438  156.8137 C   0  0  0  0  0  0  0  0  0  0  0  0
  150.5779  141.1572  155.9972 N   0  0  0  0  0  0  0  0  0  0  0  0
  150.6418  142.1699  156.8176 C   0  0  0  0  0  0  0  0  0  0  0  0
  150.8526  141.8429  158.1380 N   0  0  0  0  0  0  0  0  0  0  0  0
  150.9696  142.7641  159.2589 C   0  0  0  0  0  0  0  0  0  0  0  0
  152.3963  142.8422  159.8533 C   0  0  2  0  0  0  0  0  0  0  0  0
  153.2267  143.5775  158.9711 O   0  0  0  0  0  0  0  0  0  0  0  0
  153.0230  141.4707  160.0699 C   0  0  0  0  0  0  0  0  0  0  0  0
  153.9750  141.7162  161.2326 C   0  0  0  0  0  0  0  0  0  0  0  0
  153.2369  142.5914  162.0681 O   0  0  0  0  0  0  0  0  0  0  0  0
  152.4812  143.4841  161.2539 C   0  0  0  0  0  0  0  0  0  0  0  0
  149.9294  136.7996  155.2227 C   0  0  0  0  0  0  0  0  0  0  0  0
  148.3958  136.9538  155.0705 C   0  0  2  0  0  0  0  0  0  0  0  0
  147.7960  135.5538  154.8266 C   0  0  0  0  0  0  0  0  0  0  0  0
  147.6773  136.5134  151.7773 H   0  0  0  0  0  0  0  0  0  0  0  0
  146.1721  136.2719  150.9045 H   0  0  0  0  0  0  0  0  0  0  0  0
  146.3368  135.6746  152.5537 H   0  0  0  0  0  0  0  0  0  0  0  0
  146.3032  138.6300  151.7085 H   0  0  0  0  0  0  0  0  0  0  0  0
  144.2993  138.6340  152.4517 H   0  0  0  0  0  0  0  0  0  0  0  0
  146.3671  139.2140  154.0825 H   0  0  0  0  0  0  0  0  0  0  0  0
  146.0145  137.5719  154.5284 H   0  0  0  0  0  0  0  0  0  0  0  0
  148.6217  139.8713  153.2875 H   0  0  0  0  0  0  0  0  0  0  0  0
  148.4396  139.7481  155.0232 H   0  0  0  0  0  0  0  0  0  0  0  0
  150.7002  138.5653  153.3307 H   0  0  0  0  0  0  0  0  0  0  0  0
  150.8161  139.9572  154.3735 H   0  0  0  0  0  0  0  0  0  0  0  0
  151.2879  137.6548  159.6797 H   0  0  0  0  0  0  0  0  0  0  0  0
  150.5391  143.1901  156.4776 H   0  0  0  0  0  0  0  0  0  0  0  0
  150.6486  143.7504  158.9210 H   0  0  0  0  0  0  0  0  0  0  0  0
  150.2584  142.4604  160.0282 H   0  0  0  0  0  0  0  0  0  0  0  0
  152.9738  144.4872  159.0089 H   0  0  0  0  0  0  0  0  0  0  0  0
  152.2630  140.7518  160.3795 H   0  0  0  0  0  0  0  0  0  0  0  0
  153.5191  141.0690  159.1854 H   0  0  0  0  0  0  0  0  0  0  0  0
  154.2520  140.8002  161.7546 H   0  0  0  0  0  0  0  0  0  0  0  0
  154.8865  142.2122  160.8957 H   0  0  0  0  0  0  0  0  0  0  0  0
  152.9523  144.4681  161.2317 H   0  0  0  0  0  0  0  0  0  0  0  0
  151.5006  143.6017  161.7139 H   0  0  0  0  0  0  0  0  0  0  0  0
  150.3335  136.2996  154.3414 H   0  0  0  0  0  0  0  0  0  0  0  0
  150.1728  136.1522  156.0664 H   0  0  0  0  0  0  0  0  0  0  0  0
  147.9911  137.3388  156.0072 H   0  0  0  0  0  0  0  0  0  0  0  0
  148.1972  134.8335  155.5403 H   0  0  0  0  0  0  0  0  0  0  0  0
  148.0314  135.1883  153.8266 H   0  0  0  0  0  0  0  0  0  0  0  0
  146.7149  135.5282  154.9541 H   0  0  0  0  0  0  0  0  0  0  0  0
  148.3701  137.5177  153.1294 H   0  0  0  0  0  0  0  0  0  0  0  0
  1  2  1  0  0  0  0
  1 28  1  0  0  0  0
  1 29  1  0  0  0  0
  1 30  1  0  0  0  0
  2  3  1  0  0  0  0
  2  4  1  0  0  0  0
  2 31  1  0  0  0  0
  3 32  1  0  0  0  0
  4  5  1  0  0  0  0
  4 33  1  0  0  0  0
  4 34  1  0  0  0  0
  5 26  1  0  0  0  0
  5  6  1  0  0  0  0
  5 56  1  0  0  0  0
  6  7  1  0  0  0  0
  6 35  1  0  0  0  0
  6 36  1  0  0  0  0
  7  8  1  0  0  0  0
  7 37  1  0  0  0  0
  7 38  1  0  0  0  0
  8  9  1  0  0  0  0
  8 25  1  0  0  0  0
  9 14  1  0  0  0  0
  9 10  2  0  0  0  0
 10 11  1  0  0  0  0
 11 12  2  0  0  0  0
 11 39  1  0  0  0  0
 12 13  1  0  0  0  0
 13 17  1  0  0  0  0
 13 14  2  0  0  0  0
 14 15  1  0  0  0  0
 15 16  2  0  0  0  0
 16 17  1  0  0  0  0
 16 40  1  0  0  0  0
 17 18  1  0  0  0  0
 18 19  1  0  0  0  0
 18 41  1  0  0  0  0
 18 42  1  0  0  0  0
 19 24  1  0  0  0  0
 19 20  1  0  0  0  0
 19 21  1  0  0  0  0
 20 43  1  0  0  0  0
 21 22  1  0  0  0  0
 21 44  1  0  0  0  0
 21 45  1  0  0  0  0
 22 23  1  0  0  0  0
 22 46  1  0  0  0  0
 22 47  1  0  0  0  0
 23 24  1  0  0  0  0
 24 48  1  0  0  0  0
 24 49  1  0  0  0  0
 25 26  1  0  0  0  0
 25 50  1  0  0  0  0
 25 51  1  0  0  0  0
 26 27  1  0  0  0  0
 26 52  1  0  0  0  0
 27 53  1  0  0  0  0
 27 54  1  0  0  0  0
 27 55  1  0  0  0  0
M  CHG  1   5   1
M  END
> <s_m_source_file>
AV-unprocessed.smi

> <i_m_source_file_index>
224

> <i_lp_mmshare_version>
43012

> <i_f3d_flags>
0

> <s_epik_input>
W0NIM11bQ0BIXShbT0hdKVtDSDJdTjFbQ0gyXVtDSDJdTihbQ0gyXVtDQEhdMVtDSDNdKWMobltjSF1uMiljKGMyMyluW2NIXW4zW0NIMl1bQ0BAXTQoW09IXSlbQ0gyXVtDSDJdT1tDSDJdNA==

> <s_epik_cmdline>
J2VwaWtfcHl0aG9uJywgJy1waCcsICc3LjAnLCAnLXRuJywgJzgnLCAnLW1hJywgJzIwMCcsICctbWV0YWxfYmluZGluZycsICctaW1hZScsICc8aW5maWxlLm1hZT4nLCAnLW9tYWUnLCAnPG91dGZpbGUubWFlPic=

> <r_lp_tautomer_probability>
1

> <r_epik_Ionization_Penalty>
0.00516958

> <r_epik_Ionization_Penalty_Charging>
0.00509693

> <r_epik_Ionization_Penalty_Neutral>
7.26542e-05

> <r_epik_State_Penalty>
-0

> <r_epik_Charging_Adjusted_Penalty>
0.00509693

> <i_epik_Tot_Q>
1

> <i_epik_Tot_abs_Q>
1

> <r_epik_Metal_State_Penalty>
-0

> <b_epik_Metal_Only>
0

> <s_lp_Force_Field>
OPLS_2005

> <r_lp_Energy>
50.435

> <b_lp_Chiralities_Consistent>
1

> <s_lp_Variant>
AV-unprocessed.smi:224-16

> <Gold.Version>
5.8.1

> <Gold.Id.Protein>
6NUR|6NUR_protein|mol2

> <Gold.PLP.Fitness>
47.8736

> <Gold.PLP.PLP>
-38.1747

> <Gold.PLP.part.hbond>
-3.4522

> <Gold.PLP.part.metal>
0.0000

> <Gold.PLP.part.buried>
0.3667

> <Gold.PLP.part.nonpolar>
-35.4043

> <Gold.PLP.part.repulsive>
0.1951

> <Gold.PLP.ligand.clash>
0.0000

> <Gold.PLP.ligand.torsion>
1.4544

> <Gold.PLP.Chemscore.Hbond>
3.0000

> <Gold.PLP.Chemscore.CHOScore>
1.0000

> <Gold.PLP.Chemscore.Metal>
0.0000

> <Gold.Chemscore.Hbonds>
donor molecule, donor type, donor heavy atom, donor atom, acceptor molecule, acceptor atom, score
      L1  H     3    32       P1 10175  1.00
      L1  H     5    56       P1  7948  2.00
      L1  C    16    40       P1  8028  1.00

> <Gold.PLP.Chemscore.Internal.Correction>
0.6077

> <Gold.Rescore>
     Score         DG    S(hbond)    S(metal)    S(lipo)     H(rot)  DE(clash)    DE(int)     intcor
      7.14     -14.89       2.19        0.00      91.41       3.36       3.62       4.13       ----

> <Gold.Chemscore.Fitness>
7.1423

> <Gold.Chemscore.DG>
-14.8854

> <Gold.Chemscore.ZeroCoef>
-5.4800

> <Gold.Chemscore.Hbond>
2.1902

> <Gold.Chemscore.Metal>
0.0000

> <Gold.Chemscore.Lipo>
91.4071

> <Gold.Chemscore.Internal_Hbond>
0.0000

> <Gold.Chemscore.DEClash>
3.6170

> <Gold.Chemscore.DEInternal>
4.1261

> <Gold.Chemscore.Rot>
3.3611

> <Gold.Chemscore.Internal.Correction>
   9.000000E+99

> <Gold.Chemscore.Hbonds>
donor molecule, donor type, donor heavy atom, donor atom, acceptor molecule, acceptor atom, score
      L1  H     3    32       P1 10175  1.00
      L1  H     5    56       P1  7948  1.00

> <Gold.Chemscore.Hbond.Weighted>
-7.3153

> <Gold.Chemscore.Metal.Weighted>
-0.0000

> <Gold.Chemscore.Lipo.Weighted>
-10.6946

> <Gold.Chemscore.Internal_Hbond.Weighted>
0.0000

> <Gold.Chemscore.DEClash.Weighted>
3.6170

> <Gold.Chemscore.DEInternal.Weighted>
4.1261

> <Gold.Chemscore.Rot.Weighted>
8.6045

> <Gold.Chemscore.Internal.Correction.Weighted>
   9.000000E+99

> <Gold.Protein.RotatedTorsions>
[ 6907 6896 6895 6894 ] final  -89.47 input  -60.11 | X-H torsion
[ 7974 7965 7964 7962 ] final -116.72 input  175.53 | X-H torsion
[ 8008 7997 7996 7995 ] final   73.60 input   59.86 | X-H torsion
[ 10167 10162 10161 10158 ] final   10.91 input  -65.29 | X-H torsion
[ 10718 10713 10712 10709 ] final  140.85 input   66.30 | X-H torsion
[ 10763 10752 10751 10750 ] final   61.90 input  -60.55 | X-H torsion
[ 11005 11000 10999 10996 ] final -143.26 input  -57.11 | X-H torsion

> <Gold.Protein.ActiveResidues>
 VAL166  LYS551  ARG553  GLY616  TRP617  ASP618  TYR619  PRO620  LYS621  CYS622 
 ASP623  PHE694  ASN695  SER759  ASP760  ASP761  ALA762  ILE779  LEU786  VAL792 
 PHE793  MET794  SER795  GLU796  ALA797  LYS798  CYS799  TRP800  GLU811  SER814 

> <Gold.Protein.RotatedAtoms>
  150.6874  134.2581  159.4537 H   0  0  0  0  0  0  0  0  0  0  0  0  # atno 6907 bound_to 6896
  152.0514  134.9649  160.0584 H   0  0  0  0  0  0  0  0  0  0  0  0  # atno 6908 bound_to 6896
  152.1112  133.4267  159.4669 H   0  0  0  0  0  0  0  0  0  0  0  0  # atno 6909 bound_to 6896
  145.0935  140.8506  143.3968 H   0  0  0  0  0  0  0  0  0  0  0  0  # atno 7974 bound_to 7965
  155.7861  140.3480  155.5323 H   0  0  0  0  0  0  0  0  0  0  0  0  # atno 8008 bound_to 7997
  155.8680  140.0982  157.1589 H   0  0  0  0  0  0  0  0  0  0  0  0  # atno 8009 bound_to 7997
  154.4016  140.1346  156.4031 H   0  0  0  0  0  0  0  0  0  0  0  0  # atno 8010 bound_to 7997
  140.6165  143.8297  150.7124 H   0  0  0  0  0  0  0  0  0  0  0  0  # atno 10167 bound_to 10162
  157.3986  131.1014  151.0575 H   0  0  0  0  0  0  0  0  0  0  0  0  # atno 10718 bound_to 10713
  152.9965  135.5484  154.6107 H   0  0  0  0  0  0  0  0  0  0  0  0  # atno 10763 bound_to 10752
  154.5428  135.2821  155.1082 H   0  0  0  0  0  0  0  0  0  0  0  0  # atno 10764 bound_to 10752
  154.2352  135.6426  153.5241 H   0  0  0  0  0  0  0  0  0  0  0  0  # atno 10765 bound_to 10752
  140.8143  134.2707  157.4927 H   0  0  0  0  0  0  0  0  0  0  0  0  # atno 11005 bound_to 11000
  145.1038  139.2804  143.5672 LP  0  0  0  0  0  0  0  0  0  0  0  0  # atno 17320 bound_to 7965
  146.3531  140.0613  142.8629 LP  0  0  0  0  0  0  0  0  0  0  0  0  # atno 17321 bound_to 7965
  140.1877  143.4062  152.1886 LP  0  0  0  0  0  0  0  0  0  0  0  0  # atno 17342 bound_to 10162
  139.5403  144.7250  151.4757 LP  0  0  0  0  0  0  0  0  0  0  0  0  # atno 17343 bound_to 10162
  157.1582  130.6214  149.5602 LP  0  0  0  0  0  0  0  0  0  0  0  0  # atno 17370 bound_to 10713
  155.9817  130.4826  150.6842 LP  0  0  0  0  0  0  0  0  0  0  0  0  # atno 17371 bound_to 10713
  139.8712  134.9500  156.4044 LP  0  0  0  0  0  0  0  0  0  0  0  0  # atno 17394 bound_to 11000
  140.9165  133.7675  155.9854 LP  0  0  0  0  0  0  0  0  0  0  0  0  # atno 17395 bound_to 11000

$$$$
