#       Name:                AV-unprocessed.smi:1795
#       Creating user name   scv26
#       Creation time:       Fri Mar 27 08:49:26 2020


#       File generated by GOLD software.
#

@<TRIPOS>MOLECULE
AV-unprocessed.smi:1795
    54    55     1
SMALL
NO_CHARGES


@<TRIPOS>ATOM
      1 ****        -1.4684  -4.4367  -1.0194 C.3            1 S1                 0.0000
      2 ****        -1.4072  -2.9068  -1.0868 C.3            1 S1                 0.0000
      3 ****        -0.2487  -2.4133  -1.9836 C.3            1 S1                 0.0000
      4 ****        -0.2600  -0.9316  -2.1342 N.4            1 S1                 1.0000
      5 ****         0.2833  -0.1853  -0.9494 C.3            1 S1                 0.0000
      6 ****        -0.0737   1.3214  -0.9597 C.3            1 S1                 0.0000
      7 ****         1.8237  -0.3621  -0.8550 C.3            1 S1                 0.0000
      8 ****         2.3948   0.2762   0.3257 N.am           1 S1                 0.0000
      9 ****         2.2783  -0.1840   1.5813 C.2            1 S1                 0.0000
     10 ****         1.6965  -1.2310   1.8641 O.2            1 S1                 0.0000
     11 ****         2.8885   0.6774   2.6920 C.3            1 S1                 0.0000
     12 ****         2.1515   1.9379   2.8782 N.am           1 S1                 0.0000
     13 ****         1.0533   1.9040   3.7605 C.2            1 S1                 0.0000
     14 ****         0.3025   2.9900   4.0037 C.2            1 S1                 0.0000
     15 ****         0.6480   4.2217   3.3348 C.2            1 S1                 0.0000
     16 ****         1.6919   4.2642   2.4836 C.2            1 S1                 0.0000
     17 ****         2.5082   3.0767   2.2067 C.2            1 S1                 0.0000
     18 ****         3.4494   3.1027   1.4133 O.2            1 S1                 0.0000
     19 ****        -1.6024  -0.5209  -2.6288 C.3            1 S1                 0.0000
     20 ****        -2.7182  -1.0195  -1.6881 C.3            1 S1                 0.0000
     21 ****        -4.1137  -0.6426  -2.1973 C.3            1 S1                 0.0000
     22 ****        -2.6449  -2.4393  -1.6132 O.3            1 S1                 0.0000
     23 ****        -0.5451  -4.8492  -0.6115 H              1 S1                 0.0000
     24 ****        -1.6212  -4.8708  -2.0078 H              1 S1                 0.0000
     25 ****        -2.2888  -4.7658  -0.3810 H              1 S1                 0.0000
     26 ****        -1.2889  -2.5315  -0.0699 H              1 S1                 0.0000
     27 ****         0.7026  -2.7814  -1.6064 H              1 S1                 0.0000
     28 ****        -0.3551  -2.8506  -2.9774 H              1 S1                 0.0000
     29 ****        -0.1691  -0.6020  -0.0506 H              1 S1                 0.0000
     30 ****         0.3723   1.8503  -0.1174 H              1 S1                 0.0000
     31 ****        -1.1466   1.4893  -0.8706 H              1 S1                 0.0000
     32 ****         0.2755   1.8075  -1.8711 H              1 S1                 0.0000
     33 ****         2.1238  -1.4086  -0.8400 H              1 S1                 0.0000
     34 ****         2.2987   0.0747  -1.7340 H              1 S1                 0.0000
     35 ****         2.8923   1.1442   0.1833 H              1 S1                 0.0000
     36 ****         2.8931   0.1087   3.6234 H              1 S1                 0.0000
     37 ****         3.9411   0.8582   2.4674 H              1 S1                 0.0000
     38 ****         0.8605   0.9429   4.2154 H              1 S1                 0.0000
     39 ****        -0.5384   2.9434   4.6800 H              1 S1                 0.0000
     40 ****         0.0676   5.1138   3.5188 H              1 S1                 0.0000
     41 ****         1.9363   5.1951   1.9932 H              1 S1                 0.0000
     42 ****        -1.6711   0.5515  -2.8044 H              1 S1                 0.0000
     43 ****        -1.7461  -0.9694  -3.6131 H              1 S1                 0.0000
     44 ****        -2.5898  -0.5968  -0.6903 H              1 S1                 0.0000
     45 ****        -4.2271   0.4396  -2.2666 H              1 S1                 0.0000
     46 ****        -4.8873  -1.0144  -1.5250 H              1 S1                 0.0000
     47 ****        -4.3015  -1.0634  -3.1855 H              1 S1                 0.0000
     48 ****         0.3780  -0.7159  -2.8870 H              1 S1                 0.0000
     49 ****         1.2821  -1.7837   1.1411 LP             1 S1                 0.0000
     50 ****         1.6383  -1.5290   2.8169 LP             1 S1                 0.0000
     51 ****         3.9818   2.2738   1.2417 LP             1 S1                 0.0000
     52 ****         3.6815   3.9528   0.9405 LP             1 S1                 0.0000
     53 ****        -3.3847  -2.7657  -1.0249 LP             1 S1                 0.0000
     54 ****        -2.7611  -2.8131  -2.5334 LP             1 S1                 0.0000
@<TRIPOS>BOND
    1    1    2 1     
    2    1   23 1     
    3    1   24 1     
    4    1   25 1     
    5    2   22 1     
    6    2    3 1     
    7    2   26 1     
    8    3    4 1     
    9    3   27 1     
   10    3   28 1     
   11    4    5 1     
   12    4   19 1     
   13    4   48 1     
   14    5    6 1     
   15    5    7 1     
   16    5   29 1     
   17    6   30 1     
   18    6   31 1     
   19    6   32 1     
   20    7    8 1     
   21    7   33 1     
   22    7   34 1     
   23    8    9 am    
   24    8   35 1     
   25    9   10 2     
   26    9   11 1     
   27   11   12 1     
   28   11   36 1     
   29   11   37 1     
   30   12   17 am    
   31   12   13 1     
   32   13   14 2     
   33   13   38 1     
   34   14   15 1     
   35   14   39 1     
   36   15   16 2     
   37   15   40 1     
   38   16   17 1     
   39   16   41 1     
   40   17   18 2     
   41   19   20 1     
   42   19   42 1     
   43   19   43 1     
   44   20   21 1     
   45   20   22 1     
   46   20   44 1     
   47   21   45 1     
   48   21   46 1     
   49   21   47 1     
   50   10   49 1     
   51   10   50 1     
   52   18   51 1     
   53   18   52 1     
   54   22   53 1     
   55   22   54 1     
@<TRIPOS>SUBSTRUCTURE
      1 S1             1
@<TRIPOS>SET
LONE_PAIRS      STATIC     ATOMS    <user>   **** ""
6 49 50 51 52 53 54
DONOR_HYDROGENS      STATIC     ATOMS    <user>   **** ""
2 48 35
ATOM$BLUE        STATIC     ATOMS    COLORGROUP SYSTEM
6 49 50 51 52 53 54
ATOM$RED        STATIC     ATOMS    COLORGROUP SYSTEM
2 48 35
