AV-unprocessed.smi:1867|AV-procd|sdf|7577|dock1
  -GOLD-   22720 9283D 1   1.00000     0.00000
 Structure written by MMmdl.
 52 55  0  0  0  0  0  0  0  0  4 V2000
  147.7932  137.8101  155.3487 O   0  0  0  0  0  0  0  0  0  0  0  0
  147.7016  138.2905  154.2206 C   0  0  0  0  0  0  0  0  0  0  0  0
  148.3823  139.4274  153.9336 N   0  0  0  0  0  0  0  0  0  0  0  0
  149.1448  140.2583  154.7969 C   0  0  0  0  0  0  0  0  0  0  0  0
  149.9950  139.6333  155.7322 C   0  0  0  0  0  0  0  0  0  0  0  0
  150.7934  140.4203  156.5870 C   0  0  0  0  0  0  0  0  0  0  0  0
  150.7423  141.8308  156.4912 C   0  0  0  0  0  0  0  0  0  0  0  0
  151.5202  142.6784  157.3016 N   0  0  0  0  0  0  0  0  0  0  0  0
  151.3554  144.1226  157.2843 C   0  0  0  0  0  0  0  0  0  0  0  0
  152.2963  144.6274  158.3770 C   0  0  0  0  0  0  0  0  0  0  0  0
  152.2718  143.4968  159.4065 C   0  0  0  0  0  0  0  0  0  0  0  0
  152.0801  142.2278  158.5674 C   0  0  0  0  0  0  0  0  0  0  0  0
  149.9250  142.3875  155.5657 N   0  3  0  0  0  0  0  0  0  0  0  0
  149.1422  141.6715  154.7300 C   0  0  0  0  0  0  0  0  0  0  0  0
  146.9568  137.6809  153.2493 N   0  5  0  0  0  0  0  0  0  0  0  0
  145.8268  136.7435  153.3942 C   0  0  1  0  0  0  0  0  0  0  0  0
  144.9579  136.7834  152.1220 C   0  0  0  0  0  0  0  0  0  0  0  0
  145.5119  135.6827  151.1926 C   0  0  0  0  0  0  0  0  0  0  0  0
  146.5909  135.0219  151.9538 N   0  3  2  0  0  0  0  0  0  0  0  0
  146.8404  133.5916  151.6672 C   0  0  0  0  0  0  0  0  0  0  0  0
  148.0379  133.0981  152.5049 C   0  0  0  0  0  0  0  0  0  0  0  0
  147.8456  133.3879  154.0077 C   0  0  0  0  0  0  0  0  0  0  0  0
  147.5279  134.8763  154.2491 C   0  0  0  0  0  0  0  0  0  0  0  0
  146.3209  135.2874  153.3764 C   0  0  1  0  0  0  0  0  0  0  0  0
  148.3684  139.7067  152.9638 H   0  0  0  0  0  0  0  0  0  0  0  0
  150.0362  138.5558  155.7979 H   0  0  0  0  0  0  0  0  0  0  0  0
  151.4422  139.9309  157.2980 H   0  0  0  0  0  0  0  0  0  0  0  0
  151.6025  144.5475  156.3110 H   0  0  0  0  0  0  0  0  0  0  0  0
  150.3202  144.3730  157.5208 H   0  0  0  0  0  0  0  0  0  0  0  0
  153.3049  144.7366  157.9756 H   0  0  0  0  0  0  0  0  0  0  0  0
  151.9915  145.5893  158.7897 H   0  0  0  0  0  0  0  0  0  0  0  0
  153.1704  143.4642  160.0228 H   0  0  0  0  0  0  0  0  0  0  0  0
  151.4158  143.6286  160.0696 H   0  0  0  0  0  0  0  0  0  0  0  0
  151.4290  141.5170  159.0777 H   0  0  0  0  0  0  0  0  0  0  0  0
  153.0371  141.7415  158.3763 H   0  0  0  0  0  0  0  0  0  0  0  0
  148.5611  142.2574  154.0332 H   0  0  0  0  0  0  0  0  0  0  0  0
  145.2295  136.9358  154.2862 H   0  0  0  0  0  0  0  0  0  0  0  0
  143.9248  136.5485  152.3804 H   0  0  0  0  0  0  0  0  0  0  0  0
  144.9485  137.7637  151.6428 H   0  0  0  0  0  0  0  0  0  0  0  0
  144.7248  134.9708  150.9379 H   0  0  0  0  0  0  0  0  0  0  0  0
  145.9096  136.0915  150.2630 H   0  0  0  0  0  0  0  0  0  0  0  0
  145.9486  133.0073  151.8980 H   0  0  0  0  0  0  0  0  0  0  0  0
  147.0454  133.4630  150.6039 H   0  0  0  0  0  0  0  0  0  0  0  0
  148.1880  132.0299  152.3473 H   0  0  0  0  0  0  0  0  0  0  0  0
  148.9473  133.5908  152.1582 H   0  0  0  0  0  0  0  0  0  0  0  0
  147.0308  132.7746  154.3942 H   0  0  0  0  0  0  0  0  0  0  0  0
  148.7390  133.1006  154.5630 H   0  0  0  0  0  0  0  0  0  0  0  0
  147.3183  135.0430  155.3069 H   0  0  0  0  0  0  0  0  0  0  0  0
  148.4117  135.4697  154.0069 H   0  0  0  0  0  0  0  0  0  0  0  0
  145.4748  134.6622  153.6710 H   0  0  0  0  0  0  0  0  0  0  0  0
  147.4371  135.5321  151.7420 H   0  0  0  0  0  0  0  0  0  0  0  0
  149.9012  143.4044  155.4904 H   0  0  0  0  0  0  0  0  0  0  0  0
  1  2  2  0  0  0  0
  2  3  1  0  0  0  0
  2 15  1  0  0  0  0
  3  4  1  0  0  0  0
  3 25  1  0  0  0  0
  4 14  1  0  0  0  0
  4  5  2  0  0  0  0
  5  6  1  0  0  0  0
  5 26  1  0  0  0  0
  6  7  2  0  0  0  0
  6 27  1  0  0  0  0
  7  8  1  0  0  0  0
  7 13  1  0  0  0  0
  8 12  1  0  0  0  0
  8  9  1  0  0  0  0
  9 10  1  0  0  0  0
  9 28  1  0  0  0  0
  9 29  1  0  0  0  0
 10 11  1  0  0  0  0
 10 30  1  0  0  0  0
 10 31  1  0  0  0  0
 11 12  1  0  0  0  0
 11 32  1  0  0  0  0
 11 33  1  0  0  0  0
 12 34  1  0  0  0  0
 12 35  1  0  0  0  0
 13 14  2  0  0  0  0
 13 52  1  0  0  0  0
 14 36  1  0  0  0  0
 15 16  1  0  0  0  0
 16 24  1  0  0  0  0
 16 17  1  0  0  0  0
 16 37  1  0  0  0  0
 17 18  1  0  0  0  0
 17 38  1  0  0  0  0
 17 39  1  0  0  0  0
 18 19  1  0  0  0  0
 18 40  1  0  0  0  0
 18 41  1  0  0  0  0
 19 24  1  0  0  0  0
 19 20  1  0  0  0  0
 19 51  1  0  0  0  0
 20 21  1  0  0  0  0
 20 42  1  0  0  0  0
 20 43  1  0  0  0  0
 21 22  1  0  0  0  0
 21 44  1  0  0  0  0
 21 45  1  0  0  0  0
 22 23  1  0  0  0  0
 22 46  1  0  0  0  0
 22 47  1  0  0  0  0
 23 24  1  0  0  0  0
 23 48  1  0  0  0  0
 23 49  1  0  0  0  0
 24 50  1  0  0  0  0
M  CHG  1  13   1
M  CHG  1  15  -1
M  CHG  1  19   1
M  END
> <s_m_source_file>
AV-unprocessed.smi

> <i_m_source_file_index>
1867

> <i_lp_mmshare_version>
43012

> <i_f3d_flags>
0

> <s_epik_input>
W0NIMl0xW0NIMl1bQ0gyXVtDSDJdW0NASF0oTjEyKVtDQEBIXShbQ0gyXVtDSDJdMilbTkhdQyg9TylbTkhdYzNbY0hdW2NIXWMobltjSF0zKU40W0NIMl1bQ0gyXVtDSDJdW0NIMl00

> <s_epik_cmdline>
J2VwaWtfcHl0aG9uJywgJy1waCcsICc3LjAnLCAnLXRuJywgJzgnLCAnLW1hJywgJzIwMCcsICctbWV0YWxfYmluZGluZycsICctaW1hZScsICc8aW5maWxlLm1hZT4nLCAnLW9tYWUnLCAnPG91dGZpbGUubWFlPic=

> <r_lp_tautomer_probability>
0.999994

> <r_epik_Ionization_Penalty>
8.56137

> <r_epik_Ionization_Penalty_Charging>
8.56136

> <r_epik_Ionization_Penalty_Neutral>
3.91889e-06

> <r_epik_State_Penalty>
8.16255

> <r_epik_Charging_Adjusted_Penalty>
16.7239

> <i_epik_Tot_Q>
1

> <i_epik_Tot_abs_Q>
3

> <r_epik_Metal_State_Penalty>
4.14279

> <b_epik_Metal_Only>
1

> <s_lp_Force_Field>
OPLS_2005

> <r_lp_Energy>
66.867

> <b_lp_Chiralities_Consistent>
1

> <s_lp_Variant>
AV-unprocessed.smi:1867-18

> <Gold.Version>
5.8.1

> <Gold.Id.Protein>
6NUR|6NUR_protein|mol2

> <Gold.PLP.Fitness>
50.7617

> <Gold.PLP.PLP>
-39.5138

> <Gold.PLP.part.hbond>
-2.8161

> <Gold.PLP.part.metal>
0.0000

> <Gold.PLP.part.buried>
0.0216

> <Gold.PLP.part.nonpolar>
-38.8573

> <Gold.PLP.part.repulsive>
2.5492

> <Gold.PLP.ligand.clash>
0.0000

> <Gold.PLP.ligand.torsion>
0.8896

> <Gold.PLP.Chemscore.Hbond>
4.2568

> <Gold.PLP.Chemscore.CHOScore>
0.0000

> <Gold.PLP.Chemscore.Metal>
0.0000

> <Gold.Chemscore.Hbonds>
donor molecule, donor type, donor heavy atom, donor atom, acceptor molecule, acceptor atom, score
      L1  H     3    25       P1  7957  0.50
      L1  H    13    52       P1  8028  1.73
      L1  H    19    51       P1  7948  2.00

> <Gold.PLP.Chemscore.Internal.Correction>
0.2567

> <Gold.Rescore>
     Score         DG    S(hbond)    S(metal)    S(lipo)     H(rot)  DE(clash)    DE(int)     intcor
     19.95     -24.08       2.52        0.00     108.99       1.00       1.98       2.15       ----

> <Gold.Chemscore.Fitness>
19.9486

> <Gold.Chemscore.DG>
-24.0798

> <Gold.Chemscore.ZeroCoef>
-5.4800

> <Gold.Chemscore.Hbond>
2.5173

> <Gold.Chemscore.Metal>
0.0000

> <Gold.Chemscore.Lipo>
108.9916

> <Gold.Chemscore.Internal_Hbond>
0.0000

> <Gold.Chemscore.DEClash>
1.9765

> <Gold.Chemscore.DEInternal>
2.1547

> <Gold.Chemscore.Rot>
1.0000

> <Gold.Chemscore.Internal.Correction>
   9.000000E+99

> <Gold.Chemscore.Hbonds>
donor molecule, donor type, donor heavy atom, donor atom, acceptor molecule, acceptor atom, score
      L1  H     3    25       P1  7957  0.50
      L1  H    13    52       P1  8028  0.85
      L1  H    19    51       P1  7948  0.99

> <Gold.Chemscore.Hbond.Weighted>
-8.4078

> <Gold.Chemscore.Metal.Weighted>
-0.0000

> <Gold.Chemscore.Lipo.Weighted>
-12.7520

> <Gold.Chemscore.Internal_Hbond.Weighted>
0.0000

> <Gold.Chemscore.DEClash.Weighted>
1.9765

> <Gold.Chemscore.DEInternal.Weighted>
2.1547

> <Gold.Chemscore.Rot.Weighted>
2.5600

> <Gold.Chemscore.Internal.Correction.Weighted>
   9.000000E+99

> <Gold.Protein.RotatedTorsions>
[ 6907 6896 6895 6894 ] final   65.33 input  -60.11 | X-H torsion
[ 7974 7965 7964 7962 ] final -145.62 input  175.53 | X-H torsion
[ 8008 7997 7996 7995 ] final  -89.07 input   59.86 | X-H torsion
[ 10167 10162 10161 10158 ] final  -28.45 input  -65.29 | X-H torsion
[ 10718 10713 10712 10709 ] final  -38.01 input   66.30 | X-H torsion
[ 10763 10752 10751 10750 ] final    7.90 input  -60.55 | X-H torsion
[ 11005 11000 10999 10996 ] final  -59.94 input  -57.11 | X-H torsion

> <Gold.Protein.ActiveResidues>
 VAL166  LYS551  ARG553  GLY616  TRP617  ASP618  TYR619  PRO620  LYS621  CYS622 
 ASP623  PHE694  ASN695  SER759  ASP760  ASP761  ALA762  ILE779  LEU786  VAL792 
 PHE793  MET794  SER795  GLU796  ALA797  LYS798  CYS799  TRP800  GLU811  SER814 

> <Gold.Protein.RotatedAtoms>
  152.4399  134.5611  159.9894 H   0  0  0  0  0  0  0  0  0  0  0  0  # atno 6907 bound_to 6896
  151.5712  133.3384  159.2998 H   0  0  0  0  0  0  0  0  0  0  0  0  # atno 6908 bound_to 6896
  150.8303  134.7588  159.6912 H   0  0  0  0  0  0  0  0  0  0  0  0  # atno 6909 bound_to 6896
  144.8215  140.5560  143.5575 H   0  0  0  0  0  0  0  0  0  0  0  0  # atno 7974 bound_to 7965
  154.6823  140.0546  157.0278 H   0  0  0  0  0  0  0  0  0  0  0  0  # atno 8008 bound_to 7997
  155.0934  140.3221  155.4548 H   0  0  0  0  0  0  0  0  0  0  0  0  # atno 8009 bound_to 7997
  156.2698  140.2044  156.6061 H   0  0  0  0  0  0  0  0  0  0  0  0  # atno 8010 bound_to 7997
  140.7269  143.4009  151.1267 H   0  0  0  0  0  0  0  0  0  0  0  0  # atno 10167 bound_to 10162
  156.3086  130.4249  149.8072 H   0  0  0  0  0  0  0  0  0  0  0  0  # atno 10718 bound_to 10713
  153.2311  135.6892  153.7889 H   0  0  0  0  0  0  0  0  0  0  0  0  # atno 10763 bound_to 10752
  153.7053  135.3291  155.3235 H   0  0  0  0  0  0  0  0  0  0  0  0  # atno 10764 bound_to 10752
  154.8314  135.4577  154.1196 H   0  0  0  0  0  0  0  0  0  0  0  0  # atno 10765 bound_to 10752
  141.1268  133.6619  156.5147 H   0  0  0  0  0  0  0  0  0  0  0  0  # atno 11005 bound_to 11000
  145.5095  139.1480  143.3613 LP  0  0  0  0  0  0  0  0  0  0  0  0  # atno 17320 bound_to 7965
  146.2520  140.5235  142.8889 LP  0  0  0  0  0  0  0  0  0  0  0  0  # atno 17321 bound_to 7965
  139.7628  143.8609  152.3104 LP  0  0  0  0  0  0  0  0  0  0  0  0  # atno 17342 bound_to 10162
  139.8501  144.7168  150.9224 LP  0  0  0  0  0  0  0  0  0  0  0  0  # atno 17343 bound_to 10162
  156.5423  130.8305  151.3273 LP  0  0  0  0  0  0  0  0  0  0  0  0  # atno 17370 bound_to 10713
  157.7386  130.9815  150.2260 LP  0  0  0  0  0  0  0  0  0  0  0  0  # atno 17371 bound_to 10713
  140.4340  134.7076  157.4957 LP  0  0  0  0  0  0  0  0  0  0  0  0  # atno 17394 bound_to 11000
  140.0274  134.6456  155.9153 LP  0  0  0  0  0  0  0  0  0  0  0  0  # atno 17395 bound_to 11000

$$$$
