#       Name:                AV-unprocessed.smi:2335
#       Creating user name   scv26
#       Creation time:       Fri Mar 27 12:54:24 2020


#       File generated by GOLD software.
#

@<TRIPOS>MOLECULE
AV-unprocessed.smi:2335
    48    49     1
SMALL
NO_CHARGES


@<TRIPOS>ATOM
      1 ****        -7.2228   2.5792  -1.3410 C.3            1 S1                 0.0000
      2 ****        -6.4781   2.6670  -0.0048 C.3            1 S1                 0.0000
      3 ****        -5.0480   2.2554  -0.1164 C.2            1 S1                 0.0000
      4 ****        -4.0660   3.1203  -0.3999 N.2            1 S1                 0.0000
      5 ****        -2.8248   2.5033  -0.4703 N.2            1 S1                 0.0000
      6 ****        -2.9101   1.1837  -0.2534 C.2            1 S1                 0.0000
      7 ****        -1.7929   0.3078  -0.2671 N.am           1 S1                 0.0000
      8 ****        -0.4900   0.6206  -0.3786 C.2            1 S1                 0.0000
      9 ****        -0.0396   1.7576  -0.5198 O.2            1 S1                 0.0000
     10 ****         0.2774  -0.4758  -0.3050 N.am           1 S1                 0.0000
     11 ****         1.7390  -0.4865  -0.3341 C.3            1 S1                 0.0000
     12 ****         2.2749  -1.8030  -0.8617 C.3            1 S1                 0.0000
     13 ****         3.6848  -1.8749  -0.2620 C.3            1 S1                 0.0000
     14 ****         4.0779  -3.3071   0.1322 C.3            1 S1                 0.0000
     15 ****         4.7383  -1.2501  -1.1925 C.3            1 S1                 0.0000
     16 ****         3.6393  -1.0768   0.9198 O.3            1 S1                 0.0000
     17 ****         2.3924  -0.3985   1.0628 C.3            1 S1                 0.0000
     18 ****         2.6906   1.0503   1.4795 C.3            1 S1                 0.0000
     19 ****         1.6179  -1.1363   2.1756 C.3            1 S1                 0.0000
     20 ****        -4.5306   0.5816   0.0500 S.3            1 S1                 0.0000
     21 ****        -8.2614   2.8903  -1.2280 H              1 S1                 0.0000
     22 ****        -7.2204   1.5589  -1.7259 H              1 S1                 0.0000
     23 ****        -6.7620   3.2225  -2.0909 H              1 S1                 0.0000
     24 ****        -6.5229   3.6871   0.3786 H              1 S1                 0.0000
     25 ****        -6.9669   2.0338   0.7359 H              1 S1                 0.0000
     26 ****        -2.0097  -0.6705  -0.1476 H              1 S1                 0.0000
     27 ****        -0.1792  -1.3689  -0.1923 H              1 S1                 0.0000
     28 ****         2.1143   0.3130  -0.9763 H              1 S1                 0.0000
     29 ****         1.6640  -2.6281  -0.4919 H              1 S1                 0.0000
     30 ****         2.2682  -1.8563  -1.9509 H              1 S1                 0.0000
     31 ****         4.1120  -3.9611  -0.7397 H              1 S1                 0.0000
     32 ****         3.3660  -3.7324   0.8402 H              1 S1                 0.0000
     33 ****         5.0607  -3.3302   0.6042 H              1 S1                 0.0000
     34 ****         4.8178  -1.8050  -2.1278 H              1 S1                 0.0000
     35 ****         5.7234  -1.2476  -0.7247 H              1 S1                 0.0000
     36 ****         4.4914  -0.2172  -1.4393 H              1 S1                 0.0000
     37 ****         1.7720   1.6224   1.6097 H              1 S1                 0.0000
     38 ****         3.2981   1.5607   0.7318 H              1 S1                 0.0000
     39 ****         3.2365   1.0833   2.4226 H              1 S1                 0.0000
     40 ****         0.6624  -0.6555   2.3869 H              1 S1                 0.0000
     41 ****         2.1880  -1.1450   3.1049 H              1 S1                 0.0000
     42 ****         1.4177  -2.1740   1.9081 H              1 S1                 0.0000
     43 ****        -4.2104   4.0993  -0.5445 LP             1 S1                 0.0000
     44 ****        -1.9696   2.9856  -0.6601 LP             1 S1                 0.0000
     45 ****        -0.6609   2.5402  -0.5596 LP             1 S1                 0.0000
     46 ****         0.9476   1.8987  -0.5947 LP             1 S1                 0.0000
     47 ****         4.3726  -0.3980   0.8787 LP             1 S1                 0.0000
     48 ****         3.7771  -1.6687   1.7139 LP             1 S1                 0.0000
@<TRIPOS>BOND
    1    1    2 1     
    2    1   21 1     
    3    1   22 1     
    4    1   23 1     
    5    2    3 1     
    6    2   24 1     
    7    2   25 1     
    8    3   20 1     
    9    3    4 2     
   10    4    5 1     
   11    5    6 2     
   12    6    7 1     
   13    6   20 1     
   14    7    8 am    
   15    7   26 1     
   16    8    9 2     
   17    8   10 am    
   18   10   11 1     
   19   10   27 1     
   20   11   17 1     
   21   11   12 1     
   22   11   28 1     
   23   12   13 1     
   24   12   29 1     
   25   12   30 1     
   26   13   14 1     
   27   13   15 1     
   28   13   16 1     
   29   14   31 1     
   30   14   32 1     
   31   14   33 1     
   32   15   34 1     
   33   15   35 1     
   34   15   36 1     
   35   16   17 1     
   36   17   18 1     
   37   17   19 1     
   38   18   37 1     
   39   18   38 1     
   40   18   39 1     
   41   19   40 1     
   42   19   41 1     
   43   19   42 1     
   44    4   43 1     
   45    5   44 1     
   46    9   45 1     
   47    9   46 1     
   48   16   47 1     
   49   16   48 1     
@<TRIPOS>SUBSTRUCTURE
      1 S1             1
@<TRIPOS>SET
LONE_PAIRS      STATIC     ATOMS    <user>   **** ""
6 43 44 45 46 47 48
DONOR_HYDROGENS      STATIC     ATOMS    <user>   **** ""
2 26 27
ATOM$BLUE        STATIC     ATOMS    COLORGROUP SYSTEM
6 43 44 45 46 47 48
ATOM$RED        STATIC     ATOMS    COLORGROUP SYSTEM
2 26 27
