AV-unprocessed.smi:1720|AV-procd|sdf|6931|dock7
  -GOLD-   22720 8143D 1   1.00000     0.00000
 Structure written by MMmdl.
 32 33  0  0  0  0  0  0  0  0  1 V2000
  149.6768  142.0388  157.4054 C   0  0  0  0  0  0  0  0  0  0  0  0
  149.5274  142.8091  158.7264 C   0  0  2  0  0  0  0  0  0  0  0  0
  148.3889  143.7176  158.6069 N   0  0  0  0  0  0  0  0  0  0  0  0
  147.2476  143.6363  159.3062 C   0  0  0  0  0  0  0  0  0  0  0  0
  147.0194  142.7637  160.1442 O   0  0  0  0  0  0  0  0  0  0  0  0
  146.4015  144.6241  158.9718 N   0  0  0  0  0  0  0  0  0  0  0  0
  145.1101  144.8690  159.5036 C   0  0  0  0  0  0  0  0  0  0  0  0
  144.1812  145.8059  158.9748 C   0  0  0  0  0  0  0  0  0  0  0  0
  143.0567  145.8208  159.6764 N   0  0  0  0  0  0  0  0  0  0  0  0
  143.2591  144.9020  160.6477 N   0  0  0  0  0  0  0  0  0  0  0  0
  144.4949  144.2972  160.5819 C   0  0  0  0  0  0  0  0  0  0  0  0
  150.7996  143.6044  159.0866 C   0  0  2  0  0  0  0  0  0  0  0  0
  151.2736  144.5770  158.0058 C   0  0  0  0  0  0  0  0  0  0  0  0
  152.7580  144.7360  158.2927 C   0  0  0  0  0  0  0  0  0  0  0  0
  153.0901  143.5523  159.2051 C   0  0  0  0  0  0  0  0  0  0  0  0
  151.9221  142.7438  159.2071 O   0  0  0  0  0  0  0  0  0  0  0  0
  142.5522  144.7011  161.3406 H   0  0  0  0  0  0  0  0  0  0  0  0
  150.4754  141.2991  157.4642 H   0  0  0  0  0  0  0  0  0  0  0  0
  149.9055  142.7105  156.5773 H   0  0  0  0  0  0  0  0  0  0  0  0
  148.7592  141.5043  157.1576 H   0  0  0  0  0  0  0  0  0  0  0  0
  149.3327  142.0787  159.5138 H   0  0  0  0  0  0  0  0  0  0  0  0
  148.4830  144.4726  157.9439 H   0  0  0  0  0  0  0  0  0  0  0  0
  146.7165  145.2735  158.2662 H   0  0  0  0  0  0  0  0  0  0  0  0
  144.2833  146.4624  158.1232 H   0  0  0  0  0  0  0  0  0  0  0  0
  144.8073  143.5415  161.2874 H   0  0  0  0  0  0  0  0  0  0  0  0
  150.6622  144.1372  160.0298 H   0  0  0  0  0  0  0  0  0  0  0  0
  151.1394  144.1356  157.0173 H   0  0  0  0  0  0  0  0  0  0  0  0
  150.7365  145.5259  158.0262 H   0  0  0  0  0  0  0  0  0  0  0  0
  153.3394  144.7143  157.3705 H   0  0  0  0  0  0  0  0  0  0  0  0
  152.9663  145.6789  158.7996 H   0  0  0  0  0  0  0  0  0  0  0  0
  153.9558  142.9871  158.8593 H   0  0  0  0  0  0  0  0  0  0  0  0
  153.2913  143.8953  160.2210 H   0  0  0  0  0  0  0  0  0  0  0  0
  1  2  1  0  0  0  0
  1 18  1  0  0  0  0
  1 19  1  0  0  0  0
  1 20  1  0  0  0  0
  2  3  1  0  0  0  0
  2 12  1  0  0  0  0
  2 21  1  0  0  0  0
  3  4  1  0  0  0  0
  3 22  1  0  0  0  0
  4  5  2  0  0  0  0
  4  6  1  0  0  0  0
  6  7  1  0  0  0  0
  6 23  1  0  0  0  0
  7 11  2  0  0  0  0
  7  8  1  0  0  0  0
  8  9  2  0  0  0  0
  8 24  1  0  0  0  0
  9 10  1  0  0  0  0
 10 17  1  0  0  0  0
 10 11  1  0  0  0  0
 11 25  1  0  0  0  0
 12 16  1  0  0  0  0
 12 13  1  0  0  0  0
 12 26  1  0  0  0  0
 13 14  1  0  0  0  0
 13 27  1  0  0  0  0
 13 28  1  0  0  0  0
 14 15  1  0  0  0  0
 14 29  1  0  0  0  0
 14 30  1  0  0  0  0
 15 16  1  0  0  0  0
 15 31  1  0  0  0  0
 15 32  1  0  0  0  0
M  END
> <s_m_source_file>
AV-unprocessed.smi

> <i_m_source_file_index>
1720

> <i_lp_mmshare_version>
43012

> <i_f3d_flags>
0

> <s_epik_input>
TzFbQ0gyXVtDSDJdW0NIMl1bQ0BIXTFbQ0BIXShbQ0gzXSlbTkhdQyg9TylbTkhdYzJbY0hdbltuSF1bY0hdMg==

> <s_epik_cmdline>
J2VwaWtfcHl0aG9uJywgJy1waCcsICc3LjAnLCAnLXRuJywgJzgnLCAnLW1hJywgJzIwMCcsICctbWV0YWxfYmluZGluZycsICctaW1hZScsICc8aW5maWxlLm1hZT4nLCAnLW9tYWUnLCAnPG91dGZpbGUubWFlPic=

> <r_lp_tautomer_probability>
1

> <r_epik_Ionization_Penalty>
4.95841e-05

> <r_epik_Ionization_Penalty_Charging>
0

> <r_epik_Ionization_Penalty_Neutral>
4.95841e-05

> <r_epik_State_Penalty>
-0

> <r_epik_Charging_Adjusted_Penalty>
0

> <i_epik_Tot_Q>
0

> <i_epik_Tot_abs_Q>
0

> <r_epik_Metal_State_Penalty>
-0

> <b_epik_Metal_Only>
0

> <s_lp_Force_Field>
OPLS_2005

> <r_lp_Energy>
20.531

> <b_lp_Chiralities_Consistent>
1

> <s_lp_Variant>
AV-unprocessed.smi:1720-1

> <Gold.Version>
5.8.1

> <Gold.Id.Protein>
6NUR|6NUR_protein|mol2

> <Gold.PLP.Fitness>
36.5264

> <Gold.PLP.PLP>
-25.4810

> <Gold.PLP.part.hbond>
-5.5807

> <Gold.PLP.part.metal>
0.0000

> <Gold.PLP.part.buried>
-1.7684

> <Gold.PLP.part.nonpolar>
-18.7861

> <Gold.PLP.part.repulsive>
0.2457

> <Gold.PLP.ligand.clash>
0.0000

> <Gold.PLP.ligand.torsion>
0.0562

> <Gold.PLP.Chemscore.Hbond>
3.7120

> <Gold.PLP.Chemscore.CHOScore>
0.0000

> <Gold.PLP.Chemscore.Metal>
0.0000

> <Gold.Chemscore.Hbonds>
donor molecule, donor type, donor heavy atom, donor atom, acceptor molecule, acceptor atom, score
      L1  H     3    22       P1  8029  0.85
      L1  H     6    23       P1  8029  1.00
      P1  H  6933  6944       L1     5  0.83
      P1  H  6934  6946       L1     5  0.86

> <Gold.PLP.Chemscore.Internal.Correction>
0.0218

> <Gold.Rescore>
     Score         DG    S(hbond)    S(metal)    S(lipo)     H(rot)  DE(clash)    DE(int)     intcor
     19.46     -20.64       3.06        0.00      70.81       1.31       0.00       1.17       ----

> <Gold.Chemscore.Fitness>
19.4588

> <Gold.Chemscore.DG>
-20.6357

> <Gold.Chemscore.ZeroCoef>
-5.4800

> <Gold.Chemscore.Hbond>
3.0596

> <Gold.Chemscore.Metal>
0.0000

> <Gold.Chemscore.Lipo>
70.8117

> <Gold.Chemscore.Internal_Hbond>
0.0000

> <Gold.Chemscore.DEClash>
0.0048

> <Gold.Chemscore.DEInternal>
1.1721

> <Gold.Chemscore.Rot>
1.3079

> <Gold.Chemscore.Internal.Correction>
   9.000000E+99

> <Gold.Chemscore.Hbonds>
donor molecule, donor type, donor heavy atom, donor atom, acceptor molecule, acceptor atom, score
      L1  H     3    22       P1  8029  0.14
      L1  H     6    23       P1  8029  0.97
      P1  H  6933  6944       L1     5  0.74
      P1  H  6934  6946       L1     5  0.83

> <Gold.Chemscore.Hbond.Weighted>
-10.2191

> <Gold.Chemscore.Metal.Weighted>
-0.0000

> <Gold.Chemscore.Lipo.Weighted>
-8.2850

> <Gold.Chemscore.Internal_Hbond.Weighted>
0.0000

> <Gold.Chemscore.DEClash.Weighted>
0.0048

> <Gold.Chemscore.DEInternal.Weighted>
1.1721

> <Gold.Chemscore.Rot.Weighted>
3.3483

> <Gold.Chemscore.Internal.Correction.Weighted>
   9.000000E+99

> <Gold.Protein.RotatedTorsions>
[ 6907 6896 6895 6894 ] final   96.65 input  -60.11 | X-H torsion
[ 7974 7965 7964 7962 ] final  -95.85 input  175.53 | X-H torsion
[ 8008 7997 7996 7995 ] final  -55.12 input   59.86 | X-H torsion
[ 10167 10162 10161 10158 ] final  134.79 input  -65.29 | X-H torsion
[ 10718 10713 10712 10709 ] final  -86.84 input   66.30 | X-H torsion
[ 10763 10752 10751 10750 ] final  155.42 input  -60.55 | X-H torsion
[ 11005 11000 10999 10996 ] final  -44.58 input  -57.11 | X-H torsion

> <Gold.Protein.ActiveResidues>
 VAL166  LYS551  ARG553  GLY616  TRP617  ASP618  TYR619  PRO620  LYS621  CYS622 
 ASP623  PHE694  ASN695  SER759  ASP760  ASP761  ALA762  ILE779  LEU786  VAL792 
 PHE793  MET794  SER795  GLU796  ALA797  LYS798  CYS799  TRP800  GLU811  SER814 

> <Gold.Protein.RotatedAtoms>
  152.5432  134.0853  159.8253 H   0  0  0  0  0  0  0  0  0  0  0  0  # atno 6907 bound_to 6896
  151.0950  133.5280  159.2620 H   0  0  0  0  0  0  0  0  0  0  0  0  # atno 6908 bound_to 6896
  151.2056  135.0469  159.8944 H   0  0  0  0  0  0  0  0  0  0  0  0  # atno 6909 bound_to 6896
  145.3546  140.9482  143.2535 H   0  0  0  0  0  0  0  0  0  0  0  0  # atno 7974 bound_to 7965
  154.4184  140.1160  156.5426 H   0  0  0  0  0  0  0  0  0  0  0  0  # atno 8008 bound_to 7997
  155.6492  140.3496  155.4723 H   0  0  0  0  0  0  0  0  0  0  0  0  # atno 8009 bound_to 7997
  155.9806  140.1159  157.0719 H   0  0  0  0  0  0  0  0  0  0  0  0  # atno 8010 bound_to 7997
  139.5242  144.6550  151.5190 H   0  0  0  0  0  0  0  0  0  0  0  0  # atno 10167 bound_to 10162
  155.9988  130.4779  150.4776 H   0  0  0  0  0  0  0  0  0  0  0  0  # atno 10718 bound_to 10713
  154.1681  135.2806  155.3089 H   0  0  0  0  0  0  0  0  0  0  0  0  # atno 10763 bound_to 10752
  154.6096  135.5503  153.7462 H   0  0  0  0  0  0  0  0  0  0  0  0  # atno 10764 bound_to 10752
  153.0172  135.6412  154.1822 H   0  0  0  0  0  0  0  0  0  0  0  0  # atno 10765 bound_to 10752
  141.0460  133.6761  156.2893 H   0  0  0  0  0  0  0  0  0  0  0  0  # atno 11005 bound_to 11000
  144.8692  139.5063  143.6776 LP  0  0  0  0  0  0  0  0  0  0  0  0  # atno 17320 bound_to 7965
  146.2953  139.7260  142.9131 LP  0  0  0  0  0  0  0  0  0  0  0  0  # atno 17321 bound_to 7965
  140.6371  143.8962  150.6657 LP  0  0  0  0  0  0  0  0  0  0  0  0  # atno 17342 bound_to 10162
  140.2285  143.3754  152.1585 LP  0  0  0  0  0  0  0  0  0  0  0  0  # atno 17343 bound_to 10162
  157.2785  131.0602  151.2213 LP  0  0  0  0  0  0  0  0  0  0  0  0  # atno 17370 bound_to 10713
  157.3268  130.6965  149.6301 LP  0  0  0  0  0  0  0  0  0  0  0  0  # atno 17371 bound_to 10713
  140.6146  134.5423  157.5539 LP  0  0  0  0  0  0  0  0  0  0  0  0  # atno 17394 bound_to 11000
  139.9312  134.7960  156.0926 LP  0  0  0  0  0  0  0  0  0  0  0  0  # atno 17395 bound_to 11000

$$$$
