AV-unprocessed.smi:500|AV-procd|sdf|2736|dock1
  -GOLD-   2262023193D 1   1.00000     0.00000
 Structure written by MMmdl.
 46 48  0  0  0  0  0  0  0  0  2 V2000
  152.2374  142.4424  159.9578 C   0  0  0  0  0  0  0  0  0  0  0  0
  151.2891  142.2421  158.7738 C   0  0  0  0  0  0  0  0  0  0  0  0
  151.9789  141.5422  157.7534 O   0  0  0  0  0  0  0  0  0  0  0  0
  151.1908  141.3391  156.5921 C   0  0  0  0  0  0  0  0  0  0  0  0
  150.4847  139.9791  156.6801 C   0  0  0  0  0  0  0  0  0  0  0  0
  149.8079  139.6205  155.4240 N   0  0  0  0  0  0  0  0  0  0  0  0
  150.0517  138.5999  154.5505 C   0  0  0  0  0  0  0  0  0  0  0  0
  151.1004  137.5353  154.6798 C   0  0  2  0  0  0  0  0  0  0  0  0
  152.3080  137.8141  153.7716 C   0  0  0  0  0  0  0  0  0  0  0  0
  150.5463  136.2214  154.3670 N   0  0  0  0  0  0  0  0  0  0  0  0
  150.8370  135.0724  154.9981 C   0  0  0  0  0  0  0  0  0  0  0  0
  151.6425  134.9875  155.9245 O   0  0  0  0  0  0  0  0  0  0  0  0
  150.1307  133.8750  154.5052 C   0  0  0  0  0  0  0  0  0  0  0  0
  149.1066  133.7312  153.6058 C   0  0  0  0  0  0  0  0  0  0  0  0
  148.8255  132.3390  153.5279 C   0  0  0  0  0  0  0  0  0  0  0  0
  149.6947  131.7319  154.3877 C   0  0  0  0  0  0  0  0  0  0  0  0
  150.4937  132.6527  154.9919 O   0  0  0  0  0  0  0  0  0  0  0  0
  149.1283  138.7012  153.5509 N   0  3  0  0  0  0  0  0  0  0  0  0
  148.3111  139.8102  153.7684 C   0  0  0  0  0  0  0  0  0  0  0  0
  147.2542  140.3227  153.0224 C   0  0  0  0  0  0  0  0  0  0  0  0
  146.6296  141.4832  153.5243 C   0  0  0  0  0  0  0  0  0  0  0  0
  147.0593  142.0873  154.7237 C   0  0  0  0  0  0  0  0  0  0  0  0
  148.1298  141.5559  155.4726 C   0  0  0  0  0  0  0  0  0  0  0  0
  148.7428  140.4080  154.9695 C   0  0  0  0  0  0  0  0  0  0  0  0
  151.7403  142.9740  160.7696 H   0  0  0  0  0  0  0  0  0  0  0  0
  153.1127  143.0224  159.6643 H   0  0  0  0  0  0  0  0  0  0  0  0
  152.5846  141.4850  160.3473 H   0  0  0  0  0  0  0  0  0  0  0  0
  150.4115  141.6767  159.0909 H   0  0  0  0  0  0  0  0  0  0  0  0
  150.9454  143.2089  158.4028 H   0  0  0  0  0  0  0  0  0  0  0  0
  150.4514  142.1361  156.4983 H   0  0  0  0  0  0  0  0  0  0  0  0
  151.8205  141.3719  155.7020 H   0  0  0  0  0  0  0  0  0  0  0  0
  151.2076  139.1968  156.9058 H   0  0  0  0  0  0  0  0  0  0  0  0
  149.7626  139.9652  157.4964 H   0  0  0  0  0  0  0  0  0  0  0  0
  151.4682  137.5525  155.7066 H   0  0  0  0  0  0  0  0  0  0  0  0
  152.7516  138.7843  153.9979 H   0  0  0  0  0  0  0  0  0  0  0  0
  152.0316  137.8101  152.7166 H   0  0  0  0  0  0  0  0  0  0  0  0
  153.0828  137.0595  153.9117 H   0  0  0  0  0  0  0  0  0  0  0  0
  149.8766  136.1810  153.6125 H   0  0  0  0  0  0  0  0  0  0  0  0
  148.6167  134.5291  153.0673 H   0  0  0  0  0  0  0  0  0  0  0  0
  148.0815  131.8444  152.9211 H   0  0  0  0  0  0  0  0  0  0  0  0
  149.8714  130.7064  154.6774 H   0  0  0  0  0  0  0  0  0  0  0  0
  146.9246  139.8626  152.1024 H   0  0  0  0  0  0  0  0  0  0  0  0
  145.8060  141.9200  152.9783 H   0  0  0  0  0  0  0  0  0  0  0  0
  146.5588  142.9774  155.0765 H   0  0  0  0  0  0  0  0  0  0  0  0
  148.4539  142.0313  156.3863 H   0  0  0  0  0  0  0  0  0  0  0  0
  149.0719  138.0604  152.7699 H   0  0  0  0  0  0  0  0  0  0  0  0
  1  2  1  0  0  0  0
  1 25  1  0  0  0  0
  1 26  1  0  0  0  0
  1 27  1  0  0  0  0
  2  3  1  0  0  0  0
  2 28  1  0  0  0  0
  2 29  1  0  0  0  0
  3  4  1  0  0  0  0
  4  5  1  0  0  0  0
  4 30  1  0  0  0  0
  4 31  1  0  0  0  0
  5  6  1  0  0  0  0
  5 32  1  0  0  0  0
  5 33  1  0  0  0  0
  6 24  1  0  0  0  0
  6  7  1  0  0  0  0
  7  8  1  0  0  0  0
  7 18  2  0  0  0  0
  8  9  1  0  0  0  0
  8 10  1  0  0  0  0
  8 34  1  0  0  0  0
  9 35  1  0  0  0  0
  9 36  1  0  0  0  0
  9 37  1  0  0  0  0
 10 11  1  0  0  0  0
 10 38  1  0  0  0  0
 11 12  2  0  0  0  0
 11 13  1  0  0  0  0
 13 17  1  0  0  0  0
 13 14  2  0  0  0  0
 14 15  1  0  0  0  0
 14 39  1  0  0  0  0
 15 16  2  0  0  0  0
 15 40  1  0  0  0  0
 16 17  1  0  0  0  0
 16 41  1  0  0  0  0
 18 19  1  0  0  0  0
 18 46  1  0  0  0  0
 19 24  2  0  0  0  0
 19 20  1  0  0  0  0
 20 21  2  0  0  0  0
 20 42  1  0  0  0  0
 21 22  1  0  0  0  0
 21 43  1  0  0  0  0
 22 23  2  0  0  0  0
 22 44  1  0  0  0  0
 23 24  1  0  0  0  0
 23 45  1  0  0  0  0
M  CHG  1  18   1
M  END
> <s_m_source_file>
AV-unprocessed.smi

> <i_m_source_file_index>
500

> <i_lp_mmshare_version>
43012

> <i_f3d_flags>
0

> <s_epik_input>
W0NIM11bQ0gyXU9bQ0gyXVtDSDJdbihjKGMxMilbY0hdW2NIXVtjSF1bY0hdMiljKG4xKVtDQEhdKFtDSDNdKVtOSF1DKD1PKWMzW2NIXVtjSF1bY0hdbzM=

> <s_epik_cmdline>
J2VwaWtfcHl0aG9uJywgJy1waCcsICc3LjAnLCAnLXRuJywgJzgnLCAnLW1hJywgJzIwMCcsICctbWV0YWxfYmluZGluZycsICctaW1hZScsICc8aW5maWxlLm1hZT4nLCAnLW9tYWUnLCAnPG91dGZpbGUubWFlPic=

> <r_epik_Ionization_Penalty>
1.05286

> <r_epik_Ionization_Penalty_Charging>
1.05283

> <r_epik_Ionization_Penalty_Neutral>
2.09263e-05

> <r_epik_State_Penalty>
1.10586

> <r_epik_Charging_Adjusted_Penalty>
2.15869

> <i_epik_Tot_Q>
1

> <i_epik_Tot_abs_Q>
1

> <r_epik_Metal_State_Penalty>
1.22833

> <b_epik_Metal_Only>
0

> <s_lp_Force_Field>
OPLS_2005

> <r_lp_Energy>
11.0053

> <b_lp_Chiralities_Consistent>
1

> <s_lp_Variant>
AV-unprocessed.smi:500-3

> <Gold.Version>
5.8.1

> <Gold.Id.Protein>
6NUR|6NUR_protein|mol2

> <Gold.PLP.Fitness>
49.9000

> <Gold.PLP.PLP>
-39.9351

> <Gold.PLP.part.hbond>
-4.7484

> <Gold.PLP.part.metal>
0.0000

> <Gold.PLP.part.buried>
3.0197

> <Gold.PLP.part.nonpolar>
-37.3610

> <Gold.PLP.part.repulsive>
0.1550

> <Gold.PLP.ligand.clash>
0.0000

> <Gold.PLP.ligand.torsion>
1.0735

> <Gold.PLP.Chemscore.Hbond>
3.9280

> <Gold.PLP.Chemscore.CHOScore>
0.0000

> <Gold.PLP.Chemscore.Metal>
0.0000

> <Gold.Chemscore.Hbonds>
donor molecule, donor type, donor heavy atom, donor atom, acceptor molecule, acceptor atom, score
      L1  H    10    38       P1  7948  0.85
      L1  H    18    46       P1  7948  2.00
      P1  H 10752 10764       L1    12  0.88

> <Gold.PLP.Chemscore.Internal.Correction>
0.3279

> <Gold.Rescore>
     Score         DG    S(hbond)    S(metal)    S(lipo)     H(rot)  DE(clash)    DE(int)     intcor
     16.03     -17.94       1.61        0.00     103.85       1.97       0.57       1.35       ----

> <Gold.Chemscore.Fitness>
16.0279

> <Gold.Chemscore.DG>
-17.9449

> <Gold.Chemscore.ZeroCoef>
-5.4800

> <Gold.Chemscore.Hbond>
1.6076

> <Gold.Chemscore.Metal>
0.0000

> <Gold.Chemscore.Lipo>
103.8494

> <Gold.Chemscore.Internal_Hbond>
0.0000

> <Gold.Chemscore.DEClash>
0.5710

> <Gold.Chemscore.DEInternal>
1.3459

> <Gold.Chemscore.Rot>
1.9746

> <Gold.Chemscore.Internal.Correction>
   9.000000E+99

> <Gold.Chemscore.Hbonds>
donor molecule, donor type, donor heavy atom, donor atom, acceptor molecule, acceptor atom, score
      L1  H    10    38       P1  7948  0.15
      L1  H    18    46       P1  7948  0.93
      P1  H 10752 10764       L1    12  0.34

> <Gold.Chemscore.Hbond.Weighted>
-5.3695

> <Gold.Chemscore.Metal.Weighted>
-0.0000

> <Gold.Chemscore.Lipo.Weighted>
-12.1504

> <Gold.Chemscore.Internal_Hbond.Weighted>
0.0000

> <Gold.Chemscore.DEClash.Weighted>
0.5710

> <Gold.Chemscore.DEInternal.Weighted>
1.3459

> <Gold.Chemscore.Rot.Weighted>
5.0550

> <Gold.Chemscore.Internal.Correction.Weighted>
   9.000000E+99

> <Gold.Protein.RotatedTorsions>
[ 6907 6896 6895 6894 ] final  171.47 input  -60.11 | X-H torsion
[ 7974 7965 7964 7962 ] final   36.59 input  175.53 | X-H torsion
[ 8008 7997 7996 7995 ] final  -31.74 input   59.86 | X-H torsion
[ 10167 10162 10161 10158 ] final  -90.59 input  -65.29 | X-H torsion
[ 10718 10713 10712 10709 ] final  122.19 input   66.30 | X-H torsion
[ 10763 10752 10751 10750 ] final  -22.76 input  -60.55 | X-H torsion
[ 11005 11000 10999 10996 ] final   24.52 input  -57.11 | X-H torsion

> <Gold.Protein.ActiveResidues>
 VAL166  LYS551  ARG553  GLY616  TRP617  ASP618  TYR619  PRO620  LYS621  CYS622 
 ASP623  PHE694  ASN695  SER759  ASP760  ASP761  ALA762  ILE779  LEU786  VAL792 
 PHE793  MET794  SER795  GLU796  ALA797  LYS798  CYS799  TRP800  GLU811  SER814 

> <Gold.Protein.RotatedAtoms>
  151.7996  133.3368  159.3522 H   0  0  0  0  0  0  0  0  0  0  0  0  # atno 6907 bound_to 6896
  150.7363  134.5766  159.5926 H   0  0  0  0  0  0  0  0  0  0  0  0  # atno 6908 bound_to 6896
  152.3152  134.7450  160.0378 H   0  0  0  0  0  0  0  0  0  0  0  0  # atno 6909 bound_to 6896
  146.1200  139.5998  142.9296 H   0  0  0  0  0  0  0  0  0  0  0  0  # atno 7974 bound_to 7965
  154.4203  140.1756  156.1615 H   0  0  0  0  0  0  0  0  0  0  0  0  # atno 8008 bound_to 7997
  155.9834  140.3375  155.6660 H   0  0  0  0  0  0  0  0  0  0  0  0  # atno 8009 bound_to 7997
  155.6469  140.0686  157.2590 H   0  0  0  0  0  0  0  0  0  0  0  0  # atno 8010 bound_to 7997
  140.3534  143.2879  151.9699 H   0  0  0  0  0  0  0  0  0  0  0  0  # atno 10167 bound_to 10162
  157.5761  131.1079  150.8276 H   0  0  0  0  0  0  0  0  0  0  0  0  # atno 10718 bound_to 10713
  153.6571  135.6978  153.5189 H   0  0  0  0  0  0  0  0  0  0  0  0  # atno 10763 bound_to 10752
  153.2661  135.4229  155.0941 H   0  0  0  0  0  0  0  0  0  0  0  0  # atno 10764 bound_to 10752
  154.8461  135.3567  154.6116 H   0  0  0  0  0  0  0  0  0  0  0  0  # atno 10765 bound_to 10752
  140.3578  134.2158  155.7674 H   0  0  0  0  0  0  0  0  0  0  0  0  # atno 11005 bound_to 11000
  145.5486  141.0415  143.2291 LP  0  0  0  0  0  0  0  0  0  0  0  0  # atno 17320 bound_to 7965
  144.7588  139.7008  143.7243 LP  0  0  0  0  0  0  0  0  0  0  0  0  # atno 17321 bound_to 7965
  139.4823  144.6056  151.7527 LP  0  0  0  0  0  0  0  0  0  0  0  0  # atno 17342 bound_to 10162
  140.5197  144.0898  150.6019 LP  0  0  0  0  0  0  0  0  0  0  0  0  # atno 17343 bound_to 10162
  156.8734  130.5154  149.5295 LP  0  0  0  0  0  0  0  0  0  0  0  0  # atno 17370 bound_to 10713
  156.0806  130.5817  150.9556 LP  0  0  0  0  0  0  0  0  0  0  0  0  # atno 17371 bound_to 10713
  141.1993  133.8015  157.0543 LP  0  0  0  0  0  0  0  0  0  0  0  0  # atno 17394 bound_to 11000
  140.0651  134.9733  157.1371 LP  0  0  0  0  0  0  0  0  0  0  0  0  # atno 17395 bound_to 11000

$$$$
