AV-unprocessed.smi:2057|AV-procd|sdf|8341|dock3
  -GOLD-   2272011 13D 1   1.00000     0.00000
 Structure written by MMmdl.
 44 46  0  0  0  0  0  0  0  0  1 V2000
  151.3385  145.3245  159.4383 C   0  0  0  0  0  0  0  0  0  0  0  0
  151.7122  144.9406  160.7536 O   0  0  0  0  0  0  0  0  0  0  0  0
  152.3772  143.7443  160.9172 C   0  0  0  0  0  0  0  0  0  0  0  0
  152.8646  143.4536  162.2045 C   0  0  0  0  0  0  0  0  0  0  0  0
  153.5638  142.2601  162.4593 C   0  0  0  0  0  0  0  0  0  0  0  0
  153.7885  141.3190  161.4242 C   0  0  0  0  0  0  0  0  0  0  0  0
  154.4815  140.1394  161.6095 O   0  0  0  0  0  0  0  0  0  0  0  0
  155.2650  139.9904  162.7843 C   0  0  0  0  0  0  0  0  0  0  0  0
  153.2869  141.5968  160.1288 C   0  0  0  0  0  0  0  0  0  0  0  0
  153.5159  140.6074  158.9898 C   0  0  1  0  0  0  0  0  0  0  0  0
  154.8416  140.1131  158.9483 O   0  0  0  0  0  0  0  0  0  0  0  0
  152.5209  139.4333  159.0696 C   0  0  0  0  0  0  0  0  0  0  0  0
  152.2193  138.8691  157.7613 N   0  0  0  0  0  0  0  0  0  0  0  0
  152.6009  137.6735  157.2452 C   0  0  0  0  0  0  0  0  0  0  0  0
  153.4477  136.7135  158.0317 C   0  0  0  0  0  0  0  0  0  0  0  0
  153.8461  135.5711  157.3012 O   0  0  0  0  0  0  0  0  0  0  0  0
  152.1743  137.4198  156.0051 N   0  0  0  0  0  0  0  0  0  0  0  0
  151.4466  138.5514  155.6930 C   0  0  0  0  0  0  0  0  0  0  0  0
  150.7380  138.8950  154.5194 C   0  0  0  0  0  0  0  0  0  0  0  0
  150.0583  140.1279  154.4310 C   0  0  0  0  0  0  0  0  0  0  0  0
  150.0774  141.0332  155.5120 C   0  0  0  0  0  0  0  0  0  0  0  0
  150.7780  140.7105  156.6901 C   0  0  0  0  0  0  0  0  0  0  0  0
  151.4542  139.4784  156.7726 C   0  0  0  0  0  0  0  0  0  0  0  0
  152.5972  142.8055  159.8808 C   0  0  0  0  0  0  0  0  0  0  0  0
  150.8297  146.2878  159.4758 H   0  0  0  0  0  0  0  0  0  0  0  0
  150.6498  144.6056  158.9925 H   0  0  0  0  0  0  0  0  0  0  0  0
  152.2110  145.4375  158.7934 H   0  0  0  0  0  0  0  0  0  0  0  0
  152.7057  144.1579  163.0079 H   0  0  0  0  0  0  0  0  0  0  0  0
  153.9217  142.0930  163.4635 H   0  0  0  0  0  0  0  0  0  0  0  0
  155.7442  139.0115  162.7734 H   0  0  0  0  0  0  0  0  0  0  0  0
  154.6505  140.0463  163.6839 H   0  0  0  0  0  0  0  0  0  0  0  0
  156.0535  140.7422  162.8357 H   0  0  0  0  0  0  0  0  0  0  0  0
  153.3744  141.1268  158.0419 H   0  0  0  0  0  0  0  0  0  0  0  0
  155.0010  139.6202  159.7388 H   0  0  0  0  0  0  0  0  0  0  0  0
  152.8938  138.6552  159.7358 H   0  0  0  0  0  0  0  0  0  0  0  0
  151.5812  139.7768  159.5043 H   0  0  0  0  0  0  0  0  0  0  0  0
  154.3421  137.2265  158.3846 H   0  0  0  0  0  0  0  0  0  0  0  0
  152.8908  136.3835  158.9089 H   0  0  0  0  0  0  0  0  0  0  0  0
  154.6573  135.2535  157.6679 H   0  0  0  0  0  0  0  0  0  0  0  0
  150.7170  138.2087  153.6859 H   0  0  0  0  0  0  0  0  0  0  0  0
  149.5194  140.3800  153.5294 H   0  0  0  0  0  0  0  0  0  0  0  0
  149.5542  141.9752  155.4365 H   0  0  0  0  0  0  0  0  0  0  0  0
  150.7959  141.4012  157.5202 H   0  0  0  0  0  0  0  0  0  0  0  0
  152.2443  142.9997  158.8795 H   0  0  0  0  0  0  0  0  0  0  0  0
  1  2  1  0  0  0  0
  1 25  1  0  0  0  0
  1 26  1  0  0  0  0
  1 27  1  0  0  0  0
  2  3  1  0  0  0  0
  3 24  1  0  0  0  0
  3  4  2  0  0  0  0
  4  5  1  0  0  0  0
  4 28  1  0  0  0  0
  5  6  2  0  0  0  0
  5 29  1  0  0  0  0
  6  7  1  0  0  0  0
  6  9  1  0  0  0  0
  7  8  1  0  0  0  0
  8 30  1  0  0  0  0
  8 31  1  0  0  0  0
  8 32  1  0  0  0  0
  9 10  1  0  0  0  0
  9 24  2  0  0  0  0
 10 11  1  0  0  0  0
 10 12  1  0  0  0  0
 10 33  1  0  0  0  0
 11 34  1  0  0  0  0
 12 13  1  0  0  0  0
 12 35  1  0  0  0  0
 12 36  1  0  0  0  0
 13 23  1  0  0  0  0
 13 14  1  0  0  0  0
 14 15  1  0  0  0  0
 14 17  2  0  0  0  0
 15 16  1  0  0  0  0
 15 37  1  0  0  0  0
 15 38  1  0  0  0  0
 16 39  1  0  0  0  0
 17 18  1  0  0  0  0
 18 23  2  0  0  0  0
 18 19  1  0  0  0  0
 19 20  2  0  0  0  0
 19 40  1  0  0  0  0
 20 21  1  0  0  0  0
 20 41  1  0  0  0  0
 21 22  2  0  0  0  0
 21 42  1  0  0  0  0
 22 23  1  0  0  0  0
 22 43  1  0  0  0  0
 24 44  1  0  0  0  0
M  END
> <s_m_source_file>
AV-unprocessed.smi

> <i_m_source_file_index>
2057

> <i_lp_mmshare_version>
43012

> <i_f3d_flags>
0

> <s_epik_input>
W0NIM11PYzFbY0hdW2NIXWMoT1tDSDNdKWMoW2NIXTEpW0NASF0oW09IXSlbQ0gyXW4oYyhuMilbQ0gyXVtPSF0pYyhjMjMpW2NIXVtjSF1bY0hdW2NIXTM=

> <s_epik_cmdline>
J2VwaWtfcHl0aG9uJywgJy1waCcsICc3LjAnLCAnLXRuJywgJzgnLCAnLW1hJywgJzIwMCcsICctbWV0YWxfYmluZGluZycsICctaW1hZScsICc8aW5maWxlLm1hZT4nLCAnLW9tYWUnLCAnPG91dGZpbGUubWFlPic=

> <r_lp_tautomer_probability>
1

> <r_epik_Ionization_Penalty>
0.0634722

> <r_epik_Ionization_Penalty_Charging>
0

> <r_epik_Ionization_Penalty_Neutral>
0.0634722

> <r_epik_State_Penalty>
0.0551572

> <r_epik_Charging_Adjusted_Penalty>
0.0551572

> <i_epik_Tot_Q>
0

> <i_epik_Tot_abs_Q>
0

> <r_epik_Metal_State_Penalty>
5.78034e-05

> <b_epik_Metal_Only>
0

> <s_lp_Force_Field>
OPLS_2005

> <r_lp_Energy>
19.4747

> <b_lp_Chiralities_Consistent>
1

> <s_lp_Variant>
AV-unprocessed.smi:2057-2

> <Gold.Version>
5.8.1

> <Gold.Id.Protein>
6NUR|6NUR_protein|mol2

> <Gold.PLP.Fitness>
52.1068

> <Gold.PLP.PLP>
-48.2268

> <Gold.PLP.part.hbond>
-2.5885

> <Gold.PLP.part.metal>
0.0000

> <Gold.PLP.part.buried>
-2.7687

> <Gold.PLP.part.nonpolar>
-42.8536

> <Gold.PLP.part.repulsive>
0.1885

> <Gold.PLP.ligand.clash>
0.0000

> <Gold.PLP.ligand.torsion>
1.1283

> <Gold.PLP.Chemscore.Hbond>
2.0000

> <Gold.PLP.Chemscore.CHOScore>
0.0000

> <Gold.PLP.Chemscore.Metal>
0.0000

> <Gold.Chemscore.Hbonds>
donor molecule, donor type, donor heavy atom, donor atom, acceptor molecule, acceptor atom, score
      P1  H  7997  8008       L1    11  0.98
      P1  H 10752 10765       L1    16  1.00

> <Gold.PLP.Chemscore.Internal.Correction>
0.1366

> <Gold.Rescore>
     Score         DG    S(hbond)    S(metal)    S(lipo)     H(rot)  DE(clash)    DE(int)     intcor
     17.74     -19.24       1.67        0.00     139.11       3.17       0.46       1.04       ----

> <Gold.Chemscore.Fitness>
17.7416

> <Gold.Chemscore.DG>
-19.2412

> <Gold.Chemscore.ZeroCoef>
-5.4800

> <Gold.Chemscore.Hbond>
1.6743

> <Gold.Chemscore.Metal>
0.0000

> <Gold.Chemscore.Lipo>
139.1050

> <Gold.Chemscore.Internal_Hbond>
0.0000

> <Gold.Chemscore.DEClash>
0.4643

> <Gold.Chemscore.DEInternal>
1.0353

> <Gold.Chemscore.Rot>
3.1665

> <Gold.Chemscore.Internal.Correction>
   9.000000E+99

> <Gold.Chemscore.Hbonds>
donor molecule, donor type, donor heavy atom, donor atom, acceptor molecule, acceptor atom, score
      P1  H  7997  8008       L1    11  0.37
      P1  H 10752 10765       L1    16  0.65

> <Gold.Chemscore.Hbond.Weighted>
-5.5921

> <Gold.Chemscore.Metal.Weighted>
-0.0000

> <Gold.Chemscore.Lipo.Weighted>
-16.2753

> <Gold.Chemscore.Internal_Hbond.Weighted>
0.0000

> <Gold.Chemscore.DEClash.Weighted>
0.4643

> <Gold.Chemscore.DEInternal.Weighted>
1.0353

> <Gold.Chemscore.Rot.Weighted>
8.1062

> <Gold.Chemscore.Internal.Correction.Weighted>
   9.000000E+99

> <Gold.Protein.RotatedTorsions>
[ 6907 6896 6895 6894 ] final -118.28 input  -60.11 | X-H torsion
[ 7974 7965 7964 7962 ] final -172.82 input  175.53 | X-H torsion
[ 8008 7997 7996 7995 ] final -123.26 input   59.86 | X-H torsion
[ 10167 10162 10161 10158 ] final  -12.08 input  -65.29 | X-H torsion
[ 10718 10713 10712 10709 ] final  171.30 input   66.30 | X-H torsion
[ 10763 10752 10751 10750 ] final  -99.50 input  -60.55 | X-H torsion
[ 11005 11000 10999 10996 ] final   68.78 input  -57.11 | X-H torsion

> <Gold.Protein.ActiveResidues>
 VAL166  LYS551  ARG553  GLY616  TRP617  ASP618  TYR619  PRO620  LYS621  CYS622 
 ASP623  PHE694  ASN695  SER759  ASP760  ASP761  ALA762  ILE779  LEU786  VAL792 
 PHE793  MET794  SER795  GLU796  ALA797  LYS798  CYS799  TRP800  GLU811  SER814 

> <Gold.Protein.RotatedAtoms>
  150.8206  133.8259  159.3140 H   0  0  0  0  0  0  0  0  0  0  0  0  # atno 6907 bound_to 6896
  151.6018  135.1045  160.0071 H   0  0  0  0  0  0  0  0  0  0  0  0  # atno 6908 bound_to 6896
  152.4295  133.7212  159.6591 H   0  0  0  0  0  0  0  0  0  0  0  0  # atno 6909 bound_to 6896
  144.7143  140.1715  143.6367 H   0  0  0  0  0  0  0  0  0  0  0  0  # atno 7974 bound_to 7965
  155.1776  140.0409  157.2875 H   0  0  0  0  0  0  0  0  0  0  0  0  # atno 8008 bound_to 7997
  154.6226  140.2504  155.7503 H   0  0  0  0  0  0  0  0  0  0  0  0  # atno 8009 bound_to 7997
  156.2442  140.2892  156.0541 H   0  0  0  0  0  0  0  0  0  0  0  0  # atno 8010 bound_to 7997
  140.7153  143.5570  150.9237 H   0  0  0  0  0  0  0  0  0  0  0  0  # atno 10167 bound_to 10162
  156.9955  131.0160  151.2845 H   0  0  0  0  0  0  0  0  0  0  0  0  # atno 10718 bound_to 10713
  154.7503  135.4970  153.9277 H   0  0  0  0  0  0  0  0  0  0  0  0  # atno 10763 bound_to 10752
  153.1136  135.6715  153.9465 H   0  0  0  0  0  0  0  0  0  0  0  0  # atno 10764 bound_to 10752
  153.9217  135.3087  155.3426 H   0  0  0  0  0  0  0  0  0  0  0  0  # atno 10765 bound_to 10752
  139.9692  134.6929  156.0482 H   0  0  0  0  0  0  0  0  0  0  0  0  # atno 11005 bound_to 11000
  145.8939  139.2391  143.1533 LP  0  0  0  0  0  0  0  0  0  0  0  0  # atno 17320 bound_to 7965
  145.9877  140.8629  143.0082 LP  0  0  0  0  0  0  0  0  0  0  0  0  # atno 17321 bound_to 7965
  139.9295  143.6510  152.3079 LP  0  0  0  0  0  0  0  0  0  0  0  0  # atno 17342 bound_to 10162
  139.6955  144.7642  151.1363 LP  0  0  0  0  0  0  0  0  0  0  0  0  # atno 17343 bound_to 10162
  157.5428  130.8131  149.8049 LP  0  0  0  0  0  0  0  0  0  0  0  0  # atno 17370 bound_to 10713
  156.0191  130.3802  150.2018 LP  0  0  0  0  0  0  0  0  0  0  0  0  # atno 17371 bound_to 10713
  141.1371  133.6572  156.3625 LP  0  0  0  0  0  0  0  0  0  0  0  0  # atno 17394 bound_to 11000
  140.5331  134.6193  157.5356 LP  0  0  0  0  0  0  0  0  0  0  0  0  # atno 17395 bound_to 11000

$$$$
