AV-unprocessed.smi:513|AV-procd|sdf|2772|dock7
  -GOLD-   2262023243D 1   1.00000     0.00000
 Structure written by MMmdl.
 43 45  0  0  0  0  0  0  0  0  2 V2000
  150.4384  135.4664  155.0343 C   0  0  0  0  0  0  0  0  0  0  0  0
  151.2332  136.6385  155.0711 O   0  0  0  0  0  0  0  0  0  0  0  0
  150.5766  137.7189  155.7104 C   0  0  0  0  0  0  0  0  0  0  0  0
  151.3036  139.0195  155.3507 C   0  0  0  0  0  0  0  0  0  0  0  0
  150.7893  140.1494  156.1200 N   0  0  0  0  0  0  0  0  0  0  0  0
  149.7065  140.9333  155.8587 C   0  0  0  0  0  0  0  0  0  0  0  0
  148.8809  140.7246  154.7519 N   0  0  0  0  0  0  0  0  0  0  0  0
  148.5456  139.4002  154.2342 C   0  0  0  0  0  0  0  0  0  0  0  0
  147.0274  139.2479  154.0244 C   0  0  0  0  0  0  0  0  0  0  0  0
  146.5121  140.3118  153.1373 N   0  3  0  0  0  0  0  0  0  0  0  0
  146.9040  141.6649  153.5837 C   0  0  0  0  0  0  0  0  0  0  0  0
  148.4268  141.7378  153.8003 C   0  0  0  0  0  0  0  0  0  0  0  0
  149.5357  141.9474  156.7107 N   0  0  0  0  0  0  0  0  0  0  0  0
  150.5818  141.7865  157.6060 C   0  0  0  0  0  0  0  0  0  0  0  0
  151.3541  140.7250  157.2607 C   0  0  0  0  0  0  0  0  0  0  0  0
  152.5668  140.3609  158.0078 C   0  0  0  0  0  0  0  0  0  0  0  0
  153.2966  139.4205  157.7027 O   0  0  0  0  0  0  0  0  0  0  0  0
  152.8079  141.1777  159.0621 N   0  0  0  0  0  0  0  0  0  0  0  0
  152.0690  142.2557  159.4656 C   0  0  0  0  0  0  0  0  0  0  0  0
  152.4255  142.9137  160.4428 O   0  0  0  0  0  0  0  0  0  0  0  0
  150.9437  142.5623  158.7438 N   0  0  0  0  0  0  0  0  0  0  0  0
  150.1136  143.7078  159.1216 C   0  0  0  0  0  0  0  0  0  0  0  0
  153.6317  140.9720  159.6083 H   0  0  0  0  0  0  0  0  0  0  0  0
  150.9818  134.6720  154.5228 H   0  0  0  0  0  0  0  0  0  0  0  0
  149.5062  135.6381  154.4947 H   0  0  0  0  0  0  0  0  0  0  0  0
  150.2016  135.1187  156.0407 H   0  0  0  0  0  0  0  0  0  0  0  0
  149.5340  137.7701  155.3925 H   0  0  0  0  0  0  0  0  0  0  0  0
  150.5863  137.5688  156.7912 H   0  0  0  0  0  0  0  0  0  0  0  0
  152.3699  138.9084  155.5194 H   0  0  0  0  0  0  0  0  0  0  0  0
  151.2145  139.2251  154.2860 H   0  0  0  0  0  0  0  0  0  0  0  0
  149.0783  139.2350  153.2965 H   0  0  0  0  0  0  0  0  0  0  0  0
  148.8951  138.6351  154.9285 H   0  0  0  0  0  0  0  0  0  0  0  0
  146.7963  138.2748  153.5913 H   0  0  0  0  0  0  0  0  0  0  0  0
  146.5092  139.3033  154.9828 H   0  0  0  0  0  0  0  0  0  0  0  0
  146.8949  140.1624  152.2147 H   0  0  0  0  0  0  0  0  0  0  0  0
  146.5883  142.3949  152.8385 H   0  0  0  0  0  0  0  0  0  0  0  0
  146.3751  141.9011  154.5079 H   0  0  0  0  0  0  0  0  0  0  0  0
  148.7292  142.7332  154.1234 H   0  0  0  0  0  0  0  0  0  0  0  0
  148.9392  141.5741  152.8511 H   0  0  0  0  0  0  0  0  0  0  0  0
  149.9415  143.7365  160.1988 H   0  0  0  0  0  0  0  0  0  0  0  0
  149.1332  143.6815  158.6458 H   0  0  0  0  0  0  0  0  0  0  0  0
  150.6022  144.6381  158.8290 H   0  0  0  0  0  0  0  0  0  0  0  0
  145.5052  140.2511  153.0880 H   0  0  0  0  0  0  0  0  0  0  0  0
  1  2  1  0  0  0  0
  1 24  1  0  0  0  0
  1 25  1  0  0  0  0
  1 26  1  0  0  0  0
  2  3  1  0  0  0  0
  3  4  1  0  0  0  0
  3 27  1  0  0  0  0
  3 28  1  0  0  0  0
  4  5  1  0  0  0  0
  4 29  1  0  0  0  0
  4 30  1  0  0  0  0
  5 15  1  0  0  0  0
  5  6  1  0  0  0  0
  6  7  1  0  0  0  0
  6 13  2  0  0  0  0
  7 12  1  0  0  0  0
  7  8  1  0  0  0  0
  8  9  1  0  0  0  0
  8 31  1  0  0  0  0
  8 32  1  0  0  0  0
  9 10  1  0  0  0  0
  9 33  1  0  0  0  0
  9 34  1  0  0  0  0
 10 11  1  0  0  0  0
 10 35  1  0  0  0  0
 10 43  1  0  0  0  0
 11 12  1  0  0  0  0
 11 36  1  0  0  0  0
 11 37  1  0  0  0  0
 12 38  1  0  0  0  0
 12 39  1  0  0  0  0
 13 14  1  0  0  0  0
 14 21  1  0  0  0  0
 14 15  2  0  0  0  0
 15 16  1  0  0  0  0
 16 17  2  0  0  0  0
 16 18  1  0  0  0  0
 18 23  1  0  0  0  0
 18 19  1  0  0  0  0
 19 20  2  0  0  0  0
 19 21  1  0  0  0  0
 21 22  1  0  0  0  0
 22 40  1  0  0  0  0
 22 41  1  0  0  0  0
 22 42  1  0  0  0  0
M  CHG  1  10   1
M  END
> <s_m_source_file>
AV-unprocessed.smi

> <i_m_source_file_index>
513

> <i_lp_mmshare_version>
43012

> <i_f3d_flags>
0

> <s_epik_input>
W0NIM11uMWMoPU8pW25IXWMoPU8pYyhjMTIpbihbQ0gyXVtDSDJdT1tDSDNdKWMobjIpTjNbQ0gyXVtDSDJdW05IXVtDSDJdW0NIMl0z

> <s_epik_cmdline>
J2VwaWtfcHl0aG9uJywgJy1waCcsICc3LjAnLCAnLXRuJywgJzgnLCAnLW1hJywgJzIwMCcsICctbWV0YWxfYmluZGluZycsICctaW1hZScsICc8aW5maWxlLm1hZT4nLCAnLW9tYWUnLCAnPG91dGZpbGUubWFlPic=

> <r_epik_Ionization_Penalty>
0.00860422

> <r_epik_Ionization_Penalty_Charging>
0.00860232

> <r_epik_Ionization_Penalty_Neutral>
1.90009e-06

> <r_epik_State_Penalty>
0.00646614

> <r_epik_Charging_Adjusted_Penalty>
0.0150685

> <i_epik_Tot_Q>
1

> <i_epik_Tot_abs_Q>
1

> <r_epik_Metal_State_Penalty>
0.0348233

> <b_epik_Metal_Only>
0

> <s_lp_Force_Field>
OPLS_2005

> <r_lp_Energy>
48.3968

> <b_lp_Chiralities_Consistent>
1

> <s_lp_Variant>
AV-unprocessed.smi:513-1

> <Gold.Version>
5.8.1

> <Gold.Id.Protein>
6NUR|6NUR_protein|mol2

> <Gold.PLP.Fitness>
42.2380

> <Gold.PLP.PLP>
-33.0559

> <Gold.PLP.part.hbond>
-3.0000

> <Gold.PLP.part.metal>
0.0000

> <Gold.PLP.part.buried>
-4.1401

> <Gold.PLP.part.nonpolar>
-26.8559

> <Gold.PLP.part.repulsive>
0.9184

> <Gold.PLP.ligand.clash>
0.0116

> <Gold.PLP.ligand.torsion>
1.0341

> <Gold.PLP.Chemscore.Hbond>
3.5850

> <Gold.PLP.Chemscore.CHOScore>
0.0000

> <Gold.PLP.Chemscore.Metal>
0.0000

> <Gold.Chemscore.Hbonds>
donor molecule, donor type, donor heavy atom, donor atom, acceptor molecule, acceptor atom, score
      L1  H    10    43       P1 10175  2.00
      P1  H  7997  8009       L1    17  1.00
      P1  H 10752 10765       L1     2  0.56

> <Gold.PLP.Chemscore.Internal.Correction>
0.5070

> <Gold.Rescore>
     Score         DG    S(hbond)    S(metal)    S(lipo)     H(rot)  DE(clash)    DE(int)     intcor
     10.82     -13.74       1.94        0.00      49.64       1.57       0.77       2.15       ----

> <Gold.Chemscore.Fitness>
10.8193

> <Gold.Chemscore.DG>
-13.7390

> <Gold.Chemscore.ZeroCoef>
-5.4800

> <Gold.Chemscore.Hbond>
1.9365

> <Gold.Chemscore.Metal>
0.0000

> <Gold.Chemscore.Lipo>
49.6447

> <Gold.Chemscore.Internal_Hbond>
0.0000

> <Gold.Chemscore.DEClash>
0.7665

> <Gold.Chemscore.DEInternal>
2.1532

> <Gold.Chemscore.Rot>
1.5693

> <Gold.Chemscore.Internal.Correction>
   9.000000E+99

> <Gold.Chemscore.Hbonds>
donor molecule, donor type, donor heavy atom, donor atom, acceptor molecule, acceptor atom, score
      L1  H    10    43       P1 10175  0.97
      P1  H  7997  8009       L1    17  0.49
      P1  H 10752 10765       L1     2  0.05

> <Gold.Chemscore.Hbond.Weighted>
-6.4681

> <Gold.Chemscore.Metal.Weighted>
-0.0000

> <Gold.Chemscore.Lipo.Weighted>
-5.8084

> <Gold.Chemscore.Internal_Hbond.Weighted>
0.0000

> <Gold.Chemscore.DEClash.Weighted>
0.7665

> <Gold.Chemscore.DEInternal.Weighted>
2.1532

> <Gold.Chemscore.Rot.Weighted>
4.0175

> <Gold.Chemscore.Internal.Correction.Weighted>
   9.000000E+99

> <Gold.Protein.RotatedTorsions>
[ 6907 6896 6895 6894 ] final   11.17 input  -60.11 | X-H torsion
[ 7974 7965 7964 7962 ] final  110.94 input  175.53 | X-H torsion
[ 8008 7997 7996 7995 ] final  173.81 input   59.86 | X-H torsion
[ 10167 10162 10161 10158 ] final    1.46 input  -65.29 | X-H torsion
[ 10718 10713 10712 10709 ] final  174.22 input   66.30 | X-H torsion
[ 10763 10752 10751 10750 ] final  166.39 input  -60.55 | X-H torsion
[ 11005 11000 10999 10996 ] final  -73.10 input  -57.11 | X-H torsion

> <Gold.Protein.ActiveResidues>
 VAL166  LYS551  ARG553  GLY616  TRP617  ASP618  TYR619  PRO620  LYS621  CYS622 
 ASP623  PHE694  ASN695  SER759  ASP760  ASP761  ALA762  ILE779  LEU786  VAL792 
 PHE793  MET794  SER795  GLU796  ALA797  LYS798  CYS799  TRP800  GLU811  SER814 

> <Gold.Protein.RotatedAtoms>
  151.7500  135.0835  160.0329 H   0  0  0  0  0  0  0  0  0  0  0  0  # atno 6907 bound_to 6896
  152.3423  133.6077  159.5893 H   0  0  0  0  0  0  0  0  0  0  0  0  # atno 6908 bound_to 6896
  150.7487  133.9619  159.3560 H   0  0  0  0  0  0  0  0  0  0  0  0  # atno 6909 bound_to 6896
  145.2486  139.2749  143.4080 H   0  0  0  0  0  0  0  0  0  0  0  0  # atno 7974 bound_to 7965
  156.1038  140.1450  156.9431 H   0  0  0  0  0  0  0  0  0  0  0  0  # atno 8008 bound_to 7997
  154.4720  140.0906  156.7213 H   0  0  0  0  0  0  0  0  0  0  0  0  # atno 8009 bound_to 7997
  155.4714  140.3442  155.4328 H   0  0  0  0  0  0  0  0  0  0  0  0  # atno 8010 bound_to 7997
  140.6682  143.7122  150.7869 H   0  0  0  0  0  0  0  0  0  0  0  0  # atno 10167 bound_to 10162
  156.9528  131.0036  151.2945 H   0  0  0  0  0  0  0  0  0  0  0  0  # atno 10718 bound_to 10713
  154.3383  135.2754  155.2436 H   0  0  0  0  0  0  0  0  0  0  0  0  # atno 10763 bound_to 10752
  154.4718  135.5881  153.6330 H   0  0  0  0  0  0  0  0  0  0  0  0  # atno 10764 bound_to 10752
  152.9860  135.6090  154.3582 H   0  0  0  0  0  0  0  0  0  0  0  0  # atno 10765 bound_to 10752
  141.1618  133.6867  156.7161 H   0  0  0  0  0  0  0  0  0  0  0  0  # atno 11005 bound_to 11000
  146.3309  140.2870  142.8613 LP  0  0  0  0  0  0  0  0  0  0  0  0  # atno 17320 bound_to 7965
  144.9524  140.8192  143.5564 LP  0  0  0  0  0  0  0  0  0  0  0  0  # atno 17321 bound_to 7965
  140.0803  143.4975  152.2533 LP  0  0  0  0  0  0  0  0  0  0  0  0  # atno 17342 bound_to 10162
  139.5939  144.7560  151.3334 LP  0  0  0  0  0  0  0  0  0  0  0  0  # atno 17343 bound_to 10162
  157.5710  130.8311  149.8392 LP  0  0  0  0  0  0  0  0  0  0  0  0  # atno 17370 bound_to 10713
  156.0355  130.3752  150.1571 LP  0  0  0  0  0  0  0  0  0  0  0  0  # atno 17371 bound_to 10713
  140.2851  134.8285  157.3968 LP  0  0  0  0  0  0  0  0  0  0  0  0  # atno 17394 bound_to 11000
  140.1397  134.4987  155.8041 LP  0  0  0  0  0  0  0  0  0  0  0  0  # atno 17395 bound_to 11000

$$$$
