AV-unprocessed.smi:169|AV-procd|sdf|1401|dock5
  -GOLD-   2262019153D 1   1.00000     0.00000
 Structure written by MMmdl.
 56 60  0  0  0  0  0  0  0  0  2 V2000
  151.4409  145.0381  158.4812 C   0  0  0  0  0  0  0  0  0  0  0  0
  151.9281  143.6924  159.0450 C   0  0  0  0  0  0  0  0  0  0  0  0
  151.6063  142.5292  158.1783 N   0  3  1  0  0  0  0  0  0  0  0  0
  151.5503  142.8932  156.7184 C   0  0  0  0  0  0  0  0  0  0  0  0
  150.7023  141.9118  155.8281 C   0  0  0  0  0  0  0  0  0  0  0  0
  150.8595  140.4343  156.2414 C   0  0  3  0  0  0  0  0  0  0  0  0
  151.7709  139.2551  155.8830 C   0  0  0  0  0  0  0  0  0  0  0  0
  152.4065  138.9644  157.2838 C   0  0  0  0  0  0  0  0  0  0  0  0
  151.6824  139.9346  158.2775 C   0  0  1  0  0  0  0  0  0  0  0  0
  152.4190  141.3025  158.5202 C   0  0  0  0  0  0  0  0  0  0  0  0
  150.4195  140.1872  157.6022 N   0  0  0  0  0  0  0  0  0  0  0  0
  149.3424  139.3750  157.7916 C   0  0  0  0  0  0  0  0  0  0  0  0
  148.2546  139.5253  156.9905 N   0  0  0  0  0  0  0  0  0  0  0  0
  147.1813  138.7455  157.1444 C   0  0  0  0  0  0  0  0  0  0  0  0
  146.9887  137.7571  158.0179 N   0  0  0  0  0  0  0  0  0  0  0  0
  148.0811  137.5818  158.8145 C   0  0  0  0  0  0  0  0  0  0  0  0
  149.2870  138.3398  158.7726 C   0  0  0  0  0  0  0  0  0  0  0  0
  150.1661  137.8668  159.7408 N   0  0  0  0  0  0  0  0  0  0  0  0
  149.5174  136.8960  160.3220 C   0  0  0  0  0  0  0  0  0  0  0  0
  148.2627  136.6440  159.8165 N   0  0  0  0  0  0  0  0  0  0  0  0
  147.3250  135.6260  160.2698 C   0  0  0  0  0  0  0  0  0  0  0  0
  146.7956  135.8208  161.7118 C   0  0  0  0  0  0  0  0  0  0  0  0
  146.0556  134.5405  162.1212 C   0  0  0  0  0  0  0  0  0  0  0  0
  145.6639  134.5874  163.4784 O   0  0  0  0  0  0  0  0  0  0  0  0
  147.7938  136.3642  162.7498 C   0  0  0  0  0  0  0  0  0  0  0  0
  147.2455  137.6958  162.6566 O   0  0  0  0  0  0  0  0  0  0  0  0
  146.0745  137.1441  162.0187 C   0  0  0  0  0  0  0  0  0  0  0  0
  151.7145  145.8527  159.1520 H   0  0  0  0  0  0  0  0  0  0  0  0
  150.3570  145.0613  158.3694 H   0  0  0  0  0  0  0  0  0  0  0  0
  151.8851  145.2548  157.5096 H   0  0  0  0  0  0  0  0  0  0  0  0
  153.0070  143.7300  159.2003 H   0  0  0  0  0  0  0  0  0  0  0  0
  151.4940  143.5304  160.0323 H   0  0  0  0  0  0  0  0  0  0  0  0
  151.1343  143.8947  156.6033 H   0  0  0  0  0  0  0  0  0  0  0  0
  152.5701  142.9503  156.3347 H   0  0  0  0  0  0  0  0  0  0  0  0
  149.6497  142.1806  155.9231 H   0  0  0  0  0  0  0  0  0  0  0  0
  150.9493  142.0491  154.7741 H   0  0  0  0  0  0  0  0  0  0  0  0
  151.8686  140.8286  156.2545 H   0  0  0  0  0  0  0  0  0  0  0  0
  151.1673  138.4048  155.5627 H   0  0  0  0  0  0  0  0  0  0  0  0
  152.5063  139.4458  155.0949 H   0  0  0  0  0  0  0  0  0  0  0  0
  152.2160  137.9270  157.5614 H   0  0  0  0  0  0  0  0  0  0  0  0
  153.4875  139.1070  157.2866 H   0  0  0  0  0  0  0  0  0  0  0  0
  151.5548  139.4468  159.2439 H   0  0  0  0  0  0  0  0  0  0  0  0
  153.3681  141.3408  157.9837 H   0  0  0  0  0  0  0  0  0  0  0  0
  152.6869  141.3356  159.5769 H   0  0  0  0  0  0  0  0  0  0  0  0
  146.3607  138.9394  156.4695 H   0  0  0  0  0  0  0  0  0  0  0  0
  149.9422  136.3325  161.1397 H   0  0  0  0  0  0  0  0  0  0  0  0
  146.4983  135.6089  159.5587 H   0  0  0  0  0  0  0  0  0  0  0  0
  147.8166  134.6572  160.1731 H   0  0  0  0  0  0  0  0  0  0  0  0
  145.1713  134.3824  161.5029 H   0  0  0  0  0  0  0  0  0  0  0  0
  146.6888  133.6633  161.9852 H   0  0  0  0  0  0  0  0  0  0  0  0
  146.2553  134.0480  163.9809 H   0  0  0  0  0  0  0  0  0  0  0  0
  147.6624  135.9473  163.7499 H   0  0  0  0  0  0  0  0  0  0  0  0
  148.8407  136.3139  162.4561 H   0  0  0  0  0  0  0  0  0  0  0  0
  145.7609  137.7059  161.1399 H   0  0  0  0  0  0  0  0  0  0  0  0
  145.2457  137.0412  162.7213 H   0  0  0  0  0  0  0  0  0  0  0  0
  150.6568  142.2917  158.4292 H   0  0  0  0  0  0  0  0  0  0  0  0
  1  2  1  0  0  0  0
  1 28  1  0  0  0  0
  1 29  1  0  0  0  0
  1 30  1  0  0  0  0
  2  3  1  0  0  0  0
  2 31  1  0  0  0  0
  2 32  1  0  0  0  0
  3 10  1  0  0  0  0
  3  4  1  0  0  0  0
  3 56  1  0  0  0  0
  4  5  1  0  0  0  0
  4 33  1  0  0  0  0
  4 34  1  0  0  0  0
  5  6  1  0  0  0  0
  5 35  1  0  0  0  0
  5 36  1  0  0  0  0
  6 11  1  0  0  0  0
  6  7  1  0  0  0  0
  6 37  1  0  0  0  0
  7  8  1  0  0  0  0
  7 38  1  0  0  0  0
  7 39  1  0  0  0  0
  8  9  1  0  0  0  0
  8 40  1  0  0  0  0
  8 41  1  0  0  0  0
  9 10  1  0  0  0  0
  9 11  1  0  0  0  0
  9 42  1  0  0  0  0
 10 43  1  0  0  0  0
 10 44  1  0  0  0  0
 11 12  1  0  0  0  0
 12 17  1  0  0  0  0
 12 13  2  0  0  0  0
 13 14  1  0  0  0  0
 14 15  2  0  0  0  0
 14 45  1  0  0  0  0
 15 16  1  0  0  0  0
 16 20  1  0  0  0  0
 16 17  2  0  0  0  0
 17 18  1  0  0  0  0
 18 19  2  0  0  0  0
 19 20  1  0  0  0  0
 19 46  1  0  0  0  0
 20 21  1  0  0  0  0
 21 22  1  0  0  0  0
 21 47  1  0  0  0  0
 21 48  1  0  0  0  0
 22 27  1  0  0  0  0
 22 23  1  0  0  0  0
 22 25  1  0  0  0  0
 23 24  1  0  0  0  0
 23 49  1  0  0  0  0
 23 50  1  0  0  0  0
 24 51  1  0  0  0  0
 25 26  1  0  0  0  0
 25 52  1  0  0  0  0
 25 53  1  0  0  0  0
 26 27  1  0  0  0  0
 27 54  1  0  0  0  0
 27 55  1  0  0  0  0
M  CHG  1   3   1
M  END
> <s_m_source_file>
AV-unprocessed.smi

> <i_m_source_file_index>
169

> <i_lp_mmshare_version>
43012

> <i_f3d_flags>
0

> <s_epik_input>
W0NASF0xMltDSDJdW0NIMl1OKFtDSDJdW0NIM10pW0NIMl1bQ0BIXShbQ0gyXVtDSDJdMSlOMmMobltjSF1uMyljKGMzNCluW2NIXW40W0NIMl1DNShbQ0gyXVtPSF0pW0NIMl1PW0NIMl01

> <s_epik_cmdline>
J2VwaWtfcHl0aG9uJywgJy1waCcsICc3LjAnLCAnLXRuJywgJzgnLCAnLW1hJywgJzIwMCcsICctbWV0YWxfYmluZGluZycsICctaW1hZScsICc8aW5maWxlLm1hZT4nLCAnLW9tYWUnLCAnPG91dGZpbGUubWFlPic=

> <r_lp_tautomer_probability>
1

> <r_epik_Ionization_Penalty>
0.00274162

> <r_epik_Ionization_Penalty_Charging>
0.00243722

> <r_epik_Ionization_Penalty_Neutral>
0.000304399

> <r_epik_State_Penalty>
-0

> <r_epik_Charging_Adjusted_Penalty>
0.00243722

> <i_epik_Tot_Q>
1

> <i_epik_Tot_abs_Q>
1

> <r_epik_Metal_State_Penalty>
-0

> <b_epik_Metal_Only>
0

> <s_lp_Force_Field>
OPLS_2005

> <r_lp_Energy>
128.509

> <b_lp_Chiralities_Consistent>
1

> <s_lp_Variant>
AV-unprocessed.smi:169-4

> <Gold.Version>
5.8.1

> <Gold.Id.Protein>
6NUR|6NUR_protein|mol2

> <Gold.PLP.Fitness>
42.6063

> <Gold.PLP.PLP>
-41.5656

> <Gold.PLP.part.hbond>
-4.0000

> <Gold.PLP.part.metal>
0.0000

> <Gold.PLP.part.buried>
-5.7263

> <Gold.PLP.part.nonpolar>
-32.0643

> <Gold.PLP.part.repulsive>
0.0583

> <Gold.PLP.ligand.clash>
0.0000

> <Gold.PLP.ligand.torsion>
0.8297

> <Gold.PLP.Chemscore.Hbond>
0.7580

> <Gold.PLP.Chemscore.CHOScore>
0.0000

> <Gold.PLP.Chemscore.Metal>
0.0000

> <Gold.Chemscore.Hbonds>
donor molecule, donor type, donor heavy atom, donor atom, acceptor molecule, acceptor atom, score
      P1  H  6931  6943       L1    26  0.17
      P1  H  6934  6947       L1    26  0.04

> <Gold.PLP.Chemscore.Internal.Correction>
0.4260

> <Gold.Rescore>
     Score         DG    S(hbond)    S(metal)    S(lipo)     H(rot)  DE(clash)    DE(int)     intcor
     12.14     -14.58       0.87        0.00     110.16       2.62       0.80       1.64       ----

> <Gold.Chemscore.Fitness>
12.1359

> <Gold.Chemscore.DG>
-14.5765

> <Gold.Chemscore.ZeroCoef>
-5.4800

> <Gold.Chemscore.Hbond>
0.8737

> <Gold.Chemscore.Metal>
0.0000

> <Gold.Chemscore.Lipo>
110.1595

> <Gold.Chemscore.Internal_Hbond>
0.0000

> <Gold.Chemscore.DEClash>
0.7970

> <Gold.Chemscore.DEInternal>
1.6435

> <Gold.Chemscore.Rot>
2.6212

> <Gold.Chemscore.Internal.Correction>
   9.000000E+99

> <Gold.Chemscore.Hbond.Weighted>
-2.9180

> <Gold.Chemscore.Metal.Weighted>
-0.0000

> <Gold.Chemscore.Lipo.Weighted>
-12.8887

> <Gold.Chemscore.Internal_Hbond.Weighted>
0.0000

> <Gold.Chemscore.DEClash.Weighted>
0.7970

> <Gold.Chemscore.DEInternal.Weighted>
1.6435

> <Gold.Chemscore.Rot.Weighted>
6.7102

> <Gold.Chemscore.Internal.Correction.Weighted>
   9.000000E+99

> <Gold.Protein.RotatedTorsions>
[ 6907 6896 6895 6894 ] final  165.19 input  -60.11 | X-H torsion
[ 7974 7965 7964 7962 ] final   42.16 input  175.53 | X-H torsion
[ 8008 7997 7996 7995 ] final  137.40 input   59.86 | X-H torsion
[ 10167 10162 10161 10158 ] final    5.84 input  -65.29 | X-H torsion
[ 10718 10713 10712 10709 ] final  -71.88 input   66.30 | X-H torsion
[ 10763 10752 10751 10750 ] final  119.29 input  -60.55 | X-H torsion
[ 11005 11000 10999 10996 ] final -158.68 input  -57.11 | X-H torsion

> <Gold.Protein.ActiveResidues>
 VAL166  LYS551  ARG553  GLY616  TRP617  ASP618  TYR619  PRO620  LYS621  CYS622 
 ASP623  PHE694  ASN695  SER759  ASP760  ASP761  ALA762  ILE779  LEU786  VAL792 
 PHE793  MET794  SER795  GLU796  ALA797  LYS798  CYS799  TRP800  GLU811  SER814 

> <Gold.Protein.RotatedAtoms>
  151.8983  133.3532  159.3821 H   0  0  0  0  0  0  0  0  0  0  0  0  # atno 6907 bound_to 6896
  150.7086  134.4854  159.5499 H   0  0  0  0  0  0  0  0  0  0  0  0  # atno 6908 bound_to 6896
  152.2438  134.8202  160.0507 H   0  0  0  0  0  0  0  0  0  0  0  0  # atno 6909 bound_to 6896
  146.0763  139.5332  142.9565 H   0  0  0  0  0  0  0  0  0  0  0  0  # atno 7974 bound_to 7965
  156.3002  140.2420  156.3904 H   0  0  0  0  0  0  0  0  0  0  0  0  # atno 8008 bound_to 7997
  154.8619  140.0419  157.1690 H   0  0  0  0  0  0  0  0  0  0  0  0  # atno 8009 bound_to 7997
  154.8887  140.2960  155.5387 H   0  0  0  0  0  0  0  0  0  0  0  0  # atno 8010 bound_to 7997
  140.6460  143.7660  150.7500 H   0  0  0  0  0  0  0  0  0  0  0  0  # atno 10167 bound_to 10162
  156.0344  130.4360  150.2510 H   0  0  0  0  0  0  0  0  0  0  0  0  # atno 10718 bound_to 10713
  153.5808  135.3484  155.2874 H   0  0  0  0  0  0  0  0  0  0  0  0  # atno 10763 bound_to 10752
  154.8668  135.4181  154.2622 H   0  0  0  0  0  0  0  0  0  0  0  0  # atno 10764 bound_to 10752
  153.3408  135.7050  153.6939 H   0  0  0  0  0  0  0  0  0  0  0  0  # atno 10765 bound_to 10752
  140.6509  134.4451  157.5235 H   0  0  0  0  0  0  0  0  0  0  0  0  # atno 11005 bound_to 11000
  145.6300  141.0306  143.1868 LP  0  0  0  0  0  0  0  0  0  0  0  0  # atno 17320 bound_to 7965
  144.7264  139.7863  143.7363 LP  0  0  0  0  0  0  0  0  0  0  0  0  # atno 17321 bound_to 7965
  140.1301  143.4533  152.2259 LP  0  0  0  0  0  0  0  0  0  0  0  0  # atno 17342 bound_to 10162
  139.5671  144.7441  151.3992 LP  0  0  0  0  0  0  0  0  0  0  0  0  # atno 17343 bound_to 10162
  157.0610  131.0090  151.3222 LP  0  0  0  0  0  0  0  0  0  0  0  0  # atno 17370 bound_to 10713
  157.5070  130.7915  149.7665 LP  0  0  0  0  0  0  0  0  0  0  0  0  # atno 17371 bound_to 10713
  139.9046  134.8478  156.1757 LP  0  0  0  0  0  0  0  0  0  0  0  0  # atno 17394 bound_to 11000
  141.0537  133.6876  156.1820 LP  0  0  0  0  0  0  0  0  0  0  0  0  # atno 17395 bound_to 11000

$$$$
