AV-unprocessed.smi:1874|AV-procd|sdf|7611|dock7
  -GOLD-   22720 9333D 1   1.00000     0.00000
 Structure written by MMmdl.
 45 46  0  0  0  0  0  0  0  0  1 V2000
  151.3408  145.5564  160.3467 C   0  0  0  0  0  0  0  0  0  0  0  0
  152.0446  144.2063  160.5013 C   0  0  0  0  0  0  0  0  0  0  0  0
  152.1845  143.7542  161.6378 O   0  0  0  0  0  0  0  0  0  0  0  0
  152.4889  143.5601  159.3965 N   0  0  0  0  0  0  0  0  0  0  0  0
  153.1076  142.2287  159.3813 C   0  0  0  0  0  0  0  0  0  0  0  0
  152.1188  141.2297  158.7547 C   0  0  0  0  0  0  0  0  0  0  0  0
  151.6779  141.6838  157.3437 C   0  0  0  0  0  0  0  0  0  0  0  0
  150.5938  140.8407  156.8498 N   0  0  0  0  0  0  0  0  0  0  0  0
  150.6588  140.0471  155.7703 C   0  0  0  0  0  0  0  0  0  0  0  0
  151.6604  139.9590  155.0580 O   0  0  0  0  0  0  0  0  0  0  0  0
  149.3879  139.2454  155.4506 C   0  0  0  0  0  0  0  0  0  0  0  0
  149.2461  138.0259  156.2599 N   0  0  0  0  0  0  0  0  0  0  0  0
  149.4311  136.8551  155.5502 N   0  0  0  0  0  0  0  0  0  0  0  0
  149.3707  135.7009  156.1284 C   0  0  0  0  0  0  0  0  0  0  0  0
  149.5941  134.4954  155.2555 C   0  0  0  0  0  0  0  0  0  0  0  0
  149.0987  135.6226  157.5601 C   0  0  0  0  0  0  0  0  0  0  0  0
  149.0450  134.2366  158.1880 C   0  0  0  0  0  0  0  0  0  0  0  0
  148.9045  136.7782  158.2435 C   0  0  0  0  0  0  0  0  0  0  0  0
  148.6280  136.7996  159.6436 C   0  0  0  0  0  0  0  0  0  0  0  0
  148.4220  136.8282  160.7824 N   0  0  0  0  0  0  0  0  0  0  0  0
  148.9687  138.0896  157.5943 C   0  0  0  0  0  0  0  0  0  0  0  0
  148.7966  139.1574  158.1845 O   0  0  0  0  0  0  0  0  0  0  0  0
  151.2273  143.1604  157.3410 C   0  0  0  0  0  0  0  0  0  0  0  0
  152.2606  144.0639  158.0375 C   0  0  0  0  0  0  0  0  0  0  0  0
  151.9952  146.2812  159.8616 H   0  0  0  0  0  0  0  0  0  0  0  0
  151.0645  145.9588  161.3220 H   0  0  0  0  0  0  0  0  0  0  0  0
  150.4282  145.4514  159.7597 H   0  0  0  0  0  0  0  0  0  0  0  0
  154.0228  142.2659  158.7886 H   0  0  0  0  0  0  0  0  0  0  0  0
  153.4149  141.8781  160.3653 H   0  0  0  0  0  0  0  0  0  0  0  0
  152.5746  140.2400  158.7071 H   0  0  0  0  0  0  0  0  0  0  0  0
  151.2465  141.1365  159.4035 H   0  0  0  0  0  0  0  0  0  0  0  0
  152.5341  141.5997  156.6713 H   0  0  0  0  0  0  0  0  0  0  0  0
  149.7308  140.8569  157.3737 H   0  0  0  0  0  0  0  0  0  0  0  0
  148.5134  139.8853  155.5839 H   0  0  0  0  0  0  0  0  0  0  0  0
  149.4055  138.9930  154.3887 H   0  0  0  0  0  0  0  0  0  0  0  0
  148.7641  133.7934  155.3409 H   0  0  0  0  0  0  0  0  0  0  0  0
  150.5085  133.9758  155.5428 H   0  0  0  0  0  0  0  0  0  0  0  0
  149.6865  134.7677  154.2028 H   0  0  0  0  0  0  0  0  0  0  0  0
  148.9394  134.2786  159.2715 H   0  0  0  0  0  0  0  0  0  0  0  0
  149.9577  133.6796  157.9735 H   0  0  0  0  0  0  0  0  0  0  0  0
  148.1980  133.6740  157.7949 H   0  0  0  0  0  0  0  0  0  0  0  0
  151.0655  143.5009  156.3176 H   0  0  0  0  0  0  0  0  0  0  0  0
  150.2688  143.2563  157.8539 H   0  0  0  0  0  0  0  0  0  0  0  0
  151.9183  145.0995  158.0228 H   0  0  0  0  0  0  0  0  0  0  0  0
  153.2010  144.0550  157.4846 H   0  0  0  0  0  0  0  0  0  0  0  0
  1  2  1  0  0  0  0
  1 25  1  0  0  0  0
  1 26  1  0  0  0  0
  1 27  1  0  0  0  0
  2  3  2  0  0  0  0
  2  4  1  0  0  0  0
  4 24  1  0  0  0  0
  4  5  1  0  0  0  0
  5  6  1  0  0  0  0
  5 28  1  0  0  0  0
  5 29  1  0  0  0  0
  6  7  1  0  0  0  0
  6 30  1  0  0  0  0
  6 31  1  0  0  0  0
  7  8  1  0  0  0  0
  7 23  1  0  0  0  0
  7 32  1  0  0  0  0
  8  9  1  0  0  0  0
  8 33  1  0  0  0  0
  9 10  2  0  0  0  0
  9 11  1  0  0  0  0
 11 12  1  0  0  0  0
 11 34  1  0  0  0  0
 11 35  1  0  0  0  0
 12 21  1  0  0  0  0
 12 13  1  0  0  0  0
 13 14  2  0  0  0  0
 14 15  1  0  0  0  0
 14 16  1  0  0  0  0
 15 36  1  0  0  0  0
 15 37  1  0  0  0  0
 15 38  1  0  0  0  0
 16 17  1  0  0  0  0
 16 18  2  0  0  0  0
 17 39  1  0  0  0  0
 17 40  1  0  0  0  0
 17 41  1  0  0  0  0
 18 19  1  0  0  0  0
 18 21  1  0  0  0  0
 19 20  3  0  0  0  0
 21 22  2  0  0  0  0
 23 24  1  0  0  0  0
 23 42  1  0  0  0  0
 23 43  1  0  0  0  0
 24 44  1  0  0  0  0
 24 45  1  0  0  0  0
M  END
> <s_m_source_file>
AV-unprocessed.smi

> <i_m_source_file_index>
1874

> <i_lp_mmshare_version>
43012

> <i_f3d_flags>
0

> <s_epik_input>
W0NIM11DKD1PKU4xW0NIMl1bQ0gyXVtDSF0oW0NIMl1bQ0gyXTEpW05IXUMoPU8pW0NIMl1uMm5jKFtDSDNdKWMoW0NIM10pYyhDI04pYzI9Tw==

> <s_epik_cmdline>
J2VwaWtfcHl0aG9uJywgJy1waCcsICc3LjAnLCAnLXRuJywgJzgnLCAnLW1hJywgJzIwMCcsICctbWV0YWxfYmluZGluZycsICctaW1hZScsICc8aW5maWxlLm1hZT4nLCAnLW9tYWUnLCAnPG91dGZpbGUubWFlPic=

> <r_lp_tautomer_probability>
1

> <r_epik_Ionization_Penalty>
1.12408e-06

> <r_epik_Ionization_Penalty_Charging>
2.25008e-11

> <r_epik_Ionization_Penalty_Neutral>
1.12405e-06

> <r_epik_State_Penalty>
-0

> <r_epik_Charging_Adjusted_Penalty>
2.25008e-11

> <i_epik_Tot_Q>
0

> <i_epik_Tot_abs_Q>
0

> <r_epik_Metal_State_Penalty>
-0

> <b_epik_Metal_Only>
0

> <s_lp_Force_Field>
OPLS_2005

> <r_lp_Energy>
36.4073

> <b_lp_Chiralities_Consistent>
1

> <s_lp_Variant>
AV-unprocessed.smi:1874-1

> <Gold.Version>
5.8.1

> <Gold.Id.Protein>
6NUR|6NUR_protein|mol2

> <Gold.PLP.Fitness>
46.2011

> <Gold.PLP.PLP>
-38.8757

> <Gold.PLP.part.hbond>
-3.4204

> <Gold.PLP.part.metal>
0.0000

> <Gold.PLP.part.buried>
-7.2116

> <Gold.PLP.part.nonpolar>
-29.7215

> <Gold.PLP.part.repulsive>
0.3279

> <Gold.PLP.ligand.clash>
0.0000

> <Gold.PLP.ligand.torsion>
0.4035

> <Gold.PLP.Chemscore.Hbond>
2.7046

> <Gold.PLP.Chemscore.CHOScore>
0.0000

> <Gold.PLP.Chemscore.Metal>
0.0000

> <Gold.Chemscore.Hbonds>
donor molecule, donor type, donor heavy atom, donor atom, acceptor molecule, acceptor atom, score
      P1  H  6931  6943       L1    20  0.99
      P1  H  7989  7998       L1    10  1.00

> <Gold.PLP.Chemscore.Internal.Correction>
0.0186

> <Gold.Rescore>
     Score         DG    S(hbond)    S(metal)    S(lipo)     H(rot)  DE(clash)    DE(int)     intcor
     15.06     -16.97       1.96        0.00      76.92       1.58       0.11       1.80       ----

> <Gold.Chemscore.Fitness>
15.0555

> <Gold.Chemscore.DG>
-16.9732

> <Gold.Chemscore.ZeroCoef>
-5.4800

> <Gold.Chemscore.Hbond>
1.9582

> <Gold.Chemscore.Metal>
0.0000

> <Gold.Chemscore.Lipo>
76.9193

> <Gold.Chemscore.Internal_Hbond>
0.0000

> <Gold.Chemscore.DEClash>
0.1135

> <Gold.Chemscore.DEInternal>
1.8041

> <Gold.Chemscore.Rot>
1.5808

> <Gold.Chemscore.Internal.Correction>
   9.000000E+99

> <Gold.Chemscore.Hbonds>
donor molecule, donor type, donor heavy atom, donor atom, acceptor molecule, acceptor atom, score
      P1  H  6931  6943       L1    20  0.93
      P1  H  7989  7998       L1    10  0.92

> <Gold.Chemscore.Hbond.Weighted>
-6.5405

> <Gold.Chemscore.Metal.Weighted>
-0.0000

> <Gold.Chemscore.Lipo.Weighted>
-8.9996

> <Gold.Chemscore.Internal_Hbond.Weighted>
0.0000

> <Gold.Chemscore.DEClash.Weighted>
0.1135

> <Gold.Chemscore.DEInternal.Weighted>
1.8041

> <Gold.Chemscore.Rot.Weighted>
4.0469

> <Gold.Chemscore.Internal.Correction.Weighted>
   9.000000E+99

> <Gold.Protein.RotatedTorsions>
[ 6907 6896 6895 6894 ] final  -83.55 input  -60.11 | X-H torsion
[ 7974 7965 7964 7962 ] final   72.12 input  175.53 | X-H torsion
[ 8008 7997 7996 7995 ] final  171.99 input   59.86 | X-H torsion
[ 10167 10162 10161 10158 ] final  -21.53 input  -65.29 | X-H torsion
[ 10718 10713 10712 10709 ] final  -10.98 input   66.30 | X-H torsion
[ 10763 10752 10751 10750 ] final  104.96 input  -60.55 | X-H torsion
[ 11005 11000 10999 10996 ] final  -15.04 input  -57.11 | X-H torsion

> <Gold.Protein.ActiveResidues>
 VAL166  LYS551  ARG553  GLY616  TRP617  ASP618  TYR619  PRO620  LYS621  CYS622 
 ASP623  PHE694  ASN695  SER759  ASP760  ASP761  ALA762  ILE779  LEU786  VAL792 
 PHE793  MET794  SER795  GLU796  ALA797  LYS798  CYS799  TRP800  GLU811  SER814 

> <Gold.Protein.RotatedAtoms>
  150.6884  134.3495  159.4902 H   0  0  0  0  0  0  0  0  0  0  0  0  # atno 6907 bound_to 6896
  152.1338  134.9112  160.0566 H   0  0  0  0  0  0  0  0  0  0  0  0  # atno 6908 bound_to 6896
  152.0272  133.3887  159.4319 H   0  0  0  0  0  0  0  0  0  0  0  0  # atno 6909 bound_to 6896
  145.7574  139.2785  143.1396 H   0  0  0  0  0  0  0  0  0  0  0  0  # atno 7974 bound_to 7965
  156.1218  140.1497  156.9194 H   0  0  0  0  0  0  0  0  0  0  0  0  # atno 8008 bound_to 7997
  154.4841  140.0870  156.7487 H   0  0  0  0  0  0  0  0  0  0  0  0  # atno 8009 bound_to 7997
  155.4415  140.3431  155.4293 H   0  0  0  0  0  0  0  0  0  0  0  0  # atno 8010 bound_to 7997
  140.7282  143.4619  151.0368 H   0  0  0  0  0  0  0  0  0  0  0  0  # atno 10167 bound_to 10162
  156.6657  130.4994  149.6016 H   0  0  0  0  0  0  0  0  0  0  0  0  # atno 10718 bound_to 10713
  153.3729  135.3926  155.1801 H   0  0  0  0  0  0  0  0  0  0  0  0  # atno 10763 bound_to 10752
  154.8697  135.3707  154.4955 H   0  0  0  0  0  0  0  0  0  0  0  0  # atno 10764 bound_to 10752
  153.5424  135.7084  153.5691 H   0  0  0  0  0  0  0  0  0  0  0  0  # atno 10765 bound_to 10752
  140.7925  133.8276  155.9393 H   0  0  0  0  0  0  0  0  0  0  0  0  # atno 11005 bound_to 11000
  146.0298  140.8269  142.9882 LP  0  0  0  0  0  0  0  0  0  0  0  0  # atno 17320 bound_to 7965
  144.6837  140.2751  143.7300 LP  0  0  0  0  0  0  0  0  0  0  0  0  # atno 17321 bound_to 7965
  139.8304  143.7699  152.3179 LP  0  0  0  0  0  0  0  0  0  0  0  0  # atno 17342 bound_to 10162
  139.7812  144.7443  151.0085 LP  0  0  0  0  0  0  0  0  0  0  0  0  # atno 17343 bound_to 10162
  156.1977  130.6600  151.1132 LP  0  0  0  0  0  0  0  0  0  0  0  0  # atno 17370 bound_to 10713
  157.7094  131.0741  150.6553 LP  0  0  0  0  0  0  0  0  0  0  0  0  # atno 17371 bound_to 10713
  140.9375  134.1943  157.4821 LP  0  0  0  0  0  0  0  0  0  0  0  0  # atno 17394 bound_to 11000
  139.8729  134.9858  156.5298 LP  0  0  0  0  0  0  0  0  0  0  0  0  # atno 17395 bound_to 11000

$$$$
