#       Name:                AV-unprocessed.smi:2078
#       Creating user name   scv26
#       Creation time:       Fri Mar 27 11:16:38 2020


#       File generated by GOLD software.
#

@<TRIPOS>MOLECULE
AV-unprocessed.smi:2078
    47    48     1
SMALL
NO_CHARGES


@<TRIPOS>ATOM
      1 ****        -7.8902   2.8184   0.4548 C.3            1 S1                 0.0000
      2 ****        -6.4396   2.4785   0.4912 C.2            1 S1                 0.0000
      3 ****        -5.7601   1.3365   0.8099 C.2            1 S1                 0.0000
      4 ****        -4.4020   1.7129   0.6338 C.2            1 S1                 0.0000
      5 ****        -3.3536   0.7874   0.8696 N.am           1 S1                 0.0000
      6 ****        -2.0319   1.0004   0.7509 C.2            1 S1                 0.0000
      7 ****        -1.5104   2.0624   0.4095 O.2            1 S1                 0.0000
      8 ****        -1.3295  -0.1017   1.0514 N.am           1 S1                 0.0000
      9 ****         0.1260  -0.1925   1.0351 C.3            1 S1                 0.0000
     10 ****         0.6688  -0.3559  -0.3981 C.3            1 S1                 0.0000
     11 ****         2.1522  -0.4042  -0.4405 N.4            1 S1                 1.0000
     12 ****         2.6874  -0.0210  -1.7727 C.3            1 S1                 0.0000
     13 ****         4.2224   0.0568  -1.7538 C.3            1 S1                 0.0000
     14 ****         4.8351  -1.2664  -1.2783 C.3            1 S1                 0.0000
     15 ****         4.2513  -1.6637   0.0878 C.3            1 S1                 0.0000
     16 ****         4.8275  -3.0001   0.5766 C.3            1 S1                 0.0000
     17 ****         2.7114  -1.7044   0.0186 C.3            1 S1                 0.0000
     18 ****        -4.2645   2.9702   0.2421 N.2            1 S1                 0.0000
     19 ****        -5.5697   3.4677   0.1498 O.3            1 S1                 0.0000
     20 ****        -8.4991   1.9163   0.3914 H              1 S1                 0.0000
     21 ****        -8.1219   3.4429  -0.4084 H              1 S1                 0.0000
     22 ****        -8.1814   3.3613   1.3543 H              1 S1                 0.0000
     23 ****        -6.1720   0.3874   1.1194 H              1 S1                 0.0000
     24 ****        -3.6421  -0.1344   1.1620 H              1 S1                 0.0000
     25 ****        -1.8369  -0.9315   1.3231 H              1 S1                 0.0000
     26 ****         0.5586   0.6899   1.5098 H              1 S1                 0.0000
     27 ****         0.4004  -1.0444   1.6558 H              1 S1                 0.0000
     28 ****         0.2549  -1.2474  -0.8718 H              1 S1                 0.0000
     29 ****         0.3274   0.4929  -0.9923 H              1 S1                 0.0000
     30 ****         2.3547  -0.7418  -2.5214 H              1 S1                 0.0000
     31 ****         2.2869   0.9501  -2.0666 H              1 S1                 0.0000
     32 ****         4.5953   0.3027  -2.7485 H              1 S1                 0.0000
     33 ****         4.5408   0.8664  -1.0956 H              1 S1                 0.0000
     34 ****         4.6334  -2.0484  -2.0121 H              1 S1                 0.0000
     35 ****         5.9197  -1.1709  -1.2141 H              1 S1                 0.0000
     36 ****         4.5356  -0.8991   0.8126 H              1 S1                 0.0000
     37 ****         4.5825  -3.8123  -0.1086 H              1 S1                 0.0000
     38 ****         4.4333  -3.2632   1.5586 H              1 S1                 0.0000
     39 ****         5.9136  -2.9519   0.6606 H              1 S1                 0.0000
     40 ****         2.3220  -1.9517   1.0055 H              1 S1                 0.0000
     41 ****         2.3848  -2.4982  -0.6556 H              1 S1                 0.0000
     42 ****         2.4777   0.3021   0.2042 H              1 S1                 0.0000
     43 ****        -2.0824   2.8540   0.1947 LP             1 S1                 0.0000
     44 ****        -0.5148   2.1333   0.3471 LP             1 S1                 0.0000
     45 ****        -3.4126   3.4587   0.0531 LP             1 S1                 0.0000
     46 ****        -5.6794   4.2420   0.7730 LP             1 S1                 0.0000
     47 ****        -5.7505   3.7660  -0.7874 LP             1 S1                 0.0000
@<TRIPOS>BOND
    1    1    2 1     
    2    1   20 1     
    3    1   21 1     
    4    1   22 1     
    5    2   19 1     
    6    2    3 2     
    7    3    4 1     
    8    3   23 1     
    9    4    5 1     
   10    4   18 2     
   11    5    6 am    
   12    5   24 1     
   13    6    7 2     
   14    6    8 am    
   15    8    9 1     
   16    8   25 1     
   17    9   10 1     
   18    9   26 1     
   19    9   27 1     
   20   10   11 1     
   21   10   28 1     
   22   10   29 1     
   23   11   17 1     
   24   11   12 1     
   25   11   42 1     
   26   12   13 1     
   27   12   30 1     
   28   12   31 1     
   29   13   14 1     
   30   13   32 1     
   31   13   33 1     
   32   14   15 1     
   33   14   34 1     
   34   14   35 1     
   35   15   16 1     
   36   15   17 1     
   37   15   36 1     
   38   16   37 1     
   39   16   38 1     
   40   16   39 1     
   41   17   40 1     
   42   17   41 1     
   43   18   19 1     
   44    7   43 1     
   45    7   44 1     
   46   18   45 1     
   47   19   46 1     
   48   19   47 1     
@<TRIPOS>SUBSTRUCTURE
      1 S1             1
@<TRIPOS>SET
LONE_PAIRS      STATIC     ATOMS    <user>   **** ""
5 43 44 45 46 47
DONOR_HYDROGENS      STATIC     ATOMS    <user>   **** ""
3 24 25 42
ATOM$BLUE        STATIC     ATOMS    COLORGROUP SYSTEM
5 43 44 45 46 47
ATOM$RED        STATIC     ATOMS    COLORGROUP SYSTEM
3 24 25 42
