AV-unprocessed.smi:1830|AV-procd|sdf|7452|dock10
  -GOLD-   22720 9143D 1   1.00000     0.00000
 Structure written by MMmdl.
 53 56  0  0  0  0  0  0  0  0  2 V2000
  148.3881  132.7234  152.8366 O   0  0  0  0  0  0  0  0  0  0  0  0
  147.9793  133.8677  153.0318 C   0  0  0  0  0  0  0  0  0  0  0  0
  148.6518  134.7828  153.7432 N   0  0  0  0  0  0  0  0  0  0  0  0
  149.9600  134.5714  154.3536 C   0  0  0  0  0  0  0  0  0  0  0  0
  150.3884  135.7708  155.2171 C   0  0  2  0  0  0  0  0  0  0  0  0
  150.2470  137.1097  154.4585 C   0  0  0  0  0  0  0  0  0  0  0  0
  150.7640  138.1916  155.2739 N   0  0  0  0  0  0  0  0  0  0  0  0
  150.7758  139.5095  154.6835 C   0  0  0  0  0  0  0  0  0  0  0  0
  151.7261  140.3194  155.5831 C   0  0  0  0  0  0  0  0  0  0  0  0
  152.5708  139.2510  156.3125 C   0  0  0  0  0  0  0  0  0  0  0  0
  152.1373  137.9536  155.6280 C   0  0  1  0  0  0  0  0  0  0  0  0
  152.2760  136.6467  156.4222 C   0  0  0  0  0  0  0  0  0  0  0  0
  151.7521  135.5854  155.6193 O   0  0  0  0  0  0  0  0  0  0  0  0
  146.8299  134.3730  152.5539 N   0  0  0  0  0  0  0  0  0  0  0  0
  145.8874  133.7548  151.6830 C   0  0  0  0  0  0  0  0  0  0  0  0
  146.2840  132.7673  150.7439 C   0  0  0  0  0  0  0  0  0  0  0  0
  145.3331  132.1984  149.8762 C   0  0  0  0  0  0  0  0  0  0  0  0
  143.9959  132.6207  149.9625 C   0  0  0  0  0  0  0  0  0  0  0  0
  143.6451  133.5437  150.8812 N   0  3  0  0  0  0  0  0  0  0  0  0
  144.5101  134.1174  151.7548 C   0  0  0  0  0  0  0  0  0  0  0  0
  143.9890  135.0596  152.6718 N   0  0  0  0  0  0  0  0  0  0  0  0
  144.1449  136.4893  152.4288 C   0  0  0  0  0  0  0  0  0  0  0  0
  143.1789  137.1646  153.3981 C   0  0  0  0  0  0  0  0  0  0  0  0
  142.0144  136.1801  153.4392 C   0  0  0  0  0  0  0  0  0  0  0  0
  142.6885  134.8125  153.2871 C   0  0  0  0  0  0  0  0  0  0  0  0
  148.2459  135.7008  153.8509 H   0  0  0  0  0  0  0  0  0  0  0  0
  149.9124  133.6696  154.9646 H   0  0  0  0  0  0  0  0  0  0  0  0
  150.7006  134.3800  153.5753 H   0  0  0  0  0  0  0  0  0  0  0  0
  149.7675  135.8122  156.1137 H   0  0  0  0  0  0  0  0  0  0  0  0
  150.7919  137.0609  153.5144 H   0  0  0  0  0  0  0  0  0  0  0  0
  149.2010  137.2960  154.2136 H   0  0  0  0  0  0  0  0  0  0  0  0
  151.1748  139.4641  153.6688 H   0  0  0  0  0  0  0  0  0  0  0  0
  149.7745  139.9385  154.6350 H   0  0  0  0  0  0  0  0  0  0  0  0
  152.3435  140.9961  154.9918 H   0  0  0  0  0  0  0  0  0  0  0  0
  151.1674  140.9183  156.3033 H   0  0  0  0  0  0  0  0  0  0  0  0
  153.6429  139.4266  156.2216 H   0  0  0  0  0  0  0  0  0  0  0  0
  152.3175  139.2316  157.3734 H   0  0  0  0  0  0  0  0  0  0  0  0
  152.7242  137.8522  154.7124 H   0  0  0  0  0  0  0  0  0  0  0  0
  153.3217  136.4439  156.6531 H   0  0  0  0  0  0  0  0  0  0  0  0
  151.7354  136.7001  157.3685 H   0  0  0  0  0  0  0  0  0  0  0  0
  146.6736  135.3533  152.7358 H   0  0  0  0  0  0  0  0  0  0  0  0
  147.3068  132.4298  150.6756 H   0  0  0  0  0  0  0  0  0  0  0  0
  145.6278  131.4513  149.1538 H   0  0  0  0  0  0  0  0  0  0  0  0
  143.1994  132.2451  149.3364 H   0  0  0  0  0  0  0  0  0  0  0  0
  145.1735  136.8126  152.5911 H   0  0  0  0  0  0  0  0  0  0  0  0
  143.8638  136.7346  151.4038 H   0  0  0  0  0  0  0  0  0  0  0  0
  143.6344  137.2444  154.3862 H   0  0  0  0  0  0  0  0  0  0  0  0
  142.8840  138.1641  153.0777 H   0  0  0  0  0  0  0  0  0  0  0  0
  141.4202  136.2606  154.3497 H   0  0  0  0  0  0  0  0  0  0  0  0
  141.3536  136.3600  152.5901 H   0  0  0  0  0  0  0  0  0  0  0  0
  142.0743  134.1322  152.6952 H   0  0  0  0  0  0  0  0  0  0  0  0
  142.8448  134.3646  154.2690 H   0  0  0  0  0  0  0  0  0  0  0  0
  142.6646  133.8218  150.9264 H   0  0  0  0  0  0  0  0  0  0  0  0
  1  2  2  0  0  0  0
  2  3  1  0  0  0  0
  2 14  1  0  0  0  0
  3  4  1  0  0  0  0
  3 26  1  0  0  0  0
  4  5  1  0  0  0  0
  4 27  1  0  0  0  0
  4 28  1  0  0  0  0
  5 13  1  0  0  0  0
  5  6  1  0  0  0  0
  5 29  1  0  0  0  0
  6  7  1  0  0  0  0
  6 30  1  0  0  0  0
  6 31  1  0  0  0  0
  7 11  1  0  0  0  0
  7  8  1  0  0  0  0
  8  9  1  0  0  0  0
  8 32  1  0  0  0  0
  8 33  1  0  0  0  0
  9 10  1  0  0  0  0
  9 34  1  0  0  0  0
  9 35  1  0  0  0  0
 10 11  1  0  0  0  0
 10 36  1  0  0  0  0
 10 37  1  0  0  0  0
 11 12  1  0  0  0  0
 11 38  1  0  0  0  0
 12 13  1  0  0  0  0
 12 39  1  0  0  0  0
 12 40  1  0  0  0  0
 14 15  1  0  0  0  0
 14 41  1  0  0  0  0
 15 20  1  0  0  0  0
 15 16  2  0  0  0  0
 16 17  1  0  0  0  0
 16 42  1  0  0  0  0
 17 18  2  0  0  0  0
 17 43  1  0  0  0  0
 18 19  1  0  0  0  0
 18 44  1  0  0  0  0
 19 20  2  0  0  0  0
 19 53  1  0  0  0  0
 20 21  1  0  0  0  0
 21 25  1  0  0  0  0
 21 22  1  0  0  0  0
 22 23  1  0  0  0  0
 22 45  1  0  0  0  0
 22 46  1  0  0  0  0
 23 24  1  0  0  0  0
 23 47  1  0  0  0  0
 23 48  1  0  0  0  0
 24 25  1  0  0  0  0
 24 49  1  0  0  0  0
 24 50  1  0  0  0  0
 25 51  1  0  0  0  0
 25 52  1  0  0  0  0
M  CHG  1  19   1
M  END
> <s_m_source_file>
AV-unprocessed.smi

> <i_m_source_file_index>
1830

> <i_lp_mmshare_version>
43012

> <i_f3d_flags>
0

> <s_epik_input>
W0NIMl0xW0NIMl1bQ0gyXVtDQEhdKE4xMilbQ0gyXU9bQ0BASF0oW0NIMl0yKVtDSDJdW05IXUMoPU8pW05IXWMzW2NIXVtjSF1bY0hdbmMzTjRbQ0gyXVtDSDJdW0NIMl1bQ0gyXTQ=

> <s_epik_cmdline>
J2VwaWtfcHl0aG9uJywgJy1waCcsICc3LjAnLCAnLXRuJywgJzgnLCAnLW1hJywgJzIwMCcsICctbWV0YWxfYmluZGluZycsICctaW1hZScsICc8aW5maWxlLm1hZT4nLCAnLW9tYWUnLCAnPG91dGZpbGUubWFlPic=

> <r_epik_Ionization_Penalty>
2.19264

> <r_epik_Ionization_Penalty_Charging>
1.12452

> <r_epik_Ionization_Penalty_Neutral>
1.06812

> <r_epik_State_Penalty>
2.334

> <r_epik_Charging_Adjusted_Penalty>
3.45852

> <i_epik_Tot_Q>
1

> <i_epik_Tot_abs_Q>
1

> <r_epik_Metal_State_Penalty>
2.41144

> <b_epik_Metal_Only>
0

> <s_lp_Force_Field>
OPLS_2005

> <r_lp_Energy>
81.6261

> <b_lp_Chiralities_Consistent>
1

> <s_lp_Variant>
AV-unprocessed.smi:1830-21

> <Gold.Version>
5.8.1

> <Gold.Id.Protein>
6NUR|6NUR_protein|mol2

> <Gold.PLP.Fitness>
47.1721

> <Gold.PLP.PLP>
-40.5533

> <Gold.PLP.part.hbond>
-3.9309

> <Gold.PLP.part.metal>
0.0000

> <Gold.PLP.part.buried>
-3.9885

> <Gold.PLP.part.nonpolar>
-33.0614

> <Gold.PLP.part.repulsive>
0.3881

> <Gold.PLP.ligand.clash>
0.0000

> <Gold.PLP.ligand.torsion>
0.7890

> <Gold.PLP.Chemscore.Hbond>
2.6016

> <Gold.PLP.Chemscore.CHOScore>
0.0000

> <Gold.PLP.Chemscore.Metal>
0.0000

> <Gold.Chemscore.Hbonds>
donor molecule, donor type, donor heavy atom, donor atom, acceptor molecule, acceptor atom, score
      L1  H    19    53       P1 10186  0.81
      P1  H 10752 10763       L1    13  0.74

> <Gold.PLP.Chemscore.Internal.Correction>
0.3920

> <Gold.Rescore>
     Score         DG    S(hbond)    S(metal)    S(lipo)     H(rot)  DE(clash)    DE(int)     intcor
     13.05     -16.22       0.94        0.00      95.42       1.40       1.34       1.83       ----

> <Gold.Chemscore.Fitness>
13.0539

> <Gold.Chemscore.DG>
-16.2213

> <Gold.Chemscore.ZeroCoef>
-5.4800

> <Gold.Chemscore.Hbond>
0.9432

> <Gold.Chemscore.Metal>
0.0000

> <Gold.Chemscore.Lipo>
95.4249

> <Gold.Chemscore.Internal_Hbond>
0.0000

> <Gold.Chemscore.DEClash>
1.3409

> <Gold.Chemscore.DEInternal>
1.8265

> <Gold.Chemscore.Rot>
1.3959

> <Gold.Chemscore.Internal.Correction>
   9.000000E+99

> <Gold.Chemscore.Hbonds>
donor molecule, donor type, donor heavy atom, donor atom, acceptor molecule, acceptor atom, score
      L1  H    19    53       P1 10186  0.28
      P1  H 10752 10763       L1    13  0.08

> <Gold.Chemscore.Hbond.Weighted>
-3.1502

> <Gold.Chemscore.Metal.Weighted>
-0.0000

> <Gold.Chemscore.Lipo.Weighted>
-11.1647

> <Gold.Chemscore.Internal_Hbond.Weighted>
0.0000

> <Gold.Chemscore.DEClash.Weighted>
1.3409

> <Gold.Chemscore.DEInternal.Weighted>
1.8265

> <Gold.Chemscore.Rot.Weighted>
3.5736

> <Gold.Chemscore.Internal.Correction.Weighted>
   9.000000E+99

> <Gold.Protein.RotatedTorsions>
[ 6907 6896 6895 6894 ] final -144.44 input  -60.11 | X-H torsion
[ 7974 7965 7964 7962 ] final  -14.80 input  175.53 | X-H torsion
[ 8008 7997 7996 7995 ] final   92.62 input   59.86 | X-H torsion
[ 10167 10162 10161 10158 ] final  -50.86 input  -65.29 | X-H torsion
[ 10718 10713 10712 10709 ] final  -91.22 input   66.30 | X-H torsion
[ 10763 10752 10751 10750 ] final   62.96 input  -60.55 | X-H torsion
[ 11005 11000 10999 10996 ] final  -11.76 input  -57.11 | X-H torsion

> <Gold.Protein.ActiveResidues>
 VAL166  LYS551  ARG553  GLY616  TRP617  ASP618  TYR619  PRO620  LYS621  CYS622 
 ASP623  PHE694  ASN695  SER759  ASP760  ASP761  ALA762  ILE779  LEU786  VAL792 
 PHE793  MET794  SER795  GLU796  ALA797  LYS798  CYS799  TRP800  GLU811  SER814 

> <Gold.Protein.RotatedAtoms>
  151.1140  133.5152  159.2604 H   0  0  0  0  0  0  0  0  0  0  0  0  # atno 6907 bound_to 6896
  151.1935  135.0412  159.8852 H   0  0  0  0  0  0  0  0  0  0  0  0  # atno 6908 bound_to 6896
  152.5452  134.0978  159.8358 H   0  0  0  0  0  0  0  0  0  0  0  0  # atno 6909 bound_to 6896
  146.2059  140.3400  142.8407 H   0  0  0  0  0  0  0  0  0  0  0  0  # atno 7974 bound_to 7965
  156.0374  140.3323  155.7206 H   0  0  0  0  0  0  0  0  0  0  0  0  # atno 8008 bound_to 7997
  155.5795  140.0635  157.2804 H   0  0  0  0  0  0  0  0  0  0  0  0  # atno 8009 bound_to 7997
  154.4378  140.1846  156.0950 H   0  0  0  0  0  0  0  0  0  0  0  0  # atno 8010 bound_to 7997
  140.6617  143.2641  151.4421 H   0  0  0  0  0  0  0  0  0  0  0  0  # atno 10167 bound_to 10162
  155.9992  130.4939  150.5441 H   0  0  0  0  0  0  0  0  0  0  0  0  # atno 10718 bound_to 10713
  153.0001  135.5446  154.6276 H   0  0  0  0  0  0  0  0  0  0  0  0  # atno 10763 bound_to 10752
  154.5561  135.2830  155.0965 H   0  0  0  0  0  0  0  0  0  0  0  0  # atno 10764 bound_to 10752
  154.2186  135.6454  153.5190 H   0  0  0  0  0  0  0  0  0  0  0  0  # atno 10765 bound_to 10752
  140.7586  133.8533  155.9106 H   0  0  0  0  0  0  0  0  0  0  0  0  # atno 11005 bound_to 11000
  144.8792  140.7377  143.5997 LP  0  0  0  0  0  0  0  0  0  0  0  0  # atno 17320 bound_to 7965
  145.3320  139.1757  143.4531 LP  0  0  0  0  0  0  0  0  0  0  0  0  # atno 17321 bound_to 7965
  139.5852  144.1620  152.2020 LP  0  0  0  0  0  0  0  0  0  0  0  0  # atno 17342 bound_to 10162
  140.0957  144.5582  150.7023 LP  0  0  0  0  0  0  0  0  0  0  0  0  # atno 17343 bound_to 10162
  157.3373  131.0710  151.1815 LP  0  0  0  0  0  0  0  0  0  0  0  0  # atno 17370 bound_to 10713
  157.2675  130.6688  149.6003 LP  0  0  0  0  0  0  0  0  0  0  0  0  # atno 17371 bound_to 10713
  140.9684  134.1564  157.4597 LP  0  0  0  0  0  0  0  0  0  0  0  0  # atno 17394 bound_to 11000
  139.8774  134.9970  156.5822 LP  0  0  0  0  0  0  0  0  0  0  0  0  # atno 17395 bound_to 11000

$$$$
