#       Name:                AV-unprocessed.smi:1326
#       Creating user name   scv26
#       Creation time:       Fri Mar 27 05:04:50 2020


#       File generated by GOLD software.
#

@<TRIPOS>MOLECULE
AV-unprocessed.smi:1326
    44    44     1
SMALL
NO_CHARGES


@<TRIPOS>ATOM
      1 ****        -3.8549   0.1266  -4.6233 C.3            1 S1                 0.0000
      2 ****        -3.3900   0.2481  -3.1878 C.2            1 S1                 0.0000
      3 ****        -3.2791   1.4083  -2.6620 N.2            1 S1                 0.0000
      4 ****        -2.8496   1.5257  -1.3290 C.2            1 S1                 0.0000
      5 ****        -2.7506   2.9401  -0.7848 C.3            1 S1                 0.0000
      6 ****        -2.5485   0.4229  -0.5853 C.2            1 S1                 0.0000
      7 ****        -2.0811   0.4952   0.8686 C.3            1 S1                 0.0000
      8 ****        -0.5866   0.7480   1.0783 C.2            1 S1                 0.0000
      9 ****        -0.2141   1.6581   1.8189 O.2            1 S1                 0.0000
     10 ****         0.2576  -0.0761   0.4386 N.am           1 S1                 0.0000
     11 ****         1.7111  -0.0377   0.5390 C.3            1 S1                 0.0000
     12 ****         2.2027  -0.8317   1.7631 C.3            1 S1                 0.0000
     13 ****         3.7325  -0.8121   1.9572 C.3            1 S1                 0.0000
     14 ****         4.4787  -1.5544   0.8357 C.3            1 S1                 0.0000
     15 ****         4.1113  -1.3954   3.3271 C.3            1 S1                 0.0000
     16 ****        -2.6812  -0.8953  -1.2317 C.2            1 S1                 0.0000
     17 ****        -2.4019  -1.9210  -0.6119 O.2            1 S1                 0.0000
     18 ****        -3.1071  -0.9257  -2.5263 N.pl3          1 S1                -1.0000
     19 ****        -4.2036   1.0866  -5.0066 H              1 S1                 0.0000
     20 ****        -4.6756  -0.5876  -4.6986 H              1 S1                 0.0000
     21 ****        -3.0366  -0.2185  -5.2557 H              1 S1                 0.0000
     22 ****        -1.7492   3.1356  -0.4008 H              1 S1                 0.0000
     23 ****        -3.4677   3.0888   0.0227 H              1 S1                 0.0000
     24 ****        -2.9611   3.6778  -1.5599 H              1 S1                 0.0000
     25 ****        -2.6362   1.2861   1.3733 H              1 S1                 0.0000
     26 ****        -2.3546  -0.4135   1.4058 H              1 S1                 0.0000
     27 ****        -0.1409  -0.7949  -0.1493 H              1 S1                 0.0000
     28 ****         2.1125  -0.4635  -0.3800 H              1 S1                 0.0000
     29 ****         2.0610   0.9950   0.5833 H              1 S1                 0.0000
     30 ****         1.7329  -0.4138   2.6549 H              1 S1                 0.0000
     31 ****         1.8540  -1.8634   1.6957 H              1 S1                 0.0000
     32 ****         4.0612   0.2279   1.9471 H              1 S1                 0.0000
     33 ****         4.1535  -2.5926   0.7632 H              1 S1                 0.0000
     34 ****         5.5540  -1.5568   1.0162 H              1 S1                 0.0000
     35 ****         4.3186  -1.0850  -0.1344 H              1 S1                 0.0000
     36 ****         3.8037  -2.4383   3.4124 H              1 S1                 0.0000
     37 ****         3.6362  -0.8410   4.1369 H              1 S1                 0.0000
     38 ****         5.1884  -1.3519   3.4898 H              1 S1                 0.0000
     39 ****        -3.4963   2.2259  -3.1952 LP             1 S1                 0.0000
     40 ****        -0.8882   2.2322   2.2835 LP             1 S1                 0.0000
     41 ****         0.7626   1.8232   1.9559 LP             1 S1                 0.0000
     42 ****        -2.0834  -1.8624   0.3342 LP             1 S1                 0.0000
     43 ****        -2.4934  -2.8131  -1.0543 LP             1 S1                 0.0000
     44 ****        -3.2142  -1.8019  -2.9962 LP             1 S1                 0.0000
@<TRIPOS>BOND
    1    1    2 1     
    2    1   19 1     
    3    1   20 1     
    4    1   21 1     
    5    2   18 1     
    6    2    3 2     
    7    3    4 1     
    8    4    5 1     
    9    4    6 2     
   10    5   22 1     
   11    5   23 1     
   12    5   24 1     
   13    6    7 1     
   14    6   16 1     
   15    7    8 1     
   16    7   25 1     
   17    7   26 1     
   18    8    9 2     
   19    8   10 am    
   20   10   11 1     
   21   10   27 1     
   22   11   12 1     
   23   11   28 1     
   24   11   29 1     
   25   12   13 1     
   26   12   30 1     
   27   12   31 1     
   28   13   14 1     
   29   13   15 1     
   30   13   32 1     
   31   14   33 1     
   32   14   34 1     
   33   14   35 1     
   34   15   36 1     
   35   15   37 1     
   36   15   38 1     
   37   16   17 2     
   38   16   18 1     
   39    3   39 1     
   40    9   40 1     
   41    9   41 1     
   42   17   42 1     
   43   17   43 1     
   44   18   44 1     
@<TRIPOS>SUBSTRUCTURE
      1 S1             1
@<TRIPOS>SET
LONE_PAIRS      STATIC     ATOMS    <user>   **** ""
6 39 40 41 42 43 44
DONOR_HYDROGENS      STATIC     ATOMS    <user>   **** ""
1 27
ATOM$BLUE        STATIC     ATOMS    COLORGROUP SYSTEM
6 39 40 41 42 43 44
ATOM$RED        STATIC     ATOMS    COLORGROUP SYSTEM
1 27
