AV-unprocessed.smi:2579|AV-procd|sdf|10124|dock2
  -GOLD-   2272014143D 1   1.00000     0.00000
 Structure written by MMmdl.
 39 41  0  0  0  0  0  0  0  0  2 V2000
  147.4496  139.8377  153.2121 O   0  0  0  0  0  0  0  0  0  0  0  0
  147.5182  141.0035  154.0045 C   0  0  0  0  0  0  0  0  0  0  0  0
  148.9638  141.2344  154.4762 C   0  0  0  0  0  0  0  0  0  0  0  0
  149.1959  140.7225  155.8194 N   0  0  0  0  0  0  0  0  0  0  0  0
  150.0564  141.4309  156.6664 C   0  0  0  0  0  0  0  0  0  0  0  0
  150.3305  142.7615  156.6022 N   0  3  0  0  0  0  0  0  0  0  0  0
  151.2541  143.0682  157.6055 C   0  0  0  0  0  0  0  0  0  0  0  0
  151.8525  144.2764  157.9498 C   0  0  0  0  0  0  0  0  0  0  0  0
  152.7655  144.2475  159.0244 C   0  0  0  0  0  0  0  0  0  0  0  0
  153.0547  143.0511  159.7124 C   0  0  0  0  0  0  0  0  0  0  0  0
  152.4425  141.8308  159.3580 C   0  0  0  0  0  0  0  0  0  0  0  0
  151.5389  141.8658  158.2969 C   0  0  0  0  0  0  0  0  0  0  0  0
  150.7645  140.8747  157.6824 N   0  0  0  0  0  0  0  0  0  0  0  0
  150.8450  139.4848  158.1488 C   0  0  0  0  0  0  0  0  0  0  0  0
  151.5367  138.5818  157.1157 C   0  0  1  0  0  0  0  0  0  0  0  0
  150.6170  138.0778  156.0050 C   0  0  0  0  0  0  0  0  0  0  0  0
  151.5578  137.8581  154.8283 C   0  0  0  0  0  0  0  0  0  0  0  0
  152.8712  138.5142  155.2639 C   0  0  0  0  0  0  0  0  0  0  0  0
  152.5311  139.2957  156.3986 O   0  0  0  0  0  0  0  0  0  0  0  0
  148.0400  139.9354  152.4805 H   0  0  0  0  0  0  0  0  0  0  0  0
  147.1226  141.8580  153.4545 H   0  0  0  0  0  0  0  0  0  0  0  0
  146.8708  140.8525  154.8684 H   0  0  0  0  0  0  0  0  0  0  0  0
  149.6578  140.7488  153.7895 H   0  0  0  0  0  0  0  0  0  0  0  0
  149.2073  142.2971  154.4501 H   0  0  0  0  0  0  0  0  0  0  0  0
  149.1459  139.7208  155.9413 H   0  0  0  0  0  0  0  0  0  0  0  0
  151.6365  145.1942  157.4229 H   0  0  0  0  0  0  0  0  0  0  0  0
  153.2562  145.1617  159.3258 H   0  0  0  0  0  0  0  0  0  0  0  0
  153.7621  143.0691  160.5287 H   0  0  0  0  0  0  0  0  0  0  0  0
  152.6737  140.9200  159.8902 H   0  0  0  0  0  0  0  0  0  0  0  0
  151.3593  139.4566  159.1097 H   0  0  0  0  0  0  0  0  0  0  0  0
  149.8262  139.1419  158.3323 H   0  0  0  0  0  0  0  0  0  0  0  0
  152.0120  137.7349  157.6147 H   0  0  0  0  0  0  0  0  0  0  0  0
  150.0754  137.1754  156.2902 H   0  0  0  0  0  0  0  0  0  0  0  0
  149.8824  138.8407  155.7435 H   0  0  0  0  0  0  0  0  0  0  0  0
  151.7047  136.7982  154.6181 H   0  0  0  0  0  0  0  0  0  0  0  0
  151.1594  138.3263  153.9275 H   0  0  0  0  0  0  0  0  0  0  0  0
  153.5995  137.7566  155.5570 H   0  0  0  0  0  0  0  0  0  0  0  0
  153.3159  139.1281  154.4804 H   0  0  0  0  0  0  0  0  0  0  0  0
  149.9251  143.3994  155.9297 H   0  0  0  0  0  0  0  0  0  0  0  0
  1  2  1  0  0  0  0
  1 20  1  0  0  0  0
  2  3  1  0  0  0  0
  2 21  1  0  0  0  0
  2 22  1  0  0  0  0
  3  4  1  0  0  0  0
  3 23  1  0  0  0  0
  3 24  1  0  0  0  0
  4  5  1  0  0  0  0
  4 25  1  0  0  0  0
  5 13  1  0  0  0  0
  5  6  2  0  0  0  0
  6  7  1  0  0  0  0
  6 39  1  0  0  0  0
  7 12  2  0  0  0  0
  7  8  1  0  0  0  0
  8  9  2  0  0  0  0
  8 26  1  0  0  0  0
  9 10  1  0  0  0  0
  9 27  1  0  0  0  0
 10 11  2  0  0  0  0
 10 28  1  0  0  0  0
 11 12  1  0  0  0  0
 11 29  1  0  0  0  0
 12 13  1  0  0  0  0
 13 14  1  0  0  0  0
 14 15  1  0  0  0  0
 14 30  1  0  0  0  0
 14 31  1  0  0  0  0
 15 19  1  0  0  0  0
 15 16  1  0  0  0  0
 15 32  1  0  0  0  0
 16 17  1  0  0  0  0
 16 33  1  0  0  0  0
 16 34  1  0  0  0  0
 17 18  1  0  0  0  0
 17 35  1  0  0  0  0
 17 36  1  0  0  0  0
 18 19  1  0  0  0  0
 18 37  1  0  0  0  0
 18 38  1  0  0  0  0
M  CHG  1   6   1
M  END
> <s_m_source_file>
AV-unprocessed.smi

> <i_m_source_file_index>
2579

> <i_lp_mmshare_version>
43012

> <i_f3d_flags>
0

> <s_epik_input>
W09IXVtDSDJdW0NIMl1bTkhdYyhuMSluKGMoYzEyKVtjSF1bY0hdW2NIXVtjSF0yKVtDSDJdW0NAQEhdM1tDSDJdW0NIMl1bQ0gyXU8z

> <s_epik_cmdline>
J2VwaWtfcHl0aG9uJywgJy1waCcsICc3LjAnLCAnLXRuJywgJzgnLCAnLW1hJywgJzIwMCcsICctbWV0YWxfYmluZGluZycsICctaW1hZScsICc8aW5maWxlLm1hZT4nLCAnLW9tYWUnLCAnPG91dGZpbGUubWFlPic=

> <r_epik_Ionization_Penalty>
0.0735651

> <r_epik_Ionization_Penalty_Charging>
0.0735628

> <r_epik_Ionization_Penalty_Neutral>
2.35277e-06

> <r_epik_State_Penalty>
0.0647164

> <r_epik_Charging_Adjusted_Penalty>
0.138279

> <i_epik_Tot_Q>
1

> <i_epik_Tot_abs_Q>
1

> <r_epik_Metal_State_Penalty>
2.81856

> <b_epik_Metal_Only>
0

> <s_lp_Force_Field>
OPLS_2005

> <r_lp_Energy>
32.0785

> <b_lp_Chiralities_Consistent>
1

> <s_lp_Variant>
AV-unprocessed.smi:2579-2

> <Gold.Version>
5.8.1

> <Gold.Id.Protein>
6NUR|6NUR_protein|mol2

> <Gold.PLP.Fitness>
54.8557

> <Gold.PLP.PLP>
-44.3986

> <Gold.PLP.part.hbond>
-3.0000

> <Gold.PLP.part.metal>
0.0000

> <Gold.PLP.part.buried>
-6.4184

> <Gold.PLP.part.nonpolar>
-36.2049

> <Gold.PLP.part.repulsive>
0.1662

> <Gold.PLP.ligand.clash>
0.0000

> <Gold.PLP.ligand.torsion>
0.7785

> <Gold.PLP.Chemscore.Hbond>
4.0000

> <Gold.PLP.Chemscore.CHOScore>
0.0000

> <Gold.PLP.Chemscore.Metal>
0.0000

> <Gold.Chemscore.Hbonds>
donor molecule, donor type, donor heavy atom, donor atom, acceptor molecule, acceptor atom, score
      L1  H     1    20       P1  7957  0.98
      L1  H     6    39       P1  8028  1.89
      P1  H  7997  8008       L1    19  0.60

> <Gold.PLP.Chemscore.Internal.Correction>
0.0140

> <Gold.Rescore>
     Score         DG    S(hbond)    S(metal)    S(lipo)     H(rot)  DE(clash)    DE(int)     intcor
     21.04     -21.87       2.55        0.00     116.00       2.22       0.00       0.83       ----

> <Gold.Chemscore.Fitness>
21.0442

> <Gold.Chemscore.DG>
-21.8737

> <Gold.Chemscore.ZeroCoef>
-5.4800

> <Gold.Chemscore.Hbond>
2.5464

> <Gold.Chemscore.Metal>
0.0000

> <Gold.Chemscore.Lipo>
116.0039

> <Gold.Chemscore.Internal_Hbond>
0.0000

> <Gold.Chemscore.DEClash>
0.0000

> <Gold.Chemscore.DEInternal>
0.8295

> <Gold.Chemscore.Rot>
2.2202

> <Gold.Chemscore.Internal.Correction>
   9.000000E+99

> <Gold.Chemscore.Hbonds>
donor molecule, donor type, donor heavy atom, donor atom, acceptor molecule, acceptor atom, score
      L1  H     1    20       P1  7957  0.92
      L1  H     6    39       P1  8028  0.91
      P1  H  7997  8008       L1    19  0.04

> <Gold.Chemscore.Hbond.Weighted>
-8.5050

> <Gold.Chemscore.Metal.Weighted>
-0.0000

> <Gold.Chemscore.Lipo.Weighted>
-13.5725

> <Gold.Chemscore.Internal_Hbond.Weighted>
0.0000

> <Gold.Chemscore.DEClash.Weighted>
0.0000

> <Gold.Chemscore.DEInternal.Weighted>
0.8295

> <Gold.Chemscore.Rot.Weighted>
5.6837

> <Gold.Chemscore.Internal.Correction.Weighted>
   9.000000E+99

> <Gold.Protein.RotatedTorsions>
[ 6907 6896 6895 6894 ] final   92.17 input  -60.11 | X-H torsion
[ 7974 7965 7964 7962 ] final -137.49 input  175.53 | X-H torsion
[ 8008 7997 7996 7995 ] final  -52.47 input   59.86 | X-H torsion
[ 10167 10162 10161 10158 ] final   -6.98 input  -65.29 | X-H torsion
[ 10718 10713 10712 10709 ] final   80.85 input   66.30 | X-H torsion
[ 10763 10752 10751 10750 ] final  121.40 input  -60.55 | X-H torsion
[ 11005 11000 10999 10996 ] final -144.41 input  -57.11 | X-H torsion

> <Gold.Protein.ActiveResidues>
 VAL166  LYS551  ARG553  GLY616  TRP617  ASP618  TYR619  PRO620  LYS621  CYS622 
 ASP623  PHE694  ASN695  SER759  ASP760  ASP761  ALA762  ILE779  LEU786  VAL792 
 PHE793  MET794  SER795  GLU796  ALA797  LYS798  CYS799  TRP800  GLU811  SER814 

> <Gold.Protein.RotatedAtoms>
  152.5452  134.1544  159.8531 H   0  0  0  0  0  0  0  0  0  0  0  0  # atno 6907 bound_to 6896
  151.1568  133.4864  159.2602 H   0  0  0  0  0  0  0  0  0  0  0  0  # atno 6908 bound_to 6896
  151.1415  135.0192  159.8682 H   0  0  0  0  0  0  0  0  0  0  0  0  # atno 6909 bound_to 6896
  144.8837  140.6544  143.5189 H   0  0  0  0  0  0  0  0  0  0  0  0  # atno 7974 bound_to 7965
  154.4107  140.1223  156.4997 H   0  0  0  0  0  0  0  0  0  0  0  0  # atno 8008 bound_to 7997
  155.6907  140.3495  155.4873 H   0  0  0  0  0  0  0  0  0  0  0  0  # atno 8009 bound_to 7997
  155.9471  140.1098  157.0997 H   0  0  0  0  0  0  0  0  0  0  0  0  # atno 8010 bound_to 7997
  140.7014  143.6132  150.8684 H   0  0  0  0  0  0  0  0  0  0  0  0  # atno 10167 bound_to 10162
  157.6817  130.9978  150.2140 H   0  0  0  0  0  0  0  0  0  0  0  0  # atno 10718 bound_to 10713
  153.6135  135.3426  155.2987 H   0  0  0  0  0  0  0  0  0  0  0  0  # atno 10763 bound_to 10752
  154.8614  135.4256  154.2284 H   0  0  0  0  0  0  0  0  0  0  0  0  # atno 10764 bound_to 10752
  153.3140  135.7033  153.7162 H   0  0  0  0  0  0  0  0  0  0  0  0  # atno 10765 bound_to 10752
  140.8026  134.2838  157.4972 H   0  0  0  0  0  0  0  0  0  0  0  0  # atno 11005 bound_to 11000
  145.3907  139.1617  143.4230 LP  0  0  0  0  0  0  0  0  0  0  0  0  # atno 17320 bound_to 7965
  146.3011  140.3996  142.8704 LP  0  0  0  0  0  0  0  0  0  0  0  0  # atno 17321 bound_to 7965
  139.9854  143.5905  152.2928 LP  0  0  0  0  0  0  0  0  0  0  0  0  # atno 17342 bound_to 10162
  139.6541  144.7661  151.2090 LP  0  0  0  0  0  0  0  0  0  0  0  0  # atno 17343 bound_to 10162
  156.2805  130.3733  149.7940 LP  0  0  0  0  0  0  0  0  0  0  0  0  # atno 17370 bound_to 10713
  156.5630  130.8391  151.3334 LP  0  0  0  0  0  0  0  0  0  0  0  0  # atno 17371 bound_to 10713
  139.8720  134.9438  156.3864 LP  0  0  0  0  0  0  0  0  0  0  0  0  # atno 17394 bound_to 11000
  140.9279  133.7600  155.9987 LP  0  0  0  0  0  0  0  0  0  0  0  0  # atno 17395 bound_to 11000

$$$$
