#       Name:                AV-unprocessed.smi:356
#       Creating user name   scv26
#       Creation time:       Thu Mar 26 22:34:14 2020


#       File generated by GOLD software.
#

@<TRIPOS>MOLECULE
AV-unprocessed.smi:356
    47    49     1
SMALL
NO_CHARGES


@<TRIPOS>ATOM
      1 ****        -0.6213   1.7700   2.1242 C.3            1 S1                 0.0000
      2 ****        -0.8955   2.3562   0.7753 C.2            1 S1                 0.0000
      3 ****        -1.1687   3.6497   0.6041 N.2            1 S1                 0.0000
      4 ****        -1.3525   3.7414  -0.7623 C.ar           1 S1                 0.0000
      5 ****        -1.6681   4.8552  -1.5731 C.ar           1 S1                 0.0000
      6 ****        -1.8077   4.7055  -2.9684 C.ar           1 S1                 0.0000
      7 ****        -1.6347   3.4430  -3.5719 C.ar           1 S1                 0.0000
      8 ****        -1.3211   2.3199  -2.7825 C.ar           1 S1                 0.0000
      9 ****        -1.1823   2.4743  -1.3899 C.ar           1 S1                 0.0000
     10 ****        -0.8836   1.5995  -0.3494 N.pl3          1 S1                 0.0000
     11 ****        -0.6178   0.1721  -0.4612 C.3            1 S1                 0.0000
     12 ****         0.8876  -0.1436  -0.5819 C.3            1 S1                 0.0000
     13 ****         1.3894   0.4135  -1.7798 O.3            1 S1                 0.0000
     14 ****         1.1781  -1.6576  -0.6071 C.3            1 S1                 0.0000
     15 ****         0.8081  -2.3902   0.6049 N.3            1 S1                 0.0000
     16 ****         1.6196  -2.0160   1.7616 C.3            1 S1                 0.0000
     17 ****         1.2345  -2.8180   3.0171 C.3            1 S1                 0.0000
     18 ****         1.3430  -4.2119   2.7488 O.3            1 S1                 0.0000
     19 ****         0.5283  -4.6249   1.6569 C.3            1 S1                 0.0000
     20 ****         0.9153  -3.8305   0.3975 C.3            1 S1                 0.0000
     21 ****        -0.6486   2.5451   2.8906 H              1 S1                 0.0000
     22 ****         0.3638   1.3046   2.1439 H              1 S1                 0.0000
     23 ****        -1.3722   1.0191   2.3700 H              1 S1                 0.0000
     24 ****        -1.8022   5.8264  -1.1202 H              1 S1                 0.0000
     25 ****        -2.0480   5.5643  -3.5782 H              1 S1                 0.0000
     26 ****        -1.7422   3.3374  -4.6415 H              1 S1                 0.0000
     27 ****        -1.1863   1.3524  -3.2423 H              1 S1                 0.0000
     28 ****        -1.0435  -0.3272   0.4093 H              1 S1                 0.0000
     29 ****        -1.1595  -0.2189  -1.3233 H              1 S1                 0.0000
     30 ****         1.4342   0.3305   0.2320 H              1 S1                 0.0000
     31 ****         0.9287   0.0256  -2.5078 H              1 S1                 0.0000
     32 ****         0.6444  -2.0867  -1.4564 H              1 S1                 0.0000
     33 ****         2.2381  -1.8176  -0.8118 H              1 S1                 0.0000
     34 ****         2.6759  -2.1760   1.5403 H              1 S1                 0.0000
     35 ****         1.5025  -0.9562   1.9819 H              1 S1                 0.0000
     36 ****         1.8927  -2.5625   3.8475 H              1 S1                 0.0000
     37 ****         0.2170  -2.5788   3.3300 H              1 S1                 0.0000
     38 ****         0.6697  -5.6927   1.4907 H              1 S1                 0.0000
     39 ****        -0.5243  -4.4743   1.9011 H              1 S1                 0.0000
     40 ****         0.2727  -4.1342  -0.4295 H              1 S1                 0.0000
     41 ****         1.9361  -4.0880   0.1100 H              1 S1                 0.0000
     42 ****        -1.2262   4.3728   1.2924 LP             1 S1                 0.0000
     43 ****         2.3674   0.2198  -1.8579 LP             1 S1                 0.0000
     44 ****         1.2447   1.4030  -1.7779 LP             1 S1                 0.0000
     45 ****        -0.1412  -2.1418   0.7975 LP             1 S1                 0.0000
     46 ****         1.0646  -4.7177   3.5653 LP             1 S1                 0.0000
     47 ****         2.2966  -4.4234   2.5347 LP             1 S1                 0.0000
@<TRIPOS>BOND
    1    1    2 1     
    2    1   21 1     
    3    1   22 1     
    4    1   23 1     
    5    2   10 1     
    6    2    3 2     
    7    3    4 1     
    8    4    9 ar    
    9    4    5 ar    
   10    5    6 ar    
   11    5   24 1     
   12    6    7 ar    
   13    6   25 1     
   14    7    8 ar    
   15    7   26 1     
   16    8    9 ar    
   17    8   27 1     
   18    9   10 1     
   19   10   11 1     
   20   11   12 1     
   21   11   28 1     
   22   11   29 1     
   23   12   13 1     
   24   12   14 1     
   25   12   30 1     
   26   13   31 1     
   27   14   15 1     
   28   14   32 1     
   29   14   33 1     
   30   15   20 1     
   31   15   16 1     
   32   16   17 1     
   33   16   34 1     
   34   16   35 1     
   35   17   18 1     
   36   17   36 1     
   37   17   37 1     
   38   18   19 1     
   39   19   20 1     
   40   19   38 1     
   41   19   39 1     
   42   20   40 1     
   43   20   41 1     
   44    3   42 1     
   45   13   43 1     
   46   13   44 1     
   47   15   45 1     
   48   18   46 1     
   49   18   47 1     
@<TRIPOS>SUBSTRUCTURE
      1 S1             1
@<TRIPOS>SET
LONE_PAIRS      STATIC     ATOMS    <user>   **** ""
6 42 43 44 45 46 47
DONOR_HYDROGENS      STATIC     ATOMS    <user>   **** ""
1 31
ATOM$BLUE        STATIC     ATOMS    COLORGROUP SYSTEM
6 42 43 44 45 46 47
ATOM$RED        STATIC     ATOMS    COLORGROUP SYSTEM
1 31
