#       Name:                AV-unprocessed.smi:120
#       Creating user name   scv26
#       Creation time:       Thu Mar 26 18:26:56 2020


#       File generated by GOLD software.
#

@<TRIPOS>MOLECULE
AV-unprocessed.smi:120
    57    60     1
SMALL
NO_CHARGES


@<TRIPOS>ATOM
      1 ****        -4.0770   1.3538   2.0604 C.3            1 S1                 0.0000
      2 ****        -4.7520   0.1315   2.3199 O.3            1 S1                 0.0000
      3 ****        -4.0174  -1.0350   2.2985 C.ar           1 S1                 0.0000
      4 ****        -4.7155  -2.2331   2.5423 C.ar           1 S1                 0.0000
      5 ****        -4.0417  -3.4665   2.5334 C.ar           1 S1                 0.0000
      6 ****        -2.6589  -3.5115   2.2803 C.ar           1 S1                 0.0000
      7 ****        -1.9255  -2.3276   2.0349 C.ar           1 S1                 0.0000
      8 ****        -0.4701  -2.3740   1.7712 C.2            1 S1                 0.0000
      9 ****         0.1408  -3.4975   1.4164 N.2            1 S1                 0.0000
     10 ****         1.4754  -3.0923   1.2650 O.3            1 S1                 0.0000
     11 ****         1.4989  -1.7664   1.5517 C.2            1 S1                 0.0000
     12 ****         2.8058  -1.0378   1.4718 C.3            1 S1                 0.0000
     13 ****         2.6733   0.1811   0.6902 N.am           1 S1                 0.0000
     14 ****         2.4482   1.3989   1.3790 C.2            1 S1                 0.0000
     15 ****         2.3786   1.4566   2.6077 O.2            1 S1                 0.0000
     16 ****         2.2952   2.5632   0.5134 C.2            1 S1                 0.0000
     17 ****         2.0936   3.7743   1.0597 F              1 S1                 0.0000
     18 ****         2.3518   2.4470  -0.8311 C.2            1 S1                 0.0000
     19 ****         2.5515   1.2377  -1.4774 N.am           1 S1                 0.0000
     20 ****         2.5980   1.1301  -2.9868 C.3            1 S1                 0.0000
     21 ****         1.2942   0.5121  -3.5258 C.3            1 S1                 0.0000
     22 ****         0.8835   1.4914  -4.6071 C.3            1 S1                 0.0000
     23 ****         1.4514   2.7995  -4.0774 C.3            1 S1                 0.0000
     24 ****         2.7121   2.4057  -3.5513 O.3            1 S1                 0.0000
     25 ****         2.7210   0.0598  -0.7182 C.2            1 S1                 0.0000
     26 ****         2.8913  -1.0293  -1.2718 O.2            1 S1                 0.0000
     27 ****         0.3092  -1.2637   1.8789 N.2            1 S1                 0.0000
     28 ****        -2.6230  -1.0954   2.0477 C.ar           1 S1                 0.0000
     29 ****        -4.7912   2.1758   2.1082 H              1 S1                 0.0000
     30 ****        -3.6331   1.3613   1.0640 H              1 S1                 0.0000
     31 ****        -3.3023   1.5469   2.8036 H              1 S1                 0.0000
     32 ****        -5.7778  -2.2063   2.7364 H              1 S1                 0.0000
     33 ****        -4.5858  -4.3804   2.7210 H              1 S1                 0.0000
     34 ****        -2.1629  -4.4711   2.2813 H              1 S1                 0.0000
     35 ****         3.1734  -0.7935   2.4688 H              1 S1                 0.0000
     36 ****         3.5755  -1.6546   1.0038 H              1 S1                 0.0000
     37 ****         2.2327   3.3506  -1.4088 H              1 S1                 0.0000
     38 ****         3.4956   0.5528  -3.2165 H              1 S1                 0.0000
     39 ****         1.4638  -0.4980  -3.8997 H              1 S1                 0.0000
     40 ****         0.5390   0.4771  -2.7388 H              1 S1                 0.0000
     41 ****         1.3626   1.2313  -5.5518 H              1 S1                 0.0000
     42 ****        -0.1945   1.5263  -4.7666 H              1 S1                 0.0000
     43 ****         1.5590   3.5586  -4.8521 H              1 S1                 0.0000
     44 ****         0.8213   3.2029  -3.2836 H              1 S1                 0.0000
     45 ****        -2.0671  -0.1909   1.8548 H              1 S1                 0.0000
     46 ****        -5.4740   0.0399   1.6341 LP             1 S1                 0.0000
     47 ****        -5.1629   0.2066   3.2285 LP             1 S1                 0.0000
     48 ****        -0.2529  -4.4079   1.2886 LP             1 S1                 0.0000
     49 ****         1.7820  -3.2503   0.3264 LP             1 S1                 0.0000
     50 ****         2.0649  -3.5950   1.8973 LP             1 S1                 0.0000
     51 ****         2.4821   0.6254   3.1540 LP             1 S1                 0.0000
     52 ****         2.2185   2.3346   3.0588 LP             1 S1                 0.0000
     53 ****         3.3899   2.3866  -4.2863 LP             1 S1                 0.0000
     54 ****         2.9998   3.0573  -2.8495 LP             1 S1                 0.0000
     55 ****         3.0001  -1.8578  -0.7225 LP             1 S1                 0.0000
     56 ****         2.9205  -1.0837  -2.2699 LP             1 S1                 0.0000
     57 ****         0.0585  -0.3296   2.1331 LP             1 S1                 0.0000
@<TRIPOS>BOND
    1    1    2 1     
    2    1   29 1     
    3    1   30 1     
    4    1   31 1     
    5    2    3 1     
    6    3   28 ar    
    7    3    4 ar    
    8    4    5 ar    
    9    4   32 1     
   10    5    6 ar    
   11    5   33 1     
   12    6    7 ar    
   13    6   34 1     
   14    7    8 1     
   15    7   28 ar    
   16    8   27 1     
   17    8    9 2     
   18    9   10 1     
   19   10   11 1     
   20   11   12 1     
   21   11   27 2     
   22   12   13 1     
   23   12   35 1     
   24   12   36 1     
   25   13   25 am    
   26   13   14 am    
   27   14   15 2     
   28   14   16 1     
   29   16   17 1     
   30   16   18 2     
   31   18   19 1     
   32   18   37 1     
   33   19   20 1     
   34   19   25 am    
   35   20   24 1     
   36   20   21 1     
   37   20   38 1     
   38   21   22 1     
   39   21   39 1     
   40   21   40 1     
   41   22   23 1     
   42   22   41 1     
   43   22   42 1     
   44   23   24 1     
   45   23   43 1     
   46   23   44 1     
   47   25   26 2     
   48   28   45 1     
   49    2   46 1     
   50    2   47 1     
   51    9   48 1     
   52   10   49 1     
   53   10   50 1     
   54   15   51 1     
   55   15   52 1     
   56   24   53 1     
   57   24   54 1     
   58   26   55 1     
   59   26   56 1     
   60   27   57 1     
@<TRIPOS>SUBSTRUCTURE
      1 S1             1
@<TRIPOS>SET
LONE_PAIRS      STATIC     ATOMS    <user>   **** ""
12 46 47 48 49 50 51 52 53 54 55 56 57
ATOM$BLUE        STATIC     ATOMS    COLORGROUP SYSTEM
12 46 47 48 49 50 51 52 53 54 55 56 57
