AV-unprocessed.smi:754|AV-procd|sdf|3607|dock10
  -GOLD-   22720 1 03D 1   1.00000     0.00000
 Structure written by MMmdl.
 37 38  0  0  0  0  0  0  0  0  1 V2000
  152.0217  143.9543  158.1182 C   0  0  0  0  0  0  0  0  0  0  0  0
  150.9439  142.8690  158.0713 C   0  0  0  0  0  0  0  0  0  0  0  0
  151.4924  141.6553  158.5572 O   0  0  0  0  0  0  0  0  0  0  0  0
  150.5580  140.5871  158.5529 C   0  0  2  0  0  0  0  0  0  0  0  0
  151.1796  139.1978  158.7213 C   0  0  0  0  0  0  0  0  0  0  0  0
  150.2184  138.7112  157.6319 C   0  0  1  0  0  0  0  0  0  0  0  0
  148.9913  138.1729  158.2197 N   0  0  0  0  0  0  0  0  0  0  0  0
  148.9137  137.0156  158.8939 C   0  0  0  0  0  0  0  0  0  0  0  0
  149.8750  136.2679  159.0697 O   0  0  0  0  0  0  0  0  0  0  0  0
  147.5408  136.6403  159.4519 C   0  0  0  0  0  0  0  0  0  0  0  0
  147.6280  136.2890  160.8566 N   0  0  0  0  0  0  0  0  0  0  0  0
  147.4521  135.1229  161.4818 C   0  0  0  0  0  0  0  0  0  0  0  0
  147.6166  135.2396  162.7906 N   0  0  0  0  0  0  0  0  0  0  0  0
  147.9131  136.5829  162.9514 N   0  0  0  0  0  0  0  0  0  0  0  0
  147.9206  137.2108  161.8075 N   0  0  0  0  0  0  0  0  0  0  0  0
  150.0962  140.1800  157.1328 C   0  0  0  0  0  0  0  0  0  0  0  0
  148.7145  140.6916  156.7085 C   0  0  0  0  0  0  0  0  0  0  0  0
  151.0592  140.5294  155.9899 C   0  0  0  0  0  0  0  0  0  0  0  0
  151.6343  144.9045  157.7501 H   0  0  0  0  0  0  0  0  0  0  0  0
  152.8790  143.6811  157.5025 H   0  0  0  0  0  0  0  0  0  0  0  0
  152.3758  144.1100  159.1375 H   0  0  0  0  0  0  0  0  0  0  0  0
  150.0894  143.1703  158.6786 H   0  0  0  0  0  0  0  0  0  0  0  0
  150.5917  142.7377  157.0472 H   0  0  0  0  0  0  0  0  0  0  0  0
  149.7152  140.7534  159.2275 H   0  0  0  0  0  0  0  0  0  0  0  0
  152.2250  139.1580  158.4112 H   0  0  0  0  0  0  0  0  0  0  0  0
  151.0381  138.7519  159.7065 H   0  0  0  0  0  0  0  0  0  0  0  0
  150.7003  138.0407  156.9178 H   0  0  0  0  0  0  0  0  0  0  0  0
  148.1520  138.7243  158.1145 H   0  0  0  0  0  0  0  0  0  0  0  0
  146.8478  137.4749  159.3377 H   0  0  0  0  0  0  0  0  0  0  0  0
  147.1266  135.7987  158.8946 H   0  0  0  0  0  0  0  0  0  0  0  0
  147.2017  134.1986  160.9826 H   0  0  0  0  0  0  0  0  0  0  0  0
  148.3411  140.1544  155.8361 H   0  0  0  0  0  0  0  0  0  0  0  0
  148.7409  141.7521  156.4562 H   0  0  0  0  0  0  0  0  0  0  0  0
  147.9749  140.5773  157.5012 H   0  0  0  0  0  0  0  0  0  0  0  0
  150.7602  140.0494  155.0576 H   0  0  0  0  0  0  0  0  0  0  0  0
  152.0785  140.2062  156.2026 H   0  0  0  0  0  0  0  0  0  0  0  0
  151.0959  141.6040  155.8085 H   0  0  0  0  0  0  0  0  0  0  0  0
  1  2  1  0  0  0  0
  1 19  1  0  0  0  0
  1 20  1  0  0  0  0
  1 21  1  0  0  0  0
  2  3  1  0  0  0  0
  2 22  1  0  0  0  0
  2 23  1  0  0  0  0
  3  4  1  0  0  0  0
  4 16  1  0  0  0  0
  4  5  1  0  0  0  0
  4 24  1  0  0  0  0
  5  6  1  0  0  0  0
  5 25  1  0  0  0  0
  5 26  1  0  0  0  0
  6  7  1  0  0  0  0
  6 16  1  0  0  0  0
  6 27  1  0  0  0  0
  7  8  1  0  0  0  0
  7 28  1  0  0  0  0
  8  9  2  0  0  0  0
  8 10  1  0  0  0  0
 10 11  1  0  0  0  0
 10 29  1  0  0  0  0
 10 30  1  0  0  0  0
 11 15  1  0  0  0  0
 11 12  1  0  0  0  0
 12 13  2  0  0  0  0
 12 31  1  0  0  0  0
 13 14  1  0  0  0  0
 14 15  2  0  0  0  0
 16 17  1  0  0  0  0
 16 18  1  0  0  0  0
 17 32  1  0  0  0  0
 17 33  1  0  0  0  0
 17 34  1  0  0  0  0
 18 35  1  0  0  0  0
 18 36  1  0  0  0  0
 18 37  1  0  0  0  0
M  END
> <s_m_source_file>
AV-unprocessed.smi

> <i_m_source_file_index>
754

> <i_lp_mmshare_version>
43012

> <i_f3d_flags>
0

> <s_epik_input>
W0NIM11bQ0gyXU9bQ0BASF0oQzEoW0NIM10pW0NIM10pW0NIMl1bQ0BIXTFbTkhdQyg9TylbQ0gyXW4yW2NIXW5ubjI=

> <s_epik_cmdline>
J2VwaWtfcHl0aG9uJywgJy1waCcsICc3LjAnLCAnLXRuJywgJzgnLCAnLW1hJywgJzIwMCcsICctbWV0YWxfYmluZGluZycsICctaW1hZScsICc8aW5maWxlLm1hZT4nLCAnLW9tYWUnLCAnPG91dGZpbGUubWFlPic=

> <r_lp_tautomer_probability>
1

> <r_epik_Ionization_Penalty>
8.28422e-07

> <r_epik_Ionization_Penalty_Charging>
0

> <r_epik_Ionization_Penalty_Neutral>
8.28422e-07

> <r_epik_State_Penalty>
-0

> <r_epik_Charging_Adjusted_Penalty>
0

> <i_epik_Tot_Q>
0

> <i_epik_Tot_abs_Q>
0

> <r_epik_Metal_State_Penalty>
-0

> <b_epik_Metal_Only>
0

> <s_lp_Force_Field>
OPLS_2005

> <r_lp_Energy>
23.2797

> <b_lp_Chiralities_Consistent>
1

> <s_lp_Variant>
AV-unprocessed.smi:754-1

> <Gold.Version>
5.8.1

> <Gold.Id.Protein>
6NUR|6NUR_protein|mol2

> <Gold.PLP.Fitness>
35.3419

> <Gold.PLP.PLP>
-27.6918

> <Gold.PLP.part.hbond>
-3.6585

> <Gold.PLP.part.metal>
0.0000

> <Gold.PLP.part.buried>
-5.6645

> <Gold.PLP.part.nonpolar>
-19.5414

> <Gold.PLP.part.repulsive>
0.1275

> <Gold.PLP.ligand.clash>
0.0000

> <Gold.PLP.ligand.torsion>
0.3126

> <Gold.PLP.Chemscore.Hbond>
2.6400

> <Gold.PLP.Chemscore.CHOScore>
0.0000

> <Gold.PLP.Chemscore.Metal>
0.0000

> <Gold.Chemscore.Hbonds>
donor molecule, donor type, donor heavy atom, donor atom, acceptor molecule, acceptor atom, score
      P1  H  6896  6909       L1     9  1.00
      P1  H  6931  6943       L1    15  0.98
      P1  H  6934  6947       L1    15  0.44

> <Gold.PLP.Chemscore.Internal.Correction>
0.3553

> <Gold.Rescore>
     Score         DG    S(hbond)    S(metal)    S(lipo)     H(rot)  DE(clash)    DE(int)     intcor
     12.41     -12.71       2.30        0.00      49.88       2.46       0.03       0.27       ----

> <Gold.Chemscore.Fitness>
12.4074

> <Gold.Chemscore.DG>
-12.7091

> <Gold.Chemscore.ZeroCoef>
-5.4800

> <Gold.Chemscore.Hbond>
2.3038

> <Gold.Chemscore.Metal>
0.0000

> <Gold.Chemscore.Lipo>
49.8810

> <Gold.Chemscore.Internal_Hbond>
0.0000

> <Gold.Chemscore.DEClash>
0.0275

> <Gold.Chemscore.DEInternal>
0.2743

> <Gold.Chemscore.Rot>
2.4616

> <Gold.Chemscore.Internal.Correction>
   9.000000E+99

> <Gold.Chemscore.Hbonds>
donor molecule, donor type, donor heavy atom, donor atom, acceptor molecule, acceptor atom, score
      P1  H  6896  6909       L1     9  1.00
      P1  H  6931  6943       L1    15  0.46
      P1  H  6934  6947       L1    15  0.18

> <Gold.Chemscore.Hbond.Weighted>
-7.6947

> <Gold.Chemscore.Metal.Weighted>
-0.0000

> <Gold.Chemscore.Lipo.Weighted>
-5.8361

> <Gold.Chemscore.Internal_Hbond.Weighted>
0.0000

> <Gold.Chemscore.DEClash.Weighted>
0.0275

> <Gold.Chemscore.DEInternal.Weighted>
0.2743

> <Gold.Chemscore.Rot.Weighted>
6.3016

> <Gold.Chemscore.Internal.Correction.Weighted>
   9.000000E+99

> <Gold.Protein.RotatedTorsions>
[ 6907 6896 6895 6894 ] final   69.55 input  -60.11 | X-H torsion
[ 7974 7965 7964 7962 ] final -134.47 input  175.53 | X-H torsion
[ 8008 7997 7996 7995 ] final  129.94 input   59.86 | X-H torsion
[ 10167 10162 10161 10158 ] final -153.87 input  -65.29 | X-H torsion
[ 10718 10713 10712 10709 ] final   21.80 input   66.30 | X-H torsion
[ 10763 10752 10751 10750 ] final  -50.93 input  -60.55 | X-H torsion
[ 11005 11000 10999 10996 ] final -117.77 input  -57.11 | X-H torsion

> <Gold.Protein.ActiveResidues>
 VAL166  LYS551  ARG553  GLY616  TRP617  ASP618  TYR619  PRO620  LYS621  CYS622 
 ASP623  PHE694  ASN695  SER759  ASP760  ASP761  ALA762  ILE779  LEU786  VAL792 
 PHE793  MET794  SER795  GLU796  ALA797  LYS798  CYS799  TRP800  GLU811  SER814 

> <Gold.Protein.RotatedAtoms>
  152.4693  134.5000  159.9721 H   0  0  0  0  0  0  0  0  0  0  0  0  # atno 6907 bound_to 6896
  151.5030  133.3494  159.2880 H   0  0  0  0  0  0  0  0  0  0  0  0  # atno 6908 bound_to 6896
  150.8694  134.8092  159.7205 H   0  0  0  0  0  0  0  0  0  0  0  0  # atno 6909 bound_to 6896
  144.9100  140.6882  143.5031 H   0  0  0  0  0  0  0  0  0  0  0  0  # atno 7974 bound_to 7965
  156.2945  140.2608  156.2681 H   0  0  0  0  0  0  0  0  0  0  0  0  # atno 8008 bound_to 7997
  154.9722  140.0391  157.2258 H   0  0  0  0  0  0  0  0  0  0  0  0  # atno 8009 bound_to 7997
  154.7848  140.2801  155.6040 H   0  0  0  0  0  0  0  0  0  0  0  0  # atno 8010 bound_to 7997
  139.7060  143.9185  152.2449 H   0  0  0  0  0  0  0  0  0  0  0  0  # atno 10167 bound_to 10162
  157.1435  130.6643  149.5988 H   0  0  0  0  0  0  0  0  0  0  0  0  # atno 10718 bound_to 10713
  154.1184  135.6538  153.4898 H   0  0  0  0  0  0  0  0  0  0  0  0  # atno 10763 bound_to 10752
  153.0233  135.5264  154.7121 H   0  0  0  0  0  0  0  0  0  0  0  0  # atno 10764 bound_to 10752
  154.6322  135.2977  155.0173 H   0  0  0  0  0  0  0  0  0  0  0  0  # atno 10765 bound_to 10752
  141.0332  133.9949  157.3111 H   0  0  0  0  0  0  0  0  0  0  0  0  # atno 11005 bound_to 11000
  145.3471  139.1716  143.4454 LP  0  0  0  0  0  0  0  0  0  0  0  0  # atno 17320 bound_to 7965
  146.3153  140.3519  142.8657 LP  0  0  0  0  0  0  0  0  0  0  0  0  # atno 17321 bound_to 7965
  139.9041  144.6895  150.8633 LP  0  0  0  0  0  0  0  0  0  0  0  0  # atno 17342 bound_to 10162
  140.7722  143.3492  151.2049 LP  0  0  0  0  0  0  0  0  0  0  0  0  # atno 17343 bound_to 10162
  155.9784  130.4769  150.6653 LP  0  0  0  0  0  0  0  0  0  0  0  0  # atno 17370 bound_to 10713
  157.4286  131.0846  151.1061 LP  0  0  0  0  0  0  0  0  0  0  0  0  # atno 17371 bound_to 10713
  139.9222  135.0201  156.8106 LP  0  0  0  0  0  0  0  0  0  0  0  0  # atno 17394 bound_to 11000
  140.6369  133.9854  155.7689 LP  0  0  0  0  0  0  0  0  0  0  0  0  # atno 17395 bound_to 11000

$$$$
