AV-unprocessed.smi:3019|AV-procd|sdf|11490|dock2
  -GOLD-   2272016433D 1   1.00000     0.00000
 Structure written by MMmdl.
 30 31  0  0  0  0  0  0  0  0  1 V2000
  152.3062  144.9787  158.5429 C   0  0  0  0  0  0  0  0  0  0  0  0
  151.7213  143.7043  159.1697 C   0  0  0  0  0  0  0  0  0  0  0  0
  152.6787  143.0729  160.1910 C   0  0  0  0  0  0  0  0  0  0  0  0
  151.2965  142.7166  158.1265 C   0  0  0  0  0  0  0  0  0  0  0  0
  150.4267  143.0281  157.1631 N   0  0  0  0  0  0  0  0  0  0  0  0
  150.2152  141.9474  156.3835 N   0  0  0  0  0  0  0  0  0  0  0  0
  151.0142  141.0384  156.9444 C   0  0  0  0  0  0  0  0  0  0  0  0
  151.0906  139.6303  156.4393 C   0  0  1  0  0  0  0  0  0  0  0  0
  150.1195  139.3801  155.2688 C   0  0  0  0  0  0  0  0  0  0  0  0
  150.2941  138.0261  154.7458 N   0  0  0  0  0  0  0  0  0  0  0  0
  151.6862  137.7800  154.3722 C   0  0  0  0  0  0  0  0  0  0  0  0
  152.6201  138.0699  155.5611 C   0  0  0  0  0  0  0  0  0  0  0  0
  152.4304  139.4100  156.0020 O   0  0  0  0  0  0  0  0  0  0  0  0
  151.7011  141.4521  158.0519 N   0  0  0  0  0  0  0  0  0  0  0  0
  151.5898  145.4475  157.8676 H   0  0  0  0  0  0  0  0  0  0  0  0
  153.2099  144.7627  157.9720 H   0  0  0  0  0  0  0  0  0  0  0  0
  152.5643  145.7102  159.3091 H   0  0  0  0  0  0  0  0  0  0  0  0
  150.8247  144.0022  159.7153 H   0  0  0  0  0  0  0  0  0  0  0  0
  152.2196  142.2116  160.6773 H   0  0  0  0  0  0  0  0  0  0  0  0
  152.9478  143.7864  160.9701 H   0  0  0  0  0  0  0  0  0  0  0  0
  153.6006  142.7351  159.7163 H   0  0  0  0  0  0  0  0  0  0  0  0
  150.8648  138.9538  157.2661 H   0  0  0  0  0  0  0  0  0  0  0  0
  149.0896  139.5250  155.5962 H   0  0  0  0  0  0  0  0  0  0  0  0
  150.3024  140.1070  154.4764 H   0  0  0  0  0  0  0  0  0  0  0  0
  151.8084  136.7484  154.0418 H   0  0  0  0  0  0  0  0  0  0  0  0
  151.9615  138.4142  153.5288 H   0  0  0  0  0  0  0  0  0  0  0  0
  152.4389  137.3727  156.3808 H   0  0  0  0  0  0  0  0  0  0  0  0
  153.6600  137.9430  155.2599 H   0  0  0  0  0  0  0  0  0  0  0  0
  149.6966  137.8960  153.9356 H   0  0  0  0  0  0  0  0  0  0  0  0
  149.9685  143.9154  157.0118 H   0  0  0  0  0  0  0  0  0  0  0  0
  1  2  1  0  0  0  0
  1 15  1  0  0  0  0
  1 16  1  0  0  0  0
  1 17  1  0  0  0  0
  2  3  1  0  0  0  0
  2  4  1  0  0  0  0
  2 18  1  0  0  0  0
  3 19  1  0  0  0  0
  3 20  1  0  0  0  0
  3 21  1  0  0  0  0
  4 14  2  0  0  0  0
  4  5  1  0  0  0  0
  5  6  1  0  0  0  0
  5 30  1  0  0  0  0
  6  7  2  0  0  0  0
  7  8  1  0  0  0  0
  7 14  1  0  0  0  0
  8 13  1  0  0  0  0
  8  9  1  0  0  0  0
  8 22  1  0  0  0  0
  9 10  1  0  0  0  0
  9 23  1  0  0  0  0
  9 24  1  0  0  0  0
 10 11  1  0  0  0  0
 10 29  1  0  0  0  0
 11 12  1  0  0  0  0
 11 25  1  0  0  0  0
 11 26  1  0  0  0  0
 12 13  1  0  0  0  0
 12 27  1  0  0  0  0
 12 28  1  0  0  0  0
M  END
> <s_m_source_file>
AV-unprocessed.smi

> <i_m_source_file_index>
3019

> <i_lp_mmshare_version>
43012

> <i_f3d_flags>
0

> <s_epik_input>
W0NIM11bQ0hdKFtDSDNdKWMxbltuSF1jKG4xKVtDQEBIXTJbQ0gyXVtOSF1bQ0gyXVtDSDJdTzI=

> <s_epik_cmdline>
J2VwaWtfcHl0aG9uJywgJy1waCcsICc3LjAnLCAnLXRuJywgJzgnLCAnLW1hJywgJzIwMCcsICctbWV0YWxfYmluZGluZycsICctaW1hZScsICc8aW5maWxlLm1hZT4nLCAnLW9tYWUnLCAnPG91dGZpbGUubWFlPic=

> <r_lp_tautomer_probability>
0.948284

> <r_epik_Ionization_Penalty>
1.10045

> <r_epik_Ionization_Penalty_Charging>
0

> <r_epik_Ionization_Penalty_Neutral>
1.10045

> <r_epik_State_Penalty>
1.2625

> <r_epik_Charging_Adjusted_Penalty>
1.2625

> <i_epik_Tot_Q>
0

> <i_epik_Tot_abs_Q>
0

> <r_epik_Metal_State_Penalty>
1.57133

> <b_epik_Metal_Only>
0

> <s_lp_Force_Field>
OPLS_2005

> <r_lp_Energy>
11.2718

> <b_lp_Chiralities_Consistent>
1

> <s_lp_Variant>
AV-unprocessed.smi:3019-6

> <Gold.Version>
5.8.1

> <Gold.Id.Protein>
6NUR|6NUR_protein|mol2

> <Gold.PLP.Fitness>
35.6009

> <Gold.PLP.PLP>
-30.3170

> <Gold.PLP.part.hbond>
-2.0000

> <Gold.PLP.part.metal>
0.0000

> <Gold.PLP.part.buried>
-5.3264

> <Gold.PLP.part.nonpolar>
-24.0877

> <Gold.PLP.part.repulsive>
0.1201

> <Gold.PLP.ligand.clash>
0.0000

> <Gold.PLP.ligand.torsion>
0.0626

> <Gold.PLP.Chemscore.Hbond>
1.7840

> <Gold.PLP.Chemscore.CHOScore>
0.0000

> <Gold.PLP.Chemscore.Metal>
0.0000

> <Gold.Chemscore.Hbonds>
donor molecule, donor type, donor heavy atom, donor atom, acceptor molecule, acceptor atom, score
      L1  H     5    30       P1  8028  0.77
      P1  H  7997  8008       L1    13  0.91

> <Gold.PLP.Chemscore.Internal.Correction>
0.0570

> <Gold.Rescore>
     Score         DG    S(hbond)    S(metal)    S(lipo)     H(rot)  DE(clash)    DE(int)     intcor
     15.49     -16.00       1.74        0.00      67.71       1.26       0.11       0.41       ----

> <Gold.Chemscore.Fitness>
15.4851

> <Gold.Chemscore.DG>
-15.9988

> <Gold.Chemscore.ZeroCoef>
-5.4800

> <Gold.Chemscore.Hbond>
1.7432

> <Gold.Chemscore.Metal>
0.0000

> <Gold.Chemscore.Lipo>
67.7070

> <Gold.Chemscore.Internal_Hbond>
0.0000

> <Gold.Chemscore.DEClash>
0.1082

> <Gold.Chemscore.DEInternal>
0.4055

> <Gold.Chemscore.Rot>
1.2598

> <Gold.Chemscore.Internal.Correction>
   9.000000E+99

> <Gold.Chemscore.Hbonds>
donor molecule, donor type, donor heavy atom, donor atom, acceptor molecule, acceptor atom, score
      L1  H     5    30       P1  8028  0.71
      P1  H  7997  8008       L1    13  0.44

> <Gold.Chemscore.Hbond.Weighted>
-5.8222

> <Gold.Chemscore.Metal.Weighted>
-0.0000

> <Gold.Chemscore.Lipo.Weighted>
-7.9217

> <Gold.Chemscore.Internal_Hbond.Weighted>
0.0000

> <Gold.Chemscore.DEClash.Weighted>
0.1082

> <Gold.Chemscore.DEInternal.Weighted>
0.4055

> <Gold.Chemscore.Rot.Weighted>
3.2251

> <Gold.Chemscore.Internal.Correction.Weighted>
   9.000000E+99

> <Gold.Protein.RotatedTorsions>
[ 6907 6896 6895 6894 ] final   92.62 input  -60.11 | X-H torsion
[ 7974 7965 7964 7962 ] final   95.55 input  175.53 | X-H torsion
[ 8008 7997 7996 7995 ] final  -45.27 input   59.86 | X-H torsion
[ 10167 10162 10161 10158 ] final  -64.75 input  -65.29 | X-H torsion
[ 10718 10713 10712 10709 ] final -162.07 input   66.30 | X-H torsion
[ 10763 10752 10751 10750 ] final   61.11 input  -60.55 | X-H torsion
[ 11005 11000 10999 10996 ] final  113.17 input  -57.11 | X-H torsion

> <Gold.Protein.ActiveResidues>
 VAL166  LYS551  ARG553  GLY616  TRP617  ASP618  TYR619  PRO620  LYS621  CYS622 
 ASP623  PHE694  ASN695  SER759  ASP760  ASP761  ALA762  ILE779  LEU786  VAL792 
 PHE793  MET794  SER795  GLU796  ALA797  LYS798  CYS799  TRP800  GLU811  SER814 

> <Gold.Protein.RotatedAtoms>
  152.5453  134.1473  159.8503 H   0  0  0  0  0  0  0  0  0  0  0  0  # atno 6907 bound_to 6896
  151.1503  133.4904  159.2603 H   0  0  0  0  0  0  0  0  0  0  0  0  # atno 6908 bound_to 6896
  151.1479  135.0223  159.8710 H   0  0  0  0  0  0  0  0  0  0  0  0  # atno 6909 bound_to 6896
  145.4507  139.2293  143.3041 H   0  0  0  0  0  0  0  0  0  0  0  0  # atno 7974 bound_to 7965
  154.4000  140.1401  156.3819 H   0  0  0  0  0  0  0  0  0  0  0  0  # atno 8008 bound_to 7997
  155.7995  140.3476  155.5374 H   0  0  0  0  0  0  0  0  0  0  0  0  # atno 8009 bound_to 7997
  155.8497  140.0939  157.1673 H   0  0  0  0  0  0  0  0  0  0  0  0  # atno 8010 bound_to 7997
  140.5778  143.2324  151.6405 H   0  0  0  0  0  0  0  0  0  0  0  0  # atno 10167 bound_to 10162
  156.6052  130.8827  151.2923 H   0  0  0  0  0  0  0  0  0  0  0  0  # atno 10718 bound_to 10713
  152.9940  135.5512  154.5981 H   0  0  0  0  0  0  0  0  0  0  0  0  # atno 10763 bound_to 10752
  154.5328  135.2814  155.1167 H   0  0  0  0  0  0  0  0  0  0  0  0  # atno 10764 bound_to 10752
  154.2475  135.6405  153.5281 H   0  0  0  0  0  0  0  0  0  0  0  0  # atno 10765 bound_to 10752
  139.8946  134.9544  156.6698 H   0  0  0  0  0  0  0  0  0  0  0  0  # atno 11005 bound_to 11000
  146.2506  140.5265  142.8895 LP  0  0  0  0  0  0  0  0  0  0  0  0  # atno 17320 bound_to 7965
  144.8063  140.6306  143.6444 LP  0  0  0  0  0  0  0  0  0  0  0  0  # atno 17321 bound_to 7965
  139.5153  144.3384  152.0763 LP  0  0  0  0  0  0  0  0  0  0  0  0  # atno 17342 bound_to 10162
  140.2530  144.4149  150.6214 LP  0  0  0  0  0  0  0  0  0  0  0  0  # atno 17343 bound_to 10162
  157.7269  130.9635  150.1675 LP  0  0  0  0  0  0  0  0  0  0  0  0  # atno 17370 bound_to 10713
  156.2435  130.3693  149.8310 LP  0  0  0  0  0  0  0  0  0  0  0  0  # atno 17371 bound_to 10713
  140.7382  133.9000  155.8259 LP  0  0  0  0  0  0  0  0  0  0  0  0  # atno 17394 bound_to 11000
  141.0099  134.1035  157.4232 LP  0  0  0  0  0  0  0  0  0  0  0  0  # atno 17395 bound_to 11000

$$$$
