AV-unprocessed.smi:3219|AV-procd|sdf|12295|dock3
  -GOLD-   2272018133D 1   1.00000     0.00000
 Structure written by MMmdl.
 41 42  0  0  0  0  0  0  0  0  2 V2000
  151.8672  144.5552  161.0495 C   0  0  0  0  0  0  0  0  0  0  0  0
  152.5144  143.2338  160.7848 C   0  0  0  0  0  0  0  0  0  0  0  0
  152.6046  142.4924  159.6365 C   0  0  0  0  0  0  0  0  0  0  0  0
  152.0665  142.7921  158.2613 C   0  0  0  0  0  0  0  0  0  0  0  0
  150.5428  142.6151  158.1835 C   0  0  0  0  0  0  0  0  0  0  0  0
  150.1028  142.2981  156.8102 N   0  3  0  0  0  0  0  0  0  0  0  0
  149.1598  141.1661  156.7233 C   0  0  0  0  0  0  0  0  0  0  0  0
  148.7254  140.9038  155.2699 C   0  0  2  0  0  0  0  0  0  0  0  0
  147.6779  141.9341  154.7844 C   0  0  0  0  0  0  0  0  0  0  0  0
  147.0237  141.5330  153.4741 C   0  0  0  0  0  0  0  0  0  0  0  0
  147.0993  140.2953  152.9576 C   0  0  0  0  0  0  0  0  0  0  0  0
  147.8423  139.1564  153.6299 C   0  0  0  0  0  0  0  0  0  0  0  0
  148.1847  139.4709  155.0981 C   0  0  0  0  0  0  0  0  0  0  0  0
  153.3409  141.3415  160.0360 C   0  0  0  0  0  0  0  0  0  0  0  0
  153.6818  141.3673  161.3116 N   0  0  0  0  0  0  0  0  0  0  0  0
  153.1719  142.5269  161.7743 N   0  0  0  0  0  0  0  0  0  0  0  0
  153.3583  142.8791  163.1685 C   0  0  0  0  0  0  0  0  0  0  0  0
  151.4960  145.0077  160.1304 H   0  0  0  0  0  0  0  0  0  0  0  0
  152.5748  145.2517  161.4997 H   0  0  0  0  0  0  0  0  0  0  0  0
  151.0238  144.4422  161.7309 H   0  0  0  0  0  0  0  0  0  0  0  0
  152.3125  143.8160  157.9777 H   0  0  0  0  0  0  0  0  0  0  0  0
  152.5427  142.1640  157.5079 H   0  0  0  0  0  0  0  0  0  0  0  0
  150.2244  141.8207  158.8600 H   0  0  0  0  0  0  0  0  0  0  0  0
  150.0504  143.5315  158.5113 H   0  0  0  0  0  0  0  0  0  0  0  0
  149.6587  143.1161  156.4183 H   0  0  0  0  0  0  0  0  0  0  0  0
  149.6490  140.2796  157.1295 H   0  0  0  0  0  0  0  0  0  0  0  0
  148.2888  141.3648  157.3495 H   0  0  0  0  0  0  0  0  0  0  0  0
  149.6086  140.9912  154.6344 H   0  0  0  0  0  0  0  0  0  0  0  0
  146.8868  142.0555  155.5253 H   0  0  0  0  0  0  0  0  0  0  0  0
  148.1447  142.9112  154.6555 H   0  0  0  0  0  0  0  0  0  0  0  0
  146.4639  142.2973  152.9550 H   0  0  0  0  0  0  0  0  0  0  0  0
  146.6228  140.0764  152.0131 H   0  0  0  0  0  0  0  0  0  0  0  0
  147.2373  138.2509  153.5762 H   0  0  0  0  0  0  0  0  0  0  0  0
  148.7528  138.9641  153.0617 H   0  0  0  0  0  0  0  0  0  0  0  0
  148.9075  138.7411  155.4651 H   0  0  0  0  0  0  0  0  0  0  0  0
  147.2902  139.3496  155.7107 H   0  0  0  0  0  0  0  0  0  0  0  0
  153.6387  140.4936  159.4369 H   0  0  0  0  0  0  0  0  0  0  0  0
  152.3879  143.0390  163.6390 H   0  0  0  0  0  0  0  0  0  0  0  0
  153.9452  143.7950  163.2401 H   0  0  0  0  0  0  0  0  0  0  0  0
  153.8803  142.0834  163.7018 H   0  0  0  0  0  0  0  0  0  0  0  0
  150.9193  142.0786  156.2576 H   0  0  0  0  0  0  0  0  0  0  0  0
  1  2  1  0  0  0  0
  1 18  1  0  0  0  0
  1 19  1  0  0  0  0
  1 20  1  0  0  0  0
  2 16  1  0  0  0  0
  2  3  2  0  0  0  0
  3  4  1  0  0  0  0
  3 14  1  0  0  0  0
  4  5  1  0  0  0  0
  4 21  1  0  0  0  0
  4 22  1  0  0  0  0
  5  6  1  0  0  0  0
  5 23  1  0  0  0  0
  5 24  1  0  0  0  0
  6  7  1  0  0  0  0
  6 25  1  0  0  0  0
  6 41  1  0  0  0  0
  7  8  1  0  0  0  0
  7 26  1  0  0  0  0
  7 27  1  0  0  0  0
  8 13  1  0  0  0  0
  8  9  1  0  0  0  0
  8 28  1  0  0  0  0
  9 10  1  0  0  0  0
  9 29  1  0  0  0  0
  9 30  1  0  0  0  0
 10 11  2  0  0  0  0
 10 31  1  0  0  0  0
 11 12  1  0  0  0  0
 11 32  1  0  0  0  0
 12 13  1  0  0  0  0
 12 33  1  0  0  0  0
 12 34  1  0  0  0  0
 13 35  1  0  0  0  0
 13 36  1  0  0  0  0
 14 15  2  0  0  0  0
 14 37  1  0  0  0  0
 15 16  1  0  0  0  0
 16 17  1  0  0  0  0
 17 38  1  0  0  0  0
 17 39  1  0  0  0  0
 17 40  1  0  0  0  0
M  CHG  1   6   1
M  END
> <s_m_source_file>
AV-unprocessed.smi

> <i_m_source_file_index>
3219

> <i_lp_mmshare_version>
43012

> <i_f3d_flags>
0

> <s_epik_input>
W0NIM11uMW5bY0hdYyhjMVtDSDNdKVtDSDJdW0NIMl1bTkhdW0NIMl1bQ0BASF0yW0NIMl1bQ0hdPVtDSF1bQ0gyXVtDSDJdMg==

> <s_epik_cmdline>
J2VwaWtfcHl0aG9uJywgJy1waCcsICc3LjAnLCAnLXRuJywgJzgnLCAnLW1hJywgJzIwMCcsICctbWV0YWxfYmluZGluZycsICctaW1hZScsICc8aW5maWxlLm1hZT4nLCAnLW9tYWUnLCAnPG91dGZpbGUubWFlPic=

> <r_lp_tautomer_probability>
1

> <r_epik_Ionization_Penalty>
0.000661401

> <r_epik_Ionization_Penalty_Charging>
0.00057791

> <r_epik_Ionization_Penalty_Neutral>
8.34914e-05

> <r_epik_State_Penalty>
-0

> <r_epik_Charging_Adjusted_Penalty>
0.00057791

> <i_epik_Tot_Q>
1

> <i_epik_Tot_abs_Q>
1

> <r_epik_Metal_State_Penalty>
-0

> <b_epik_Metal_Only>
0

> <s_lp_Force_Field>
OPLS_2005

> <r_lp_Energy>
9.86252

> <b_lp_Chiralities_Consistent>
1

> <s_lp_Variant>
AV-unprocessed.smi:3219-1

> <Gold.Version>
5.8.1

> <Gold.Id.Protein>
6NUR|6NUR_protein|mol2

> <Gold.PLP.Fitness>
44.9264

> <Gold.PLP.PLP>
-40.5395

> <Gold.PLP.part.hbond>
-1.0000

> <Gold.PLP.part.metal>
0.0000

> <Gold.PLP.part.buried>
-3.4382

> <Gold.PLP.part.nonpolar>
-34.9038

> <Gold.PLP.part.repulsive>
0.0327

> <Gold.PLP.ligand.clash>
0.0000

> <Gold.PLP.ligand.torsion>
0.8162

> <Gold.PLP.Chemscore.Hbond>
2.0000

> <Gold.PLP.Chemscore.CHOScore>
0.0000

> <Gold.PLP.Chemscore.Metal>
0.0000

> <Gold.Chemscore.Hbonds>
donor molecule, donor type, donor heavy atom, donor atom, acceptor molecule, acceptor atom, score
      L1  H     6    25       P1  8028  2.00

> <Gold.PLP.Chemscore.Internal.Correction>
0.0194

> <Gold.Rescore>
     Score         DG    S(hbond)    S(metal)    S(lipo)     H(rot)  DE(clash)    DE(int)     intcor
     17.80     -18.50       1.00        0.00     114.71       1.46       0.02       0.68       ----

> <Gold.Chemscore.Fitness>
17.8000

> <Gold.Chemscore.DG>
-18.4965

> <Gold.Chemscore.ZeroCoef>
-5.4800

> <Gold.Chemscore.Hbond>
0.9975

> <Gold.Chemscore.Metal>
0.0000

> <Gold.Chemscore.Lipo>
114.7135

> <Gold.Chemscore.Internal_Hbond>
0.0000

> <Gold.Chemscore.DEClash>
0.0206

> <Gold.Chemscore.DEInternal>
0.6760

> <Gold.Chemscore.Rot>
1.4597

> <Gold.Chemscore.Internal.Correction>
   9.000000E+99

> <Gold.Chemscore.Hbonds>
donor molecule, donor type, donor heavy atom, donor atom, acceptor molecule, acceptor atom, score
      L1  H     6    25       P1  8028  0.99

> <Gold.Chemscore.Hbond.Weighted>
-3.3318

> <Gold.Chemscore.Metal.Weighted>
-0.0000

> <Gold.Chemscore.Lipo.Weighted>
-13.4215

> <Gold.Chemscore.Internal_Hbond.Weighted>
0.0000

> <Gold.Chemscore.DEClash.Weighted>
0.0206

> <Gold.Chemscore.DEInternal.Weighted>
0.6760

> <Gold.Chemscore.Rot.Weighted>
3.7368

> <Gold.Chemscore.Internal.Correction.Weighted>
   9.000000E+99

> <Gold.Protein.RotatedTorsions>
[ 6907 6896 6895 6894 ] final -148.54 input  -60.11 | X-H torsion
[ 7974 7965 7964 7962 ] final -108.21 input  175.53 | X-H torsion
[ 8008 7997 7996 7995 ] final   91.25 input   59.86 | X-H torsion
[ 10167 10162 10161 10158 ] final   21.51 input  -65.29 | X-H torsion
[ 10718 10713 10712 10709 ] final -131.40 input   66.30 | X-H torsion
[ 10763 10752 10751 10750 ] final -158.60 input  -60.55 | X-H torsion
[ 11005 11000 10999 10996 ] final    0.23 input  -57.11 | X-H torsion

> <Gold.Protein.ActiveResidues>
 VAL166  LYS551  ARG553  GLY616  TRP617  ASP618  TYR619  PRO620  LYS621  CYS622 
 ASP623  PHE694  ASN695  SER759  ASP760  ASP761  ALA762  ILE779  LEU786  VAL792 
 PHE793  MET794  SER795  GLU796  ALA797  LYS798  CYS799  TRP800  GLU811  SER814 

> <Gold.Protein.RotatedAtoms>
  151.1713  133.4782  159.2593 H   0  0  0  0  0  0  0  0  0  0  0  0  # atno 6907 bound_to 6896
  151.1353  135.0151  159.8611 H   0  0  0  0  0  0  0  0  0  0  0  0  # atno 6908 bound_to 6896
  152.5461  134.1612  159.8611 H   0  0  0  0  0  0  0  0  0  0  0  0  # atno 6909 bound_to 6896
  145.1957  140.9034  143.3399 H   0  0  0  0  0  0  0  0  0  0  0  0  # atno 7974 bound_to 7965
  156.0216  140.3340  155.7045 H   0  0  0  0  0  0  0  0  0  0  0  0  # atno 8008 bound_to 7997
  155.6014  140.0656  157.2749 H   0  0  0  0  0  0  0  0  0  0  0  0  # atno 8009 bound_to 7997
  154.4318  140.1809  156.1165 H   0  0  0  0  0  0  0  0  0  0  0  0  # atno 8010 bound_to 7997
  140.5421  143.9658  150.6525 H   0  0  0  0  0  0  0  0  0  0  0  0  # atno 10167 bound_to 10162
  156.2240  130.6996  151.0787 H   0  0  0  0  0  0  0  0  0  0  0  0  # atno 10718 bound_to 10713
  154.7543  135.3100  154.8499 H   0  0  0  0  0  0  0  0  0  0  0  0  # atno 10763 bound_to 10752
  153.9278  135.6788  153.4750 H   0  0  0  0  0  0  0  0  0  0  0  0  # atno 10764 bound_to 10752
  153.1140  135.4853  154.9012 H   0  0  0  0  0  0  0  0  0  0  0  0  # atno 10765 bound_to 10752
  140.6288  133.9594  155.8263 H   0  0  0  0  0  0  0  0  0  0  0  0  # atno 11005 bound_to 11000
  144.9997  139.3610  143.6173 LP  0  0  0  0  0  0  0  0  0  0  0  0  # atno 17320 bound_to 7965
  146.3427  139.9215  142.8766 LP  0  0  0  0  0  0  0  0  0  0  0  0  # atno 17321 bound_to 7965
  140.3062  143.3228  152.0924 LP  0  0  0  0  0  0  0  0  0  0  0  0  # atno 17342 bound_to 10162
  139.4993  144.6666  151.6343 LP  0  0  0  0  0  0  0  0  0  0  0  0  # atno 17343 bound_to 10162
  157.7101  131.0738  150.6529 LP  0  0  0  0  0  0  0  0  0  0  0  0  # atno 17370 bound_to 10713
  156.6593  130.4507  149.5693 LP  0  0  0  0  0  0  0  0  0  0  0  0  # atno 17371 bound_to 10713
  141.0690  134.0234  157.3553 LP  0  0  0  0  0  0  0  0  0  0  0  0  # atno 17394 bound_to 11000
  139.9124  135.0192  156.7746 LP  0  0  0  0  0  0  0  0  0  0  0  0  # atno 17395 bound_to 11000

$$$$
