AV-unprocessed.smi:849|AV-procd|sdf|3944|dock8
  -GOLD-   22720 1413D 1   1.00000     0.00000
 Structure written by MMmdl.
 36 38  0  0  0  0  0  0  0  0  1 V2000
  152.3220  137.0238  155.9655 O   0  0  0  0  0  0  0  0  0  0  0  0
  152.4354  138.1825  155.1642 C   0  0  0  0  0  0  0  0  0  0  0  0
  151.1179  138.8083  154.8027 C   0  0  0  0  0  0  0  0  0  0  0  0
  150.1628  138.1534  154.1381 N   0  0  0  0  0  0  0  0  0  0  0  0
  149.1571  139.0933  154.0381 C   0  0  0  0  0  0  0  0  0  0  0  0
  147.8799  139.0117  153.4388 C   0  0  0  0  0  0  0  0  0  0  0  0
  147.0095  140.1212  153.4603 C   0  0  0  0  0  0  0  0  0  0  0  0
  147.4023  141.3245  154.0811 C   0  0  0  0  0  0  0  0  0  0  0  0
  148.6704  141.4262  154.6848 C   0  0  0  0  0  0  0  0  0  0  0  0
  149.5359  140.3163  154.6587 C   0  0  0  0  0  0  0  0  0  0  0  0
  150.8229  140.0909  155.1377 N   0  0  0  0  0  0  0  0  0  0  0  0
  151.6470  141.0578  155.8510 C   0  0  0  0  0  0  0  0  0  0  0  0
  151.6752  140.8053  157.3734 C   0  0  1  0  0  0  0  0  0  0  0  0
  152.6982  139.8664  157.6394 O   0  0  0  0  0  0  0  0  0  0  0  0
  151.8482  142.0927  158.1791 C   0  0  0  0  0  0  0  0  0  0  0  0
  151.0258  143.2054  157.8854 C   0  0  0  0  0  0  0  0  0  0  0  0
  151.1438  144.4011  158.6182 C   0  0  0  0  0  0  0  0  0  0  0  0
  152.0868  144.4978  159.6565 C   0  0  0  0  0  0  0  0  0  0  0  0
  152.9092  143.3976  159.9600 C   0  0  0  0  0  0  0  0  0  0  0  0
  152.7964  142.1973  159.2302 C   0  0  0  0  0  0  0  0  0  0  0  0
  153.8327  140.8822  159.6624 Cl  0  0  0  0  0  0  0  0  0  0  0  0
  151.4054  136.8300  156.0868 H   0  0  0  0  0  0  0  0  0  0  0  0
  153.0437  138.9127  155.6981 H   0  0  0  0  0  0  0  0  0  0  0  0
  152.9678  137.9133  154.2532 H   0  0  0  0  0  0  0  0  0  0  0  0
  147.5705  138.0941  152.9612 H   0  0  0  0  0  0  0  0  0  0  0  0
  146.0360  140.0483  152.9980 H   0  0  0  0  0  0  0  0  0  0  0  0
  146.7301  142.1699  154.0924 H   0  0  0  0  0  0  0  0  0  0  0  0
  148.9757  142.3475  155.1583 H   0  0  0  0  0  0  0  0  0  0  0  0
  152.6573  140.9785  155.4466 H   0  0  0  0  0  0  0  0  0  0  0  0
  151.3145  142.0718  155.6299 H   0  0  0  0  0  0  0  0  0  0  0  0
  150.7550  140.3042  157.6700 H   0  0  0  0  0  0  0  0  0  0  0  0
  152.6097  139.5701  158.5321 H   0  0  0  0  0  0  0  0  0  0  0  0
  150.2900  143.1450  157.0972 H   0  0  0  0  0  0  0  0  0  0  0  0
  150.5089  145.2432  158.3847 H   0  0  0  0  0  0  0  0  0  0  0  0
  152.1792  145.4140  160.2210 H   0  0  0  0  0  0  0  0  0  0  0  0
  153.6310  143.4757  160.7599 H   0  0  0  0  0  0  0  0  0  0  0  0
  1  2  1  0  0  0  0
  1 22  1  0  0  0  0
  2  3  1  0  0  0  0
  2 23  1  0  0  0  0
  2 24  1  0  0  0  0
  3 11  1  0  0  0  0
  3  4  2  0  0  0  0
  4  5  1  0  0  0  0
  5 10  2  0  0  0  0
  5  6  1  0  0  0  0
  6  7  2  0  0  0  0
  6 25  1  0  0  0  0
  7  8  1  0  0  0  0
  7 26  1  0  0  0  0
  8  9  2  0  0  0  0
  8 27  1  0  0  0  0
  9 10  1  0  0  0  0
  9 28  1  0  0  0  0
 10 11  1  0  0  0  0
 11 12  1  0  0  0  0
 12 13  1  0  0  0  0
 12 29  1  0  0  0  0
 12 30  1  0  0  0  0
 13 14  1  0  0  0  0
 13 15  1  0  0  0  0
 13 31  1  0  0  0  0
 14 32  1  0  0  0  0
 15 20  1  0  0  0  0
 15 16  2  0  0  0  0
 16 17  1  0  0  0  0
 16 33  1  0  0  0  0
 17 18  2  0  0  0  0
 17 34  1  0  0  0  0
 18 19  1  0  0  0  0
 18 35  1  0  0  0  0
 19 20  2  0  0  0  0
 19 36  1  0  0  0  0
 20 21  1  0  0  0  0
M  END
> <s_m_source_file>
AV-unprocessed.smi

> <i_m_source_file_index>
849

> <i_lp_mmshare_version>
43012

> <i_f3d_flags>
0

> <s_epik_input>
W2NIXTFbY0hdW2NIXVtjSF1jKGMxMiluKGMobjIpW0NIMl1bT0hdKVtDSDJdW0NASF0oW09IXSljM1tjSF1bY0hdW2NIXVtjSF1jM0Ns

> <s_epik_cmdline>
J2VwaWtfcHl0aG9uJywgJy1waCcsICc3LjAnLCAnLXRuJywgJzgnLCAnLW1hJywgJzIwMCcsICctbWV0YWxfYmluZGluZycsICctaW1hZScsICc8aW5maWxlLm1hZT4nLCAnLW9tYWUnLCAnPG91dGZpbGUubWFlPic=

> <r_epik_Ionization_Penalty>
0.0634742

> <r_epik_Ionization_Penalty_Charging>
0

> <r_epik_Ionization_Penalty_Neutral>
0.0634742

> <r_epik_State_Penalty>
0.0551572

> <r_epik_Charging_Adjusted_Penalty>
0.0551572

> <i_epik_Tot_Q>
0

> <i_epik_Tot_abs_Q>
0

> <r_epik_Metal_State_Penalty>
5.78034e-05

> <b_epik_Metal_Only>
0

> <s_lp_Force_Field>
OPLS_2005

> <r_lp_Energy>
13.628

> <b_lp_Chiralities_Consistent>
1

> <s_lp_Variant>
AV-unprocessed.smi:849-2

> <Gold.Version>
5.8.1

> <Gold.Id.Protein>
6NUR|6NUR_protein|mol2

> <Gold.PLP.Fitness>
51.9559

> <Gold.PLP.PLP>
-47.5406

> <Gold.PLP.part.hbond>
-2.0000

> <Gold.PLP.part.metal>
0.0000

> <Gold.PLP.part.buried>
-1.9385

> <Gold.PLP.part.nonpolar>
-43.4700

> <Gold.PLP.part.repulsive>
0.2378

> <Gold.PLP.ligand.clash>
0.0000

> <Gold.PLP.ligand.torsion>
0.8028

> <Gold.PLP.Chemscore.Hbond>
2.0000

> <Gold.PLP.Chemscore.CHOScore>
0.0000

> <Gold.PLP.Chemscore.Metal>
0.0000

> <Gold.Chemscore.Hbonds>
donor molecule, donor type, donor heavy atom, donor atom, acceptor molecule, acceptor atom, score
      P1  H  7997  8009       L1    14  1.00
      P1  H 10752 10765       L1     1  0.93

> <Gold.PLP.Chemscore.Internal.Correction>
0.0209

> <Gold.Rescore>
     Score         DG    S(hbond)    S(metal)    S(lipo)     H(rot)  DE(clash)    DE(int)     intcor
     16.68     -20.22       1.76        0.00     133.12       2.62       0.96       2.58       ----

> <Gold.Chemscore.Fitness>
16.6786

> <Gold.Chemscore.DG>
-20.2212

> <Gold.Chemscore.ZeroCoef>
-5.4800

> <Gold.Chemscore.Hbond>
1.7609

> <Gold.Chemscore.Metal>
0.0000

> <Gold.Chemscore.Lipo>
133.1221

> <Gold.Chemscore.Internal_Hbond>
0.0000

> <Gold.Chemscore.DEClash>
0.9649

> <Gold.Chemscore.DEInternal>
2.5777

> <Gold.Chemscore.Rot>
2.6232

> <Gold.Chemscore.Internal.Correction>
   9.000000E+99

> <Gold.Chemscore.Hbonds>
donor molecule, donor type, donor heavy atom, donor atom, acceptor molecule, acceptor atom, score
      P1  H  7997  8009       L1    14  0.95
      P1  H 10752 10765       L1     1  0.40

> <Gold.Chemscore.Hbond.Weighted>
-5.8814

> <Gold.Chemscore.Metal.Weighted>
-0.0000

> <Gold.Chemscore.Lipo.Weighted>
-15.5753

> <Gold.Chemscore.Internal_Hbond.Weighted>
0.0000

> <Gold.Chemscore.DEClash.Weighted>
0.9649

> <Gold.Chemscore.DEInternal.Weighted>
2.5777

> <Gold.Chemscore.Rot.Weighted>
6.7154

> <Gold.Chemscore.Internal.Correction.Weighted>
   9.000000E+99

> <Gold.Protein.RotatedTorsions>
[ 6907 6896 6895 6894 ] final  -43.01 input  -60.11 | X-H torsion
[ 7974 7965 7964 7962 ] final  154.41 input  175.53 | X-H torsion
[ 8008 7997 7996 7995 ] final  166.53 input   59.86 | X-H torsion
[ 10167 10162 10161 10158 ] final   23.23 input  -65.29 | X-H torsion
[ 10718 10713 10712 10709 ] final -172.89 input   66.30 | X-H torsion
[ 10763 10752 10751 10750 ] final -152.87 input  -60.55 | X-H torsion
[ 11005 11000 10999 10996 ] final   20.69 input  -57.11 | X-H torsion

> <Gold.Protein.ActiveResidues>
 VAL166  LYS551  ARG553  GLY616  TRP617  ASP618  TYR619  PRO620  LYS621  CYS622 
 ASP623  PHE694  ASN695  SER759  ASP760  ASP761  ALA762  ILE779  LEU786  VAL792 
 PHE793  MET794  SER795  GLU796  ALA797  LYS798  CYS799  TRP800  GLU811  SER814 

> <Gold.Protein.RotatedAtoms>
  150.9488  134.8890  159.7658 H   0  0  0  0  0  0  0  0  0  0  0  0  # atno 6907 bound_to 6896
  152.5111  134.3837  159.9370 H   0  0  0  0  0  0  0  0  0  0  0  0  # atno 6908 bound_to 6896
  151.3854  133.3767  159.2749 H   0  0  0  0  0  0  0  0  0  0  0  0  # atno 6909 bound_to 6896
  144.8090  139.6930  143.6149 H   0  0  0  0  0  0  0  0  0  0  0  0  # atno 7974 bound_to 7965
  156.1710  140.1641  156.8446 H   0  0  0  0  0  0  0  0  0  0  0  0  # atno 8008 bound_to 7997
  154.5257  140.0768  156.8289 H   0  0  0  0  0  0  0  0  0  0  0  0  # atno 8009 bound_to 7997
  155.3511  140.3390  155.4241 H   0  0  0  0  0  0  0  0  0  0  0  0  # atno 8010 bound_to 7997
  140.5285  143.9882  150.6453 H   0  0  0  0  0  0  0  0  0  0  0  0  # atno 10167 bound_to 10162
  156.7622  130.9418  151.3118 H   0  0  0  0  0  0  0  0  0  0  0  0  # atno 10718 bound_to 10713
  154.7966  135.3226  154.7652 H   0  0  0  0  0  0  0  0  0  0  0  0  # atno 10763 bound_to 10752
  153.8330  135.6877  153.4816 H   0  0  0  0  0  0  0  0  0  0  0  0  # atno 10764 bound_to 10752
  153.1660  135.4642  154.9780 H   0  0  0  0  0  0  0  0  0  0  0  0  # atno 10765 bound_to 10752
  140.3998  134.1730  155.7663 H   0  0  0  0  0  0  0  0  0  0  0  0  # atno 11005 bound_to 11000
  146.2386  139.5956  142.9506 LP  0  0  0  0  0  0  0  0  0  0  0  0  # atno 17320 bound_to 7965
  145.5368  141.0423  143.2353 LP  0  0  0  0  0  0  0  0  0  0  0  0  # atno 17321 bound_to 7965
  140.3250  143.3113  152.0745 LP  0  0  0  0  0  0  0  0  0  0  0  0  # atno 17342 bound_to 10162
  139.4946  144.6548  151.6597 LP  0  0  0  0  0  0  0  0  0  0  0  0  # atno 17343 bound_to 10162
  157.6729  130.9068  150.0083 LP  0  0  0  0  0  0  0  0  0  0  0  0  # atno 17370 bound_to 10713
  156.1332  130.3643  149.9699 LP  0  0  0  0  0  0  0  0  0  0  0  0  # atno 17371 bound_to 10713
  141.1861  133.8310  157.1081 LP  0  0  0  0  0  0  0  0  0  0  0  0  # atno 17394 bound_to 11000
  140.0345  134.9885  157.0844 LP  0  0  0  0  0  0  0  0  0  0  0  0  # atno 17395 bound_to 11000

$$$$
