AV-unprocessed.smi:1018|AV-procd|sdf|4440|dock3
  -GOLD-   22720 2403D 1   1.00000     0.00000
 Structure written by MMmdl.
 52 53  0  0  0  0  0  0  0  0  1 V2000
  151.6485  144.7110  158.1516 C   0  0  0  0  0  0  0  0  0  0  0  0
  152.1855  143.2849  158.3126 C   0  0  2  0  0  0  0  0  0  0  0  0
  151.2963  142.2527  157.5962 C   0  0  0  0  0  0  0  0  0  0  0  0
  151.7662  140.9002  157.8768 N   0  0  0  0  0  0  0  0  0  0  0  0
  151.2921  139.8835  157.0201 C   0  0  0  0  0  0  0  0  0  0  0  0
  151.5282  139.9580  155.6271 C   0  0  0  0  0  0  0  0  0  0  0  0
  151.0608  138.9257  154.7915 C   0  0  0  0  0  0  0  0  0  0  0  0
  150.3750  137.8332  155.3710 C   0  0  0  0  0  0  0  0  0  0  0  0
  149.8540  136.7318  154.6396 N   0  0  0  0  0  0  0  0  0  0  0  0
  149.5059  135.5157  155.0943 C   0  0  0  0  0  0  0  0  0  0  0  0
  149.6346  135.1232  156.2537 O   0  0  0  0  0  0  0  0  0  0  0  0
  148.9717  134.7707  154.1178 N   0  0  0  0  0  0  0  0  0  0  0  0
  148.4432  133.4180  154.2884 C   0  0  0  0  0  0  0  0  0  0  0  0
  147.0779  133.2070  153.5796 C   0  0  0  0  0  0  0  0  0  0  0  0
  147.3037  133.0516  152.0557 C   0  0  0  0  0  0  0  0  0  0  0  0
  146.4296  131.9041  154.0962 C   0  0  0  0  0  0  0  0  0  0  0  0
  146.1286  134.3994  153.8638 C   0  0  0  0  0  0  0  0  0  0  0  0
  146.5008  135.6050  153.4212 N   0  0  0  0  0  0  0  0  0  0  0  0
  145.0671  134.2430  154.4660 O   0  0  0  0  0  0  0  0  0  0  0  0
  150.1737  137.8550  156.7651 C   0  0  0  0  0  0  0  0  0  0  0  0
  150.6208  138.8418  157.5695 N   0  0  0  0  0  0  0  0  0  0  0  0
  151.8706  140.6109  159.3052 C   0  0  0  0  0  0  0  0  0  0  0  0
  152.7197  141.6783  160.0230 C   0  0  1  0  0  0  0  0  0  0  0  0
  154.2300  141.5357  159.7618 C   0  0  0  0  0  0  0  0  0  0  0  0
  152.2383  142.9869  159.7076 O   0  0  0  0  0  0  0  0  0  0  0  0
  151.5980  144.9943  157.1001 H   0  0  0  0  0  0  0  0  0  0  0  0
  152.2927  145.4297  158.6586 H   0  0  0  0  0  0  0  0  0  0  0  0
  150.6472  144.8058  158.5729 H   0  0  0  0  0  0  0  0  0  0  0  0
  153.1908  143.2553  157.8921 H   0  0  0  0  0  0  0  0  0  0  0  0
  150.2652  142.3409  157.9418 H   0  0  0  0  0  0  0  0  0  0  0  0
  151.2892  142.4676  156.5288 H   0  0  0  0  0  0  0  0  0  0  0  0
  152.0738  140.7820  155.1920 H   0  0  0  0  0  0  0  0  0  0  0  0
  151.2344  138.9984  153.7292 H   0  0  0  0  0  0  0  0  0  0  0  0
  149.6313  136.9225  153.6735 H   0  0  0  0  0  0  0  0  0  0  0  0
  148.9007  135.1732  153.1945 H   0  0  0  0  0  0  0  0  0  0  0  0
  149.1800  132.7160  153.8956 H   0  0  0  0  0  0  0  0  0  0  0  0
  148.3457  133.1880  155.3513 H   0  0  0  0  0  0  0  0  0  0  0  0
  147.9716  132.2168  151.8405 H   0  0  0  0  0  0  0  0  0  0  0  0
  147.7494  133.9423  151.6109 H   0  0  0  0  0  0  0  0  0  0  0  0
  146.3672  132.8582  151.5304 H   0  0  0  0  0  0  0  0  0  0  0  0
  147.0398  131.0356  153.8456 H   0  0  0  0  0  0  0  0  0  0  0  0
  145.4435  131.7451  153.6572 H   0  0  0  0  0  0  0  0  0  0  0  0
  146.3115  131.9077  155.1805 H   0  0  0  0  0  0  0  0  0  0  0  0
  145.9116  136.4075  153.5885 H   0  0  0  0  0  0  0  0  0  0  0  0
  147.3728  135.7085  152.9229 H   0  0  0  0  0  0  0  0  0  0  0  0
  149.6448  137.0508  157.2554 H   0  0  0  0  0  0  0  0  0  0  0  0
  150.8667  140.5923  159.7316 H   0  0  0  0  0  0  0  0  0  0  0  0
  152.3081  139.6252  159.4693 H   0  0  0  0  0  0  0  0  0  0  0  0
  152.5731  141.5518  161.0960 H   0  0  0  0  0  0  0  0  0  0  0  0
  154.5976  140.5807  160.1377 H   0  0  0  0  0  0  0  0  0  0  0  0
  154.7879  142.3255  160.2652 H   0  0  0  0  0  0  0  0  0  0  0  0
  154.4728  141.5782  158.7003 H   0  0  0  0  0  0  0  0  0  0  0  0
  1  2  1  0  0  0  0
  1 26  1  0  0  0  0
  1 27  1  0  0  0  0
  1 28  1  0  0  0  0
  2 25  1  0  0  0  0
  2  3  1  0  0  0  0
  2 29  1  0  0  0  0
  3  4  1  0  0  0  0
  3 30  1  0  0  0  0
  3 31  1  0  0  0  0
  4  5  1  0  0  0  0
  4 22  1  0  0  0  0
  5 21  1  0  0  0  0
  5  6  2  0  0  0  0
  6  7  1  0  0  0  0
  6 32  1  0  0  0  0
  7  8  2  0  0  0  0
  7 33  1  0  0  0  0
  8  9  1  0  0  0  0
  8 20  1  0  0  0  0
  9 10  1  0  0  0  0
  9 34  1  0  0  0  0
 10 11  2  0  0  0  0
 10 12  1  0  0  0  0
 12 13  1  0  0  0  0
 12 35  1  0  0  0  0
 13 14  1  0  0  0  0
 13 36  1  0  0  0  0
 13 37  1  0  0  0  0
 14 15  1  0  0  0  0
 14 16  1  0  0  0  0
 14 17  1  0  0  0  0
 15 38  1  0  0  0  0
 15 39  1  0  0  0  0
 15 40  1  0  0  0  0
 16 41  1  0  0  0  0
 16 42  1  0  0  0  0
 16 43  1  0  0  0  0
 17 18  1  0  0  0  0
 17 19  2  0  0  0  0
 18 44  1  0  0  0  0
 18 45  1  0  0  0  0
 20 21  2  0  0  0  0
 20 46  1  0  0  0  0
 22 23  1  0  0  0  0
 22 47  1  0  0  0  0
 22 48  1  0  0  0  0
 23 24  1  0  0  0  0
 23 25  1  0  0  0  0
 23 49  1  0  0  0  0
 24 50  1  0  0  0  0
 24 51  1  0  0  0  0
 24 52  1  0  0  0  0
M  END
> <s_m_source_file>
AV-unprocessed.smi

> <i_m_source_file_index>
1018

> <i_lp_mmshare_version>
43012

> <i_f3d_flags>
0

> <s_epik_input>
W0NIM11bQ0BASF0xW0NIMl1OKFtDSDJdW0NASF0oTzEpW0NIM10pYzJbY0hdW2NIXWMoW2NIXW4yKVtOSF1DKD1PKVtOSF1bQ0gyXUMoW0NIM10pKFtDSDNdKUMoPU8pW05IMl0=

> <s_epik_cmdline>
J2VwaWtfcHl0aG9uJywgJy1waCcsICc3LjAnLCAnLXRuJywgJzgnLCAnLW1hJywgJzIwMCcsICctbWV0YWxfYmluZGluZycsICctaW1hZScsICc8aW5maWxlLm1hZT4nLCAnLW9tYWUnLCAnPG91dGZpbGUubWFlPic=

> <r_lp_tautomer_probability>
1

> <r_epik_Ionization_Penalty>
0.002562

> <r_epik_Ionization_Penalty_Charging>
0

> <r_epik_Ionization_Penalty_Neutral>
0.002562

> <r_epik_State_Penalty>
0.00175377

> <r_epik_Charging_Adjusted_Penalty>
0.00175377

> <i_epik_Tot_Q>
0

> <i_epik_Tot_abs_Q>
0

> <r_epik_Metal_State_Penalty>
-0

> <b_epik_Metal_Only>
0

> <s_lp_Force_Field>
OPLS_2005

> <r_lp_Energy>
25.7986

> <b_lp_Chiralities_Consistent>
1

> <s_lp_Variant>
AV-unprocessed.smi:1018-1

> <Gold.Version>
5.8.1

> <Gold.Id.Protein>
6NUR|6NUR_protein|mol2

> <Gold.PLP.Fitness>
48.1809

> <Gold.PLP.PLP>
-40.0724

> <Gold.PLP.part.hbond>
-3.0000

> <Gold.PLP.part.metal>
0.0000

> <Gold.PLP.part.buried>
-5.0237

> <Gold.PLP.part.nonpolar>
-31.8067

> <Gold.PLP.part.repulsive>
0.1502

> <Gold.PLP.ligand.clash>
0.0000

> <Gold.PLP.ligand.torsion>
0.6131

> <Gold.PLP.Chemscore.Hbond>
2.9760

> <Gold.PLP.Chemscore.CHOScore>
0.0000

> <Gold.PLP.Chemscore.Metal>
0.0000

> <Gold.Chemscore.Hbonds>
donor molecule, donor type, donor heavy atom, donor atom, acceptor molecule, acceptor atom, score
      L1  H     9    34       P1  7948  0.98
      L1  H    12    35       P1  7948  1.00
      L1  H    18    45       P1  7948  1.00

> <Gold.PLP.Chemscore.Internal.Correction>
0.4067

> <Gold.Rescore>
     Score         DG    S(hbond)    S(metal)    S(lipo)     H(rot)  DE(clash)    DE(int)     intcor
     16.76     -20.42       2.55        0.00     100.90       2.09       0.09       3.58       ----

> <Gold.Chemscore.Fitness>
16.7569

> <Gold.Chemscore.DG>
-20.4247

> <Gold.Chemscore.ZeroCoef>
-5.4800

> <Gold.Chemscore.Hbond>
2.5454

> <Gold.Chemscore.Metal>
0.0000

> <Gold.Chemscore.Lipo>
100.9010

> <Gold.Chemscore.Internal_Hbond>
0.0000

> <Gold.Chemscore.DEClash>
0.0877

> <Gold.Chemscore.DEInternal>
3.5801

> <Gold.Chemscore.Rot>
2.0947

> <Gold.Chemscore.Internal.Correction>
   9.000000E+99

> <Gold.Chemscore.Hbonds>
donor molecule, donor type, donor heavy atom, donor atom, acceptor molecule, acceptor atom, score
      L1  H     9    34       P1  7948  0.65
      L1  H    12    35       P1  7948  0.45
      L1  H    18    45       P1  7948  0.98

> <Gold.Chemscore.Hbond.Weighted>
-8.5017

> <Gold.Chemscore.Metal.Weighted>
-0.0000

> <Gold.Chemscore.Lipo.Weighted>
-11.8054

> <Gold.Chemscore.Internal_Hbond.Weighted>
0.0000

> <Gold.Chemscore.DEClash.Weighted>
0.0877

> <Gold.Chemscore.DEInternal.Weighted>
3.5801

> <Gold.Chemscore.Rot.Weighted>
5.3624

> <Gold.Chemscore.Internal.Correction.Weighted>
   9.000000E+99

> <Gold.Protein.RotatedTorsions>
[ 6907 6896 6895 6894 ] final  -15.67 input  -60.11 | X-H torsion
[ 7974 7965 7964 7962 ] final   80.36 input  175.53 | X-H torsion
[ 8008 7997 7996 7995 ] final  -41.23 input   59.86 | X-H torsion
[ 10167 10162 10161 10158 ] final -138.21 input  -65.29 | X-H torsion
[ 10718 10713 10712 10709 ] final  -77.79 input   66.30 | X-H torsion
[ 10763 10752 10751 10750 ] final  -50.83 input  -60.55 | X-H torsion
[ 11005 11000 10999 10996 ] final  -89.68 input  -57.11 | X-H torsion

> <Gold.Protein.ActiveResidues>
 VAL166  LYS551  ARG553  GLY616  TRP617  ASP618  TYR619  PRO620  LYS621  CYS622 
 ASP623  PHE694  ASN695  SER759  ASP760  ASP761  ALA762  ILE779  LEU786  VAL792 
 PHE793  MET794  SER795  GLU796  ALA797  LYS798  CYS799  TRP800  GLU811  SER814 

> <Gold.Protein.RotatedAtoms>
  151.3204  135.0817  159.9303 H   0  0  0  0  0  0  0  0  0  0  0  0  # atno 6907 bound_to 6896
  152.5258  133.9644  159.7743 H   0  0  0  0  0  0  0  0  0  0  0  0  # atno 6908 bound_to 6896
  150.9964  133.6046  159.2731 H   0  0  0  0  0  0  0  0  0  0  0  0  # atno 6909 bound_to 6896
  145.6523  139.2450  143.1970 H   0  0  0  0  0  0  0  0  0  0  0  0  # atno 7974 bound_to 7965
  154.4005  140.1505  156.3157 H   0  0  0  0  0  0  0  0  0  0  0  0  # atno 8008 bound_to 7997
  155.8575  140.3455  155.5713 H   0  0  0  0  0  0  0  0  0  0  0  0  # atno 8009 bound_to 7997
  155.7917  140.0857  157.1996 H   0  0  0  0  0  0  0  0  0  0  0  0  # atno 8010 bound_to 7997
  139.8500  143.7210  152.2658 H   0  0  0  0  0  0  0  0  0  0  0  0  # atno 10167 bound_to 10162
  156.0135  130.4500  150.3398 H   0  0  0  0  0  0  0  0  0  0  0  0  # atno 10718 bound_to 10713
  154.1168  135.6541  153.4895 H   0  0  0  0  0  0  0  0  0  0  0  0  # atno 10763 bound_to 10752
  153.0238  135.5260  154.7137 H   0  0  0  0  0  0  0  0  0  0  0  0  # atno 10764 bound_to 10752
  154.6333  135.2979  155.0161 H   0  0  0  0  0  0  0  0  0  0  0  0  # atno 10765 bound_to 10752
  141.1580  133.7645  156.9630 H   0  0  0  0  0  0  0  0  0  0  0  0  # atno 11005 bound_to 11000
  146.1194  140.7328  142.9465 LP  0  0  0  0  0  0  0  0  0  0  0  0  # atno 17320 bound_to 7965
  144.7118  140.4067  143.7074 LP  0  0  0  0  0  0  0  0  0  0  0  0  # atno 17321 bound_to 7965
  139.7474  144.7543  151.0558 LP  0  0  0  0  0  0  0  0  0  0  0  0  # atno 17342 bound_to 10162
  140.7788  143.4900  150.9906 LP  0  0  0  0  0  0  0  0  0  0  0  0  # atno 17343 bound_to 10162
  157.1493  131.0317  151.2892 LP  0  0  0  0  0  0  0  0  0  0  0  0  # atno 17370 bound_to 10713
  157.4405  130.7541  149.7065 LP  0  0  0  0  0  0  0  0  0  0  0  0  # atno 17371 bound_to 10713
  140.1180  134.9435  157.2163 LP  0  0  0  0  0  0  0  0  0  0  0  0  # atno 17394 bound_to 11000
  140.3108  134.3026  155.7267 LP  0  0  0  0  0  0  0  0  0  0  0  0  # atno 17395 bound_to 11000

$$$$
