#       Name:                AV-unprocessed.smi:626
#       Creating user name   scv26
#       Creation time:       Fri Mar 27 00:03:27 2020


#       File generated by GOLD software.
#

@<TRIPOS>MOLECULE
AV-unprocessed.smi:626
    40    42     1
SMALL
NO_CHARGES


@<TRIPOS>ATOM
      1 ****        -4.4897  -3.5687   0.2600 C.3            1 S1                 0.0000
      2 ****        -3.0705  -3.4431  -0.0331 N.am           1 S1                 0.0000
      3 ****        -2.1473  -3.0482   0.8563 C.2            1 S1                 0.0000
      4 ****        -2.4135  -2.7553   2.0220 O.2            1 S1                 0.0000
      5 ****        -0.7019  -2.9775   0.3595 C.3            1 S1                 0.0000
      6 ****        -0.4650  -1.7126  -0.4022 C.2            1 S1                 0.0000
      7 ****        -0.6341  -1.6565  -1.7179 N.2            1 S1                 0.0000
      8 ****        -0.2984  -0.3318  -2.0307 O.3            1 S1                 0.0000
      9 ****         0.0017   0.2676  -0.8527 C.2            1 S1                 0.0000
     10 ****         0.5041   1.6816  -0.8855 C.3            1 S1                 0.0000
     11 ****         0.2335   2.5100   0.3910 C.3            1 S1                 0.0000
     12 ****         1.6261   3.0819   0.7206 C.3            1 S1                 0.0000
     13 ****         2.5243   1.9541   1.2648 C.3            1 S1                 0.0000
     14 ****         2.8363   1.1265   0.0032 C.3            1 S1                 0.0000
     15 ****         2.0277   1.8565  -1.0887 C.3            1 S1                 0.0000
     16 ****         2.2162   3.3107  -0.6667 C.3            1 S1                 0.0000
     17 ****        -0.0443  -0.5615   0.1899 N.2            1 S1                 0.0000
     18 ****        -5.0251  -3.9013  -0.6293 H              1 S1                 0.0000
     19 ****        -4.9083  -2.6109   0.5716 H              1 S1                 0.0000
     20 ****        -4.6592  -4.2981   1.0532 H              1 S1                 0.0000
     21 ****        -2.7712  -3.6627  -0.9723 H              1 S1                 0.0000
     22 ****        -0.0181  -3.0255   1.2083 H              1 S1                 0.0000
     23 ****        -0.4821  -3.8394  -0.2722 H              1 S1                 0.0000
     24 ****        -0.0031   2.1755  -1.7161 H              1 S1                 0.0000
     25 ****        -0.4807   3.3077   0.1841 H              1 S1                 0.0000
     26 ****        -0.1636   1.9237   1.2204 H              1 S1                 0.0000
     27 ****         1.5963   3.9636   1.3613 H              1 S1                 0.0000
     28 ****         3.4422   2.3572   1.6945 H              1 S1                 0.0000
     29 ****         2.0252   1.3648   2.0349 H              1 S1                 0.0000
     30 ****         3.9025   1.1718  -0.2222 H              1 S1                 0.0000
     31 ****         2.5756   0.0744   0.1096 H              1 S1                 0.0000
     32 ****         2.3605   1.6239  -2.1007 H              1 S1                 0.0000
     33 ****         1.6426   4.0173  -1.2696 H              1 S1                 0.0000
     34 ****         3.2613   3.6253  -0.6463 H              1 S1                 0.0000
     35 ****        -3.3578  -2.8061   2.3472 LP             1 S1                 0.0000
     36 ****        -1.6854  -2.4667   2.6438 LP             1 S1                 0.0000
     37 ****        -0.9298  -2.3842  -2.3368 LP             1 S1                 0.0000
     38 ****        -1.0714   0.1283  -2.4673 LP             1 S1                 0.0000
     39 ****         0.4920  -0.3093  -2.6429 LP             1 S1                 0.0000
     40 ****         0.1723  -0.3851   1.1501 LP             1 S1                 0.0000
@<TRIPOS>BOND
    1    1    2 1     
    2    1   18 1     
    3    1   19 1     
    4    1   20 1     
    5    2    3 am    
    6    2   21 1     
    7    3    4 2     
    8    3    5 1     
    9    5    6 1     
   10    5   22 1     
   11    5   23 1     
   12    6   17 1     
   13    6    7 2     
   14    7    8 1     
   15    8    9 1     
   16    9   10 1     
   17    9   17 2     
   18   10   15 1     
   19   10   11 1     
   20   10   24 1     
   21   11   12 1     
   22   11   25 1     
   23   11   26 1     
   24   12   16 1     
   25   12   13 1     
   26   12   27 1     
   27   13   14 1     
   28   13   28 1     
   29   13   29 1     
   30   14   15 1     
   31   14   30 1     
   32   14   31 1     
   33   15   16 1     
   34   15   32 1     
   35   16   33 1     
   36   16   34 1     
   37    4   35 1     
   38    4   36 1     
   39    7   37 1     
   40    8   38 1     
   41    8   39 1     
   42   17   40 1     
@<TRIPOS>SUBSTRUCTURE
      1 S1             1
@<TRIPOS>SET
LONE_PAIRS      STATIC     ATOMS    <user>   **** ""
6 35 36 37 38 39 40
DONOR_HYDROGENS      STATIC     ATOMS    <user>   **** ""
1 21
ATOM$BLUE        STATIC     ATOMS    COLORGROUP SYSTEM
6 35 36 37 38 39 40
ATOM$RED        STATIC     ATOMS    COLORGROUP SYSTEM
1 21
