AV-unprocessed.smi:814|AV-procd|sdf|3822|dock1
  -GOLD-   22720 1263D 1   1.00000     0.00000
 Structure written by MMmdl.
 37 38  0  0  0  0  0  0  0  0  2 V2000
  148.2734  141.7616  154.7677 C   0  0  0  0  0  0  0  0  0  0  0  0
  147.9902  140.5233  154.0383 N   0  0  0  0  0  0  0  0  0  0  0  0
  146.8035  140.1769  153.4446 C   0  0  0  0  0  0  0  0  0  0  0  0
  146.9911  138.9404  152.8839 C   0  0  0  0  0  0  0  0  0  0  0  0
  148.2835  138.5833  153.1585 N   0  3  0  0  0  0  0  0  0  0  0  0
  148.8948  139.5468  153.8573 C   0  0  0  0  0  0  0  0  0  0  0  0
  150.3081  139.5077  154.3474 C   0  0  0  0  0  0  0  0  0  0  0  0
  150.4062  139.2797  155.8647 C   0  0  0  0  0  0  0  0  0  0  0  0
  150.5767  140.5376  156.5814 N   0  0  0  0  0  0  0  0  0  0  0  0
  151.3135  140.6877  157.6933 C   0  0  0  0  0  0  0  0  0  0  0  0
  151.9321  139.7615  158.2191 O   0  0  0  0  0  0  0  0  0  0  0  0
  151.3556  142.0933  158.3071 C   0  0  1  0  0  0  0  0  0  0  0  0
  152.3900  142.1691  159.4540 C   0  0  0  0  0  0  0  0  0  0  0  0
  152.6411  143.5969  159.9064 C   0  0  0  0  0  0  0  0  0  0  0  0
  152.2846  144.6740  159.1858 C   0  0  0  0  0  0  0  0  0  0  0  0
  151.5944  144.5855  157.8361 C   0  0  0  0  0  0  0  0  0  0  0  0
  151.6554  143.1659  157.2405 C   0  0  0  0  0  0  0  0  0  0  0  0
  147.3717  142.3730  154.8137 H   0  0  0  0  0  0  0  0  0  0  0  0
  149.0575  142.3149  154.2502 H   0  0  0  0  0  0  0  0  0  0  0  0
  148.5972  141.5219  155.7807 H   0  0  0  0  0  0  0  0  0  0  0  0
  145.9347  140.8190  153.4646 H   0  0  0  0  0  0  0  0  0  0  0  0
  146.3194  138.3046  152.3257 H   0  0  0  0  0  0  0  0  0  0  0  0
  150.8151  138.7099  153.8033 H   0  0  0  0  0  0  0  0  0  0  0  0
  150.7782  140.4459  154.0517 H   0  0  0  0  0  0  0  0  0  0  0  0
  149.5187  138.7645  156.2355 H   0  0  0  0  0  0  0  0  0  0  0  0
  151.2548  138.6337  156.0919 H   0  0  0  0  0  0  0  0  0  0  0  0
  150.1032  141.3487  156.2101 H   0  0  0  0  0  0  0  0  0  0  0  0
  150.3711  142.3121  158.7253 H   0  0  0  0  0  0  0  0  0  0  0  0
  152.0365  141.5910  160.3085 H   0  0  0  0  0  0  0  0  0  0  0  0
  153.3475  141.7398  159.1554 H   0  0  0  0  0  0  0  0  0  0  0  0
  153.1448  143.7267  160.8530 H   0  0  0  0  0  0  0  0  0  0  0  0
  152.4793  145.6649  159.5690 H   0  0  0  0  0  0  0  0  0  0  0  0
  150.5572  144.8945  157.9673 H   0  0  0  0  0  0  0  0  0  0  0  0
  152.0539  145.2963  157.1490 H   0  0  0  0  0  0  0  0  0  0  0  0
  152.6501  142.9980  156.8241 H   0  0  0  0  0  0  0  0  0  0  0  0
  150.9566  143.0889  156.4062 H   0  0  0  0  0  0  0  0  0  0  0  0
  148.7183  137.7149  152.8729 H   0  0  0  0  0  0  0  0  0  0  0  0
  1  2  1  0  0  0  0
  1 18  1  0  0  0  0
  1 19  1  0  0  0  0
  1 20  1  0  0  0  0
  2  6  1  0  0  0  0
  2  3  1  0  0  0  0
  3  4  2  0  0  0  0
  3 21  1  0  0  0  0
  4  5  1  0  0  0  0
  4 22  1  0  0  0  0
  5  6  2  0  0  0  0
  5 37  1  0  0  0  0
  6  7  1  0  0  0  0
  7  8  1  0  0  0  0
  7 23  1  0  0  0  0
  7 24  1  0  0  0  0
  8  9  1  0  0  0  0
  8 25  1  0  0  0  0
  8 26  1  0  0  0  0
  9 10  1  0  0  0  0
  9 27  1  0  0  0  0
 10 11  2  0  0  0  0
 10 12  1  0  0  0  0
 12 17  1  0  0  0  0
 12 13  1  0  0  0  0
 12 28  1  0  0  0  0
 13 14  1  0  0  0  0
 13 29  1  0  0  0  0
 13 30  1  0  0  0  0
 14 15  2  0  0  0  0
 14 31  1  0  0  0  0
 15 16  1  0  0  0  0
 15 32  1  0  0  0  0
 16 17  1  0  0  0  0
 16 33  1  0  0  0  0
 16 34  1  0  0  0  0
 17 35  1  0  0  0  0
 17 36  1  0  0  0  0
M  CHG  1   5   1
M  END
> <s_m_source_file>
AV-unprocessed.smi

> <i_m_source_file_index>
814

> <i_lp_mmshare_version>
43012

> <i_f3d_flags>
0

> <s_epik_input>
W0NIM11uMVtjSF1bY0hdbmMxW0NIMl1bQ0gyXVtOSF1DKD1PKVtDQEBIXTJbQ0gyXVtDSF09W0NIXVtDSDJdW0NIMl0y

> <s_epik_cmdline>
J2VwaWtfcHl0aG9uJywgJy1waCcsICc3LjAnLCAnLXRuJywgJzgnLCAnLW1hJywgJzIwMCcsICctbWV0YWxfYmluZGluZycsICctaW1hZScsICc8aW5maWxlLm1hZT4nLCAnLW9tYWUnLCAnPG91dGZpbGUubWFlPic=

> <r_lp_tautomer_probability>
1

> <r_epik_Ionization_Penalty>
0.0819619

> <r_epik_Ionization_Penalty_Charging>
0

> <r_epik_Ionization_Penalty_Neutral>
0.0819619

> <r_epik_State_Penalty>
0.0726933

> <r_epik_Charging_Adjusted_Penalty>
0.0726933

> <i_epik_Tot_Q>
1

> <i_epik_Tot_abs_Q>
1

> <r_epik_Metal_State_Penalty>
0.411758

> <b_epik_Metal_Only>
0

> <s_lp_Force_Field>
OPLS_2005

> <r_lp_Energy>
9.72317

> <b_lp_Chiralities_Consistent>
1

> <s_lp_Variant>
AV-unprocessed.smi:814-2

> <Gold.Version>
5.8.1

> <Gold.Id.Protein>
6NUR|6NUR_protein|mol2

> <Gold.PLP.Fitness>
44.6069

> <Gold.PLP.PLP>
-37.1136

> <Gold.PLP.part.hbond>
-2.0000

> <Gold.PLP.part.metal>
0.0000

> <Gold.PLP.part.buried>
-0.8179

> <Gold.PLP.part.nonpolar>
-34.5535

> <Gold.PLP.part.repulsive>
0.1079

> <Gold.PLP.ligand.clash>
0.0000

> <Gold.PLP.ligand.torsion>
0.7693

> <Gold.PLP.Chemscore.Hbond>
2.0000

> <Gold.PLP.Chemscore.CHOScore>
1.0000

> <Gold.PLP.Chemscore.Metal>
0.0000

> <Gold.Chemscore.Hbonds>
donor molecule, donor type, donor heavy atom, donor atom, acceptor molecule, acceptor atom, score
      L1  H     5    37       P1  7948  2.00
      L1  C     3    21       P1 10175  1.00

> <Gold.PLP.Chemscore.Internal.Correction>
0.0319

> <Gold.Rescore>
     Score         DG    S(hbond)    S(metal)    S(lipo)     H(rot)  DE(clash)    DE(int)     intcor
     14.92     -15.96       0.97        0.00      98.05       1.65       0.01       1.03       ----

> <Gold.Chemscore.Fitness>
14.9164

> <Gold.Chemscore.DG>
-15.9575

> <Gold.Chemscore.ZeroCoef>
-5.4800

> <Gold.Chemscore.Hbond>
0.9685

> <Gold.Chemscore.Metal>
0.0000

> <Gold.Chemscore.Lipo>
98.0452

> <Gold.Chemscore.Internal_Hbond>
0.0000

> <Gold.Chemscore.DEClash>
0.0097

> <Gold.Chemscore.DEInternal>
1.0313

> <Gold.Chemscore.Rot>
1.6518

> <Gold.Chemscore.Internal.Correction>
   9.000000E+99

> <Gold.Chemscore.Hbonds>
donor molecule, donor type, donor heavy atom, donor atom, acceptor molecule, acceptor atom, score
      L1  H     5    37       P1  7948  0.99

> <Gold.Chemscore.Hbond.Weighted>
-3.2349

> <Gold.Chemscore.Metal.Weighted>
-0.0000

> <Gold.Chemscore.Lipo.Weighted>
-11.4713

> <Gold.Chemscore.Internal_Hbond.Weighted>
0.0000

> <Gold.Chemscore.DEClash.Weighted>
0.0097

> <Gold.Chemscore.DEInternal.Weighted>
1.0313

> <Gold.Chemscore.Rot.Weighted>
4.2287

> <Gold.Chemscore.Internal.Correction.Weighted>
   9.000000E+99

> <Gold.Protein.RotatedTorsions>
[ 6907 6896 6895 6894 ] final  -50.10 input  -60.11 | X-H torsion
[ 7974 7965 7964 7962 ] final -110.07 input  175.53 | X-H torsion
[ 8008 7997 7996 7995 ] final   16.48 input   59.86 | X-H torsion
[ 10167 10162 10161 10158 ] final   47.55 input  -65.29 | X-H torsion
[ 10718 10713 10712 10709 ] final   99.34 input   66.30 | X-H torsion
[ 10763 10752 10751 10750 ] final  -23.06 input  -60.55 | X-H torsion
[ 11005 11000 10999 10996 ] final -141.80 input  -57.11 | X-H torsion

> <Gold.Protein.ActiveResidues>
 VAL166  LYS551  ARG553  GLY616  TRP617  ASP618  TYR619  PRO620  LYS621  CYS622 
 ASP623  PHE694  ASN695  SER759  ASP760  ASP761  ALA762  ILE779  LEU786  VAL792 
 PHE793  MET794  SER795  GLU796  ALA797  LYS798  CYS799  TRP800  GLU811  SER814 

> <Gold.Protein.RotatedAtoms>
  150.8740  134.8120  159.7175 H   0  0  0  0  0  0  0  0  0  0  0  0  # atno 6907 bound_to 6896
  152.4734  134.4901  159.9702 H   0  0  0  0  0  0  0  0  0  0  0  0  # atno 6908 bound_to 6896
  151.4985  133.3471  159.2900 H   0  0  0  0  0  0  0  0  0  0  0  0  # atno 6909 bound_to 6896
  145.1727  140.8933  143.3526 H   0  0  0  0  0  0  0  0  0  0  0  0  # atno 7974 bound_to 7965
  154.8775  140.2968  155.5444 H   0  0  0  0  0  0  0  0  0  0  0  0  # atno 8008 bound_to 7997
  156.3022  140.2448  156.3707 H   0  0  0  0  0  0  0  0  0  0  0  0  # atno 8009 bound_to 7997
  154.8752  140.0400  157.1738 H   0  0  0  0  0  0  0  0  0  0  0  0  # atno 8010 bound_to 7997
  140.3025  144.2917  150.6216 H   0  0  0  0  0  0  0  0  0  0  0  0  # atno 10167 bound_to 10162
  157.6878  131.0666  150.4933 H   0  0  0  0  0  0  0  0  0  0  0  0  # atno 10718 bound_to 10713
  153.6618  135.6976  153.5175 H   0  0  0  0  0  0  0  0  0  0  0  0  # atno 10763 bound_to 10752
  153.2626  135.4240  155.0908 H   0  0  0  0  0  0  0  0  0  0  0  0  # atno 10764 bound_to 10752
  154.8450  135.3558  154.6162 H   0  0  0  0  0  0  0  0  0  0  0  0  # atno 10765 bound_to 10752
  140.8289  134.2541  157.4866 H   0  0  0  0  0  0  0  0  0  0  0  0  # atno 11005 bound_to 11000
  145.0216  139.3419  143.6069 LP  0  0  0  0  0  0  0  0  0  0  0  0  # atno 17320 bound_to 7965
  146.3466  139.9519  142.8728 LP  0  0  0  0  0  0  0  0  0  0  0  0  # atno 17321 bound_to 7965
  140.5639  143.2188  151.7718 LP  0  0  0  0  0  0  0  0  0  0  0  0  # atno 17342 bound_to 10162
  139.4912  144.4311  151.9871 LP  0  0  0  0  0  0  0  0  0  0  0  0  # atno 17343 bound_to 10162
  156.5258  130.4173  149.6227 LP  0  0  0  0  0  0  0  0  0  0  0  0  # atno 17370 bound_to 10713
  156.3113  130.7230  151.2124 LP  0  0  0  0  0  0  0  0  0  0  0  0  # atno 17371 bound_to 10713
  139.8705  134.9575  156.4271 LP  0  0  0  0  0  0  0  0  0  0  0  0  # atno 17394 bound_to 11000
  140.9020  133.7773  155.9691 LP  0  0  0  0  0  0  0  0  0  0  0  0  # atno 17395 bound_to 11000

$$$$
