AV-unprocessed.smi:2802|AV-procd|sdf|10806|dock3
  -GOLD-   2272015243D 1   1.00000     0.00000
 Structure written by MMmdl.
 47 48  0  0  0  0  0  0  0  0  1 V2000
  145.7647  143.0131  153.6473 C   0  0  0  0  0  0  0  0  0  0  0  0
  146.7062  142.4866  154.7402 C   0  0  1  0  0  0  0  0  0  0  0  0
  145.9269  141.7051  155.8140 C   0  0  0  0  0  0  0  0  0  0  0  0
  146.8244  141.1485  156.9432 C   0  0  0  0  0  0  0  0  0  0  0  0
  147.2840  142.2833  157.8842 C   0  0  0  0  0  0  0  0  0  0  0  0
  145.9912  140.1686  157.7946 C   0  0  0  0  0  0  0  0  0  0  0  0
  148.0228  140.3648  156.3353 C   0  0  0  0  0  0  0  0  0  0  0  0
  148.8212  141.0618  155.1884 C   0  0  2  0  0  0  0  0  0  0  0  0
  149.7697  140.0714  154.4481 C   0  0  0  0  0  0  0  0  0  0  0  0
  149.0908  139.1084  153.6666 O   0  0  0  0  0  0  0  0  0  0  0  0
  149.6017  142.2232  155.6393 N   0  0  0  0  0  0  0  0  0  0  0  0
  150.6441  142.2674  156.4891 C   0  0  0  0  0  0  0  0  0  0  0  0
  151.1183  141.2845  157.0559 O   0  0  0  0  0  0  0  0  0  0  0  0
  151.2457  143.6508  156.7428 C   0  0  0  0  0  0  0  0  0  0  0  0
  151.3554  143.9161  158.2336 C   0  0  0  0  0  0  0  0  0  0  0  0
  152.3196  143.2522  159.0206 C   0  0  0  0  0  0  0  0  0  0  0  0
  152.3994  143.5544  160.3933 C   0  0  0  0  0  0  0  0  0  0  0  0
  151.5074  144.5081  160.9229 C   0  0  0  0  0  0  0  0  0  0  0  0
  150.5779  145.1471  160.1804 N   0  0  0  0  0  0  0  0  0  0  0  0
  150.5070  144.8513  158.8648 C   0  0  0  0  0  0  0  0  0  0  0  0
  147.8116  141.5964  154.1409 C   0  0  0  0  0  0  0  0  0  0  0  0
  145.2588  142.1966  153.1309 H   0  0  0  0  0  0  0  0  0  0  0  0
  146.3125  143.5899  152.9017 H   0  0  0  0  0  0  0  0  0  0  0  0
  144.9995  143.6650  154.0696 H   0  0  0  0  0  0  0  0  0  0  0  0
  147.1686  143.3594  155.2006 H   0  0  0  0  0  0  0  0  0  0  0  0
  145.1469  142.3380  156.2398 H   0  0  0  0  0  0  0  0  0  0  0  0
  145.4060  140.8785  155.3280 H   0  0  0  0  0  0  0  0  0  0  0  0
  147.9772  141.9156  158.6415 H   0  0  0  0  0  0  0  0  0  0  0  0
  146.4379  142.7302  158.4070 H   0  0  0  0  0  0  0  0  0  0  0  0
  147.7786  143.0922  157.3540 H   0  0  0  0  0  0  0  0  0  0  0  0
  146.5832  139.7485  158.6086 H   0  0  0  0  0  0  0  0  0  0  0  0
  145.6176  139.3346  157.1992 H   0  0  0  0  0  0  0  0  0  0  0  0
  145.1260  140.6618  158.2390 H   0  0  0  0  0  0  0  0  0  0  0  0
  148.6897  140.0505  157.1381 H   0  0  0  0  0  0  0  0  0  0  0  0
  147.6294  139.4344  155.9221 H   0  0  0  0  0  0  0  0  0  0  0  0
  150.4115  140.6114  153.7512 H   0  0  0  0  0  0  0  0  0  0  0  0
  150.4398  139.5673  155.1461 H   0  0  0  0  0  0  0  0  0  0  0  0
  149.7289  138.5273  153.2822 H   0  0  0  0  0  0  0  0  0  0  0  0
  149.3091  143.1086  155.2530 H   0  0  0  0  0  0  0  0  0  0  0  0
  152.2344  143.7160  156.2862 H   0  0  0  0  0  0  0  0  0  0  0  0
  150.6264  144.4132  156.2684 H   0  0  0  0  0  0  0  0  0  0  0  0
  152.9945  142.5331  158.5799 H   0  0  0  0  0  0  0  0  0  0  0  0
  153.1289  143.0699  161.0251 H   0  0  0  0  0  0  0  0  0  0  0  0
  151.5425  144.7655  161.9712 H   0  0  0  0  0  0  0  0  0  0  0  0
  149.7602  145.3862  158.2967 H   0  0  0  0  0  0  0  0  0  0  0  0
  147.3311  140.7569  153.6355 H   0  0  0  0  0  0  0  0  0  0  0  0
  148.3436  142.1454  153.3621 H   0  0  0  0  0  0  0  0  0  0  0  0
  1  2  1  0  0  0  0
  1 22  1  0  0  0  0
  1 23  1  0  0  0  0
  1 24  1  0  0  0  0
  2 21  1  0  0  0  0
  2  3  1  0  0  0  0
  2 25  1  0  0  0  0
  3  4  1  0  0  0  0
  3 26  1  0  0  0  0
  3 27  1  0  0  0  0
  4  5  1  0  0  0  0
  4  6  1  0  0  0  0
  4  7  1  0  0  0  0
  5 28  1  0  0  0  0
  5 29  1  0  0  0  0
  5 30  1  0  0  0  0
  6 31  1  0  0  0  0
  6 32  1  0  0  0  0
  6 33  1  0  0  0  0
  7  8  1  0  0  0  0
  7 34  1  0  0  0  0
  7 35  1  0  0  0  0
  8  9  1  0  0  0  0
  8 11  1  0  0  0  0
  8 21  1  0  0  0  0
  9 10  1  0  0  0  0
  9 36  1  0  0  0  0
  9 37  1  0  0  0  0
 10 38  1  0  0  0  0
 11 12  1  0  0  0  0
 11 39  1  0  0  0  0
 12 13  2  0  0  0  0
 12 14  1  0  0  0  0
 14 15  1  0  0  0  0
 14 40  1  0  0  0  0
 14 41  1  0  0  0  0
 15 20  1  0  0  0  0
 15 16  2  0  0  0  0
 16 17  1  0  0  0  0
 16 42  1  0  0  0  0
 17 18  2  0  0  0  0
 17 43  1  0  0  0  0
 18 19  1  0  0  0  0
 18 44  1  0  0  0  0
 19 20  2  0  0  0  0
 20 45  1  0  0  0  0
 21 46  1  0  0  0  0
 21 47  1  0  0  0  0
M  END
> <s_m_source_file>
AV-unprocessed.smi

> <i_m_source_file_index>
2802

> <i_lp_mmshare_version>
43012

> <i_f3d_flags>
0

> <s_epik_input>
W0NIM11DMShbQ0gzXSlbQ0gyXVtDQEBIXShbQ0gzXSlbQ0gyXVtDQF0oW0NIMl0xKShbQ0gyXVtPSF0pW05IXUMoPU8pW0NIMl1jMltjSF1bY0hdW2NIXW5bY0hdMg==

> <s_epik_cmdline>
J2VwaWtfcHl0aG9uJywgJy1waCcsICc3LjAnLCAnLXRuJywgJzgnLCAnLW1hJywgJzIwMCcsICctbWV0YWxfYmluZGluZycsICctaW1hZScsICc8aW5maWxlLm1hZT4nLCAnLW9tYWUnLCAnPG91dGZpbGUubWFlPic=

> <r_epik_Ionization_Penalty>
0.004793

> <r_epik_Ionization_Penalty_Charging>
0

> <r_epik_Ionization_Penalty_Neutral>
0.004793

> <r_epik_State_Penalty>
0.00347421

> <r_epik_Charging_Adjusted_Penalty>
0.00347421

> <i_epik_Tot_Q>
0

> <i_epik_Tot_abs_Q>
0

> <r_epik_Metal_State_Penalty>
-0

> <b_epik_Metal_Only>
0

> <s_lp_Force_Field>
OPLS_2005

> <r_lp_Energy>
17.3779

> <b_lp_Chiralities_Consistent>
1

> <s_lp_Variant>
AV-unprocessed.smi:2802-4

> <Gold.Version>
5.8.1

> <Gold.Id.Protein>
6NUR|6NUR_protein|mol2

> <Gold.PLP.Fitness>
47.0411

> <Gold.PLP.PLP>
-41.7896

> <Gold.PLP.part.hbond>
-2.2291

> <Gold.PLP.part.metal>
0.0000

> <Gold.PLP.part.buried>
-4.6038

> <Gold.PLP.part.nonpolar>
-35.8623

> <Gold.PLP.part.repulsive>
0.3384

> <Gold.PLP.ligand.clash>
0.0000

> <Gold.PLP.ligand.torsion>
0.3339

> <Gold.PLP.Chemscore.Hbond>
0.9440

> <Gold.PLP.Chemscore.CHOScore>
1.0101

> <Gold.PLP.Chemscore.Metal>
0.0000

> <Gold.Chemscore.Hbonds>
donor molecule, donor type, donor heavy atom, donor atom, acceptor molecule, acceptor atom, score
      L1  H    11    39       P1  8028  0.90
      L1  C    20    45       P1  8029  1.00

> <Gold.PLP.Chemscore.Internal.Correction>
0.0570

> <Gold.Rescore>
     Score         DG    S(hbond)    S(metal)    S(lipo)     H(rot)  DE(clash)    DE(int)     intcor
     13.70     -16.75       1.10        0.00     108.79       2.00       1.66       1.39       ----

> <Gold.Chemscore.Fitness>
13.7010

> <Gold.Chemscore.DG>
-16.7507

> <Gold.Chemscore.ZeroCoef>
-5.4800

> <Gold.Chemscore.Hbond>
1.0986

> <Gold.Chemscore.Metal>
0.0000

> <Gold.Chemscore.Lipo>
108.7859

> <Gold.Chemscore.Internal_Hbond>
0.0000

> <Gold.Chemscore.DEClash>
1.6613

> <Gold.Chemscore.DEInternal>
1.3885

> <Gold.Chemscore.Rot>
2.0026

> <Gold.Chemscore.Internal.Correction>
   9.000000E+99

> <Gold.Chemscore.Hbonds>
donor molecule, donor type, donor heavy atom, donor atom, acceptor molecule, acceptor atom, score
      L1  H    11    39       P1  8028  0.88

> <Gold.Chemscore.Hbond.Weighted>
-3.6694

> <Gold.Chemscore.Metal.Weighted>
-0.0000

> <Gold.Chemscore.Lipo.Weighted>
-12.7279

> <Gold.Chemscore.Internal_Hbond.Weighted>
0.0000

> <Gold.Chemscore.DEClash.Weighted>
1.6613

> <Gold.Chemscore.DEInternal.Weighted>
1.3885

> <Gold.Chemscore.Rot.Weighted>
5.1267

> <Gold.Chemscore.Internal.Correction.Weighted>
   9.000000E+99

> <Gold.Protein.RotatedTorsions>
[ 6907 6896 6895 6894 ] final   54.94 input  -60.11 | X-H torsion
[ 7974 7965 7964 7962 ] final  105.11 input  175.53 | X-H torsion
[ 8008 7997 7996 7995 ] final  -10.85 input   59.86 | X-H torsion
[ 10167 10162 10161 10158 ] final  129.94 input  -65.29 | X-H torsion
[ 10718 10713 10712 10709 ] final  -68.81 input   66.30 | X-H torsion
[ 10763 10752 10751 10750 ] final  -98.76 input  -60.55 | X-H torsion
[ 11005 11000 10999 10996 ] final -158.77 input  -57.11 | X-H torsion

> <Gold.Protein.ActiveResidues>
 VAL166  LYS551  ARG553  GLY616  TRP617  ASP618  TYR619  PRO620  LYS621  CYS622 
 ASP623  PHE694  ASN695  SER759  ASP760  ASP761  ALA762  ILE779  LEU786  VAL792 
 PHE793  MET794  SER795  GLU796  ALA797  LYS798  CYS799  TRP800  GLU811  SER814 

> <Gold.Protein.RotatedAtoms>
  152.3489  134.7033  160.0242 H   0  0  0  0  0  0  0  0  0  0  0  0  # atno 6907 bound_to 6896
  151.7394  133.3316  159.3369 H   0  0  0  0  0  0  0  0  0  0  0  0  # atno 6908 bound_to 6896
  150.7527  134.6225  159.6188 H   0  0  0  0  0  0  0  0  0  0  0  0  # atno 6909 bound_to 6896
  145.3240  139.2505  143.3696 H   0  0  0  0  0  0  0  0  0  0  0  0  # atno 7974 bound_to 7965
  154.5517  140.2318  155.8474 H   0  0  0  0  0  0  0  0  0  0  0  0  # atno 8008 bound_to 7997
  156.1952  140.3067  155.9374 H   0  0  0  0  0  0  0  0  0  0  0  0  # atno 8009 bound_to 7997
  155.3058  140.0433  157.3023 H   0  0  0  0  0  0  0  0  0  0  0  0  # atno 8010 bound_to 7997
  139.5453  144.6768  151.4492 H   0  0  0  0  0  0  0  0  0  0  0  0  # atno 10167 bound_to 10162
  156.0486  130.4301  150.2056 H   0  0  0  0  0  0  0  0  0  0  0  0  # atno 10718 bound_to 10713
  154.7442  135.4997  153.9174 H   0  0  0  0  0  0  0  0  0  0  0  0  # atno 10763 bound_to 10752
  153.1074  135.6700  153.9569 H   0  0  0  0  0  0  0  0  0  0  0  0  # atno 10764 bound_to 10752
  153.9338  135.3075  155.3424 H   0  0  0  0  0  0  0  0  0  0  0  0  # atno 10765 bound_to 10752
  140.6500  134.4461  157.5235 H   0  0  0  0  0  0  0  0  0  0  0  0  # atno 11005 bound_to 11000
  146.3071  140.3803  142.8683 LP  0  0  0  0  0  0  0  0  0  0  0  0  # atno 17320 bound_to 7965
  144.8917  140.7532  143.5922 LP  0  0  0  0  0  0  0  0  0  0  0  0  # atno 17321 bound_to 7965
  140.6699  143.8316  150.6987 LP  0  0  0  0  0  0  0  0  0  0  0  0  # atno 17342 bound_to 10162
  140.1737  143.4173  152.1982 LP  0  0  0  0  0  0  0  0  0  0  0  0  # atno 17343 bound_to 10162
  157.0142  130.9960  151.3357 LP  0  0  0  0  0  0  0  0  0  0  0  0  # atno 17370 bound_to 10713
  157.5389  130.8107  149.8005 LP  0  0  0  0  0  0  0  0  0  0  0  0  # atno 17371 bound_to 10713
  139.9049  134.8471  156.1745 LP  0  0  0  0  0  0  0  0  0  0  0  0  # atno 17394 bound_to 11000
  141.0544  133.6872  156.1832 LP  0  0  0  0  0  0  0  0  0  0  0  0  # atno 17395 bound_to 11000

$$$$
