AV-unprocessed.smi:40|AV-procd|sdf|373|dock8
  -GOLD-   2262016223D 1   1.00000     0.00000
 Structure written by MMmdl.
 47 48  0  0  0  0  0  0  0  0  1 V2000
  151.7721  144.1158  159.7287 C   0  0  0  0  0  0  0  0  0  0  0  0
  152.9313  143.1864  159.3452 C   0  0  0  0  0  0  0  0  0  0  0  0
  152.5844  141.6913  159.4355 C   0  0  0  0  0  0  0  0  0  0  0  0
  153.7491  140.7615  159.0502 C   0  0  0  0  0  0  0  0  0  0  0  0
  153.3897  139.2724  159.1447 C   0  0  0  0  0  0  0  0  0  0  0  0
  152.3921  138.9763  158.1811 O   0  0  0  0  0  0  0  0  0  0  0  0
  152.0777  137.7035  157.8755 C   0  0  0  0  0  0  0  0  0  0  0  0
  152.5203  136.7169  158.4629 O   0  0  0  0  0  0  0  0  0  0  0  0
  151.1780  137.6575  156.7402 N   0  0  0  0  0  0  0  0  0  0  0  0
  150.6639  136.5454  156.1703 C   0  0  0  0  0  0  0  0  0  0  0  0
  150.7821  135.4121  156.8356 N   0  0  0  0  0  0  0  0  0  0  0  0
  150.3260  134.2078  156.3708 C   0  0  0  0  0  0  0  0  0  0  0  0
  150.4994  133.1786  157.0215 O   0  0  0  0  0  0  0  0  0  0  0  0
  149.6589  134.1935  155.1214 N   0  0  0  0  0  0  0  0  0  0  0  0
  149.1828  132.8538  154.5840 C   0  0  2  0  0  0  0  0  0  0  0  0
  148.6323  133.0159  153.3114 O   0  0  0  0  0  0  0  0  0  0  0  0
  147.2244  133.1709  153.4214 C   0  0  1  0  0  0  0  0  0  0  0  0
  146.5547  132.8633  152.0777 C   0  0  0  0  0  0  0  0  0  0  0  0
  146.8537  132.2035  154.5449 C   0  0  2  0  0  0  0  0  0  0  0  0
  145.6927  132.6555  155.2128 O   0  0  0  0  0  0  0  0  0  0  0  0
  148.0691  132.2481  155.4714 C   0  0  1  0  0  0  0  0  0  0  0  0
  148.3999  130.9426  155.9002 O   0  0  0  0  0  0  0  0  0  0  0  0
  149.5348  135.3777  154.4044 C   0  0  0  0  0  0  0  0  0  0  0  0
  149.9997  136.5530  154.8790 C   0  0  0  0  0  0  0  0  0  0  0  0
  149.8370  137.6827  154.1683 F   0  0  0  0  0  0  0  0  0  0  0  0
  150.0885  132.2474  154.5199 H   0  0  0  0  0  0  0  0  0  0  0  0
  147.0023  134.1963  153.7211 H   0  0  0  0  0  0  0  0  0  0  0  0
  146.6973  131.2002  154.1450 H   0  0  0  0  0  0  0  0  0  0  0  0
  147.8880  132.8854  156.3386 H   0  0  0  0  0  0  0  0  0  0  0  0
  152.0912  145.1579  159.7079 H   0  0  0  0  0  0  0  0  0  0  0  0
  151.4107  143.9001  160.7344 H   0  0  0  0  0  0  0  0  0  0  0  0
  150.9328  144.0172  159.0407 H   0  0  0  0  0  0  0  0  0  0  0  0
  153.2795  143.4258  158.3398 H   0  0  0  0  0  0  0  0  0  0  0  0
  153.7705  143.3898  160.0109 H   0  0  0  0  0  0  0  0  0  0  0  0
  152.2818  141.4765  160.4611 H   0  0  0  0  0  0  0  0  0  0  0  0
  151.7150  141.4753  158.8135 H   0  0  0  0  0  0  0  0  0  0  0  0
  154.0654  140.9755  158.0297 H   0  0  0  0  0  0  0  0  0  0  0  0
  154.6106  140.9647  159.6873 H   0  0  0  0  0  0  0  0  0  0  0  0
  154.2672  138.6489  158.9702 H   0  0  0  0  0  0  0  0  0  0  0  0
  153.0265  139.0539  160.1500 H   0  0  0  0  0  0  0  0  0  0  0  0
  150.8587  138.5571  156.4120 H   0  0  0  0  0  0  0  0  0  0  0  0
  145.4704  132.9472  152.1530 H   0  0  0  0  0  0  0  0  0  0  0  0
  146.7905  131.8540  151.7397 H   0  0  0  0  0  0  0  0  0  0  0  0
  146.8905  133.5587  151.3082 H   0  0  0  0  0  0  0  0  0  0  0  0
  145.0426  131.9705  155.1836 H   0  0  0  0  0  0  0  0  0  0  0  0
  147.5998  130.4760  156.0870 H   0  0  0  0  0  0  0  0  0  0  0  0
  149.0601  135.3972  153.4357 H   0  0  0  0  0  0  0  0  0  0  0  0
  1  2  1  0  0  0  0
  1 30  1  0  0  0  0
  1 31  1  0  0  0  0
  1 32  1  0  0  0  0
  2  3  1  0  0  0  0
  2 33  1  0  0  0  0
  2 34  1  0  0  0  0
  3  4  1  0  0  0  0
  3 35  1  0  0  0  0
  3 36  1  0  0  0  0
  4  5  1  0  0  0  0
  4 37  1  0  0  0  0
  4 38  1  0  0  0  0
  5  6  1  0  0  0  0
  5 39  1  0  0  0  0
  5 40  1  0  0  0  0
  6  7  1  0  0  0  0
  7  8  2  0  0  0  0
  7  9  1  0  0  0  0
  9 10  1  0  0  0  0
  9 41  1  0  0  0  0
 10 24  1  0  0  0  0
 10 11  2  0  0  0  0
 11 12  1  0  0  0  0
 12 13  2  0  0  0  0
 12 14  1  0  0  0  0
 14 15  1  0  0  0  0
 14 23  1  0  0  0  0
 15 26  1  0  0  0  0
 15 21  1  0  0  0  0
 15 16  1  0  0  0  0
 16 17  1  0  0  0  0
 17 27  1  0  0  0  0
 17 18  1  0  0  0  0
 17 19  1  0  0  0  0
 18 42  1  0  0  0  0
 18 43  1  0  0  0  0
 18 44  1  0  0  0  0
 19 28  1  0  0  0  0
 19 20  1  0  0  0  0
 19 21  1  0  0  0  0
 20 45  1  0  0  0  0
 21 29  1  0  0  0  0
 21 22  1  0  0  0  0
 22 46  1  0  0  0  0
 23 24  2  0  0  0  0
 23 47  1  0  0  0  0
 24 25  1  0  0  0  0
M  END
> <s_m_source_file>
AV-unprocessed.smi

> <i_m_source_file_index>
40

> <i_lp_mmshare_version>
43012

> <i_f3d_flags>
0

> <s_epik_input>
W0NIM11bQ0gyXVtDSDJdW0NIMl1bQ0gyXU9DKD1PKVtOSF1jMW5jKD1PKW4oW2NIXWMxRilbQ0BASF0yT1tDQEhdKFtDSDNdKVtDQEBIXShbT0hdKVtDQEhdMltPSF0=

> <s_epik_cmdline>
J2VwaWtfcHl0aG9uJywgJy1waCcsICc3LjAnLCAnLXRuJywgJzgnLCAnLW1hJywgJzIwMCcsICctbWV0YWxfYmluZGluZycsICctaW1hZScsICc8aW5maWxlLm1hZT4nLCAnLW9tYWUnLCAnPG91dGZpbGUubWFlPic=

> <r_lp_tautomer_probability>
1

> <r_epik_Ionization_Penalty>
2.29506e-06

> <r_epik_Ionization_Penalty_Charging>
8.26867e-09

> <r_epik_Ionization_Penalty_Neutral>
2.2868e-06

> <r_epik_State_Penalty>
-0

> <r_epik_Charging_Adjusted_Penalty>
8.26867e-09

> <i_epik_Tot_Q>
0

> <i_epik_Tot_abs_Q>
0

> <r_epik_Metal_State_Penalty>
-0

> <b_epik_Metal_Only>
0

> <s_epik_Chemistry_Notes>
This compound has an ester and may undergo hydrolysis at high or low pH. This compound contains an acetal/aminal-like group ( X-CH(R)-Y where X, Y are N, S, or O) that may be acid/base labile, releasing an aldehyde.

> <s_lp_Force_Field>
OPLS_2005

> <r_lp_Energy>
31.7957

> <b_lp_Chiralities_Consistent>
1

> <s_lp_Variant>
AV-unprocessed.smi:40-7

> <Gold.Version>
5.8.1

> <Gold.Id.Protein>
6NUR|6NUR_protein|mol2

> <Gold.PLP.Fitness>
44.2068

> <Gold.PLP.PLP>
-33.5794

> <Gold.PLP.part.hbond>
-3.6670

> <Gold.PLP.part.metal>
0.0000

> <Gold.PLP.part.buried>
-3.7805

> <Gold.PLP.part.nonpolar>
-28.0742

> <Gold.PLP.part.repulsive>
0.1929

> <Gold.PLP.ligand.clash>
0.0000

> <Gold.PLP.ligand.torsion>
0.1677

> <Gold.PLP.Chemscore.Hbond>
2.6663

> <Gold.PLP.Chemscore.CHOScore>
0.9656

> <Gold.PLP.Chemscore.Metal>
0.0000

> <Gold.Chemscore.Hbonds>
donor molecule, donor type, donor heavy atom, donor atom, acceptor molecule, acceptor atom, score
      L1  H    20    45       P1 10957  0.09
      P1  H  6896  6908       L1    13  0.24
      P1  H  6896  6909       L1     8  0.11
      L1  C    23    47       P1  7948  0.31

> <Gold.PLP.Chemscore.Internal.Correction>
0.0671

> <Gold.Rescore>
     Score         DG    S(hbond)    S(metal)    S(lipo)     H(rot)  DE(clash)    DE(int)     intcor
     11.03     -12.89       2.42        0.00      75.22       3.70       0.11       1.75       ----

> <Gold.Chemscore.Fitness>
11.0324

> <Gold.Chemscore.DG>
-12.8920

> <Gold.Chemscore.ZeroCoef>
-5.4800

> <Gold.Chemscore.Hbond>
2.4168

> <Gold.Chemscore.Metal>
0.0000

> <Gold.Chemscore.Lipo>
75.2215

> <Gold.Chemscore.Internal_Hbond>
0.0000

> <Gold.Chemscore.DEClash>
0.1123

> <Gold.Chemscore.DEInternal>
1.7473

> <Gold.Chemscore.Rot>
3.6957

> <Gold.Chemscore.Internal.Correction>
   9.000000E+99

> <Gold.Chemscore.Hbonds>
donor molecule, donor type, donor heavy atom, donor atom, acceptor molecule, acceptor atom, score
      L1  H    20    45       P1 10957  0.04
      P1  H  6896  6908       L1    13  0.16
      P1  H  6896  6909       L1     8  0.12

> <Gold.Chemscore.Hbond.Weighted>
-8.0721

> <Gold.Chemscore.Metal.Weighted>
-0.0000

> <Gold.Chemscore.Lipo.Weighted>
-8.8009

> <Gold.Chemscore.Internal_Hbond.Weighted>
0.0000

> <Gold.Chemscore.DEClash.Weighted>
0.1123

> <Gold.Chemscore.DEInternal.Weighted>
1.7473

> <Gold.Chemscore.Rot.Weighted>
9.4610

> <Gold.Chemscore.Internal.Correction.Weighted>
   9.000000E+99

> <Gold.Protein.RotatedTorsions>
[ 6907 6896 6895 6894 ] final  118.63 input  -60.11 | X-H torsion
[ 7974 7965 7964 7962 ] final  171.48 input  175.53 | X-H torsion
[ 8008 7997 7996 7995 ] final  -17.64 input   59.86 | X-H torsion
[ 10167 10162 10161 10158 ] final -134.95 input  -65.29 | X-H torsion
[ 10718 10713 10712 10709 ] final  -17.94 input   66.30 | X-H torsion
[ 10763 10752 10751 10750 ] final  124.32 input  -60.55 | X-H torsion
[ 11005 11000 10999 10996 ] final  113.02 input  -57.11 | X-H torsion

> <Gold.Protein.ActiveResidues>
 VAL166  LYS551  ARG553  GLY616  TRP617  ASP618  TYR619  PRO620  LYS621  CYS622 
 ASP623  PHE694  ASN695  SER759  ASP760  ASP761  ALA762  ILE779  LEU786  VAL792 
 PHE793  MET794  SER795  GLU796  ALA797  LYS798  CYS799  TRP800  GLU811  SER814 

> <Gold.Protein.RotatedAtoms>
  152.4529  133.7665  159.6775 H   0  0  0  0  0  0  0  0  0  0  0  0  # atno 6907 bound_to 6896
  150.8446  133.7871  159.3054 H   0  0  0  0  0  0  0  0  0  0  0  0  # atno 6908 bound_to 6896
  151.5485  135.1070  159.9996 H   0  0  0  0  0  0  0  0  0  0  0  0  # atno 6909 bound_to 6896
  144.7294  139.9356  143.6426 H   0  0  0  0  0  0  0  0  0  0  0  0  # atno 7974 bound_to 7965
  154.4963  140.2137  155.9440 H   0  0  0  0  0  0  0  0  0  0  0  0  # atno 8008 bound_to 7997
  156.1375  140.3186  155.8411 H   0  0  0  0  0  0  0  0  0  0  0  0  # atno 8009 bound_to 7997
  155.4183  140.0495  157.3018 H   0  0  0  0  0  0  0  0  0  0  0  0  # atno 8010 bound_to 7997
  139.8829  143.6817  152.2624 H   0  0  0  0  0  0  0  0  0  0  0  0  # atno 10167 bound_to 10162
  156.5665  130.4738  149.6382 H   0  0  0  0  0  0  0  0  0  0  0  0  # atno 10718 bound_to 10713
  153.6596  135.3349  155.3123 H   0  0  0  0  0  0  0  0  0  0  0  0  # atno 10763 bound_to 10752
  154.8518  135.4360  154.1819 H   0  0  0  0  0  0  0  0  0  0  0  0  # atno 10764 bound_to 10752
  153.2782  135.7006  153.7487 H   0  0  0  0  0  0  0  0  0  0  0  0  # atno 10765 bound_to 10752
  139.8942  134.9542  156.6675 H   0  0  0  0  0  0  0  0  0  0  0  0  # atno 11005 bound_to 11000
  146.0824  139.3812  143.0456 LP  0  0  0  0  0  0  0  0  0  0  0  0  # atno 17320 bound_to 7965
  145.7823  140.9851  143.1093 LP  0  0  0  0  0  0  0  0  0  0  0  0  # atno 17321 bound_to 7965
  139.7180  144.7608  151.1002 LP  0  0  0  0  0  0  0  0  0  0  0  0  # atno 17342 bound_to 10162
  140.7741  143.5245  150.9497 LP  0  0  0  0  0  0  0  0  0  0  0  0  # atno 17343 bound_to 10162
  156.2752  130.7040  151.1849 LP  0  0  0  0  0  0  0  0  0  0  0  0  # atno 17370 bound_to 10713
  157.7357  131.0569  150.5453 LP  0  0  0  0  0  0  0  0  0  0  0  0  # atno 17371 bound_to 10713
  140.7399  133.8987  155.8270 LP  0  0  0  0  0  0  0  0  0  0  0  0  # atno 17394 bound_to 11000
  141.0086  134.1051  157.4244 LP  0  0  0  0  0  0  0  0  0  0  0  0  # atno 17395 bound_to 11000

$$$$
