AV-unprocessed.smi:934|AV-procd|sdf|4205|dock6
  -GOLD-   22720 2113D 1   1.00000     0.00000
 Structure written by MMmdl.
 43 44  0  0  0  0  0  0  0  0  2 V2000
  150.2459  138.5750  154.3258 C   0  0  0  0  0  0  0  0  0  0  0  0
  148.8789  137.9971  154.2422 N   0  3  0  0  0  0  0  0  0  0  0  0
  148.7368  136.8707  155.2013 C   0  0  0  0  0  0  0  0  0  0  0  0
  147.7562  139.0087  154.2130 C   0  0  0  0  0  0  0  0  0  0  0  0
  146.4775  138.3167  153.6354 C   0  0  0  0  0  0  0  0  0  0  0  0
  146.7497  137.0490  152.9566 N   0  0  0  0  0  0  0  0  0  0  0  0
  145.8228  136.1828  152.5233 C   0  0  0  0  0  0  0  0  0  0  0  0
  144.6137  136.3577  152.6660 O   0  0  0  0  0  0  0  0  0  0  0  0
  146.3917  135.1289  151.9137 N   0  0  0  0  0  0  0  0  0  0  0  0
  145.7639  133.9906  151.3388 C   0  0  0  0  0  0  0  0  0  0  0  0
  144.3549  133.9746  151.2825 C   0  0  0  0  0  0  0  0  0  0  0  0
  143.7025  132.8693  150.7044 C   0  0  0  0  0  0  0  0  0  0  0  0
  144.4896  131.8194  150.1938 C   0  0  0  0  0  0  0  0  0  0  0  0
  145.8387  131.8238  150.2260 N   0  0  0  0  0  0  0  0  0  0  0  0
  146.4584  132.8864  150.7839 C   0  0  0  0  0  0  0  0  0  0  0  0
  147.4589  139.5651  155.6396 C   0  0  0  0  0  0  0  0  0  0  0  0
  146.4501  140.7282  155.6390 C   0  0  0  0  0  0  0  0  0  0  0  0
  146.9377  141.7741  154.8089 O   0  0  0  0  0  0  0  0  0  0  0  0
  147.0944  141.3807  153.4518 C   0  0  0  0  0  0  0  0  0  0  0  0
  148.1246  140.2395  153.3394 C   0  0  0  0  0  0  0  0  0  0  0  0
  150.4350  139.0143  155.3058 H   0  0  0  0  0  0  0  0  0  0  0  0
  150.4271  139.3339  153.5670 H   0  0  0  0  0  0  0  0  0  0  0  0
  150.9935  137.7972  154.1671 H   0  0  0  0  0  0  0  0  0  0  0  0
  148.5934  137.2238  156.2224 H   0  0  0  0  0  0  0  0  0  0  0  0
  149.6276  136.2417  155.1929 H   0  0  0  0  0  0  0  0  0  0  0  0
  147.9088  136.2156  154.9323 H   0  0  0  0  0  0  0  0  0  0  0  0
  145.7093  138.1714  154.3933 H   0  0  0  0  0  0  0  0  0  0  0  0
  145.9961  138.9656  152.9047 H   0  0  0  0  0  0  0  0  0  0  0  0
  147.7184  136.8293  152.7761 H   0  0  0  0  0  0  0  0  0  0  0  0
  147.3942  135.1675  151.8024 H   0  0  0  0  0  0  0  0  0  0  0  0
  143.7776  134.7968  151.6794 H   0  0  0  0  0  0  0  0  0  0  0  0
  142.6245  132.8278  150.6528 H   0  0  0  0  0  0  0  0  0  0  0  0
  144.0235  130.9559  149.7427 H   0  0  0  0  0  0  0  0  0  0  0  0
  147.5356  132.8411  150.7560 H   0  0  0  0  0  0  0  0  0  0  0  0
  147.1251  138.7739  156.3101 H   0  0  0  0  0  0  0  0  0  0  0  0
  148.3602  139.9797  156.0891 H   0  0  0  0  0  0  0  0  0  0  0  0
  145.4547  140.4185  155.3219 H   0  0  0  0  0  0  0  0  0  0  0  0
  146.3395  141.1173  156.6512 H   0  0  0  0  0  0  0  0  0  0  0  0
  146.1307  141.0948  153.0295 H   0  0  0  0  0  0  0  0  0  0  0  0
  147.4367  142.2436  152.8806 H   0  0  0  0  0  0  0  0  0  0  0  0
  149.0964  140.6330  153.6375 H   0  0  0  0  0  0  0  0  0  0  0  0
  148.2200  139.9592  152.2901 H   0  0  0  0  0  0  0  0  0  0  0  0
  148.8387  137.5552  153.3349 H   0  0  0  0  0  0  0  0  0  0  0  0
  1  2  1  0  0  0  0
  1 21  1  0  0  0  0
  1 22  1  0  0  0  0
  1 23  1  0  0  0  0
  2  3  1  0  0  0  0
  2  4  1  0  0  0  0
  2 43  1  0  0  0  0
  3 24  1  0  0  0  0
  3 25  1  0  0  0  0
  3 26  1  0  0  0  0
  4 20  1  0  0  0  0
  4  5  1  0  0  0  0
  4 16  1  0  0  0  0
  5  6  1  0  0  0  0
  5 27  1  0  0  0  0
  5 28  1  0  0  0  0
  6  7  1  0  0  0  0
  6 29  1  0  0  0  0
  7  8  2  0  0  0  0
  7  9  1  0  0  0  0
  9 10  1  0  0  0  0
  9 30  1  0  0  0  0
 10 15  1  0  0  0  0
 10 11  2  0  0  0  0
 11 12  1  0  0  0  0
 11 31  1  0  0  0  0
 12 13  2  0  0  0  0
 12 32  1  0  0  0  0
 13 14  1  0  0  0  0
 13 33  1  0  0  0  0
 14 15  2  0  0  0  0
 15 34  1  0  0  0  0
 16 17  1  0  0  0  0
 16 35  1  0  0  0  0
 16 36  1  0  0  0  0
 17 18  1  0  0  0  0
 17 37  1  0  0  0  0
 17 38  1  0  0  0  0
 18 19  1  0  0  0  0
 19 20  1  0  0  0  0
 19 39  1  0  0  0  0
 19 40  1  0  0  0  0
 20 41  1  0  0  0  0
 20 42  1  0  0  0  0
M  CHG  1   2   1
M  END
> <s_m_source_file>
AV-unprocessed.smi

> <i_m_source_file_index>
934

> <i_lp_mmshare_version>
43012

> <i_f3d_flags>
0

> <s_epik_input>
W0NIMl0xW0NIMl1PW0NIMl1bQ0gyXUMxKE4oW0NIM10pW0NIM10pW0NIMl1bTkhdQyg9TylbTkhdYzJbY0hdW2NIXVtjSF1uW2NIXTI=

> <s_epik_cmdline>
J2VwaWtfcHl0aG9uJywgJy1waCcsICc3LjAnLCAnLXRuJywgJzgnLCAnLW1hJywgJzIwMCcsICctbWV0YWxfYmluZGluZycsICctaW1hZScsICc8aW5maWxlLm1hZT4nLCAnLW9tYWUnLCAnPG91dGZpbGUubWFlPic=

> <r_epik_Ionization_Penalty>
0.0170741

> <r_epik_Ionization_Penalty_Charging>
0.0128317

> <r_epik_Ionization_Penalty_Neutral>
0.00424236

> <r_epik_State_Penalty>
0.00995429

> <r_epik_Charging_Adjusted_Penalty>
0.022786

> <i_epik_Tot_Q>
1

> <i_epik_Tot_abs_Q>
1

> <r_epik_Metal_State_Penalty>
0.00996615

> <b_epik_Metal_Only>
0

> <s_lp_Force_Field>
OPLS_2005

> <r_lp_Energy>
34.8396

> <b_lp_Chiralities_Consistent>
1

> <s_lp_Variant>
AV-unprocessed.smi:934-1

> <Gold.Version>
5.8.1

> <Gold.Id.Protein>
6NUR|6NUR_protein|mol2

> <Gold.PLP.Fitness>
39.6475

> <Gold.PLP.PLP>
-27.4021

> <Gold.PLP.part.hbond>
-3.0000

> <Gold.PLP.part.metal>
0.0000

> <Gold.PLP.part.buried>
-1.7347

> <Gold.PLP.part.nonpolar>
-23.5983

> <Gold.PLP.part.repulsive>
0.5293

> <Gold.PLP.ligand.clash>
0.0000

> <Gold.PLP.ligand.torsion>
1.3063

> <Gold.PLP.Chemscore.Hbond>
3.9920

> <Gold.PLP.Chemscore.CHOScore>
0.9193

> <Gold.PLP.Chemscore.Metal>
0.0000

> <Gold.Chemscore.Hbonds>
donor molecule, donor type, donor heavy atom, donor atom, acceptor molecule, acceptor atom, score
      L1  H     2    43       P1  7948  2.00
      L1  H     6    29       P1  7948  1.00
      L1  H     9    30       P1  7948  0.96
      L1  C    15    34       P1 10747  0.97

> <Gold.PLP.Chemscore.Internal.Correction>
0.1240

> <Gold.Rescore>
     Score         DG    S(hbond)    S(metal)    S(lipo)     H(rot)  DE(clash)    DE(int)     intcor
     16.29     -19.75       2.83        0.00      73.76       1.49       0.26       3.20       ----

> <Gold.Chemscore.Fitness>
16.2886

> <Gold.Chemscore.DG>
-19.7475

> <Gold.Chemscore.ZeroCoef>
-5.4800

> <Gold.Chemscore.Hbond>
2.8335

> <Gold.Chemscore.Metal>
0.0000

> <Gold.Chemscore.Lipo>
73.7644

> <Gold.Chemscore.Internal_Hbond>
0.0000

> <Gold.Chemscore.DEClash>
0.2587

> <Gold.Chemscore.DEInternal>
3.2002

> <Gold.Chemscore.Rot>
1.4948

> <Gold.Chemscore.Internal.Correction>
   9.000000E+99

> <Gold.Chemscore.Hbonds>
donor molecule, donor type, donor heavy atom, donor atom, acceptor molecule, acceptor atom, score
      L1  H     2    43       P1  7948  0.98
      L1  H     6    29       P1  7948  0.97
      L1  H     9    30       P1  7948  0.85

> <Gold.Chemscore.Hbond.Weighted>
-9.4638

> <Gold.Chemscore.Metal.Weighted>
-0.0000

> <Gold.Chemscore.Lipo.Weighted>
-8.6304

> <Gold.Chemscore.Internal_Hbond.Weighted>
0.0000

> <Gold.Chemscore.DEClash.Weighted>
0.2587

> <Gold.Chemscore.DEInternal.Weighted>
3.2002

> <Gold.Chemscore.Rot.Weighted>
3.8267

> <Gold.Chemscore.Internal.Correction.Weighted>
   9.000000E+99

> <Gold.Protein.RotatedTorsions>
[ 6907 6896 6895 6894 ] final -121.08 input  -60.11 | X-H torsion
[ 7974 7965 7964 7962 ] final   51.50 input  175.53 | X-H torsion
[ 8008 7997 7996 7995 ] final    6.36 input   59.86 | X-H torsion
[ 10167 10162 10161 10158 ] final -124.05 input  -65.29 | X-H torsion
[ 10718 10713 10712 10709 ] final   20.33 input   66.30 | X-H torsion
[ 10763 10752 10751 10750 ] final   61.13 input  -60.55 | X-H torsion
[ 11005 11000 10999 10996 ] final  -93.32 input  -57.11 | X-H torsion

> <Gold.Protein.ActiveResidues>
 VAL166  LYS551  ARG553  GLY616  TRP617  ASP618  TYR619  PRO620  LYS621  CYS622 
 ASP623  PHE694  ASN695  SER759  ASP760  ASP761  ALA762  ILE779  LEU786  VAL792 
 PHE793  MET794  SER795  GLU796  ALA797  LYS798  CYS799  TRP800  GLU811  SER814 

> <Gold.Protein.RotatedAtoms>
  150.8450  133.7875  159.3046 H   0  0  0  0  0  0  0  0  0  0  0  0  # atno 6907 bound_to 6896
  151.5565  135.1065  159.9972 H   0  0  0  0  0  0  0  0  0  0  0  0  # atno 6908 bound_to 6896
  152.4506  133.7579  159.6786 H   0  0  0  0  0  0  0  0  0  0  0  0  # atno 6909 bound_to 6896
  145.9907  139.4336  143.0075 H   0  0  0  0  0  0  0  0  0  0  0  0  # atno 7974 bound_to 7965
  154.7400  140.2747  155.6381 H   0  0  0  0  0  0  0  0  0  0  0  0  # atno 8008 bound_to 7997
  156.2871  140.2699  156.2050 H   0  0  0  0  0  0  0  0  0  0  0  0  # atno 8009 bound_to 7997
  155.0271  140.0371  157.2449 H   0  0  0  0  0  0  0  0  0  0  0  0  # atno 8010 bound_to 7997
  139.9970  143.5581  152.2319 H   0  0  0  0  0  0  0  0  0  0  0  0  # atno 10167 bound_to 10162
  157.1230  130.6558  149.5929 H   0  0  0  0  0  0  0  0  0  0  0  0  # atno 10718 bound_to 10713
  152.9941  135.5511  154.5985 H   0  0  0  0  0  0  0  0  0  0  0  0  # atno 10763 bound_to 10752
  154.5332  135.2815  155.1164 H   0  0  0  0  0  0  0  0  0  0  0  0  # atno 10764 bound_to 10752
  154.2471  135.6405  153.5280 H   0  0  0  0  0  0  0  0  0  0  0  0  # atno 10765 bound_to 10752
  141.1500  133.7880  157.0143 H   0  0  0  0  0  0  0  0  0  0  0  0  # atno 11005 bound_to 11000
  145.7634  140.9926  143.1187 LP  0  0  0  0  0  0  0  0  0  0  0  0  # atno 17320 bound_to 7965
  144.6888  139.9359  143.7473 LP  0  0  0  0  0  0  0  0  0  0  0  0  # atno 17321 bound_to 7965
  139.6299  144.7643  151.2558 LP  0  0  0  0  0  0  0  0  0  0  0  0  # atno 17342 bound_to 10162
  140.7433  143.6498  150.8259 LP  0  0  0  0  0  0  0  0  0  0  0  0  # atno 17343 bound_to 10162
  155.9824  130.4838  150.6880 LP  0  0  0  0  0  0  0  0  0  0  0  0  # atno 17370 bound_to 10713
  157.4460  131.0867  151.0895 LP  0  0  0  0  0  0  0  0  0  0  0  0  # atno 17371 bound_to 10713
  140.0857  134.9622  157.1696 LP  0  0  0  0  0  0  0  0  0  0  0  0  # atno 17394 bound_to 11000
  140.3515  134.2594  155.7198 LP  0  0  0  0  0  0  0  0  0  0  0  0  # atno 17395 bound_to 11000

$$$$
