AV-unprocessed.smi:348|AV-procd|sdf|2395|dock2
  -GOLD-   2262022323D 1   1.00000     0.00000
 Structure written by MMmdl.
 39 40  0  0  0  0  0  0  0  0  1 V2000
  149.0119  136.9221  159.2900 C   0  0  0  0  0  0  0  0  0  0  0  0
  149.5751  135.7251  158.7776 O   0  0  0  0  0  0  0  0  0  0  0  0
  149.3275  135.5132  157.3952 C   0  0  0  0  0  0  0  0  0  0  0  0
  149.8248  136.6947  156.5415 C   0  0  0  0  0  0  0  0  0  0  0  0
  150.9882  137.3417  157.1151 N   0  0  0  0  0  0  0  0  0  0  0  0
  150.9863  138.6535  157.5979 C   0  0  0  0  0  0  0  0  0  0  0  0
  149.7963  139.3649  157.5411 N   0  0  0  0  0  0  0  0  0  0  0  0
  152.1002  139.2382  158.1296 C   0  0  0  0  0  0  0  0  0  0  0  0
  152.0555  140.5509  158.6016 N   0  0  0  0  0  0  0  0  0  0  0  0
  153.0889  141.3820  159.2014 C   0  0  0  0  0  0  0  0  0  0  0  0
  152.6385  142.8099  159.4451 C   0  0  0  0  0  0  0  0  0  0  0  0
  152.6095  143.3308  160.7566 C   0  0  0  0  0  0  0  0  0  0  0  0
  152.1931  144.6571  160.9836 C   0  0  0  0  0  0  0  0  0  0  0  0
  151.8059  145.4692  159.9002 C   0  0  0  0  0  0  0  0  0  0  0  0
  151.8361  144.9546  158.5897 C   0  0  0  0  0  0  0  0  0  0  0  0
  152.2528  143.6284  158.3622 C   0  0  0  0  0  0  0  0  0  0  0  0
  153.3584  138.4748  158.2149 C   0  0  0  0  0  0  0  0  0  0  0  0
  154.4340  138.8751  158.6574 O   0  0  0  0  0  0  0  0  0  0  0  0
  153.2861  137.1660  157.7441 N   0  0  0  0  0  0  0  0  0  0  0  0
  152.1591  136.5551  157.2100 C   0  0  0  0  0  0  0  0  0  0  0  0
  152.2223  135.3792  156.8495 O   0  0  0  0  0  0  0  0  0  0  0  0
  154.1265  136.6097  157.8016 H   0  0  0  0  0  0  0  0  0  0  0  0
  149.2808  137.0272  160.3409 H   0  0  0  0  0  0  0  0  0  0  0  0
  147.9240  136.9203  159.2269 H   0  0  0  0  0  0  0  0  0  0  0  0
  149.3923  137.7956  158.7593 H   0  0  0  0  0  0  0  0  0  0  0  0
  149.7667  134.5713  157.0624 H   0  0  0  0  0  0  0  0  0  0  0  0
  148.2490  135.4094  157.2743 H   0  0  0  0  0  0  0  0  0  0  0  0
  150.0728  136.3848  155.5250 H   0  0  0  0  0  0  0  0  0  0  0  0
  149.0658  137.4664  156.4217 H   0  0  0  0  0  0  0  0  0  0  0  0
  148.9507  138.9606  157.1655 H   0  0  0  0  0  0  0  0  0  0  0  0
  149.7222  140.3082  157.8940 H   0  0  0  0  0  0  0  0  0  0  0  0
  151.1736  141.0272  158.4841 H   0  0  0  0  0  0  0  0  0  0  0  0
  153.3871  140.9533  160.1588 H   0  0  0  0  0  0  0  0  0  0  0  0
  153.9679  141.3800  158.5554 H   0  0  0  0  0  0  0  0  0  0  0  0
  152.9080  142.7140  161.5920 H   0  0  0  0  0  0  0  0  0  0  0  0
  152.1718  145.0514  161.9887 H   0  0  0  0  0  0  0  0  0  0  0  0
  151.4870  146.4863  160.0743 H   0  0  0  0  0  0  0  0  0  0  0  0
  151.5397  145.5772  157.7586 H   0  0  0  0  0  0  0  0  0  0  0  0
  152.2726  143.2429  157.3532 H   0  0  0  0  0  0  0  0  0  0  0  0
  1  2  1  0  0  0  0
  1 23  1  0  0  0  0
  1 24  1  0  0  0  0
  1 25  1  0  0  0  0
  2  3  1  0  0  0  0
  3  4  1  0  0  0  0
  3 26  1  0  0  0  0
  3 27  1  0  0  0  0
  4  5  1  0  0  0  0
  4 28  1  0  0  0  0
  4 29  1  0  0  0  0
  5 20  1  0  0  0  0
  5  6  1  0  0  0  0
  6  7  1  0  0  0  0
  6  8  2  0  0  0  0
  7 30  1  0  0  0  0
  7 31  1  0  0  0  0
  8  9  1  0  0  0  0
  8 17  1  0  0  0  0
  9 10  1  0  0  0  0
  9 32  1  0  0  0  0
 10 11  1  0  0  0  0
 10 33  1  0  0  0  0
 10 34  1  0  0  0  0
 11 16  1  0  0  0  0
 11 12  2  0  0  0  0
 12 13  1  0  0  0  0
 12 35  1  0  0  0  0
 13 14  2  0  0  0  0
 13 36  1  0  0  0  0
 14 15  1  0  0  0  0
 14 37  1  0  0  0  0
 15 16  2  0  0  0  0
 15 38  1  0  0  0  0
 16 39  1  0  0  0  0
 17 18  2  0  0  0  0
 17 19  1  0  0  0  0
 19 22  1  0  0  0  0
 19 20  1  0  0  0  0
 20 21  2  0  0  0  0
M  END
> <s_m_source_file>
AV-unprocessed.smi

> <i_m_source_file_index>
348

> <i_lp_mmshare_version>
43012

> <i_f3d_flags>
0

> <s_epik_input>
W0NIM11PW0NIMl1bQ0gyXW4xYyhbTkgyXSljKGMoPU8pW25IXWMxPU8pW05IXVtDSDJdYzJbY0hdW2NIXVtjSF1bY0hdW2NIXTI=

> <s_epik_cmdline>
J2VwaWtfcHl0aG9uJywgJy1waCcsICc3LjAnLCAnLXRuJywgJzgnLCAnLW1hJywgJzIwMCcsICctbWV0YWxfYmluZGluZycsICctaW1hZScsICc8aW5maWxlLm1hZT4nLCAnLW9tYWUnLCAnPG91dGZpbGUubWFlPic=

> <r_lp_tautomer_probability>
1

> <r_epik_Ionization_Penalty>
5.85579e-06

> <r_epik_Ionization_Penalty_Charging>
2.30036e-06

> <r_epik_Ionization_Penalty_Neutral>
3.55543e-06

> <r_epik_State_Penalty>
-0

> <r_epik_Charging_Adjusted_Penalty>
2.30036e-06

> <i_epik_Tot_Q>
0

> <i_epik_Tot_abs_Q>
0

> <r_epik_Metal_State_Penalty>
-0

> <b_epik_Metal_Only>
0

> <s_epik_Chemistry_Notes>
This compound has an imine and may undergo hydrolysis.

> <s_lp_Force_Field>
OPLS_2005

> <r_lp_Energy>
18.6076

> <b_lp_Chiralities_Consistent>
1

> <s_lp_Variant>
AV-unprocessed.smi:348-1

> <Gold.Version>
5.8.1

> <Gold.Id.Protein>
6NUR|6NUR_protein|mol2

> <Gold.PLP.Fitness>
45.8634

> <Gold.PLP.PLP>
-37.2313

> <Gold.PLP.part.hbond>
-3.0000

> <Gold.PLP.part.metal>
0.0000

> <Gold.PLP.part.buried>
-5.6496

> <Gold.PLP.part.nonpolar>
-28.4203

> <Gold.PLP.part.repulsive>
0.3531

> <Gold.PLP.ligand.clash>
0.0000

> <Gold.PLP.ligand.torsion>
0.2196

> <Gold.PLP.Chemscore.Hbond>
3.0000

> <Gold.PLP.Chemscore.CHOScore>
0.0000

> <Gold.PLP.Chemscore.Metal>
0.0000

> <Gold.Chemscore.Hbonds>
donor molecule, donor type, donor heavy atom, donor atom, acceptor molecule, acceptor atom, score
      P1  H  6896  6907       L1     2  1.00
      P1  H  7997  8010       L1    18  1.00
      P1  H 10752 10764       L1    21  1.00

> <Gold.PLP.Chemscore.Internal.Correction>
0.0714

> <Gold.Rescore>
     Score         DG    S(hbond)    S(metal)    S(lipo)     H(rot)  DE(clash)    DE(int)     intcor
     17.87     -20.49       2.77        0.00      95.12       2.10       0.01       2.60       ----

> <Gold.Chemscore.Fitness>
17.8739

> <Gold.Chemscore.DG>
-20.4900

> <Gold.Chemscore.ZeroCoef>
-5.4800

> <Gold.Chemscore.Hbond>
2.7692

> <Gold.Chemscore.Metal>
0.0000

> <Gold.Chemscore.Lipo>
95.1168

> <Gold.Chemscore.Internal_Hbond>
0.0000

> <Gold.Chemscore.DEClash>
0.0144

> <Gold.Chemscore.DEInternal>
2.6017

> <Gold.Chemscore.Rot>
2.0968

> <Gold.Chemscore.Internal.Correction>
   9.000000E+99

> <Gold.Chemscore.Hbonds>
donor molecule, donor type, donor heavy atom, donor atom, acceptor molecule, acceptor atom, score
      P1  H  6896  6907       L1     2  0.98
      P1  H  7997  8010       L1    18  0.26
      P1  H 10752 10764       L1    21  0.49

> <Gold.Chemscore.Hbond.Weighted>
-9.2490

> <Gold.Chemscore.Metal.Weighted>
-0.0000

> <Gold.Chemscore.Lipo.Weighted>
-11.1287

> <Gold.Chemscore.Internal_Hbond.Weighted>
0.0000

> <Gold.Chemscore.DEClash.Weighted>
0.0144

> <Gold.Chemscore.DEInternal.Weighted>
2.6017

> <Gold.Chemscore.Rot.Weighted>
5.3677

> <Gold.Chemscore.Internal.Correction.Weighted>
   9.000000E+99

> <Gold.Protein.RotatedTorsions>
[ 6907 6896 6895 6894 ] final  -52.65 input  -60.11 | X-H torsion
[ 7974 7965 7964 7962 ] final  113.86 input  175.53 | X-H torsion
[ 8008 7997 7996 7995 ] final   10.42 input   59.86 | X-H torsion
[ 10167 10162 10161 10158 ] final  119.05 input  -65.29 | X-H torsion
[ 10718 10713 10712 10709 ] final -114.00 input   66.30 | X-H torsion
[ 10763 10752 10751 10750 ] final  -22.90 input  -60.55 | X-H torsion
[ 11005 11000 10999 10996 ] final  -98.63 input  -57.11 | X-H torsion

> <Gold.Protein.ActiveResidues>
 VAL166  LYS551  ARG553  GLY616  TRP617  ASP618  TYR619  PRO620  LYS621  CYS622 
 ASP623  PHE694  ASN695  SER759  ASP760  ASP761  ALA762  ILE779  LEU786  VAL792 
 PHE793  MET794  SER795  GLU796  ALA797  LYS798  CYS799  TRP800  GLU811  SER814 

> <Gold.Protein.RotatedAtoms>
  150.8498  134.7819  159.6999 H   0  0  0  0  0  0  0  0  0  0  0  0  # atno 6907 bound_to 6896
  152.4566  134.5275  159.9811 H   0  0  0  0  0  0  0  0  0  0  0  0  # atno 6908 bound_to 6896
  151.5398  133.3396  159.2969 H   0  0  0  0  0  0  0  0  0  0  0  0  # atno 6909 bound_to 6896
  145.2117  139.2903  143.4265 H   0  0  0  0  0  0  0  0  0  0  0  0  # atno 7974 bound_to 7965
  154.7932  140.2839  155.5976 H   0  0  0  0  0  0  0  0  0  0  0  0  # atno 8008 bound_to 7997
  156.2967  140.2601  156.2713 H   0  0  0  0  0  0  0  0  0  0  0  0  # atno 8009 bound_to 7997
  154.9645  140.0377  157.2195 H   0  0  0  0  0  0  0  0  0  0  0  0  # atno 8010 bound_to 7997
  139.6071  144.7072  151.2929 H   0  0  0  0  0  0  0  0  0  0  0  0  # atno 10167 bound_to 10162
  156.0802  130.6003  150.8717 H   0  0  0  0  0  0  0  0  0  0  0  0  # atno 10718 bound_to 10713
  153.6592  135.6977  153.5183 H   0  0  0  0  0  0  0  0  0  0  0  0  # atno 10763 bound_to 10752
  153.2645  135.4234  155.0926 H   0  0  0  0  0  0  0  0  0  0  0  0  # atno 10764 bound_to 10752
  154.8456  135.3563  154.6137 H   0  0  0  0  0  0  0  0  0  0  0  0  # atno 10765 bound_to 10752
  141.1338  133.8260  157.0865 H   0  0  0  0  0  0  0  0  0  0  0  0  # atno 11005 bound_to 11000
  146.3396  140.2395  142.8595 LP  0  0  0  0  0  0  0  0  0  0  0  0  # atno 17320 bound_to 7965
  144.9850  140.8494  143.5374 LP  0  0  0  0  0  0  0  0  0  0  0  0  # atno 17321 bound_to 7965
  140.7292  143.6913  150.7920 LP  0  0  0  0  0  0  0  0  0  0  0  0  # atno 17342 bound_to 10162
  140.0501  143.5259  152.2678 LP  0  0  0  0  0  0  0  0  0  0  0  0  # atno 17343 bound_to 10162
  157.5916  131.0944  150.9110 LP  0  0  0  0  0  0  0  0  0  0  0  0  # atno 17370 bound_to 10713
  156.9284  130.5341  149.5279 LP  0  0  0  0  0  0  0  0  0  0  0  0  # atno 17371 bound_to 10713
  140.0419  134.9850  157.0977 LP  0  0  0  0  0  0  0  0  0  0  0  0  # atno 17394 bound_to 11000
  140.4122  134.1969  155.7163 LP  0  0  0  0  0  0  0  0  0  0  0  0  # atno 17395 bound_to 11000

$$$$
