AV-unprocessed.smi:1697|AV-procd|sdf|6803|dock5
  -GOLD-   22720 7573D 1   1.00000     0.00000
 Structure written by MMmdl.
 54 56  0  0  0  0  0  0  0  0  2 V2000
  144.8167  132.0894  150.0877 C   0  0  0  0  0  0  0  0  0  0  0  0
  145.1659  132.2404  151.5700 C   0  0  0  0  0  0  0  0  0  0  0  0
  146.5620  132.4717  151.6864 O   0  0  0  0  0  0  0  0  0  0  0  0
  146.9668  133.0476  152.9213 C   0  0  2  0  0  0  0  0  0  0  0  0
  146.6025  134.5426  152.9886 C   0  0  0  0  0  0  0  0  0  0  0  0
  147.1939  135.2029  154.2456 C   0  0  0  0  0  0  0  0  0  0  0  0
  148.6688  135.0214  154.3033 N   0  3  1  0  0  0  0  0  0  0  0  0
  149.3118  135.7585  155.4217 C   0  0  0  0  0  0  0  0  0  0  0  0
  149.6117  137.2262  155.0596 C   0  0  2  0  0  0  0  0  0  0  0  0
  150.5821  137.2520  154.0299 O   0  0  0  0  0  0  0  0  0  0  0  0
  150.1335  138.0244  156.2700 C   0  0  0  0  0  0  0  0  0  0  0  0
  150.3580  139.4228  155.9518 N   0  0  0  0  0  0  0  0  0  0  0  0
  149.9781  140.0784  154.8378 C   0  0  0  0  0  0  0  0  0  0  0  0
  150.2830  141.3702  154.7583 N   0  0  0  0  0  0  0  0  0  0  0  0
  150.9407  141.5764  155.9588 C   0  0  0  0  0  0  0  0  0  0  0  0
  151.5211  142.7450  156.4981 C   0  0  0  0  0  0  0  0  0  0  0  0
  152.1505  142.7242  157.7632 C   0  0  0  0  0  0  0  0  0  0  0  0
  152.7592  144.0049  158.3063 C   0  0  0  0  0  0  0  0  0  0  0  0
  152.2078  141.5192  158.5089 C   0  0  0  0  0  0  0  0  0  0  0  0
  152.8823  141.4724  159.8683 C   0  0  0  0  0  0  0  0  0  0  0  0
  151.6311  140.3430  157.9860 C   0  0  0  0  0  0  0  0  0  0  0  0
  151.0064  140.3773  156.7269 C   0  0  0  0  0  0  0  0  0  0  0  0
  149.0402  133.5835  154.2819 C   0  0  0  0  0  0  0  0  0  0  0  0
  148.4912  132.8918  153.0236 C   0  0  0  0  0  0  0  0  0  0  0  0
  143.7502  131.9054  149.9555 H   0  0  0  0  0  0  0  0  0  0  0  0
  145.3582  131.2552  149.6410 H   0  0  0  0  0  0  0  0  0  0  0  0
  145.0718  132.9918  149.5312 H   0  0  0  0  0  0  0  0  0  0  0  0
  144.5978  133.0666  151.9973 H   0  0  0  0  0  0  0  0  0  0  0  0
  144.8875  131.3334  152.1085 H   0  0  0  0  0  0  0  0  0  0  0  0
  146.5065  132.5121  153.7539 H   0  0  0  0  0  0  0  0  0  0  0  0
  146.9760  135.0528  152.0995 H   0  0  0  0  0  0  0  0  0  0  0  0
  145.5208  134.6750  152.9895 H   0  0  0  0  0  0  0  0  0  0  0  0
  146.9404  136.2623  154.2397 H   0  0  0  0  0  0  0  0  0  0  0  0
  146.7382  134.7762  155.1406 H   0  0  0  0  0  0  0  0  0  0  0  0
  148.6725  135.7022  156.3042 H   0  0  0  0  0  0  0  0  0  0  0  0
  150.2498  135.2737  155.6976 H   0  0  0  0  0  0  0  0  0  0  0  0
  148.7115  137.7140  154.6868 H   0  0  0  0  0  0  0  0  0  0  0  0
  150.2086  136.8690  153.2503 H   0  0  0  0  0  0  0  0  0  0  0  0
  149.4169  137.9756  157.0908 H   0  0  0  0  0  0  0  0  0  0  0  0
  151.0647  137.5952  156.6432 H   0  0  0  0  0  0  0  0  0  0  0  0
  149.4426  139.5808  154.0425 H   0  0  0  0  0  0  0  0  0  0  0  0
  151.4788  143.6620  155.9290 H   0  0  0  0  0  0  0  0  0  0  0  0
  153.8306  143.8810  158.4656 H   0  0  0  0  0  0  0  0  0  0  0  0
  152.2959  144.2755  159.2554 H   0  0  0  0  0  0  0  0  0  0  0  0
  152.6175  144.8373  157.6163 H   0  0  0  0  0  0  0  0  0  0  0  0
  152.8605  140.4667  160.2889 H   0  0  0  0  0  0  0  0  0  0  0  0
  152.3779  142.1395  160.5677 H   0  0  0  0  0  0  0  0  0  0  0  0
  153.9258  141.7784  159.7886 H   0  0  0  0  0  0  0  0  0  0  0  0
  151.6666  139.4190  158.5436 H   0  0  0  0  0  0  0  0  0  0  0  0
  150.1261  133.4827  154.2965 H   0  0  0  0  0  0  0  0  0  0  0  0
  148.6621  133.0926  155.1802 H   0  0  0  0  0  0  0  0  0  0  0  0
  148.7566  131.8341  153.0354 H   0  0  0  0  0  0  0  0  0  0  0  0
  148.9655  133.3190  152.1387 H   0  0  0  0  0  0  0  0  0  0  0  0
  149.0478  135.4192  153.4551 H   0  0  0  0  0  0  0  0  0  0  0  0
  1  2  1  0  0  0  0
  1 25  1  0  0  0  0
  1 26  1  0  0  0  0
  1 27  1  0  0  0  0
  2  3  1  0  0  0  0
  2 28  1  0  0  0  0
  2 29  1  0  0  0  0
  3  4  1  0  0  0  0
  4 24  1  0  0  0  0
  4  5  1  0  0  0  0
  4 30  1  0  0  0  0
  5  6  1  0  0  0  0
  5 31  1  0  0  0  0
  5 32  1  0  0  0  0
  6  7  1  0  0  0  0
  6 33  1  0  0  0  0
  6 34  1  0  0  0  0
  7  8  1  0  0  0  0
  7 23  1  0  0  0  0
  7 54  1  0  0  0  0
  8  9  1  0  0  0  0
  8 35  1  0  0  0  0
  8 36  1  0  0  0  0
  9 10  1  0  0  0  0
  9 11  1  0  0  0  0
  9 37  1  0  0  0  0
 10 38  1  0  0  0  0
 11 12  1  0  0  0  0
 11 39  1  0  0  0  0
 11 40  1  0  0  0  0
 12 22  1  0  0  0  0
 12 13  1  0  0  0  0
 13 14  2  0  0  0  0
 13 41  1  0  0  0  0
 14 15  1  0  0  0  0
 15 22  2  0  0  0  0
 15 16  1  0  0  0  0
 16 17  2  0  0  0  0
 16 42  1  0  0  0  0
 17 18  1  0  0  0  0
 17 19  1  0  0  0  0
 18 43  1  0  0  0  0
 18 44  1  0  0  0  0
 18 45  1  0  0  0  0
 19 20  1  0  0  0  0
 19 21  2  0  0  0  0
 20 46  1  0  0  0  0
 20 47  1  0  0  0  0
 20 48  1  0  0  0  0
 21 22  1  0  0  0  0
 21 49  1  0  0  0  0
 23 24  1  0  0  0  0
 23 50  1  0  0  0  0
 23 51  1  0  0  0  0
 24 52  1  0  0  0  0
 24 53  1  0  0  0  0
M  CHG  1   7   1
M  END
> <s_m_source_file>
AV-unprocessed.smi

> <i_m_source_file_index>
1697

> <i_lp_mmshare_version>
43012

> <i_f3d_flags>
0

> <s_epik_input>
W0NIM11bQ0gyXU9bQ0hdMVtDSDJdW0NIMl1OKFtDSDJdW0NIMl0xKVtDSDJdW0NASF0oW09IXSlbQ0gyXW4oW2NIXW4yKWMoYzIzKVtjSF1jKFtDSDNdKWMoW2NIXTMpW0NIM10=

> <s_epik_cmdline>
J2VwaWtfcHl0aG9uJywgJy1waCcsICc3LjAnLCAnLXRuJywgJzgnLCAnLW1hJywgJzIwMCcsICctbWV0YWxfYmluZGluZycsICctaW1hZScsICc8aW5maWxlLm1hZT4nLCAnLW9tYWUnLCAnPG91dGZpbGUubWFlPic=

> <r_epik_Ionization_Penalty>
0.112476

> <r_epik_Ionization_Penalty_Charging>
0.0244612

> <r_epik_Ionization_Penalty_Neutral>
0.0880147

> <r_epik_State_Penalty>
0.0961447

> <r_epik_Charging_Adjusted_Penalty>
0.120606

> <i_epik_Tot_Q>
1

> <i_epik_Tot_abs_Q>
1

> <r_epik_Metal_State_Penalty>
0.0206204

> <b_epik_Metal_Only>
0

> <s_lp_Force_Field>
OPLS_2005

> <r_lp_Energy>
22.6968

> <b_lp_Chiralities_Consistent>
1

> <s_lp_Variant>
AV-unprocessed.smi:1697-1

> <Gold.Version>
5.8.1

> <Gold.Id.Protein>
6NUR|6NUR_protein|mol2

> <Gold.PLP.Fitness>
50.6333

> <Gold.PLP.PLP>
-42.7670

> <Gold.PLP.part.hbond>
-3.7103

> <Gold.PLP.part.metal>
0.0000

> <Gold.PLP.part.buried>
-4.6538

> <Gold.PLP.part.nonpolar>
-35.1121

> <Gold.PLP.part.repulsive>
0.2732

> <Gold.PLP.ligand.clash>
0.0000

> <Gold.PLP.ligand.torsion>
0.6531

> <Gold.PLP.Chemscore.Hbond>
3.0000

> <Gold.PLP.Chemscore.CHOScore>
0.0000

> <Gold.PLP.Chemscore.Metal>
0.0000

> <Gold.Chemscore.Hbonds>
donor molecule, donor type, donor heavy atom, donor atom, acceptor molecule, acceptor atom, score
      L1  H     7    54       P1  7948  2.00
      L1  H    10    38       P1  7948  0.55
      P1  H  7989  7998       L1    14  0.19
      L1  C    13    41       P1  7957  0.02

> <Gold.PLP.Chemscore.Internal.Correction>
0.1726

> <Gold.Rescore>
     Score         DG    S(hbond)    S(metal)    S(lipo)     H(rot)  DE(clash)    DE(int)     intcor
     18.43     -19.27       1.82        0.00     115.73       2.27       0.06       0.78       ----

> <Gold.Chemscore.Fitness>
18.4304

> <Gold.Chemscore.DG>
-19.2735

> <Gold.Chemscore.ZeroCoef>
-5.4800

> <Gold.Chemscore.Hbond>
1.8164

> <Gold.Chemscore.Metal>
0.0000

> <Gold.Chemscore.Lipo>
115.7302

> <Gold.Chemscore.Internal_Hbond>
0.0000

> <Gold.Chemscore.DEClash>
0.0649

> <Gold.Chemscore.DEInternal>
0.7782

> <Gold.Chemscore.Rot>
2.2710

> <Gold.Chemscore.Internal.Correction>
   9.000000E+99

> <Gold.Chemscore.Hbonds>
donor molecule, donor type, donor heavy atom, donor atom, acceptor molecule, acceptor atom, score
      L1  H     7    54       P1  7948  0.59
      L1  H    10    38       P1  7948  0.03

> <Gold.Chemscore.Hbond.Weighted>
-6.0667

> <Gold.Chemscore.Metal.Weighted>
-0.0000

> <Gold.Chemscore.Lipo.Weighted>
-13.5404

> <Gold.Chemscore.Internal_Hbond.Weighted>
0.0000

> <Gold.Chemscore.DEClash.Weighted>
0.0649

> <Gold.Chemscore.DEInternal.Weighted>
0.7782

> <Gold.Chemscore.Rot.Weighted>
5.8137

> <Gold.Chemscore.Internal.Correction.Weighted>
   9.000000E+99

> <Gold.Protein.RotatedTorsions>
[ 6907 6896 6895 6894 ] final -158.79 input  -60.11 | X-H torsion
[ 7974 7965 7964 7962 ] final -164.44 input  175.53 | X-H torsion
[ 8008 7997 7996 7995 ] final  144.45 input   59.86 | X-H torsion
[ 10167 10162 10161 10158 ] final   38.39 input  -65.29 | X-H torsion
[ 10718 10713 10712 10709 ] final  -30.89 input   66.30 | X-H torsion
[ 10763 10752 10751 10750 ] final  -43.20 input  -60.55 | X-H torsion
[ 11005 11000 10999 10996 ] final  162.72 input  -57.11 | X-H torsion

> <Gold.Protein.ActiveResidues>
 VAL166  LYS551  ARG553  GLY616  TRP617  ASP618  TYR619  PRO620  LYS621  CYS622 
 ASP623  PHE694  ASN695  SER759  ASP760  ASP761  ALA762  ILE779  LEU786  VAL792 
 PHE793  MET794  SER795  GLU796  ALA797  LYS798  CYS799  TRP800  GLU811  SER814 

> <Gold.Protein.RotatedAtoms>
  151.3237  133.4029  159.2656 H   0  0  0  0  0  0  0  0  0  0  0  0  # atno 6907 bound_to 6896
  151.0013  134.9325  159.7966 H   0  0  0  0  0  0  0  0  0  0  0  0  # atno 6908 bound_to 6896
  152.5276  134.3202  159.9198 H   0  0  0  0  0  0  0  0  0  0  0  0  # atno 6909 bound_to 6896
  144.7297  140.2960  143.6212 H   0  0  0  0  0  0  0  0  0  0  0  0  # atno 7974 bound_to 7965
  156.2907  140.2235  156.5056 H   0  0  0  0  0  0  0  0  0  0  0  0  # atno 8008 bound_to 7997
  154.7653  140.0470  157.1028 H   0  0  0  0  0  0  0  0  0  0  0  0  # atno 8009 bound_to 7997
  154.9941  140.3093  155.4897 H   0  0  0  0  0  0  0  0  0  0  0  0  # atno 8010 bound_to 7997
  140.3941  144.1812  150.6131 H   0  0  0  0  0  0  0  0  0  0  0  0  # atno 10167 bound_to 10162
  156.3942  130.4378  149.7372 H   0  0  0  0  0  0  0  0  0  0  0  0  # atno 10718 bound_to 10713
  153.9917  135.6704  153.4754 H   0  0  0  0  0  0  0  0  0  0  0  0  # atno 10763 bound_to 10752
  153.0702  135.4978  154.8284 H   0  0  0  0  0  0  0  0  0  0  0  0  # atno 10764 bound_to 10752
  154.7105  135.3096  154.9167 H   0  0  0  0  0  0  0  0  0  0  0  0  # atno 10765 bound_to 10752
  140.2286  134.8141  157.3294 H   0  0  0  0  0  0  0  0  0  0  0  0  # atno 11005 bound_to 11000
  145.7808  139.1890  143.2159 LP  0  0  0  0  0  0  0  0  0  0  0  0  # atno 17320 bound_to 7965
  146.0835  140.7737  142.9630 LP  0  0  0  0  0  0  0  0  0  0  0  0  # atno 17321 bound_to 7965
  140.4809  143.2379  151.8957 LP  0  0  0  0  0  0  0  0  0  0  0  0  # atno 17342 bound_to 10162
  139.4787  144.5271  151.8720 LP  0  0  0  0  0  0  0  0  0  0  0  0  # atno 17343 bound_to 10162
  156.4413  130.7862  151.2884 LP  0  0  0  0  0  0  0  0  0  0  0  0  # atno 17370 bound_to 10713
  157.7500  131.0124  150.3382 LP  0  0  0  0  0  0  0  0  0  0  0  0  # atno 17371 bound_to 10713
  140.1774  134.4532  155.7793 LP  0  0  0  0  0  0  0  0  0  0  0  0  # atno 17394 bound_to 11000
  141.2219  133.6968  156.7811 LP  0  0  0  0  0  0  0  0  0  0  0  0  # atno 17395 bound_to 11000

$$$$
