AV-unprocessed.smi:34|AV-procd|sdf|230|dock10
  -GOLD-   2262015563D 1   1.00000     0.00000
 Structure written by MMmdl.
 55 59  0  0  0  0  0  0  0  0  1 V2000
  145.4816  138.1041  160.7891 O   0  0  0  0  0  0  0  0  0  0  0  0
  145.5937  136.9015  161.0289 C   0  0  0  0  0  0  0  0  0  0  0  0
  146.7583  136.1362  160.6207 N   0  0  0  0  0  0  0  0  0  0  0  0
  147.8091  136.5471  159.8733 C   0  0  0  0  0  0  0  0  0  0  0  0
  149.0053  136.8898  160.4209 N   0  0  0  0  0  0  0  0  0  0  0  0
  150.0119  137.2949  159.6407 C   0  0  0  0  0  0  0  0  0  0  0  0
  150.0352  137.4329  158.3129 N   0  0  0  0  0  0  0  0  0  0  0  0
  148.8359  137.0935  157.7584 C   0  0  0  0  0  0  0  0  0  0  0  0
  147.6855  136.6440  158.4629 C   0  0  0  0  0  0  0  0  0  0  0  0
  146.6561  136.3899  157.5657 N   0  0  0  0  0  0  0  0  0  0  0  0
  147.1746  136.6715  156.4000 C   0  0  0  0  0  0  0  0  0  0  0  0
  148.4808  137.1167  156.4280 N   0  0  0  0  0  0  0  0  0  0  0  0
  149.3769  137.5197  155.2980 C   0  0  1  0  0  0  0  0  0  0  0  0
  149.5045  138.9110  155.3223 O   0  0  0  0  0  0  0  0  0  0  0  0
  150.7036  139.2498  156.0100 C   0  0  2  0  0  0  0  0  0  0  0  0
  151.1107  140.6994  155.7247 C   0  0  0  0  0  0  0  0  0  0  0  0
  151.0363  141.4320  156.9365 O   0  0  0  0  0  0  0  0  0  0  0  0
  152.0187  141.3307  157.8509 C   0  0  0  0  0  0  0  0  0  0  0  0
  152.7844  140.3676  157.9266 O   0  0  0  0  0  0  0  0  0  0  0  0
  152.0811  142.5079  158.7647 C   0  0  0  0  0  0  0  0  0  0  0  0
  151.7769  143.7941  158.2606 C   0  0  0  0  0  0  0  0  0  0  0  0
  151.8272  144.9239  159.1000 C   0  0  0  0  0  0  0  0  0  0  0  0
  152.1806  144.7812  160.4544 C   0  0  0  0  0  0  0  0  0  0  0  0
  152.4845  143.5072  160.9686 C   0  0  0  0  0  0  0  0  0  0  0  0
  152.4362  142.3762  160.1304 C   0  0  0  0  0  0  0  0  0  0  0  0
  151.6629  138.1925  155.4709 C   0  0  2  0  0  0  0  0  0  0  0  0
  151.9838  138.5057  154.2119 F   0  0  0  0  0  0  0  0  0  0  0  0
  150.7899  136.9448  155.5211 C   0  0  2  0  0  0  0  0  0  0  0  0
  151.1779  135.9967  154.5475 O   0  0  0  0  0  0  0  0  0  0  0  0
  144.5734  136.1599  161.8423 C   0  0  0  0  0  0  0  0  0  0  0  0
  144.8928  134.9019  162.4009 C   0  0  0  0  0  0  0  0  0  0  0  0
  143.9460  134.2059  163.1775 C   0  0  0  0  0  0  0  0  0  0  0  0
  142.6753  134.7654  163.4091 C   0  0  0  0  0  0  0  0  0  0  0  0
  142.3533  136.0239  162.8671 C   0  0  0  0  0  0  0  0  0  0  0  0
  143.2990  136.7208  162.0897 C   0  0  0  0  0  0  0  0  0  0  0  0
  146.7799  135.1725  160.9203 H   0  0  0  0  0  0  0  0  0  0  0  0
  150.9288  137.5448  160.1538 H   0  0  0  0  0  0  0  0  0  0  0  0
  146.6081  136.5611  155.4866 H   0  0  0  0  0  0  0  0  0  0  0  0
  148.8704  137.1762  154.3951 H   0  0  0  0  0  0  0  0  0  0  0  0
  150.5717  139.1031  157.0839 H   0  0  0  0  0  0  0  0  0  0  0  0
  152.1349  140.7319  155.3509 H   0  0  0  0  0  0  0  0  0  0  0  0
  150.4645  141.1421  154.9656 H   0  0  0  0  0  0  0  0  0  0  0  0
  151.5017  143.9282  157.2242 H   0  0  0  0  0  0  0  0  0  0  0  0
  151.5937  145.9009  158.7034 H   0  0  0  0  0  0  0  0  0  0  0  0
  152.2185  145.6478  161.0982 H   0  0  0  0  0  0  0  0  0  0  0  0
  152.7556  143.3966  162.0082 H   0  0  0  0  0  0  0  0  0  0  0  0
  152.6741  141.4132  160.5581 H   0  0  0  0  0  0  0  0  0  0  0  0
  152.5859  138.1028  156.0443 H   0  0  0  0  0  0  0  0  0  0  0  0
  150.8543  136.4933  156.5127 H   0  0  0  0  0  0  0  0  0  0  0  0
  150.6502  136.1299  153.7745 H   0  0  0  0  0  0  0  0  0  0  0  0
  145.8641  134.4593  162.2330 H   0  0  0  0  0  0  0  0  0  0  0  0
  144.1957  133.2422  163.5966 H   0  0  0  0  0  0  0  0  0  0  0  0
  141.9501  134.2315  164.0050 H   0  0  0  0  0  0  0  0  0  0  0  0
  141.3808  136.4568  163.0499 H   0  0  0  0  0  0  0  0  0  0  0  0
  143.0349  137.6897  161.6917 H   0  0  0  0  0  0  0  0  0  0  0  0
  1  2  2  0  0  0  0
  2  3  1  0  0  0  0
  2 30  1  0  0  0  0
  3  4  1  0  0  0  0
  3 36  1  0  0  0  0
  4  9  1  0  0  0  0
  4  5  2  0  0  0  0
  5  6  1  0  0  0  0
  6  7  2  0  0  0  0
  6 37  1  0  0  0  0
  7  8  1  0  0  0  0
  8 12  1  0  0  0  0
  8  9  2  0  0  0  0
  9 10  1  0  0  0  0
 10 11  2  0  0  0  0
 11 12  1  0  0  0  0
 11 38  1  0  0  0  0
 12 13  1  0  0  0  0
 13 28  1  0  0  0  0
 13 14  1  0  0  0  0
 13 39  1  0  0  0  0
 14 15  1  0  0  0  0
 15 16  1  0  0  0  0
 15 26  1  0  0  0  0
 15 40  1  0  0  0  0
 16 17  1  0  0  0  0
 16 41  1  0  0  0  0
 16 42  1  0  0  0  0
 17 18  1  0  0  0  0
 18 19  2  0  0  0  0
 18 20  1  0  0  0  0
 20 25  1  0  0  0  0
 20 21  2  0  0  0  0
 21 22  1  0  0  0  0
 21 43  1  0  0  0  0
 22 23  2  0  0  0  0
 22 44  1  0  0  0  0
 23 24  1  0  0  0  0
 23 45  1  0  0  0  0
 24 25  2  0  0  0  0
 24 46  1  0  0  0  0
 25 47  1  0  0  0  0
 26 27  1  0  0  0  0
 26 28  1  0  0  0  0
 26 48  1  0  0  0  0
 28 29  1  0  0  0  0
 28 49  1  0  0  0  0
 29 50  1  0  0  0  0
 30 35  1  0  0  0  0
 30 31  2  0  0  0  0
 31 32  1  0  0  0  0
 31 51  1  0  0  0  0
 32 33  2  0  0  0  0
 32 52  1  0  0  0  0
 33 34  1  0  0  0  0
 33 53  1  0  0  0  0
 34 35  2  0  0  0  0
 34 54  1  0  0  0  0
 35 55  1  0  0  0  0
M  END
> <s_m_source_file>
AV-unprocessed.smi

> <i_m_source_file_index>
34

> <i_lp_mmshare_version>
43012

> <i_f3d_flags>
0

> <s_epik_input>
W2NIXTFbY0hdW2NIXVtjSF1bY0hdYzFDKD1PKVtOSF1jKG5bY0hdbjIpYyhjMjMpbltjSF1uM1tDQEBIXTRPW0NASF0oW0NAQEhdKEYpW0NASF00W09IXSlbQ0gyXU9DKD1PKWM1W2NIXVtjSF1bY0hdW2NIXVtjSF01

> <s_epik_cmdline>
J2VwaWtfcHl0aG9uJywgJy1waCcsICc3LjAnLCAnLXRuJywgJzgnLCAnLW1hJywgJzIwMCcsICctbWV0YWxfYmluZGluZycsICctaW1hZScsICc8aW5maWxlLm1hZT4nLCAnLW9tYWUnLCAnPG91dGZpbGUubWFlPic=

> <r_lp_tautomer_probability>
1

> <r_epik_Ionization_Penalty>
0.00257489

> <r_epik_Ionization_Penalty_Charging>
0

> <r_epik_Ionization_Penalty_Neutral>
0.00257489

> <r_epik_State_Penalty>
0.00519398

> <r_epik_Charging_Adjusted_Penalty>
0.00519398

> <i_epik_Tot_Q>
0

> <i_epik_Tot_abs_Q>
0

> <r_epik_Metal_State_Penalty>
0.335891

> <b_epik_Metal_Only>
0

> <s_epik_Chemistry_Notes>
This compound has an ester and may undergo hydrolysis at high or low pH. This compound contains an acetal/aminal-like group ( X-CH(R)-Y where X, Y are N, S, or O) that may be acid/base labile, releasing an aldehyde.

> <s_lp_Force_Field>
OPLS_2005

> <r_lp_Energy>
45.4918

> <b_lp_Chiralities_Consistent>
1

> <s_lp_Variant>
AV-unprocessed.smi:34-16

> <Gold.Version>
5.8.1

> <Gold.Id.Protein>
6NUR|6NUR_protein|mol2

> <Gold.PLP.Fitness>
61.7639

> <Gold.PLP.PLP>
-56.8407

> <Gold.PLP.part.hbond>
-5.0000

> <Gold.PLP.part.metal>
0.0000

> <Gold.PLP.part.buried>
-7.1102

> <Gold.PLP.part.nonpolar>
-44.1428

> <Gold.PLP.part.repulsive>
0.1969

> <Gold.PLP.ligand.clash>
0.0000

> <Gold.PLP.ligand.torsion>
2.8492

> <Gold.PLP.Chemscore.Hbond>
3.5132

> <Gold.PLP.Chemscore.CHOScore>
0.0000

> <Gold.PLP.Chemscore.Metal>
0.0000

> <Gold.Chemscore.Hbonds>
donor molecule, donor type, donor heavy atom, donor atom, acceptor molecule, acceptor atom, score
      L1  H    29    50       P1  7949  0.08
      P1  H  6931  6943       L1     5  0.70
      P1  H  6934  6947       L1     1  0.78
      P1  H  7997  8008       L1    19  0.90
      P1  H 10752 10764       L1    29  1.00

> <Gold.PLP.Chemscore.Internal.Correction>
0.0819

> <Gold.Rescore>
     Score         DG    S(hbond)    S(metal)    S(lipo)     H(rot)  DE(clash)    DE(int)     intcor
     18.16     -23.24       2.80        0.00     131.32       2.72       0.19       4.88       ----

> <Gold.Chemscore.Fitness>
18.1616

> <Gold.Chemscore.DG>
-23.2351

> <Gold.Chemscore.ZeroCoef>
-5.4800

> <Gold.Chemscore.Hbond>
2.8016

> <Gold.Chemscore.Metal>
0.0000

> <Gold.Chemscore.Lipo>
131.3229

> <Gold.Chemscore.Internal_Hbond>
0.0000

> <Gold.Chemscore.DEClash>
0.1935

> <Gold.Chemscore.DEInternal>
4.8800

> <Gold.Chemscore.Rot>
2.7215

> <Gold.Chemscore.Internal.Correction>
   9.000000E+99

> <Gold.Chemscore.Hbonds>
donor molecule, donor type, donor heavy atom, donor atom, acceptor molecule, acceptor atom, score
      P1  H  6931  6943       L1     5  0.20
      P1  H  6934  6947       L1     1  0.66
      P1  H  7997  8008       L1    19  0.84
      P1  H 10752 10764       L1    29  0.90

> <Gold.Chemscore.Hbond.Weighted>
-9.3574

> <Gold.Chemscore.Metal.Weighted>
-0.0000

> <Gold.Chemscore.Lipo.Weighted>
-15.3648

> <Gold.Chemscore.Internal_Hbond.Weighted>
0.0000

> <Gold.Chemscore.DEClash.Weighted>
0.1935

> <Gold.Chemscore.DEInternal.Weighted>
4.8800

> <Gold.Chemscore.Rot.Weighted>
6.9670

> <Gold.Chemscore.Internal.Correction.Weighted>
   9.000000E+99

> <Gold.Protein.RotatedTorsions>
[ 6907 6896 6895 6894 ] final   55.97 input  -60.11 | X-H torsion
[ 7974 7965 7964 7962 ] final  -87.76 input  175.53 | X-H torsion
[ 8008 7997 7996 7995 ] final  -73.20 input   59.86 | X-H torsion
[ 10167 10162 10161 10158 ] final -114.51 input  -65.29 | X-H torsion
[ 10718 10713 10712 10709 ] final  -21.34 input   66.30 | X-H torsion
[ 10763 10752 10751 10750 ] final  -60.06 input  -60.55 | X-H torsion
[ 11005 11000 10999 10996 ] final -111.30 input  -57.11 | X-H torsion

> <Gold.Protein.ActiveResidues>
 VAL166  LYS551  ARG553  GLY616  TRP617  ASP618  TYR619  PRO620  LYS621  CYS622 
 ASP623  PHE694  ASN695  SER759  ASP760  ASP761  ALA762  ILE779  LEU786  VAL792 
 PHE793  MET794  SER795  GLU796  ALA797  LYS798  CYS799  TRP800  GLU811  SER814 

> <Gold.Protein.RotatedAtoms>
  152.3591  134.6898  160.0212 H   0  0  0  0  0  0  0  0  0  0  0  0  # atno 6907 bound_to 6896
  151.7227  133.3309  159.3327 H   0  0  0  0  0  0  0  0  0  0  0  0  # atno 6908 bound_to 6896
  150.7592  134.6368  159.6260 H   0  0  0  0  0  0  0  0  0  0  0  0  # atno 6909 bound_to 6896
  145.4622  140.9561  143.1963 H   0  0  0  0  0  0  0  0  0  0  0  0  # atno 7974 bound_to 7965
  154.5228  140.0783  156.8203 H   0  0  0  0  0  0  0  0  0  0  0  0  # atno 8008 bound_to 7997
  155.3540  140.3414  155.4221 H   0  0  0  0  0  0  0  0  0  0  0  0  # atno 8009 bound_to 7997
  156.1699  140.1616  156.8452 H   0  0  0  0  0  0  0  0  0  0  0  0  # atno 8010 bound_to 7997
  140.1002  143.4620  152.1817 H   0  0  0  0  0  0  0  0  0  0  0  0  # atno 10167 bound_to 10162
  156.5195  130.4629  149.6604 H   0  0  0  0  0  0  0  0  0  0  0  0  # atno 10718 bound_to 10713
  154.2634  135.6304  153.5283 H   0  0  0  0  0  0  0  0  0  0  0  0  # atno 10763 bound_to 10752
  152.9892  135.5593  154.5679 H   0  0  0  0  0  0  0  0  0  0  0  0  # atno 10764 bound_to 10752
  154.5233  135.2884  155.1219 H   0  0  0  0  0  0  0  0  0  0  0  0  # atno 10765 bound_to 10752
  141.0742  133.9329  157.2424 H   0  0  0  0  0  0  0  0  0  0  0  0  # atno 11005 bound_to 11000
  144.7995  139.6168  143.7078 LP  0  0  0  0  0  0  0  0  0  0  0  0  # atno 17320 bound_to 7965
  146.2444  139.6068  142.9469 LP  0  0  0  0  0  0  0  0  0  0  0  0  # atno 17321 bound_to 7965
  139.5675  144.7444  151.3981 LP  0  0  0  0  0  0  0  0  0  0  0  0  # atno 17342 bound_to 10162
  140.6982  143.7697  150.7360 LP  0  0  0  0  0  0  0  0  0  0  0  0  # atno 17343 bound_to 10162
  156.3163  130.7256  151.2159 LP  0  0  0  0  0  0  0  0  0  0  0  0  # atno 17370 bound_to 10713
  157.7439  131.0468  150.4910 LP  0  0  0  0  0  0  0  0  0  0  0  0  # atno 17371 bound_to 10713
  139.9554  135.0166  156.9114 LP  0  0  0  0  0  0  0  0  0  0  0  0  # atno 17394 bound_to 11000
  140.5609  134.0536  155.7398 LP  0  0  0  0  0  0  0  0  0  0  0  0  # atno 17395 bound_to 11000

$$$$
