AV-unprocessed.smi:2025|AV-procd|sdf|8200|dock10
  -GOLD-   2272010453D 1   1.00000     0.00000
 Structure written by MMmdl.
 39 40  0  0  0  0  0  0  0  0  1 V2000
  153.0598  140.9896  159.8358 C   0  0  0  0  0  0  0  0  0  0  0  0
  152.2916  141.8038  158.7832 C   0  0  1  0  0  0  0  0  0  0  0  0
  151.2513  140.9542  158.2077 N   0  0  0  0  0  0  0  0  0  0  0  0
  151.4100  140.1136  157.1734 C   0  0  0  0  0  0  0  0  0  0  0  0
  152.4785  139.9645  156.5786 O   0  0  0  0  0  0  0  0  0  0  0  0
  150.1551  139.3468  156.7349 C   0  0  0  0  0  0  0  0  0  0  0  0
  149.1370  140.2107  156.1231 N   0  0  0  0  0  0  0  0  0  0  0  0
  149.2137  140.5077  154.7744 C   0  0  0  0  0  0  0  0  0  0  0  0
  148.3104  141.2768  154.1286 C   0  0  0  0  0  0  0  0  0  0  0  0
  147.1774  141.8550  154.8400 C   0  0  0  0  0  0  0  0  0  0  0  0
  146.3183  142.5483  154.2935 O   0  0  0  0  0  0  0  0  0  0  0  0
  147.1297  141.5483  156.2198 N   0  0  0  0  0  0  0  0  0  0  0  0
  146.0146  142.0846  156.9729 C   0  0  0  0  0  0  0  0  0  0  0  0
  148.0676  140.7266  156.8871 C   0  0  0  0  0  0  0  0  0  0  0  0
  147.9699  140.4539  158.0860 O   0  0  0  0  0  0  0  0  0  0  0  0
  151.6583  143.0806  159.3752 C   0  0  1  0  0  0  0  0  0  0  0  0
  152.6062  143.9310  160.2193 C   0  0  0  0  0  0  0  0  0  0  0  0
  151.9092  145.2738  160.2113 C   0  0  0  0  0  0  0  0  0  0  0  0
  151.2709  145.3173  158.8228 C   0  0  0  0  0  0  0  0  0  0  0  0
  151.2635  143.9758  158.3411 O   0  0  0  0  0  0  0  0  0  0  0  0
  153.8923  141.5587  160.2499 H   0  0  0  0  0  0  0  0  0  0  0  0
  153.4755  140.0800  159.4007 H   0  0  0  0  0  0  0  0  0  0  0  0
  152.4119  140.6975  160.6630 H   0  0  0  0  0  0  0  0  0  0  0  0
  153.0027  142.0916  158.0068 H   0  0  0  0  0  0  0  0  0  0  0  0
  150.3346  141.0156  158.6263 H   0  0  0  0  0  0  0  0  0  0  0  0
  150.4327  138.5465  156.0463 H   0  0  0  0  0  0  0  0  0  0  0  0
  149.7389  138.8485  157.6115 H   0  0  0  0  0  0  0  0  0  0  0  0
  150.0341  140.0980  154.2029 H   0  0  0  0  0  0  0  0  0  0  0  0
  148.4259  141.4645  153.0711 H   0  0  0  0  0  0  0  0  0  0  0  0
  146.2300  142.0727  158.0415 H   0  0  0  0  0  0  0  0  0  0  0  0
  145.1478  141.4647  156.7393 H   0  0  0  0  0  0  0  0  0  0  0  0
  145.8592  143.1210  156.6679 H   0  0  0  0  0  0  0  0  0  0  0  0
  150.7744  142.8290  159.9645 H   0  0  0  0  0  0  0  0  0  0  0  0
  152.7530  143.5385  161.2260 H   0  0  0  0  0  0  0  0  0  0  0  0
  153.5811  144.0124  159.7360 H   0  0  0  0  0  0  0  0  0  0  0  0
  151.1339  145.2938  160.9784 H   0  0  0  0  0  0  0  0  0  0  0  0
  152.5884  146.1072  160.3937 H   0  0  0  0  0  0  0  0  0  0  0  0
  150.2582  145.7200  158.8607 H   0  0  0  0  0  0  0  0  0  0  0  0
  151.8550  145.9334  158.1385 H   0  0  0  0  0  0  0  0  0  0  0  0
  1  2  1  0  0  0  0
  1 21  1  0  0  0  0
  1 22  1  0  0  0  0
  1 23  1  0  0  0  0
  2  3  1  0  0  0  0
  2 16  1  0  0  0  0
  2 24  1  0  0  0  0
  3  4  1  0  0  0  0
  3 25  1  0  0  0  0
  4  5  2  0  0  0  0
  4  6  1  0  0  0  0
  6  7  1  0  0  0  0
  6 26  1  0  0  0  0
  6 27  1  0  0  0  0
  7 14  1  0  0  0  0
  7  8  1  0  0  0  0
  8  9  2  0  0  0  0
  8 28  1  0  0  0  0
  9 10  1  0  0  0  0
  9 29  1  0  0  0  0
 10 11  2  0  0  0  0
 10 12  1  0  0  0  0
 12 13  1  0  0  0  0
 12 14  1  0  0  0  0
 13 30  1  0  0  0  0
 13 31  1  0  0  0  0
 13 32  1  0  0  0  0
 14 15  2  0  0  0  0
 16 20  1  0  0  0  0
 16 17  1  0  0  0  0
 16 33  1  0  0  0  0
 17 18  1  0  0  0  0
 17 34  1  0  0  0  0
 17 35  1  0  0  0  0
 18 19  1  0  0  0  0
 18 36  1  0  0  0  0
 18 37  1  0  0  0  0
 19 20  1  0  0  0  0
 19 38  1  0  0  0  0
 19 39  1  0  0  0  0
M  END
> <s_m_source_file>
AV-unprocessed.smi

> <i_m_source_file_index>
2025

> <i_lp_mmshare_version>
43012

> <i_f3d_flags>
0

> <s_epik_input>
TzFbQ0gyXVtDSDJdW0NIMl1bQ0BIXTFbQ0BIXShbQ0gzXSlbTkhdQyg9TylbQ0gyXW4yW2NIXVtjSF1jKD1PKW4oW0NIM10pYzI9Tw==

> <s_epik_cmdline>
J2VwaWtfcHl0aG9uJywgJy1waCcsICc3LjAnLCAnLXRuJywgJzgnLCAnLW1hJywgJzIwMCcsICctbWV0YWxfYmluZGluZycsICctaW1hZScsICc8aW5maWxlLm1hZT4nLCAnLW9tYWUnLCAnPG91dGZpbGUubWFlPic=

> <r_lp_tautomer_probability>
1

> <r_epik_Ionization_Penalty>
3.54787e-08

> <r_epik_Ionization_Penalty_Charging>
1.24654e-08

> <r_epik_Ionization_Penalty_Neutral>
2.30132e-08

> <r_epik_State_Penalty>
-0

> <r_epik_Charging_Adjusted_Penalty>
1.24654e-08

> <i_epik_Tot_Q>
0

> <i_epik_Tot_abs_Q>
0

> <r_epik_Metal_State_Penalty>
-0

> <b_epik_Metal_Only>
0

> <s_lp_Force_Field>
OPLS_2005

> <r_lp_Energy>
25.8508

> <b_lp_Chiralities_Consistent>
1

> <s_lp_Variant>
AV-unprocessed.smi:2025-4

> <Gold.Version>
5.8.1

> <Gold.Id.Protein>
6NUR|6NUR_protein|mol2

> <Gold.PLP.Fitness>
37.5271

> <Gold.PLP.PLP>
-36.4258

> <Gold.PLP.part.hbond>
-1.7879

> <Gold.PLP.part.metal>
0.0000

> <Gold.PLP.part.buried>
-5.1836

> <Gold.PLP.part.nonpolar>
-28.9889

> <Gold.PLP.part.repulsive>
0.4222

> <Gold.PLP.ligand.clash>
0.0000

> <Gold.PLP.ligand.torsion>
0.9600

> <Gold.PLP.Chemscore.Hbond>
1.0000

> <Gold.PLP.Chemscore.CHOScore>
0.0000

> <Gold.PLP.Chemscore.Metal>
0.0000

> <Gold.Chemscore.Hbonds>
donor molecule, donor type, donor heavy atom, donor atom, acceptor molecule, acceptor atom, score
      P1  H  7997  8010       L1     5  1.00

> <Gold.PLP.Chemscore.Internal.Correction>
0.0213

> <Gold.Rescore>
     Score         DG    S(hbond)    S(metal)    S(lipo)     H(rot)  DE(clash)    DE(int)     intcor
     13.46     -14.34       1.00        0.00      87.18       1.82       0.08       0.80       ----

> <Gold.Chemscore.Fitness>
13.4614

> <Gold.Chemscore.DG>
-14.3373

> <Gold.Chemscore.ZeroCoef>
-5.4800

> <Gold.Chemscore.Hbond>
0.9952

> <Gold.Chemscore.Metal>
0.0000

> <Gold.Chemscore.Lipo>
87.1771

> <Gold.Chemscore.Internal_Hbond>
0.0000

> <Gold.Chemscore.DEClash>
0.0767

> <Gold.Chemscore.DEInternal>
0.7992

> <Gold.Chemscore.Rot>
1.8228

> <Gold.Chemscore.Internal.Correction>
   9.000000E+99

> <Gold.Chemscore.Hbonds>
donor molecule, donor type, donor heavy atom, donor atom, acceptor molecule, acceptor atom, score
      P1  H  7997  8010       L1     5  1.00

> <Gold.Chemscore.Hbond.Weighted>
-3.3240

> <Gold.Chemscore.Metal.Weighted>
-0.0000

> <Gold.Chemscore.Lipo.Weighted>
-10.1997

> <Gold.Chemscore.Internal_Hbond.Weighted>
0.0000

> <Gold.Chemscore.DEClash.Weighted>
0.0767

> <Gold.Chemscore.DEInternal.Weighted>
0.7992

> <Gold.Chemscore.Rot.Weighted>
4.6665

> <Gold.Chemscore.Internal.Correction.Weighted>
   9.000000E+99

> <Gold.Protein.RotatedTorsions>
[ 6907 6896 6895 6894 ] final  -55.57 input  -60.11 | X-H torsion
[ 7974 7965 7964 7962 ] final  -41.37 input  175.53 | X-H torsion
[ 8008 7997 7996 7995 ] final   70.14 input   59.86 | X-H torsion
[ 10167 10162 10161 10158 ] final  -19.26 input  -65.29 | X-H torsion
[ 10718 10713 10712 10709 ] final   85.49 input   66.30 | X-H torsion
[ 10763 10752 10751 10750 ] final    7.15 input  -60.55 | X-H torsion
[ 11005 11000 10999 10996 ] final  145.05 input  -57.11 | X-H torsion

> <Gold.Protein.ActiveResidues>
 VAL166  LYS551  ARG553  GLY616  TRP617  ASP618  TYR619  PRO620  LYS621  CYS622 
 ASP623  PHE694  ASN695  SER759  ASP760  ASP761  ALA762  ILE779  LEU786  VAL792 
 PHE793  MET794  SER795  GLU796  ALA797  LYS798  CYS799  TRP800  GLU811  SER814 

> <Gold.Protein.RotatedAtoms>
  150.8240  134.7462  159.6796 H   0  0  0  0  0  0  0  0  0  0  0  0  # atno 6907 bound_to 6896
  152.4353  134.5695  159.9927 H   0  0  0  0  0  0  0  0  0  0  0  0  # atno 6908 bound_to 6896
  151.5872  133.3333  159.3056 H   0  0  0  0  0  0  0  0  0  0  0  0  # atno 6909 bound_to 6896
  146.0217  140.6841  142.9175 H   0  0  0  0  0  0  0  0  0  0  0  0  # atno 7974 bound_to 7965
  155.7342  140.3491  155.5074 H   0  0  0  0  0  0  0  0  0  0  0  0  # atno 8008 bound_to 7997
  155.9154  140.1058  157.1269 H   0  0  0  0  0  0  0  0  0  0  0  0  # atno 8009 bound_to 7997
  154.4062  140.1260  156.4598 H   0  0  0  0  0  0  0  0  0  0  0  0  # atno 8010 bound_to 7997
  140.7267  143.4835  151.0085 H   0  0  0  0  0  0  0  0  0  0  0  0  # atno 10167 bound_to 10162
  157.6915  131.0177  150.2831 H   0  0  0  0  0  0  0  0  0  0  0  0  # atno 10718 bound_to 10713
  153.2396  135.6902  153.7798 H   0  0  0  0  0  0  0  0  0  0  0  0  # atno 10763 bound_to 10752
  153.6933  135.3309  155.3208 H   0  0  0  0  0  0  0  0  0  0  0  0  # atno 10764 bound_to 10752
  154.8349  135.4550  154.1312 H   0  0  0  0  0  0  0  0  0  0  0  0  # atno 10765 bound_to 10752
  140.0681  134.9167  157.1299 H   0  0  0  0  0  0  0  0  0  0  0  0  # atno 11005 bound_to 11000
  144.6993  140.3579  143.7169 LP  0  0  0  0  0  0  0  0  0  0  0  0  # atno 17320 bound_to 7965
  145.7182  139.1702  143.2500 LP  0  0  0  0  0  0  0  0  0  0  0  0  # atno 17321 bound_to 7965
  139.8535  143.7407  152.3177 LP  0  0  0  0  0  0  0  0  0  0  0  0  # atno 17342 bound_to 10162
  139.7597  144.7510  151.0382 LP  0  0  0  0  0  0  0  0  0  0  0  0  # atno 17343 bound_to 10162
  156.3374  130.3810  149.7438 LP  0  0  0  0  0  0  0  0  0  0  0  0  # atno 17370 bound_to 10713
  156.4958  130.8106  151.3113 LP  0  0  0  0  0  0  0  0  0  0  0  0  # atno 17371 bound_to 10713
  140.3668  134.2434  155.7181 LP  0  0  0  0  0  0  0  0  0  0  0  0  # atno 17394 bound_to 11000
  141.2001  133.7996  157.0505 LP  0  0  0  0  0  0  0  0  0  0  0  0  # atno 17395 bound_to 11000

$$$$
