#       Name:                AV-unprocessed.smi:3331
#       Creating user name   scv26
#       Creation time:       Fri Mar 27 19:19:46 2020


#       File generated by GOLD software.
#

@<TRIPOS>MOLECULE
AV-unprocessed.smi:3331
    50    51     1
SMALL
NO_CHARGES


@<TRIPOS>ATOM
      1 ****        -3.2302  -0.9849  -3.2218 C.3            1 S1                 0.0000
      2 ****        -2.5765  -0.4949  -1.9223 C.3            1 S1                 0.0000
      3 ****        -3.2789   0.7703  -1.3777 C.3            1 S1                 0.0000
      4 ****        -2.7397   1.2138   0.0015 C.3            1 S1                 0.0000
      5 ****        -1.3831   1.9333  -0.1081 C.3            1 S1                 0.0000
      6 ****        -2.7021   0.0049   0.9622 C.3            1 S1                 0.0000
      7 ****        -1.9062  -1.0765   0.3639 N.am           1 S1                 0.0000
      8 ****        -0.6831  -1.4977   0.7743 C.2            1 S1                 0.0000
      9 ****        -0.0847  -2.4142   0.2072 O.2            1 S1                 0.0000
     10 ****         0.0035  -0.8278   1.9844 C.3            1 S1                 0.0000
     11 ****        -0.4494  -1.5032   3.2888 C.3            1 S1                 0.0000
     12 ****         1.4805  -0.8912   1.8813 N.4            1 S1                 1.0000
     13 ****         2.0788   0.0429   0.9032 C.3            1 S1                 0.0000
     14 ****         3.6069  -0.0967   0.8724 C.3            1 S1                 0.0000
     15 ****         4.2063   0.7801  -0.1148 N.pl3          1 S1                 0.0000
     16 ****         4.8167   0.4426  -1.3046 C.2            1 S1                 0.0000
     17 ****         5.2302   1.6039  -1.8922 C.2            1 S1                 0.0000
     18 ****         4.8256   2.6114  -0.9723 C.2            1 S1                 0.0000
     19 ****         4.2143   2.1149   0.0915 N.2            1 S1                 0.0000
     20 ****        -2.5539  -1.6009  -0.8460 C.3            1 S1                 0.0000
     21 ****        -4.2692  -1.2733  -3.0598 H              1 S1                 0.0000
     22 ****        -2.7032  -1.8507  -3.6239 H              1 S1                 0.0000
     23 ****        -3.2151  -0.2070  -3.9857 H              1 S1                 0.0000
     24 ****        -1.5436  -0.2351  -2.1582 H              1 S1                 0.0000
     25 ****        -3.2011   1.5875  -2.0959 H              1 S1                 0.0000
     26 ****        -4.3451   0.5614  -1.2783 H              1 S1                 0.0000
     27 ****        -3.4441   1.9392   0.4109 H              1 S1                 0.0000
     28 ****        -0.6088   1.2877  -0.5223 H              1 S1                 0.0000
     29 ****        -1.0417   2.2746   0.8693 H              1 S1                 0.0000
     30 ****        -1.4577   2.8104  -0.7515 H              1 S1                 0.0000
     31 ****        -2.3694   0.3098   1.9521 H              1 S1                 0.0000
     32 ****        -3.7180  -0.3614   1.1195 H              1 S1                 0.0000
     33 ****        -0.2469   0.2306   2.0330 H              1 S1                 0.0000
     34 ****        -1.5315  -1.4517   3.4135 H              1 S1                 0.0000
     35 ****         0.0003  -1.0189   4.1562 H              1 S1                 0.0000
     36 ****        -0.1645  -2.5559   3.3137 H              1 S1                 0.0000
     37 ****         1.8671  -0.6721   2.7881 H              1 S1                 0.0000
     38 ****         1.6732  -0.1520  -0.0903 H              1 S1                 0.0000
     39 ****         1.8009   1.0641   1.1680 H              1 S1                 0.0000
     40 ****         4.0345   0.1359   1.8489 H              1 S1                 0.0000
     41 ****         3.8884  -1.1243   0.6383 H              1 S1                 0.0000
     42 ****         4.9052  -0.5830  -1.6318 H              1 S1                 0.0000
     43 ****         5.7450   1.7166  -2.8347 H              1 S1                 0.0000
     44 ****         4.9578   3.6808  -1.0458 H              1 S1                 0.0000
     45 ****        -3.5705  -1.9163  -0.6054 H              1 S1                 0.0000
     46 ****        -2.0583  -2.4900  -1.2386 H              1 S1                 0.0000
     47 ****         1.7422  -1.8363   1.6383 H              1 S1                 0.0000
     48 ****        -0.4997  -2.8707  -0.5798 LP             1 S1                 0.0000
     49 ****         0.8157  -2.7012   0.5343 LP             1 S1                 0.0000
     50 ****         3.8418   2.6157   0.8728 LP             1 S1                 0.0000
@<TRIPOS>BOND
    1    1    2 1     
    2    1   21 1     
    3    1   22 1     
    4    1   23 1     
    5    2   20 1     
    6    2    3 1     
    7    2   24 1     
    8    3    4 1     
    9    3   25 1     
   10    3   26 1     
   11    4    5 1     
   12    4    6 1     
   13    4   27 1     
   14    5   28 1     
   15    5   29 1     
   16    5   30 1     
   17    6    7 1     
   18    6   31 1     
   19    6   32 1     
   20    7    8 am    
   21    7   20 1     
   22    8    9 2     
   23    8   10 1     
   24   10   11 1     
   25   10   12 1     
   26   10   33 1     
   27   11   34 1     
   28   11   35 1     
   29   11   36 1     
   30   12   13 1     
   31   12   37 1     
   32   12   47 1     
   33   13   14 1     
   34   13   38 1     
   35   13   39 1     
   36   14   15 1     
   37   14   40 1     
   38   14   41 1     
   39   15   19 1     
   40   15   16 1     
   41   16   17 2     
   42   16   42 1     
   43   17   18 1     
   44   17   43 1     
   45   18   19 2     
   46   18   44 1     
   47   20   45 1     
   48   20   46 1     
   49    9   48 1     
   50    9   49 1     
   51   19   50 1     
@<TRIPOS>SUBSTRUCTURE
      1 S1             1
@<TRIPOS>SET
LONE_PAIRS      STATIC     ATOMS    <user>   **** ""
3 48 49 50
DONOR_HYDROGENS      STATIC     ATOMS    <user>   **** ""
2 37 47
ATOM$BLUE        STATIC     ATOMS    COLORGROUP SYSTEM
3 48 49 50
ATOM$RED        STATIC     ATOMS    COLORGROUP SYSTEM
2 37 47
