AV-unprocessed.smi:1993|AV-procd|sdf|8070|dock10
  -GOLD-   2272010283D 1   1.00000     0.00000
 Structure written by MMmdl.
 50 51  0  0  0  0  0  0  0  0  1 V2000
  147.3483  145.8662  160.7607 C   0  0  0  0  0  0  0  0  0  0  0  0
  146.7600  144.5707  160.2113 C   0  0  0  0  0  0  0  0  0  0  0  0
  146.0777  143.8503  160.9389 O   0  0  0  0  0  0  0  0  0  0  0  0
  147.0314  144.2838  158.9281 N   0  0  0  0  0  0  0  0  0  0  0  0
  146.5762  143.0914  158.2111 C   0  0  2  0  0  0  0  0  0  0  0  0
  147.7948  142.1846  157.9569 C   0  0  0  0  0  0  0  0  0  0  0  0
  147.7908  141.0115  158.3342 O   0  0  0  0  0  0  0  0  0  0  0  0
  148.8365  142.7524  157.3313 N   0  0  0  0  0  0  0  0  0  0  0  0
  150.1036  142.0914  157.0462 C   0  0  0  0  0  0  0  0  0  0  0  0
  151.2231  142.5485  157.9724 C   0  0  0  0  0  0  0  0  0  0  0  0
  151.4568  143.9284  158.1518 C   0  0  0  0  0  0  0  0  0  0  0  0
  152.4942  144.3433  159.0063 C   0  0  0  0  0  0  0  0  0  0  0  0
  153.2616  143.3562  159.6515 C   0  0  0  0  0  0  0  0  0  0  0  0
  153.0524  142.0335  159.4883 N   0  0  0  0  0  0  0  0  0  0  0  0
  152.0537  141.6303  158.6657 C   0  0  0  0  0  0  0  0  0  0  0  0
  151.8722  140.2474  158.4991 N   0  0  0  0  0  0  0  0  0  0  0  0
  152.5882  139.4037  159.4484 C   0  0  0  0  0  0  0  0  0  0  0  0
  152.1703  137.9355  159.2568 C   0  0  0  0  0  0  0  0  0  0  0  0
  152.4008  137.5459  157.9053 O   0  0  0  0  0  0  0  0  0  0  0  0
  151.6504  138.3326  156.9838 C   0  0  0  0  0  0  0  0  0  0  0  0
  152.0515  139.8110  157.1211 C   0  0  0  0  0  0  0  0  0  0  0  0
  145.9430  143.5284  156.8566 C   0  0  0  0  0  0  0  0  0  0  0  0
  144.7304  144.4576  157.0623 C   0  0  0  0  0  0  0  0  0  0  0  0
  145.5174  142.3355  155.9756 C   0  0  0  0  0  0  0  0  0  0  0  0
  148.1383  145.6444  161.4782 H   0  0  0  0  0  0  0  0  0  0  0  0
  146.5765  146.4456  161.2680 H   0  0  0  0  0  0  0  0  0  0  0  0
  147.7695  146.4836  159.9664 H   0  0  0  0  0  0  0  0  0  0  0  0
  147.6083  144.9305  158.4098 H   0  0  0  0  0  0  0  0  0  0  0  0
  145.8297  142.5613  158.8067 H   0  0  0  0  0  0  0  0  0  0  0  0
  148.7523  143.7182  157.0491 H   0  0  0  0  0  0  0  0  0  0  0  0
  149.9859  141.0080  157.1066 H   0  0  0  0  0  0  0  0  0  0  0  0
  150.3795  142.3023  156.0127 H   0  0  0  0  0  0  0  0  0  0  0  0
  150.8512  144.6613  157.6390 H   0  0  0  0  0  0  0  0  0  0  0  0
  152.6967  145.3924  159.1629 H   0  0  0  0  0  0  0  0  0  0  0  0
  154.0663  143.6359  160.3152 H   0  0  0  0  0  0  0  0  0  0  0  0
  153.6641  139.5024  159.2970 H   0  0  0  0  0  0  0  0  0  0  0  0
  152.3718  139.7275  160.4671 H   0  0  0  0  0  0  0  0  0  0  0  0
  152.7495  137.2901  159.9172 H   0  0  0  0  0  0  0  0  0  0  0  0
  151.1191  137.7935  159.5127 H   0  0  0  0  0  0  0  0  0  0  0  0
  151.8488  137.9818  155.9710 H   0  0  0  0  0  0  0  0  0  0  0  0
  150.5820  138.2023  157.1636 H   0  0  0  0  0  0  0  0  0  0  0  0
  151.4488  140.4249  156.4534 H   0  0  0  0  0  0  0  0  0  0  0  0
  153.0940  139.9452  156.8285 H   0  0  0  0  0  0  0  0  0  0  0  0
  146.6858  144.0962  156.2931 H   0  0  0  0  0  0  0  0  0  0  0  0
  143.9542  143.9685  157.6518 H   0  0  0  0  0  0  0  0  0  0  0  0
  144.2893  144.7440  156.1069 H   0  0  0  0  0  0  0  0  0  0  0  0
  145.0042  145.3807  157.5733 H   0  0  0  0  0  0  0  0  0  0  0  0
  144.7826  141.7132  156.4865 H   0  0  0  0  0  0  0  0  0  0  0  0
  146.3601  141.7016  155.6992 H   0  0  0  0  0  0  0  0  0  0  0  0
  145.0652  142.6792  155.0449 H   0  0  0  0  0  0  0  0  0  0  0  0
  1  2  1  0  0  0  0
  1 25  1  0  0  0  0
  1 26  1  0  0  0  0
  1 27  1  0  0  0  0
  2  3  2  0  0  0  0
  2  4  1  0  0  0  0
  4  5  1  0  0  0  0
  4 28  1  0  0  0  0
  5  6  1  0  0  0  0
  5 22  1  0  0  0  0
  5 29  1  0  0  0  0
  6  7  2  0  0  0  0
  6  8  1  0  0  0  0
  8  9  1  0  0  0  0
  8 30  1  0  0  0  0
  9 10  1  0  0  0  0
  9 31  1  0  0  0  0
  9 32  1  0  0  0  0
 10 15  1  0  0  0  0
 10 11  2  0  0  0  0
 11 12  1  0  0  0  0
 11 33  1  0  0  0  0
 12 13  2  0  0  0  0
 12 34  1  0  0  0  0
 13 14  1  0  0  0  0
 13 35  1  0  0  0  0
 14 15  2  0  0  0  0
 15 16  1  0  0  0  0
 16 21  1  0  0  0  0
 16 17  1  0  0  0  0
 17 18  1  0  0  0  0
 17 36  1  0  0  0  0
 17 37  1  0  0  0  0
 18 19  1  0  0  0  0
 18 38  1  0  0  0  0
 18 39  1  0  0  0  0
 19 20  1  0  0  0  0
 20 21  1  0  0  0  0
 20 40  1  0  0  0  0
 20 41  1  0  0  0  0
 21 42  1  0  0  0  0
 21 43  1  0  0  0  0
 22 23  1  0  0  0  0
 22 24  1  0  0  0  0
 22 44  1  0  0  0  0
 23 45  1  0  0  0  0
 23 46  1  0  0  0  0
 23 47  1  0  0  0  0
 24 48  1  0  0  0  0
 24 49  1  0  0  0  0
 24 50  1  0  0  0  0
M  END
> <s_m_source_file>
AV-unprocessed.smi

> <i_m_source_file_index>
1993

> <i_lp_mmshare_version>
43012

> <i_f3d_flags>
0

> <s_epik_input>
W0NIM11DKD1PKVtOSF1bQ0BASF0oW0NIXShbQ0gzXSlbQ0gzXSlDKD1PKVtOSF1bQ0gyXWMxW2NIXVtjSF1bY0hdbmMxTjJbQ0gyXVtDSDJdT1tDSDJdW0NIMl0y

> <s_epik_cmdline>
J2VwaWtfcHl0aG9uJywgJy1waCcsICc3LjAnLCAnLXRuJywgJzgnLCAnLW1hJywgJzIwMCcsICctbWV0YWxfYmluZGluZycsICctaW1hZScsICc8aW5maWxlLm1hZT4nLCAnLW9tYWUnLCAnPG91dGZpbGUubWFlPic=

> <r_lp_tautomer_probability>
1

> <r_epik_Ionization_Penalty>
0.00485175

> <r_epik_Ionization_Penalty_Charging>
0

> <r_epik_Ionization_Penalty_Neutral>
0.00485175

> <r_epik_State_Penalty>
0.00351951

> <r_epik_Charging_Adjusted_Penalty>
0.00351951

> <i_epik_Tot_Q>
0

> <i_epik_Tot_abs_Q>
0

> <r_epik_Metal_State_Penalty>
-0

> <b_epik_Metal_Only>
0

> <s_lp_Force_Field>
OPLS_2005

> <r_lp_Energy>
19.1581

> <b_lp_Chiralities_Consistent>
1

> <s_lp_Variant>
AV-unprocessed.smi:1993-1

> <Gold.Version>
5.8.1

> <Gold.Id.Protein>
6NUR|6NUR_protein|mol2

> <Gold.PLP.Fitness>
42.7399

> <Gold.PLP.PLP>
-37.8700

> <Gold.PLP.part.hbond>
-3.0000

> <Gold.PLP.part.metal>
0.0000

> <Gold.PLP.part.buried>
-6.5201

> <Gold.PLP.part.nonpolar>
-28.3587

> <Gold.PLP.part.repulsive>
0.1293

> <Gold.PLP.ligand.clash>
0.0000

> <Gold.PLP.ligand.torsion>
0.4751

> <Gold.PLP.Chemscore.Hbond>
1.8800

> <Gold.PLP.Chemscore.CHOScore>
0.0000

> <Gold.PLP.Chemscore.Metal>
0.0000

> <Gold.Chemscore.Hbonds>
donor molecule, donor type, donor heavy atom, donor atom, acceptor molecule, acceptor atom, score
      L1  H     4    28       P1  8029  1.00
      L1  H     8    30       P1  8028  0.76

> <Gold.PLP.Chemscore.Internal.Correction>
0.1800

> <Gold.Rescore>
     Score         DG    S(hbond)    S(metal)    S(lipo)     H(rot)  DE(clash)    DE(int)     intcor
     12.03     -13.03       0.99        0.00      83.91       2.18       0.01       0.99       ----

> <Gold.Chemscore.Fitness>
12.0323

> <Gold.Chemscore.DG>
-13.0291

> <Gold.Chemscore.ZeroCoef>
-5.4800

> <Gold.Chemscore.Hbond>
0.9929

> <Gold.Chemscore.Metal>
0.0000

> <Gold.Chemscore.Lipo>
83.9072

> <Gold.Chemscore.Internal_Hbond>
0.0000

> <Gold.Chemscore.DEClash>
0.0106

> <Gold.Chemscore.DEInternal>
0.9862

> <Gold.Chemscore.Rot>
2.1813

> <Gold.Chemscore.Internal.Correction>
   9.000000E+99

> <Gold.Chemscore.Hbonds>
donor molecule, donor type, donor heavy atom, donor atom, acceptor molecule, acceptor atom, score
      L1  H     4    28       P1  8029  0.91
      L1  H     8    30       P1  8028  0.15

> <Gold.Chemscore.Hbond.Weighted>
-3.3162

> <Gold.Chemscore.Metal.Weighted>
-0.0000

> <Gold.Chemscore.Lipo.Weighted>
-9.8171

> <Gold.Chemscore.Internal_Hbond.Weighted>
0.0000

> <Gold.Chemscore.DEClash.Weighted>
0.0106

> <Gold.Chemscore.DEInternal.Weighted>
0.9862

> <Gold.Chemscore.Rot.Weighted>
5.5842

> <Gold.Chemscore.Internal.Correction.Weighted>
   9.000000E+99

> <Gold.Protein.RotatedTorsions>
[ 6907 6896 6895 6894 ] final  -42.89 input  -60.11 | X-H torsion
[ 7974 7965 7964 7962 ] final -176.59 input  175.53 | X-H torsion
[ 8008 7997 7996 7995 ] final   84.91 input   59.86 | X-H torsion
[ 10167 10162 10161 10158 ] final  129.65 input  -65.29 | X-H torsion
[ 10718 10713 10712 10709 ] final -143.97 input   66.30 | X-H torsion
[ 10763 10752 10751 10750 ] final   84.16 input  -60.55 | X-H torsion
[ 11005 11000 10999 10996 ] final  -52.54 input  -57.11 | X-H torsion

> <Gold.Protein.ActiveResidues>
 VAL166  LYS551  ARG553  GLY616  TRP617  ASP618  TYR619  PRO620  LYS621  CYS622 
 ASP623  PHE694  ASN695  SER759  ASP760  ASP761  ALA762  ILE779  LEU786  VAL792 
 PHE793  MET794  SER795  GLU796  ALA797  LYS798  CYS799  TRP800  GLU811  SER814 

> <Gold.Protein.RotatedAtoms>
  150.9501  134.8902  159.7666 H   0  0  0  0  0  0  0  0  0  0  0  0  # atno 6907 bound_to 6896
  152.5116  134.3819  159.9364 H   0  0  0  0  0  0  0  0  0  0  0  0  # atno 6908 bound_to 6896
  151.3835  133.3772  159.2747 H   0  0  0  0  0  0  0  0  0  0  0  0  # atno 6909 bound_to 6896
  144.7127  140.1148  143.6409 H   0  0  0  0  0  0  0  0  0  0  0  0  # atno 7974 bound_to 7965
  155.9432  140.3406  155.6345 H   0  0  0  0  0  0  0  0  0  0  0  0  # atno 8008 bound_to 7997
  155.7013  140.0760  157.2427 H   0  0  0  0  0  0  0  0  0  0  0  0  # atno 8009 bound_to 7997
  154.4107  140.1639  156.2182 H   0  0  0  0  0  0  0  0  0  0  0  0  # atno 8010 bound_to 7997
  139.5467  144.6779  151.4450 H   0  0  0  0  0  0  0  0  0  0  0  0  # atno 10167 bound_to 10162
  156.3644  130.7755  151.1927 H   0  0  0  0  0  0  0  0  0  0  0  0  # atno 10718 bound_to 10713
  153.1356  135.4664  154.9417 H   0  0  0  0  0  0  0  0  0  0  0  0  # atno 10763 bound_to 10752
  154.7703  135.3157  154.8205 H   0  0  0  0  0  0  0  0  0  0  0  0  # atno 10764 bound_to 10752
  153.8738  135.6901  153.4826 H   0  0  0  0  0  0  0  0  0  0  0  0  # atno 10765 bound_to 10752
  141.0929  133.6629  156.4039 H   0  0  0  0  0  0  0  0  0  0  0  0  # atno 11005 bound_to 11000
  145.9423  139.2677  143.1261 LP  0  0  0  0  0  0  0  0  0  0  0  0  # atno 17320 bound_to 7965
  145.9411  140.8979  143.0307 LP  0  0  0  0  0  0  0  0  0  0  0  0  # atno 17321 bound_to 7965
  140.6718  143.8278  150.7008 LP  0  0  0  0  0  0  0  0  0  0  0  0  # atno 17342 bound_to 10162
  140.1704  143.4199  152.2005 LP  0  0  0  0  0  0  0  0  0  0  0  0  # atno 17343 bound_to 10162
  157.7477  131.0390  150.4532 LP  0  0  0  0  0  0  0  0  0  0  0  0  # atno 17370 bound_to 10713
  156.4748  130.4060  149.6496 LP  0  0  0  0  0  0  0  0  0  0  0  0  # atno 17371 bound_to 10713
  140.5209  134.6305  157.5317 LP  0  0  0  0  0  0  0  0  0  0  0  0  # atno 17394 bound_to 11000
  139.9759  134.7216  155.9951 LP  0  0  0  0  0  0  0  0  0  0  0  0  # atno 17395 bound_to 11000

$$$$
