#       Name:                AV-unprocessed.smi:2202
#       Creating user name   scv26
#       Creation time:       Fri Mar 27 12:14:46 2020


#       File generated by GOLD software.
#

@<TRIPOS>MOLECULE
AV-unprocessed.smi:2202
    49    51     1
SMALL
NO_CHARGES


@<TRIPOS>ATOM
      1 ****         0.6262   0.1530  -0.7301 O.2            1 S1                 0.0000
      2 ****         0.0202  -0.8578  -0.3701 C.2            1 S1                 0.0000
      3 ****        -1.5141  -0.9159  -0.3963 C.3            1 S1                 0.0000
      4 ****        -2.1442   0.3759  -0.7061 N.am           1 S1                 0.0000
      5 ****        -2.4436   1.3020   0.2139 C.2            1 S1                 0.0000
      6 ****        -2.2471   1.2028   1.4257 O.2            1 S1                 0.0000
      7 ****        -3.0613   2.5480  -0.4246 C.3            1 S1                 0.0000
      8 ****        -4.4421   2.8837   0.1983 C.3            1 S1                 0.0000
      9 ****        -5.5700   2.0734  -0.4063 C.2            1 S1                 0.0000
     10 ****        -5.5779   1.7605  -1.7087 C.2            1 S1                 0.0000
     11 ****        -4.4591   2.2046  -2.6281 C.3            1 S1                 0.0000
     12 ****        -3.0706   2.1834  -1.9360 C.3            1 S1                 0.0000
     13 ****        -2.4586   0.7806  -1.9435 C.2            1 S1                 0.0000
     14 ****        -2.2798   0.1382  -2.9787 O.2            1 S1                 0.0000
     15 ****         0.6406  -1.9657   0.0625 N.am           1 S1                 0.0000
     16 ****         2.0864  -2.1225   0.1668 C.3            1 S1                 0.0000
     17 ****         2.6401  -1.4415   1.4300 C.3            1 S1                 0.0000
     18 ****         4.1475  -1.5643   1.5337 C.ar           1 S1                 0.0000
     19 ****         4.7709  -2.5265   2.3577 C.ar           1 S1                 0.0000
     20 ****         6.1796  -2.5869   2.4010 C.ar           1 S1                 0.0000
     21 ****         6.9337  -1.6864   1.6201 C.ar           1 S1                 0.0000
     22 ****         6.2591  -0.7463   0.8145 C.ar           1 S1                 0.0000
     23 ****         4.9083  -0.7197   0.8000 N.pl3          1 S1                 1.0000
     24 ****        -1.8211  -1.6693  -1.1237 H              1 S1                 0.0000
     25 ****        -1.8700  -1.2788   0.5698 H              1 S1                 0.0000
     26 ****        -2.3768   3.3780  -0.2449 H              1 S1                 0.0000
     27 ****        -4.4335   2.7254   1.2775 H              1 S1                 0.0000
     28 ****        -4.6707   3.9396   0.0511 H              1 S1                 0.0000
     29 ****        -6.3966   1.8007   0.2332 H              1 S1                 0.0000
     30 ****        -6.4109   1.2294  -2.1454 H              1 S1                 0.0000
     31 ****        -4.4626   1.5732  -3.5177 H              1 S1                 0.0000
     32 ****        -4.6885   3.2131  -2.9735 H              1 S1                 0.0000
     33 ****        -2.3891   2.8375  -2.4815 H              1 S1                 0.0000
     34 ****         0.0715  -2.7545   0.3346 H              1 S1                 0.0000
     35 ****         2.3136  -3.1886   0.1890 H              1 S1                 0.0000
     36 ****         2.5657  -1.7217  -0.7281 H              1 S1                 0.0000
     37 ****         2.3786  -0.3824   1.4374 H              1 S1                 0.0000
     38 ****         2.1819  -1.8765   2.3192 H              1 S1                 0.0000
     39 ****         4.1796  -3.2115   2.9482 H              1 S1                 0.0000
     40 ****         6.6756  -3.3162   3.0249 H              1 S1                 0.0000
     41 ****         8.0134  -1.7164   1.6390 H              1 S1                 0.0000
     42 ****         6.7546  -0.0208   0.1859 H              1 S1                 0.0000
     43 ****         4.4405  -0.0314   0.2095 H              1 S1                 0.0000
     44 ****         0.1185   0.9543  -1.0464 LP             1 S1                 0.0000
     45 ****         1.6257   0.1719  -0.7059 LP             1 S1                 0.0000
     46 ****        -1.8292   0.3742   1.7983 LP             1 S1                 0.0000
     47 ****        -2.5055   1.9508   2.0370 LP             1 S1                 0.0000
     48 ****        -1.8658  -0.7712  -2.9376 LP             1 S1                 0.0000
     49 ****        -2.5485   0.5258  -3.8605 LP             1 S1                 0.0000
@<TRIPOS>BOND
    1    1    2 2     
    2    2    3 1     
    3    2   15 am    
    4    3    4 1     
    5    3   24 1     
    6    3   25 1     
    7    4   13 am    
    8    4    5 am    
    9    5    6 2     
   10    5    7 1     
   11    7   12 1     
   12    7    8 1     
   13    7   26 1     
   14    8    9 1     
   15    8   27 1     
   16    8   28 1     
   17    9   10 2     
   18    9   29 1     
   19   10   11 1     
   20   10   30 1     
   21   11   12 1     
   22   11   31 1     
   23   11   32 1     
   24   12   13 1     
   25   12   33 1     
   26   13   14 2     
   27   15   16 1     
   28   15   34 1     
   29   16   17 1     
   30   16   35 1     
   31   16   36 1     
   32   17   18 1     
   33   17   37 1     
   34   17   38 1     
   35   18   23 ar    
   36   18   19 ar    
   37   19   20 ar    
   38   19   39 1     
   39   20   21 ar    
   40   20   40 1     
   41   21   22 ar    
   42   21   41 1     
   43   22   23 ar    
   44   22   42 1     
   45   23   43 1     
   46    1   44 1     
   47    1   45 1     
   48    6   46 1     
   49    6   47 1     
   50   14   48 1     
   51   14   49 1     
@<TRIPOS>SUBSTRUCTURE
      1 S1             1
@<TRIPOS>SET
LONE_PAIRS      STATIC     ATOMS    <user>   **** ""
6 44 45 46 47 48 49
DONOR_HYDROGENS      STATIC     ATOMS    <user>   **** ""
2 34 43
ATOM$BLUE        STATIC     ATOMS    COLORGROUP SYSTEM
6 44 45 46 47 48 49
ATOM$RED        STATIC     ATOMS    COLORGROUP SYSTEM
2 34 43
