AV-unprocessed.smi:1405|AV-procd|sdf|5708|dock2
  -GOLD-   22720 5343D 1   1.00000     0.00000
 Structure written by MMmdl.
 48 51  0  0  0  0  0  0  0  0  2 V2000
  148.8459  141.7426  153.8307 O   0  0  0  0  0  0  0  0  0  0  0  0
  147.9113  141.7501  154.6312 C   0  0  0  0  0  0  0  0  0  0  0  0
  146.4744  141.5808  154.1063 C   0  0  0  0  0  0  0  0  0  0  0  0
  145.5810  142.7245  154.3679 N   0  0  0  0  0  0  0  0  0  0  0  0
  145.4141  143.6644  153.3355 C   0  0  0  0  0  0  0  0  0  0  0  0
  144.6317  144.7505  153.4822 C   0  0  0  0  0  0  0  0  0  0  0  0
  143.9462  144.9403  154.7543 C   0  0  0  0  0  0  0  0  0  0  0  0
  143.2284  145.9267  154.9065 O   0  0  0  0  0  0  0  0  0  0  0  0
  144.1404  144.0011  155.7259 N   0  5  0  0  0  0  0  0  0  0  0  0
  144.9409  142.9023  155.5632 C   0  0  0  0  0  0  0  0  0  0  0  0
  145.1116  142.0733  156.4573 O   0  0  0  0  0  0  0  0  0  0  0  0
  148.0875  141.9147  155.9520 N   0  0  0  0  0  0  0  0  0  0  0  0
  149.3681  142.1098  156.6155 C   0  0  0  0  0  0  0  0  0  0  0  0
  149.1516  142.7690  157.9904 C   0  0  0  0  0  0  0  0  0  0  0  0
  150.4104  143.3558  158.6786 C   0  0  0  0  0  0  0  0  0  0  0  0
  150.0380  144.1467  159.9621 C   0  0  0  0  0  0  0  0  0  0  0  0
  151.3112  144.6704  160.6612 C   0  0  2  0  0  0  0  0  0  0  0  0
  152.0794  145.6030  159.7011 C   0  0  0  0  0  0  0  0  0  0  0  0
  152.4797  144.8143  158.4358 C   0  0  1  0  0  0  0  0  0  0  0  0
  153.3820  143.6271  158.8299 C   0  0  0  0  0  0  0  0  0  0  0  0
  152.6084  142.7017  159.7908 C   0  0  1  0  0  0  0  0  0  0  0  0
  152.2113  143.4830  161.0596 C   0  0  0  0  0  0  0  0  0  0  0  0
  151.3371  142.1794  159.0894 C   0  0  0  0  0  0  0  0  0  0  0  0
  151.2093  144.2908  157.7303 C   0  0  0  0  0  0  0  0  0  0  0  0
  146.5272  141.3919  153.0332 H   0  0  0  0  0  0  0  0  0  0  0  0
  146.0570  140.6662  154.5308 H   0  0  0  0  0  0  0  0  0  0  0  0
  145.9620  143.4526  152.4289 H   0  0  0  0  0  0  0  0  0  0  0  0
  144.5172  145.4645  152.6799 H   0  0  0  0  0  0  0  0  0  0  0  0
  147.2655  141.9011  156.5391 H   0  0  0  0  0  0  0  0  0  0  0  0
  149.8720  141.1495  156.7303 H   0  0  0  0  0  0  0  0  0  0  0  0
  149.9899  142.7317  155.9723 H   0  0  0  0  0  0  0  0  0  0  0  0
  148.4102  143.5626  157.8839 H   0  0  0  0  0  0  0  0  0  0  0  0
  148.6969  142.0304  158.6527 H   0  0  0  0  0  0  0  0  0  0  0  0
  149.3925  144.9918  159.7231 H   0  0  0  0  0  0  0  0  0  0  0  0
  149.4719  143.5135  160.6466 H   0  0  0  0  0  0  0  0  0  0  0  0
  151.0290  145.2254  161.5563 H   0  0  0  0  0  0  0  0  0  0  0  0
  151.4613  146.4608  159.4327 H   0  0  0  0  0  0  0  0  0  0  0  0
  152.9662  146.0042  160.1936 H   0  0  0  0  0  0  0  0  0  0  0  0
  153.0245  145.4719  157.7579 H   0  0  0  0  0  0  0  0  0  0  0  0
  153.6919  143.0760  157.9411 H   0  0  0  0  0  0  0  0  0  0  0  0
  154.2960  143.9864  159.3043 H   0  0  0  0  0  0  0  0  0  0  0  0
  153.2413  141.8583  160.0686 H   0  0  0  0  0  0  0  0  0  0  0  0
  153.1018  143.8404  161.5783 H   0  0  0  0  0  0  0  0  0  0  0  0
  151.6882  142.8295  161.7589 H   0  0  0  0  0  0  0  0  0  0  0  0
  150.8072  141.4940  159.7523 H   0  0  0  0  0  0  0  0  0  0  0  0
  151.6179  141.5951  158.2117 H   0  0  0  0  0  0  0  0  0  0  0  0
  151.4812  143.7616  156.8159 H   0  0  0  0  0  0  0  0  0  0  0  0
  150.6007  145.1413  157.4226 H   0  0  0  0  0  0  0  0  0  0  0  0
  1  2  2  0  0  0  0
  2  3  1  0  0  0  0
  2 12  1  0  0  0  0
  3  4  1  0  0  0  0
  3 25  1  0  0  0  0
  3 26  1  0  0  0  0
  4 10  1  0  0  0  0
  4  5  1  0  0  0  0
  5  6  2  0  0  0  0
  5 27  1  0  0  0  0
  6  7  1  0  0  0  0
  6 28  1  0  0  0  0
  7  8  2  0  0  0  0
  7  9  1  0  0  0  0
  9 10  1  0  0  0  0
 10 11  2  0  0  0  0
 12 13  1  0  0  0  0
 12 29  1  0  0  0  0
 13 14  1  0  0  0  0
 13 30  1  0  0  0  0
 13 31  1  0  0  0  0
 14 15  1  0  0  0  0
 14 32  1  0  0  0  0
 14 33  1  0  0  0  0
 15 23  1  0  0  0  0
 15 24  1  0  0  0  0
 15 16  1  0  0  0  0
 16 17  1  0  0  0  0
 16 34  1  0  0  0  0
 16 35  1  0  0  0  0
 17 22  1  0  0  0  0
 17 18  1  0  0  0  0
 17 36  1  0  0  0  0
 18 19  1  0  0  0  0
 18 37  1  0  0  0  0
 18 38  1  0  0  0  0
 19 20  1  0  0  0  0
 19 24  1  0  0  0  0
 19 39  1  0  0  0  0
 20 21  1  0  0  0  0
 20 40  1  0  0  0  0
 20 41  1  0  0  0  0
 21 22  1  0  0  0  0
 21 23  1  0  0  0  0
 21 42  1  0  0  0  0
 22 43  1  0  0  0  0
 22 44  1  0  0  0  0
 23 45  1  0  0  0  0
 23 46  1  0  0  0  0
 24 47  1  0  0  0  0
 24 48  1  0  0  0  0
M  CHG  1   9  -1
M  END
> <s_m_source_file>
AV-unprocessed.smi

> <i_m_source_file_index>
1405

> <i_lp_mmshare_version>
43012

> <i_f3d_flags>
0

> <s_epik_input>
Tz1jMVtuSF1jKD1PKVtjSF1bY0hdbjFbQ0gyXUMoPU8pW05IXVtDSDJdW0NIMl1DMjNbQ0gyXVtDQEBIXTRbQ0gyXVtDQEhdKFtDSDJdMylbQ0gyXVtDQEBIXShbQ0gyXTQpW0NIMl0y

> <s_epik_cmdline>
J2VwaWtfcHl0aG9uJywgJy1waCcsICc3LjAnLCAnLXRuJywgJzgnLCAnLW1hJywgJzIwMCcsICctbWV0YWxfYmluZGluZycsICctaW1hZScsICc8aW5maWxlLm1hZT4nLCAnLW9tYWUnLCAnPG91dGZpbGUubWFlPic=

> <r_lp_tautomer_probability>
0.999537

> <r_epik_Ionization_Penalty>
3.12935

> <r_epik_Ionization_Penalty_Charging>
2.8866e-08

> <r_epik_Ionization_Penalty_Neutral>
3.12935

> <r_epik_State_Penalty>
3.12845

> <r_epik_Charging_Adjusted_Penalty>
3.12845

> <i_epik_Tot_Q>
-1

> <i_epik_Tot_abs_Q>
1

> <r_epik_Metal_State_Penalty>
0.464346

> <b_epik_Metal_Only>
1

> <s_lp_Force_Field>
OPLS_2005

> <r_lp_Energy>
42.9683

> <b_lp_Chiralities_Consistent>
1

> <s_lp_Variant>
AV-unprocessed.smi:1405-2

> <Gold.Version>
5.8.1

> <Gold.Id.Protein>
6NUR|6NUR_protein|mol2

> <Gold.PLP.Fitness>
52.6017

> <Gold.PLP.PLP>
-51.8040

> <Gold.PLP.part.hbond>
-2.7722

> <Gold.PLP.part.metal>
0.0000

> <Gold.PLP.part.buried>
-3.4501

> <Gold.PLP.part.nonpolar>
-45.7454

> <Gold.PLP.part.repulsive>
0.4377

> <Gold.PLP.ligand.clash>
0.0000

> <Gold.PLP.ligand.torsion>
0.5792

> <Gold.PLP.Chemscore.Hbond>
0.6240

> <Gold.PLP.Chemscore.CHOScore>
0.0000

> <Gold.PLP.Chemscore.Metal>
0.0000

> <Gold.Chemscore.Hbonds>
donor molecule, donor type, donor heavy atom, donor atom, acceptor molecule, acceptor atom, score
      P1  H  8011  8017       L1     1  0.59

> <Gold.PLP.Chemscore.Internal.Correction>
0.0840

> <Gold.Rescore>
     Score         DG    S(hbond)    S(metal)    S(lipo)     H(rot)  DE(clash)    DE(int)     intcor
     16.56     -18.51       0.60        0.00     140.71       2.12       1.43       0.52       ----

> <Gold.Chemscore.Fitness>
16.5645

> <Gold.Chemscore.DG>
-18.5108

> <Gold.Chemscore.ZeroCoef>
-5.4800

> <Gold.Chemscore.Hbond>
0.5984

> <Gold.Chemscore.Metal>
0.0000

> <Gold.Chemscore.Lipo>
140.7131

> <Gold.Chemscore.Internal_Hbond>
0.0000

> <Gold.Chemscore.DEClash>
1.4291

> <Gold.Chemscore.DEInternal>
0.5173

> <Gold.Chemscore.Rot>
2.1216

> <Gold.Chemscore.Internal.Correction>
   9.000000E+99

> <Gold.Chemscore.Hbonds>
donor molecule, donor type, donor heavy atom, donor atom, acceptor molecule, acceptor atom, score
      P1  H  8011  8017       L1     1  0.60

> <Gold.Chemscore.Hbond.Weighted>
-1.9988

> <Gold.Chemscore.Metal.Weighted>
-0.0000

> <Gold.Chemscore.Lipo.Weighted>
-16.4634

> <Gold.Chemscore.Internal_Hbond.Weighted>
0.0000

> <Gold.Chemscore.DEClash.Weighted>
1.4291

> <Gold.Chemscore.DEInternal.Weighted>
0.5173

> <Gold.Chemscore.Rot.Weighted>
5.4314

> <Gold.Chemscore.Internal.Correction.Weighted>
   9.000000E+99

> <Gold.Protein.RotatedTorsions>
[ 6907 6896 6895 6894 ] final  143.19 input  -60.11 | X-H torsion
[ 7974 7965 7964 7962 ] final -136.25 input  175.53 | X-H torsion
[ 8008 7997 7996 7995 ] final -165.73 input   59.86 | X-H torsion
[ 10167 10162 10161 10158 ] final   36.66 input  -65.29 | X-H torsion
[ 10718 10713 10712 10709 ] final  118.45 input   66.30 | X-H torsion
[ 10763 10752 10751 10750 ] final   67.03 input  -60.55 | X-H torsion
[ 11005 11000 10999 10996 ] final -144.98 input  -57.11 | X-H torsion

> <Gold.Protein.ActiveResidues>
 VAL166  LYS551  ARG553  GLY616  TRP617  ASP618  TYR619  PRO620  LYS621  CYS622 
 ASP623  PHE694  ASN695  SER759  ASP760  ASP761  ALA762  ILE779  LEU786  VAL792 
 PHE793  MET794  SER795  GLU796  ALA797  LYS798  CYS799  TRP800  GLU811  SER814 

> <Gold.Protein.RotatedAtoms>
  152.2094  133.4900  159.5101 H   0  0  0  0  0  0  0  0  0  0  0  0  # atno 6907 bound_to 6896
  150.6987  134.1487  159.4141 H   0  0  0  0  0  0  0  0  0  0  0  0  # atno 6908 bound_to 6896
  151.9406  135.0215  160.0586 H   0  0  0  0  0  0  0  0  0  0  0  0  # atno 6909 bound_to 6896
  144.8943  140.6685  143.5125 H   0  0  0  0  0  0  0  0  0  0  0  0  # atno 7974 bound_to 7965
  155.8540  140.0967  157.1657 H   0  0  0  0  0  0  0  0  0  0  0  0  # atno 8008 bound_to 7997
  154.3987  140.1378  156.3941 H   0  0  0  0  0  0  0  0  0  0  0  0  # atno 8009 bound_to 7997
  155.7930  140.3455  155.5362 H   0  0  0  0  0  0  0  0  0  0  0  0  # atno 8010 bound_to 7997
  140.4107  144.1597  150.6139 H   0  0  0  0  0  0  0  0  0  0  0  0  # atno 10167 bound_to 10162
  157.6029  131.1048  150.7757 H   0  0  0  0  0  0  0  0  0  0  0  0  # atno 10718 bound_to 10713
  153.0167  135.5299  154.6916 H   0  0  0  0  0  0  0  0  0  0  0  0  # atno 10763 bound_to 10752
  154.6049  135.2872  155.0497 H   0  0  0  0  0  0  0  0  0  0  0  0  # atno 10764 bound_to 10752
  154.1540  135.6558  153.5022 H   0  0  0  0  0  0  0  0  0  0  0  0  # atno 10765 bound_to 10752
  140.7969  134.2903  157.4993 H   0  0  0  0  0  0  0  0  0  0  0  0  # atno 11005 bound_to 11000
  145.3727  139.1655  143.4323 LP  0  0  0  0  0  0  0  0  0  0  0  0  # atno 17320 bound_to 7965
  146.3072  140.3801  142.8683 LP  0  0  0  0  0  0  0  0  0  0  0  0  # atno 17321 bound_to 7965
  140.4641  143.2437  151.9179 LP  0  0  0  0  0  0  0  0  0  0  0  0  # atno 17342 bound_to 10162
  139.4782  144.5437  151.8490 LP  0  0  0  0  0  0  0  0  0  0  0  0  # atno 17343 bound_to 10162
  156.8152  130.4965  149.5350 LP  0  0  0  0  0  0  0  0  0  0  0  0  # atno 17370 bound_to 10713
  156.1108  130.6038  151.0043 LP  0  0  0  0  0  0  0  0  0  0  0  0  # atno 17371 bound_to 10713
  139.8725  134.9407  156.3776 LP  0  0  0  0  0  0  0  0  0  0  0  0  # atno 17394 bound_to 11000
  140.9334  133.7564  156.0053 LP  0  0  0  0  0  0  0  0  0  0  0  0  # atno 17395 bound_to 11000

$$$$
