AV-unprocessed.smi:3092|AV-procd|sdf|11782|dock2
  -GOLD-   2272017163D 1   1.00000     0.00000
 Structure written by MMmdl.
 25 26  0  0  0  0  0  0  0  0  2 V2000
  151.6011  144.3351  161.1053 C   0  0  0  0  0  0  0  0  0  0  0  0
  152.3405  143.1021  160.9133 N   0  0  0  0  0  0  0  0  0  0  0  0
  153.2704  142.5717  161.7983 C   0  0  0  0  0  0  0  0  0  0  0  0
  153.7275  141.4037  161.2388 C   0  0  0  0  0  0  0  0  0  0  0  0
  153.0950  141.2015  160.0172 N   0  0  0  0  0  0  0  0  0  0  0  0
  152.2811  142.2445  159.8737 C   0  0  0  0  0  0  0  0  0  0  0  0
  151.3856  142.4382  158.6825 C   0  0  2  0  0  0  0  0  0  0  0  0
  151.4394  141.3330  157.6307 C   0  0  0  0  0  0  0  0  0  0  0  0
  150.8658  142.0081  156.3759 C   0  0  0  0  0  0  0  0  0  0  0  0
  150.9883  143.4684  156.5812 N   0  3  0  0  0  0  0  0  0  0  0  0
  151.6807  143.6923  157.8625 C   0  0  0  0  0  0  0  0  0  0  0  0
  151.8495  144.7770  162.0709 H   0  0  0  0  0  0  0  0  0  0  0  0
  150.5300  144.1324  161.0784 H   0  0  0  0  0  0  0  0  0  0  0  0
  151.8556  145.0447  160.3174 H   0  0  0  0  0  0  0  0  0  0  0  0
  153.5233  143.0556  162.7304 H   0  0  0  0  0  0  0  0  0  0  0  0
  154.4548  140.7004  161.6172 H   0  0  0  0  0  0  0  0  0  0  0  0
  150.3524  142.5115  159.0225 H   0  0  0  0  0  0  0  0  0  0  0  0
  152.4746  141.0458  157.4398 H   0  0  0  0  0  0  0  0  0  0  0  0
  150.8939  140.4360  157.9258 H   0  0  0  0  0  0  0  0  0  0  0  0
  151.3939  141.6952  155.4746 H   0  0  0  0  0  0  0  0  0  0  0  0
  149.8111  141.7613  156.2505 H   0  0  0  0  0  0  0  0  0  0  0  0
  151.4946  143.9021  155.8223 H   0  0  0  0  0  0  0  0  0  0  0  0
  151.3526  144.6095  158.3523 H   0  0  0  0  0  0  0  0  0  0  0  0
  152.7493  143.7787  157.6597 H   0  0  0  0  0  0  0  0  0  0  0  0
  150.0592  143.8606  156.6387 H   0  0  0  0  0  0  0  0  0  0  0  0
  1  2  1  0  0  0  0
  1 12  1  0  0  0  0
  1 13  1  0  0  0  0
  1 14  1  0  0  0  0
  2  6  1  0  0  0  0
  2  3  1  0  0  0  0
  3  4  2  0  0  0  0
  3 15  1  0  0  0  0
  4  5  1  0  0  0  0
  4 16  1  0  0  0  0
  5  6  2  0  0  0  0
  6  7  1  0  0  0  0
  7 11  1  0  0  0  0
  7  8  1  0  0  0  0
  7 17  1  0  0  0  0
  8  9  1  0  0  0  0
  8 18  1  0  0  0  0
  8 19  1  0  0  0  0
  9 10  1  0  0  0  0
  9 20  1  0  0  0  0
  9 21  1  0  0  0  0
 10 11  1  0  0  0  0
 10 22  1  0  0  0  0
 10 25  1  0  0  0  0
 11 23  1  0  0  0  0
 11 24  1  0  0  0  0
M  CHG  1  10   1
M  END
> <s_m_source_file>
AV-unprocessed.smi

> <i_m_source_file_index>
3092

> <i_lp_mmshare_version>
43012

> <i_f3d_flags>
0

> <s_epik_input>
W0NIM11uMVtjSF1bY0hdbmMxW0NAQEhdMltDSDJdW0NIMl1bTkhdW0NIMl0y

> <s_epik_cmdline>
J2VwaWtfcHl0aG9uJywgJy1waCcsICc3LjAnLCAnLXRuJywgJzgnLCAnLW1hJywgJzIwMCcsICctbWV0YWxfYmluZGluZycsICctaW1hZScsICc8aW5maWxlLm1hZT4nLCAnLW9tYWUnLCAnPG91dGZpbGUubWFlPic=

> <r_lp_tautomer_probability>
1

> <r_epik_Ionization_Penalty>
0.177139

> <r_epik_Ionization_Penalty_Charging>
0.177139

> <r_epik_Ionization_Penalty_Neutral>
7.43304e-14

> <r_epik_State_Penalty>
0.16632

> <r_epik_Charging_Adjusted_Penalty>
0.343459

> <i_epik_Tot_Q>
1

> <i_epik_Tot_abs_Q>
1

> <r_epik_Metal_State_Penalty>
0.000191838

> <b_epik_Metal_Only>
0

> <s_lp_Force_Field>
OPLS_2005

> <r_lp_Energy>
23.658

> <b_lp_Chiralities_Consistent>
1

> <s_lp_Variant>
AV-unprocessed.smi:3092-1

> <Gold.Version>
5.8.1

> <Gold.Id.Protein>
6NUR|6NUR_protein|mol2

> <Gold.PLP.Fitness>
35.4506

> <Gold.PLP.PLP>
-29.5141

> <Gold.PLP.part.hbond>
-1.0000

> <Gold.PLP.part.metal>
0.0000

> <Gold.PLP.part.buried>
-3.8697

> <Gold.PLP.part.nonpolar>
-24.1418

> <Gold.PLP.part.repulsive>
0.0675

> <Gold.PLP.ligand.clash>
0.0000

> <Gold.PLP.ligand.torsion>
0.0084

> <Gold.PLP.Chemscore.Hbond>
1.9840

> <Gold.PLP.Chemscore.CHOScore>
0.0000

> <Gold.PLP.Chemscore.Metal>
0.0000

> <Gold.Chemscore.Hbonds>
donor molecule, donor type, donor heavy atom, donor atom, acceptor molecule, acceptor atom, score
      L1  H    10    25       P1  8028  1.63

> <Gold.PLP.Chemscore.Internal.Correction>
0.0012

> <Gold.Rescore>
     Score         DG    S(hbond)    S(metal)    S(lipo)     H(rot)  DE(clash)    DE(int)     intcor
     14.50     -14.60       0.97        0.00      72.19       1.00       0.09       0.01       ----

> <Gold.Chemscore.Fitness>
14.5039

> <Gold.Chemscore.DG>
-14.6034

> <Gold.Chemscore.ZeroCoef>
-5.4800

> <Gold.Chemscore.Hbond>
0.9693

> <Gold.Chemscore.Metal>
0.0000

> <Gold.Chemscore.Lipo>
72.1884

> <Gold.Chemscore.Internal_Hbond>
0.0000

> <Gold.Chemscore.DEClash>
0.0926

> <Gold.Chemscore.DEInternal>
0.0069

> <Gold.Chemscore.Rot>
1.0000

> <Gold.Chemscore.Internal.Correction>
   9.000000E+99

> <Gold.Chemscore.Hbonds>
donor molecule, donor type, donor heavy atom, donor atom, acceptor molecule, acceptor atom, score
      L1  H    10    25       P1  8028  0.81

> <Gold.Chemscore.Hbond.Weighted>
-3.2373

> <Gold.Chemscore.Metal.Weighted>
-0.0000

> <Gold.Chemscore.Lipo.Weighted>
-8.4460

> <Gold.Chemscore.Internal_Hbond.Weighted>
0.0000

> <Gold.Chemscore.DEClash.Weighted>
0.0926

> <Gold.Chemscore.DEInternal.Weighted>
0.0069

> <Gold.Chemscore.Rot.Weighted>
2.5600

> <Gold.Chemscore.Internal.Correction.Weighted>
   9.000000E+99

> <Gold.Protein.RotatedTorsions>
[ 6907 6896 6895 6894 ] final   28.21 input  -60.11 | X-H torsion
[ 7974 7965 7964 7962 ] final   96.68 input  175.53 | X-H torsion
[ 8008 7997 7996 7995 ] final   25.48 input   59.86 | X-H torsion
[ 10167 10162 10161 10158 ] final   19.85 input  -65.29 | X-H torsion
[ 10718 10713 10712 10709 ] final -156.04 input   66.30 | X-H torsion
[ 10763 10752 10751 10750 ] final -110.15 input  -60.55 | X-H torsion
[ 11005 11000 10999 10996 ] final -103.05 input  -57.11 | X-H torsion

> <Gold.Protein.ActiveResidues>
 VAL166  LYS551  ARG553  GLY616  TRP617  ASP618  TYR619  PRO620  LYS621  CYS622 
 ASP623  PHE694  ASN695  SER759  ASP760  ASP761  ALA762  ILE779  LEU786  VAL792 
 PHE793  MET794  SER795  GLU796  ALA797  LYS798  CYS799  TRP800  GLU811  SER814 

> <Gold.Protein.RotatedAtoms>
  152.0135  134.9863  160.0568 H   0  0  0  0  0  0  0  0  0  0  0  0  # atno 6907 bound_to 6896
  152.1405  133.4456  159.4773 H   0  0  0  0  0  0  0  0  0  0  0  0  # atno 6908 bound_to 6896
  150.6864  134.2229  159.4447 H   0  0  0  0  0  0  0  0  0  0  0  0  # atno 6909 bound_to 6896
  145.4357  139.2306  143.3120 H   0  0  0  0  0  0  0  0  0  0  0  0  # atno 7974 bound_to 7965
  155.0124  140.3138  155.4824 H   0  0  0  0  0  0  0  0  0  0  0  0  # atno 8008 bound_to 7997
  156.2907  140.2212  156.5180 H   0  0  0  0  0  0  0  0  0  0  0  0  # atno 8009 bound_to 7997
  154.7523  140.0465  157.0892 H   0  0  0  0  0  0  0  0  0  0  0  0  # atno 8010 bound_to 7997
  140.5548  143.9444  150.6602 H   0  0  0  0  0  0  0  0  0  0  0  0  # atno 10167 bound_to 10162
  156.5210  130.8478  151.2682 H   0  0  0  0  0  0  0  0  0  0  0  0  # atno 10718 bound_to 10713
  154.8232  135.4574  154.0842 H   0  0  0  0  0  0  0  0  0  0  0  0  # atno 10763 bound_to 10752
  153.2177  135.6890  153.8043 H   0  0  0  0  0  0  0  0  0  0  0  0  # atno 10764 bound_to 10752
  153.7472  135.3303  155.3291 H   0  0  0  0  0  0  0  0  0  0  0  0  # atno 10765 bound_to 10752
  141.1163  133.8608  157.1437 H   0  0  0  0  0  0  0  0  0  0  0  0  # atno 11005 bound_to 11000
  146.2583  140.5099  142.8864 LP  0  0  0  0  0  0  0  0  0  0  0  0  # atno 17320 bound_to 7965
  144.8154  140.6459  143.6388 LP  0  0  0  0  0  0  0  0  0  0  0  0  # atno 17321 bound_to 7965
  140.2879  143.3344  152.1090 LP  0  0  0  0  0  0  0  0  0  0  0  0  # atno 17342 bound_to 10162
  139.5043  144.6773  151.6097 LP  0  0  0  0  0  0  0  0  0  0  0  0  # atno 17343 bound_to 10162
  157.7437  130.9917  150.2610 LP  0  0  0  0  0  0  0  0  0  0  0  0  # atno 17370 bound_to 10713
  156.3149  130.3777  149.7628 LP  0  0  0  0  0  0  0  0  0  0  0  0  # atno 17371 bound_to 10713
  140.0087  134.9997  157.0348 LP  0  0  0  0  0  0  0  0  0  0  0  0  # atno 17394 bound_to 11000
  140.4637  134.1458  155.7194 LP  0  0  0  0  0  0  0  0  0  0  0  0  # atno 17395 bound_to 11000

$$$$
