AV-unprocessed.smi:203|AV-procd|sdf|1590|dock4
  -GOLD-   2262019483D 1   1.00000     0.00000
 Structure written by MMmdl.
 57 61  0  0  0  0  0  0  0  0  1 V2000
  149.2512  141.6877  153.7798 O   0  0  0  0  0  0  0  0  0  0  0  0
  149.2901  141.2449  154.9253 C   0  0  0  0  0  0  0  0  0  0  0  0
  150.5550  140.7117  155.5752 C   0  0  0  0  0  0  0  0  0  0  0  0
  150.1440  140.4908  157.0450 C   0  0  1  0  0  0  0  0  0  0  0  0
  150.8348  141.4526  158.0650 C   0  0  2  0  0  0  0  0  0  0  0  0
  150.9279  142.9132  157.5505 C   0  0  0  0  0  0  0  0  0  0  0  0
  151.5939  143.8345  158.5817 C   0  0  0  0  0  0  0  0  0  0  0  0
  152.9720  143.2827  158.9640 C   0  0  0  0  0  0  0  0  0  0  0  0
  152.8495  141.8379  159.4669 C   0  0  0  0  0  0  0  0  0  0  0  0
  152.1704  140.9915  158.4870 N   0  0  0  0  0  0  0  0  0  0  0  0
  152.2644  139.6891  158.8336 C   0  0  0  0  0  0  0  0  0  0  0  0
  151.1166  139.0550  159.1766 N   0  0  0  0  0  0  0  0  0  0  0  0
  151.1559  137.7851  159.5910 C   0  0  0  0  0  0  0  0  0  0  0  0
  152.2162  136.9877  159.7395 N   0  0  0  0  0  0  0  0  0  0  0  0
  153.3690  137.6224  159.3799 C   0  0  0  0  0  0  0  0  0  0  0  0
  153.4830  138.9581  158.9064 C   0  0  0  0  0  0  0  0  0  0  0  0
  154.8142  139.2575  158.6407 N   0  0  0  0  0  0  0  0  0  0  0  0
  155.4552  138.1690  158.9681 C   0  0  0  0  0  0  0  0  0  0  0  0
  154.6663  137.1465  159.4429 N   0  0  0  0  0  0  0  0  0  0  0  0
  155.1187  135.8626  159.9436 C   0  0  0  0  0  0  0  0  0  0  0  0
  156.1665  136.0030  161.0704 C   0  0  2  0  0  0  0  0  0  0  0  0
  156.9663  134.8378  161.0498 O   0  0  0  0  0  0  0  0  0  0  0  0
  155.5666  136.1873  162.4845 C   0  0  1  0  0  0  0  0  0  0  0  0
  154.5321  137.3089  162.6059 C   0  0  0  0  0  0  0  0  0  0  0  0
  153.6850  136.8954  163.8010 C   0  0  0  0  0  0  0  0  0  0  0  0
  154.0440  135.4242  164.0194 C   0  0  0  0  0  0  0  0  0  0  0  0
  154.7845  135.0632  162.8647 O   0  0  0  0  0  0  0  0  0  0  0  0
  148.6036  140.5937  157.0505 C   0  0  0  0  0  0  0  0  0  0  0  0
  148.2576  141.1589  155.7611 N   0  0  0  0  0  0  0  0  0  0  0  0
  150.8345  139.7704  155.1009 H   0  0  0  0  0  0  0  0  0  0  0  0
  151.3860  141.4073  155.4579 H   0  0  0  0  0  0  0  0  0  0  0  0
  150.3775  139.4602  157.3140 H   0  0  0  0  0  0  0  0  0  0  0  0
  150.2117  141.4727  158.9597 H   0  0  0  0  0  0  0  0  0  0  0  0
  151.5016  142.9527  156.6243 H   0  0  0  0  0  0  0  0  0  0  0  0
  149.9404  143.3069  157.3130 H   0  0  0  0  0  0  0  0  0  0  0  0
  151.6906  144.8432  158.1794 H   0  0  0  0  0  0  0  0  0  0  0  0
  150.9655  143.9095  159.4700 H   0  0  0  0  0  0  0  0  0  0  0  0
  153.6350  143.3151  158.0985 H   0  0  0  0  0  0  0  0  0  0  0  0
  153.4286  143.9084  159.7312 H   0  0  0  0  0  0  0  0  0  0  0  0
  153.8435  141.4401  159.6775 H   0  0  0  0  0  0  0  0  0  0  0  0
  152.2949  141.8213  160.4064 H   0  0  0  0  0  0  0  0  0  0  0  0
  150.2027  137.3495  159.8522 H   0  0  0  0  0  0  0  0  0  0  0  0
  156.5303  138.0906  158.8979 H   0  0  0  0  0  0  0  0  0  0  0  0
  154.2499  135.3083  160.3014 H   0  0  0  0  0  0  0  0  0  0  0  0
  155.5292  135.2929  159.1090 H   0  0  0  0  0  0  0  0  0  0  0  0
  156.8183  136.8497  160.8510 H   0  0  0  0  0  0  0  0  0  0  0  0
  156.7896  134.3657  160.2505 H   0  0  0  0  0  0  0  0  0  0  0  0
  156.3615  136.3382  163.2176 H   0  0  0  0  0  0  0  0  0  0  0  0
  154.9901  138.2902  162.7327 H   0  0  0  0  0  0  0  0  0  0  0  0
  153.9077  137.3431  161.7120 H   0  0  0  0  0  0  0  0  0  0  0  0
  153.9235  137.4850  164.6867 H   0  0  0  0  0  0  0  0  0  0  0  0
  152.6235  137.0239  163.5868 H   0  0  0  0  0  0  0  0  0  0  0  0
  154.6750  135.3048  164.9013 H   0  0  0  0  0  0  0  0  0  0  0  0
  153.1668  134.7885  164.1391 H   0  0  0  0  0  0  0  0  0  0  0  0
  148.1494  139.6055  157.1314 H   0  0  0  0  0  0  0  0  0  0  0  0
  148.2135  141.2002  157.8678 H   0  0  0  0  0  0  0  0  0  0  0  0
  147.3201  141.4565  155.5321 H   0  0  0  0  0  0  0  0  0  0  0  0
  1  2  2  0  0  0  0
  2 29  1  0  0  0  0
  2  3  1  0  0  0  0
  3  4  1  0  0  0  0
  3 30  1  0  0  0  0
  3 31  1  0  0  0  0
  4  5  1  0  0  0  0
  4 28  1  0  0  0  0
  4 32  1  0  0  0  0
  5 10  1  0  0  0  0
  5  6  1  0  0  0  0
  5 33  1  0  0  0  0
  6  7  1  0  0  0  0
  6 34  1  0  0  0  0
  6 35  1  0  0  0  0
  7  8  1  0  0  0  0
  7 36  1  0  0  0  0
  7 37  1  0  0  0  0
  8  9  1  0  0  0  0
  8 38  1  0  0  0  0
  8 39  1  0  0  0  0
  9 10  1  0  0  0  0
  9 40  1  0  0  0  0
  9 41  1  0  0  0  0
 10 11  1  0  0  0  0
 11 16  1  0  0  0  0
 11 12  2  0  0  0  0
 12 13  1  0  0  0  0
 13 14  2  0  0  0  0
 13 42  1  0  0  0  0
 14 15  1  0  0  0  0
 15 19  1  0  0  0  0
 15 16  2  0  0  0  0
 16 17  1  0  0  0  0
 17 18  2  0  0  0  0
 18 19  1  0  0  0  0
 18 43  1  0  0  0  0
 19 20  1  0  0  0  0
 20 21  1  0  0  0  0
 20 44  1  0  0  0  0
 20 45  1  0  0  0  0
 21 22  1  0  0  0  0
 21 23  1  0  0  0  0
 21 46  1  0  0  0  0
 22 47  1  0  0  0  0
 23 27  1  0  0  0  0
 23 24  1  0  0  0  0
 23 48  1  0  0  0  0
 24 25  1  0  0  0  0
 24 49  1  0  0  0  0
 24 50  1  0  0  0  0
 25 26  1  0  0  0  0
 25 51  1  0  0  0  0
 25 52  1  0  0  0  0
 26 27  1  0  0  0  0
 26 53  1  0  0  0  0
 26 54  1  0  0  0  0
 28 29  1  0  0  0  0
 28 55  1  0  0  0  0
 28 56  1  0  0  0  0
 29 57  1  0  0  0  0
M  END
> <s_m_source_file>
AV-unprocessed.smi

> <i_m_source_file_index>
203

> <i_lp_mmshare_version>
43012

> <i_f3d_flags>
0

> <s_epik_input>
Tz1DMVtDSDJdW0NASF0oW0NIMl1bTkhdMSlbQ0BASF0yW0NIMl1bQ0gyXVtDSDJdW0NIMl1OMmMobltjSF1uMyljKGMzNCluW2NIXW40W0NIMl1bQ0BIXShbT0hdKVtDQEBIXTVbQ0gyXVtDSDJdW0NIMl1PNQ==

> <s_epik_cmdline>
J2VwaWtfcHl0aG9uJywgJy1waCcsICc3LjAnLCAnLXRuJywgJzgnLCAnLW1hJywgJzIwMCcsICctbWV0YWxfYmluZGluZycsICctaW1hZScsICc8aW5maWxlLm1hZT4nLCAnLW9tYWUnLCAnPG91dGZpbGUubWFlPic=

> <r_lp_tautomer_probability>
1

> <r_epik_Ionization_Penalty>
0.00175146

> <r_epik_Ionization_Penalty_Charging>
0

> <r_epik_Ionization_Penalty_Neutral>
0.00175146

> <r_epik_State_Penalty>
0.00109045

> <r_epik_Charging_Adjusted_Penalty>
0.00109045

> <i_epik_Tot_Q>
0

> <i_epik_Tot_abs_Q>
0

> <r_epik_Metal_State_Penalty>
-0

> <b_epik_Metal_Only>
0

> <s_lp_Force_Field>
OPLS_2005

> <r_lp_Energy>
55.9411

> <b_lp_Chiralities_Consistent>
1

> <s_lp_Variant>
AV-unprocessed.smi:203-9

> <Gold.Version>
5.8.1

> <Gold.Id.Protein>
6NUR|6NUR_protein|mol2

> <Gold.PLP.Fitness>
50.4091

> <Gold.PLP.PLP>
-44.3499

> <Gold.PLP.part.hbond>
-4.3657

> <Gold.PLP.part.metal>
0.0000

> <Gold.PLP.part.buried>
-4.5133

> <Gold.PLP.part.nonpolar>
-35.6588

> <Gold.PLP.part.repulsive>
0.2390

> <Gold.PLP.ligand.clash>
0.0757

> <Gold.PLP.ligand.torsion>
1.0859

> <Gold.PLP.Chemscore.Hbond>
2.6400

> <Gold.PLP.Chemscore.CHOScore>
0.0000

> <Gold.PLP.Chemscore.Metal>
0.0000

> <Gold.Chemscore.Hbonds>
donor molecule, donor type, donor heavy atom, donor atom, acceptor molecule, acceptor atom, score
      P1  H  6896  6909       L1    14  1.00
      P1  H  7997  8010       L1    17  1.00
      P1  H  8011  8017       L1     1  0.66

> <Gold.PLP.Chemscore.Internal.Correction>
0.3867

> <Gold.Rescore>
     Score         DG    S(hbond)    S(metal)    S(lipo)     H(rot)  DE(clash)    DE(int)     intcor
     16.53     -18.96       2.62        0.00      99.81       2.72       0.09       2.34       ----

> <Gold.Chemscore.Fitness>
16.5274

> <Gold.Chemscore.DG>
-18.9577

> <Gold.Chemscore.ZeroCoef>
-5.4800

> <Gold.Chemscore.Hbond>
2.6214

> <Gold.Chemscore.Metal>
0.0000

> <Gold.Chemscore.Lipo>
99.8120

> <Gold.Chemscore.Internal_Hbond>
0.0000

> <Gold.Chemscore.DEClash>
0.0894

> <Gold.Chemscore.DEInternal>
2.3409

> <Gold.Chemscore.Rot>
2.7171

> <Gold.Chemscore.Internal.Correction>
   9.000000E+99

> <Gold.Chemscore.Hbonds>
donor molecule, donor type, donor heavy atom, donor atom, acceptor molecule, acceptor atom, score
      P1  H  6896  6909       L1    14  0.96
      P1  H  7997  8010       L1    17  0.91
      P1  H  8011  8017       L1     1  0.66

> <Gold.Chemscore.Hbond.Weighted>
-8.7554

> <Gold.Chemscore.Metal.Weighted>
-0.0000

> <Gold.Chemscore.Lipo.Weighted>
-11.6780

> <Gold.Chemscore.Internal_Hbond.Weighted>
0.0000

> <Gold.Chemscore.DEClash.Weighted>
0.0894

> <Gold.Chemscore.DEInternal.Weighted>
2.3409

> <Gold.Chemscore.Rot.Weighted>
6.9557

> <Gold.Chemscore.Internal.Correction.Weighted>
   9.000000E+99

> <Gold.Protein.RotatedTorsions>
[ 6907 6896 6895 6894 ] final  144.28 input  -60.11 | X-H torsion
[ 7974 7965 7964 7962 ] final  -81.94 input  175.53 | X-H torsion
[ 8008 7997 7996 7995 ] final  -10.04 input   59.86 | X-H torsion
[ 10167 10162 10161 10158 ] final -134.22 input  -65.29 | X-H torsion
[ 10718 10713 10712 10709 ] final  112.07 input   66.30 | X-H torsion
[ 10763 10752 10751 10750 ] final  -26.03 input  -60.55 | X-H torsion
[ 11005 11000 10999 10996 ] final  -57.55 input  -57.11 | X-H torsion

> <Gold.Protein.ActiveResidues>
 VAL166  LYS551  ARG553  GLY616  TRP617  ASP618  TYR619  PRO620  LYS621  CYS622 
 ASP623  PHE694  ASN695  SER759  ASP760  ASP761  ALA762  ILE779  LEU786  VAL792 
 PHE793  MET794  SER795  GLU796  ALA797  LYS798  CYS799  TRP800  GLU811  SER814 

> <Gold.Protein.RotatedAtoms>
  152.1957  133.4804  159.5031 H   0  0  0  0  0  0  0  0  0  0  0  0  # atno 6907 bound_to 6896
  150.6959  134.1655  159.4201 H   0  0  0  0  0  0  0  0  0  0  0  0  # atno 6908 bound_to 6896
  151.9571  135.0141  160.0596 H   0  0  0  0  0  0  0  0  0  0  0  0  # atno 6909 bound_to 6896
  145.5400  140.9511  143.1556 H   0  0  0  0  0  0  0  0  0  0  0  0  # atno 7974 bound_to 7965
  154.5591  140.2339  155.8363 H   0  0  0  0  0  0  0  0  0  0  0  0  # atno 8008 bound_to 7997
  156.2014  140.3051  155.9494 H   0  0  0  0  0  0  0  0  0  0  0  0  # atno 8009 bound_to 7997
  155.2923  140.0427  157.3014 H   0  0  0  0  0  0  0  0  0  0  0  0  # atno 8010 bound_to 7997
  139.8903  143.6731  152.2613 H   0  0  0  0  0  0  0  0  0  0  0  0  # atno 10167 bound_to 10162
  157.6412  131.0961  150.6841 H   0  0  0  0  0  0  0  0  0  0  0  0  # atno 10718 bound_to 10713
  153.7093  135.6951  153.5041 H   0  0  0  0  0  0  0  0  0  0  0  0  # atno 10763 bound_to 10752
  153.2284  135.4346  155.0567 H   0  0  0  0  0  0  0  0  0  0  0  0  # atno 10764 bound_to 10752
  154.8320  135.3478  154.6630 H   0  0  0  0  0  0  0  0  0  0  0  0  # atno 10765 bound_to 10752
  141.1169  133.6610  156.4786 H   0  0  0  0  0  0  0  0  0  0  0  0  # atno 11005 bound_to 11000
  144.7582  139.7022  143.7245 LP  0  0  0  0  0  0  0  0  0  0  0  0  # atno 17320 bound_to 7965
  146.1987  139.5269  142.9757 LP  0  0  0  0  0  0  0  0  0  0  0  0  # atno 17321 bound_to 7965
  139.7116  144.7619  151.1103 LP  0  0  0  0  0  0  0  0  0  0  0  0  # atno 17342 bound_to 10162
  140.7728  143.5323  150.9408 LP  0  0  0  0  0  0  0  0  0  0  0  0  # atno 17343 bound_to 10162
  156.7164  130.4667  149.5534 LP  0  0  0  0  0  0  0  0  0  0  0  0  # atno 17370 bound_to 10713
  156.1695  130.6427  151.0819 LP  0  0  0  0  0  0  0  0  0  0  0  0  # atno 17371 bound_to 10713
  140.4619  134.6833  157.5089 LP  0  0  0  0  0  0  0  0  0  0  0  0  # atno 17394 bound_to 11000
  140.0098  134.6708  155.9398 LP  0  0  0  0  0  0  0  0  0  0  0  0  # atno 17395 bound_to 11000

$$$$
