AV-unprocessed.smi:1004|AV-procd|sdf|4361|dock1
  -GOLD-   22720 2263D 1   1.00000     0.00000
 Structure written by MMmdl.
 42 43  0  0  0  0  0  0  0  0  1 V2000
  152.8866  142.8844  161.3521 C   0  0  0  0  0  0  0  0  0  0  0  0
  152.2846  142.5610  160.0002 C   0  0  0  0  0  0  0  0  0  0  0  0
  151.2429  143.3932  159.4354 C   0  0  0  0  0  0  0  0  0  0  0  0
  150.7322  143.0766  158.2355 C   0  0  0  0  0  0  0  0  0  0  0  0
  151.1792  141.9581  157.5087 N   0  0  0  0  0  0  0  0  0  0  0  0
  150.5387  141.7019  156.2079 C   0  0  0  0  0  0  0  0  0  0  0  0
  149.1090  141.1549  156.3309 C   0  0  0  0  0  0  0  0  0  0  0  0
  148.9017  140.0013  156.7100 O   0  0  0  0  0  0  0  0  0  0  0  0
  148.1250  142.0096  156.0197 N   0  0  0  0  0  0  0  0  0  0  0  0
  146.7049  141.6841  156.0695 C   0  0  0  0  0  0  0  0  0  0  0  0
  146.0490  141.8028  154.6830 C   0  0  0  0  0  0  0  0  0  0  0  0
  145.3994  143.1544  154.4256 C   0  0  0  0  0  0  0  0  0  0  0  0
  145.6393  143.8594  153.3025 C   0  0  0  0  0  0  0  0  0  0  0  0
  145.0047  145.2023  152.9862 C   0  0  0  0  0  0  0  0  0  0  0  0
  143.8085  145.5148  153.9008 C   0  0  0  0  0  0  0  0  0  0  0  0
  144.1184  145.1570  155.3593 C   0  0  0  0  0  0  0  0  0  0  0  0
  144.4567  143.6629  155.5103 C   0  0  0  0  0  0  0  0  0  0  0  0
  152.1566  141.1304  157.9865 C   0  0  0  0  0  0  0  0  0  0  0  0
  152.5483  140.1471  157.3570 O   0  0  0  0  0  0  0  0  0  0  0  0
  152.7090  141.4871  159.2985 C   0  0  0  0  0  0  0  0  0  0  0  0
  152.4194  143.7663  161.7916 H   0  0  0  0  0  0  0  0  0  0  0  0
  153.9554  143.0775  161.2552 H   0  0  0  0  0  0  0  0  0  0  0  0
  152.7480  142.0488  162.0385 H   0  0  0  0  0  0  0  0  0  0  0  0
  150.8754  144.2560  159.9712 H   0  0  0  0  0  0  0  0  0  0  0  0
  149.9489  143.6505  157.7620 H   0  0  0  0  0  0  0  0  0  0  0  0
  150.5023  142.6167  155.6147 H   0  0  0  0  0  0  0  0  0  0  0  0
  151.1422  141.0063  155.6220 H   0  0  0  0  0  0  0  0  0  0  0  0
  148.3737  142.9407  155.7185 H   0  0  0  0  0  0  0  0  0  0  0  0
  146.5825  140.6723  156.4591 H   0  0  0  0  0  0  0  0  0  0  0  0
  146.2020  142.3532  156.7694 H   0  0  0  0  0  0  0  0  0  0  0  0
  146.7941  141.6219  153.9078 H   0  0  0  0  0  0  0  0  0  0  0  0
  145.3016  141.0157  154.5726 H   0  0  0  0  0  0  0  0  0  0  0  0
  146.3277  143.4756  152.5637 H   0  0  0  0  0  0  0  0  0  0  0  0
  145.7715  145.9700  153.0934 H   0  0  0  0  0  0  0  0  0  0  0  0
  144.6870  145.2142  151.9434 H   0  0  0  0  0  0  0  0  0  0  0  0
  143.5392  146.5680  153.8161 H   0  0  0  0  0  0  0  0  0  0  0  0
  142.9387  144.9456  153.5701 H   0  0  0  0  0  0  0  0  0  0  0  0
  144.9615  145.7574  155.7035 H   0  0  0  0  0  0  0  0  0  0  0  0
  143.2751  145.4139  156.0009 H   0  0  0  0  0  0  0  0  0  0  0  0
  143.5406  143.0728  155.4678 H   0  0  0  0  0  0  0  0  0  0  0  0
  144.8998  143.4880  156.4912 H   0  0  0  0  0  0  0  0  0  0  0  0
  153.4853  140.8617  159.7150 H   0  0  0  0  0  0  0  0  0  0  0  0
  1  2  1  0  0  0  0
  1 21  1  0  0  0  0
  1 22  1  0  0  0  0
  1 23  1  0  0  0  0
  2 20  2  0  0  0  0
  2  3  1  0  0  0  0
  3  4  2  0  0  0  0
  3 24  1  0  0  0  0
  4  5  1  0  0  0  0
  4 25  1  0  0  0  0
  5  6  1  0  0  0  0
  5 18  1  0  0  0  0
  6  7  1  0  0  0  0
  6 26  1  0  0  0  0
  6 27  1  0  0  0  0
  7  8  2  0  0  0  0
  7  9  1  0  0  0  0
  9 10  1  0  0  0  0
  9 28  1  0  0  0  0
 10 11  1  0  0  0  0
 10 29  1  0  0  0  0
 10 30  1  0  0  0  0
 11 12  1  0  0  0  0
 11 31  1  0  0  0  0
 11 32  1  0  0  0  0
 12 17  1  0  0  0  0
 12 13  2  0  0  0  0
 13 14  1  0  0  0  0
 13 33  1  0  0  0  0
 14 15  1  0  0  0  0
 14 34  1  0  0  0  0
 14 35  1  0  0  0  0
 15 16  1  0  0  0  0
 15 36  1  0  0  0  0
 15 37  1  0  0  0  0
 16 17  1  0  0  0  0
 16 38  1  0  0  0  0
 16 39  1  0  0  0  0
 17 40  1  0  0  0  0
 17 41  1  0  0  0  0
 18 19  2  0  0  0  0
 18 20  1  0  0  0  0
 20 42  1  0  0  0  0
M  END
> <s_m_source_file>
AV-unprocessed.smi

> <i_m_source_file_index>
1004

> <i_lp_mmshare_version>
43012

> <i_f3d_flags>
0

> <s_epik_input>
W0NIM11jMVtjSF1bY0hdbihjKD1PKVtjSF0xKVtDSDJdQyg9TylbTkhdW0NIMl1bQ0gyXUMyPVtDSF1bQ0gyXVtDSDJdW0NIMl1bQ0gyXTI=

> <s_epik_cmdline>
J2VwaWtfcHl0aG9uJywgJy1waCcsICc3LjAnLCAnLXRuJywgJzgnLCAnLW1hJywgJzIwMCcsICctbWV0YWxfYmluZGluZycsICctaW1hZScsICc8aW5maWxlLm1hZT4nLCAnLW9tYWUnLCAnPG91dGZpbGUubWFlPic=

> <r_lp_tautomer_probability>
1

> <r_epik_Ionization_Penalty>
5.31482e-07

> <r_epik_Ionization_Penalty_Charging>
5.13379e-07

> <r_epik_Ionization_Penalty_Neutral>
1.81035e-08

> <r_epik_State_Penalty>
-0

> <r_epik_Charging_Adjusted_Penalty>
5.13379e-07

> <i_epik_Tot_Q>
0

> <i_epik_Tot_abs_Q>
0

> <r_epik_Metal_State_Penalty>
-0

> <b_epik_Metal_Only>
0

> <s_lp_Force_Field>
OPLS_2005

> <r_lp_Energy>
18.1417

> <b_lp_Chiralities_Consistent>
1

> <s_lp_Variant>
AV-unprocessed.smi:1004-1

> <Gold.Version>
5.8.1

> <Gold.Id.Protein>
6NUR|6NUR_protein|mol2

> <Gold.PLP.Fitness>
51.7547

> <Gold.PLP.PLP>
-43.9866

> <Gold.PLP.part.hbond>
-2.0000

> <Gold.PLP.part.metal>
0.0000

> <Gold.PLP.part.buried>
-6.2856

> <Gold.PLP.part.nonpolar>
-35.8496

> <Gold.PLP.part.repulsive>
0.0418

> <Gold.PLP.ligand.clash>
0.0000

> <Gold.PLP.ligand.torsion>
0.6286

> <Gold.PLP.Chemscore.Hbond>
2.0000

> <Gold.PLP.Chemscore.CHOScore>
1.0000

> <Gold.PLP.Chemscore.Metal>
0.0000

> <Gold.Chemscore.Hbonds>
donor molecule, donor type, donor heavy atom, donor atom, acceptor molecule, acceptor atom, score
      L1  H     9    28       P1  8028  1.00
      P1  H  7997  8010       L1    19  1.00
      L1  C     4    25       P1  8028  0.91

> <Gold.PLP.Chemscore.Internal.Correction>
0.0254

> <Gold.Rescore>
     Score         DG    S(hbond)    S(metal)    S(lipo)     H(rot)  DE(clash)    DE(int)     intcor
     19.64     -20.27       1.92        0.00     107.34       1.63       0.03       0.60       ----

> <Gold.Chemscore.Fitness>
19.6387

> <Gold.Chemscore.DG>
-20.2658

> <Gold.Chemscore.ZeroCoef>
-5.4800

> <Gold.Chemscore.Hbond>
1.9171

> <Gold.Chemscore.Metal>
0.0000

> <Gold.Chemscore.Lipo>
107.3380

> <Gold.Chemscore.Internal_Hbond>
0.0000

> <Gold.Chemscore.DEClash>
0.0284

> <Gold.Chemscore.DEInternal>
0.5987

> <Gold.Chemscore.Rot>
1.6311

> <Gold.Chemscore.Internal.Correction>
   9.000000E+99

> <Gold.Chemscore.Hbonds>
donor molecule, donor type, donor heavy atom, donor atom, acceptor molecule, acceptor atom, score
      L1  H     9    28       P1  8028  0.98
      P1  H  7997  8010       L1    19  0.93

> <Gold.Chemscore.Hbond.Weighted>
-6.4030

> <Gold.Chemscore.Metal.Weighted>
-0.0000

> <Gold.Chemscore.Lipo.Weighted>
-12.5586

> <Gold.Chemscore.Internal_Hbond.Weighted>
0.0000

> <Gold.Chemscore.DEClash.Weighted>
0.0284

> <Gold.Chemscore.DEInternal.Weighted>
0.5987

> <Gold.Chemscore.Rot.Weighted>
4.1757

> <Gold.Chemscore.Internal.Correction.Weighted>
   9.000000E+99

> <Gold.Protein.RotatedTorsions>
[ 6907 6896 6895 6894 ] final   14.93 input  -60.11 | X-H torsion
[ 7974 7965 7964 7962 ] final  149.50 input  175.53 | X-H torsion
[ 8008 7997 7996 7995 ] final   54.90 input   59.86 | X-H torsion
[ 10167 10162 10161 10158 ] final    1.12 input  -65.29 | X-H torsion
[ 10718 10713 10712 10709 ] final -176.19 input   66.30 | X-H torsion
[ 10763 10752 10751 10750 ] final   98.79 input  -60.55 | X-H torsion
[ 11005 11000 10999 10996 ] final  163.72 input  -57.11 | X-H torsion

> <Gold.Protein.ActiveResidues>
 VAL166  LYS551  ARG553  GLY616  TRP617  ASP618  TYR619  PRO620  LYS621  CYS622 
 ASP623  PHE694  ASN695  SER759  ASP760  ASP761  ALA762  ILE779  LEU786  VAL792 
 PHE793  MET794  SER795  GLU796  ALA797  LYS798  CYS799  TRP800  GLU811  SER814 

> <Gold.Protein.RotatedAtoms>
  151.8101  135.0683  160.0411 H   0  0  0  0  0  0  0  0  0  0  0  0  # atno 6907 bound_to 6896
  152.3026  133.5667  159.5637 H   0  0  0  0  0  0  0  0  0  0  0  0  # atno 6908 bound_to 6896
  150.7281  134.0185  159.3735 H   0  0  0  0  0  0  0  0  0  0  0  0  # atno 6909 bound_to 6896
  144.8434  139.6288  143.6006 H   0  0  0  0  0  0  0  0  0  0  0  0  # atno 7974 bound_to 7965
  155.4923  140.3472  155.4357 H   0  0  0  0  0  0  0  0  0  0  0  0  # atno 8008 bound_to 7997
  156.0969  140.1425  156.9547 H   0  0  0  0  0  0  0  0  0  0  0  0  # atno 8009 bound_to 7997
  154.4669  140.0914  156.7021 H   0  0  0  0  0  0  0  0  0  0  0  0  # atno 8010 bound_to 7997
  140.6697  143.7082  150.7898 H   0  0  0  0  0  0  0  0  0  0  0  0  # atno 10167 bound_to 10162
  156.8110  130.9586  151.3116 H   0  0  0  0  0  0  0  0  0  0  0  0  # atno 10718 bound_to 10713
  153.2934  135.4136  155.1188 H   0  0  0  0  0  0  0  0  0  0  0  0  # atno 10763 bound_to 10752
  154.8527  135.3524  154.5950 H   0  0  0  0  0  0  0  0  0  0  0  0  # atno 10764 bound_to 10752
  153.6373  135.7058  153.5312 H   0  0  0  0  0  0  0  0  0  0  0  0  # atno 10765 bound_to 10752
  140.2386  134.8068  157.3388 H   0  0  0  0  0  0  0  0  0  0  0  0  # atno 11005 bound_to 11000
  146.2722  139.6664  142.9288 LP  0  0  0  0  0  0  0  0  0  0  0  0  # atno 17320 bound_to 7965
  145.4648  141.0434  143.2731 LP  0  0  0  0  0  0  0  0  0  0  0  0  # atno 17321 bound_to 7965
  140.0765  143.5010  152.2552 LP  0  0  0  0  0  0  0  0  0  0  0  0  # atno 17342 bound_to 10162
  139.5960  144.7567  151.3285 LP  0  0  0  0  0  0  0  0  0  0  0  0  # atno 17343 bound_to 10162
  157.6506  130.8881  149.9625 LP  0  0  0  0  0  0  0  0  0  0  0  0  # atno 17370 bound_to 10713
  156.1045  130.3653  150.0159 LP  0  0  0  0  0  0  0  0  0  0  0  0  # atno 17371 bound_to 10713
  140.1677  134.4649  155.7852 LP  0  0  0  0  0  0  0  0  0  0  0  0  # atno 17394 bound_to 11000
  141.2212  133.6928  156.7653 LP  0  0  0  0  0  0  0  0  0  0  0  0  # atno 17395 bound_to 11000

$$$$
