AV-unprocessed.smi:2032|AV-procd|sdf|8232|dock5
  -GOLD-   2272010503D 1   1.00000     0.00000
 Structure written by MMmdl.
 42 43  0  0  0  0  0  0  0  0  1 V2000
  151.9198  137.8936  154.6061 C   0  0  0  0  0  0  0  0  0  0  0  0
  151.0206  139.1265  154.4650 C   0  0  1  0  0  0  0  0  0  0  0  0
  149.5383  138.7484  154.2872 C   0  0  0  0  0  0  0  0  0  0  0  0
  148.6542  139.9168  154.2166 N   0  0  0  0  0  0  0  0  0  0  0  0
  147.2285  139.5417  154.0694 C   0  0  2  0  0  0  0  0  0  0  0  0
  146.8503  138.2753  154.8790 C   0  0  0  0  0  0  0  0  0  0  0  0
  146.7969  139.3326  152.5885 C   0  0  0  0  0  0  0  0  0  0  0  0
  146.9465  137.9527  152.1335 N   0  0  0  0  0  0  0  0  0  0  0  0
  145.9378  137.0825  151.9814 C   0  0  0  0  0  0  0  0  0  0  0  0
  144.7604  137.3639  152.2078 O   0  0  0  0  0  0  0  0  0  0  0  0
  146.3845  135.8866  151.5593 N   0  0  0  0  0  0  0  0  0  0  0  0
  145.6290  134.7178  151.2784 C   0  0  0  0  0  0  0  0  0  0  0  0
  144.2919  134.6622  151.2916 N   0  0  0  0  0  0  0  0  0  0  0  0
  143.8163  133.3867  150.9775 C   0  0  0  0  0  0  0  0  0  0  0  0
  144.8124  132.4766  150.7250 C   0  0  0  0  0  0  0  0  0  0  0  0
  146.3967  133.1899  150.8723 S   0  0  0  0  0  0  0  0  0  0  0  0
  148.8989  140.7374  155.4085 C   0  0  0  0  0  0  0  0  0  0  0  0
  150.3833  141.1059  155.5950 C   0  0  1  0  0  0  0  0  0  0  0  0
  150.6266  141.8823  156.8936 C   0  0  0  0  0  0  0  0  0  0  0  0
  151.1607  139.9164  155.6385 O   0  0  0  0  0  0  0  0  0  0  0  0
  151.8532  137.2568  153.7239 H   0  0  0  0  0  0  0  0  0  0  0  0
  151.6375  137.2958  155.4733 H   0  0  0  0  0  0  0  0  0  0  0  0
  152.9633  138.1848  154.7274 H   0  0  0  0  0  0  0  0  0  0  0  0
  151.3557  139.7066  153.6033 H   0  0  0  0  0  0  0  0  0  0  0  0
  149.4677  138.1621  153.3724 H   0  0  0  0  0  0  0  0  0  0  0  0
  149.2258  138.0984  155.1061 H   0  0  0  0  0  0  0  0  0  0  0  0
  146.6284  140.3611  154.4682 H   0  0  0  0  0  0  0  0  0  0  0  0
  145.8175  137.9697  154.7155 H   0  0  0  0  0  0  0  0  0  0  0  0
  146.9308  138.4351  155.9533 H   0  0  0  0  0  0  0  0  0  0  0  0
  147.4877  137.4312  154.6140 H   0  0  0  0  0  0  0  0  0  0  0  0
  145.7570  139.6058  152.4175 H   0  0  0  0  0  0  0  0  0  0  0  0
  147.3913  139.9723  151.9355 H   0  0  0  0  0  0  0  0  0  0  0  0
  147.8840  137.6405  151.9268 H   0  0  0  0  0  0  0  0  0  0  0  0
  147.3807  135.8023  151.4210 H   0  0  0  0  0  0  0  0  0  0  0  0
  142.7504  133.2143  150.9572 H   0  0  0  0  0  0  0  0  0  0  0  0
  144.7102  131.4342  150.4626 H   0  0  0  0  0  0  0  0  0  0  0  0
  148.3495  141.6744  155.3507 H   0  0  0  0  0  0  0  0  0  0  0  0
  148.5391  140.2133  156.2956 H   0  0  0  0  0  0  0  0  0  0  0  0
  150.7159  141.7170  154.7540 H   0  0  0  0  0  0  0  0  0  0  0  0
  150.0592  142.8132  156.9072 H   0  0  0  0  0  0  0  0  0  0  0  0
  151.6815  142.1342  157.0049 H   0  0  0  0  0  0  0  0  0  0  0  0
  150.3301  141.2965  157.7641 H   0  0  0  0  0  0  0  0  0  0  0  0
  1  2  1  0  0  0  0
  1 21  1  0  0  0  0
  1 22  1  0  0  0  0
  1 23  1  0  0  0  0
  2 20  1  0  0  0  0
  2  3  1  0  0  0  0
  2 24  1  0  0  0  0
  3  4  1  0  0  0  0
  3 25  1  0  0  0  0
  3 26  1  0  0  0  0
  4  5  1  0  0  0  0
  4 17  1  0  0  0  0
  5  6  1  0  0  0  0
  5  7  1  0  0  0  0
  5 27  1  0  0  0  0
  6 28  1  0  0  0  0
  6 29  1  0  0  0  0
  6 30  1  0  0  0  0
  7  8  1  0  0  0  0
  7 31  1  0  0  0  0
  7 32  1  0  0  0  0
  8  9  1  0  0  0  0
  8 33  1  0  0  0  0
  9 10  2  0  0  0  0
  9 11  1  0  0  0  0
 11 12  1  0  0  0  0
 11 34  1  0  0  0  0
 12 16  1  0  0  0  0
 12 13  2  0  0  0  0
 13 14  1  0  0  0  0
 14 15  2  0  0  0  0
 14 35  1  0  0  0  0
 15 16  1  0  0  0  0
 15 36  1  0  0  0  0
 17 18  1  0  0  0  0
 17 37  1  0  0  0  0
 17 38  1  0  0  0  0
 18 19  1  0  0  0  0
 18 20  1  0  0  0  0
 18 39  1  0  0  0  0
 19 40  1  0  0  0  0
 19 41  1  0  0  0  0
 19 42  1  0  0  0  0
M  END
> <s_m_source_file>
AV-unprocessed.smi

> <i_m_source_file_index>
2032

> <i_lp_mmshare_version>
43012

> <i_f3d_flags>
0

> <s_epik_input>
W0NIM11bQ0BASF0xW0NIMl1OKFtDSDJdW0NASF0oTzEpW0NIM10pW0NASF0oW0NIM10pW0NIMl1bTkhdQyg9TylbTkhdYzJuW2NIXVtjSF1zMg==

> <s_epik_cmdline>
J2VwaWtfcHl0aG9uJywgJy1waCcsICc3LjAnLCAnLXRuJywgJzgnLCAnLW1hJywgJzIwMCcsICctbWV0YWxfYmluZGluZycsICctaW1hZScsICc8aW5maWxlLm1hZT4nLCAnLW9tYWUnLCAnPG91dGZpbGUubWFlPic=

> <r_lp_tautomer_probability>
0.999

> <r_epik_Ionization_Penalty>
0.219202

> <r_epik_Ionization_Penalty_Charging>
0

> <r_epik_Ionization_Penalty_Neutral>
0.219202

> <r_epik_State_Penalty>
0.209349

> <r_epik_Charging_Adjusted_Penalty>
0.209349

> <i_epik_Tot_Q>
0

> <i_epik_Tot_abs_Q>
0

> <r_epik_Metal_State_Penalty>
0.247737

> <b_epik_Metal_Only>
0

> <s_lp_Force_Field>
OPLS_2005

> <r_lp_Energy>
24.8092

> <b_lp_Chiralities_Consistent>
1

> <s_lp_Variant>
AV-unprocessed.smi:2032-2

> <Gold.Version>
5.8.1

> <Gold.Id.Protein>
6NUR|6NUR_protein|mol2

> <Gold.PLP.Fitness>
39.8575

> <Gold.PLP.PLP>
-33.2300

> <Gold.PLP.part.hbond>
-2.0000

> <Gold.PLP.part.metal>
0.0000

> <Gold.PLP.part.buried>
-4.7679

> <Gold.PLP.part.nonpolar>
-28.5917

> <Gold.PLP.part.repulsive>
2.5133

> <Gold.PLP.ligand.clash>
0.0000

> <Gold.PLP.ligand.torsion>
1.0376

> <Gold.PLP.Chemscore.Hbond>
1.9280

> <Gold.PLP.Chemscore.CHOScore>
0.9609

> <Gold.PLP.Chemscore.Metal>
0.0000

> <Gold.Chemscore.Hbonds>
donor molecule, donor type, donor heavy atom, donor atom, acceptor molecule, acceptor atom, score
      L1  H     8    33       P1  7948  0.91
      L1  H    11    34       P1  7948  1.00
      L1  C    14    35       P1 10186  0.94

> <Gold.PLP.Chemscore.Internal.Correction>
0.0361

> <Gold.Rescore>
     Score         DG    S(hbond)    S(metal)    S(lipo)     H(rot)  DE(clash)    DE(int)     intcor
     14.15     -16.82       1.88        0.00      77.73       1.57       0.25       2.43       ----

> <Gold.Chemscore.Fitness>
14.1460

> <Gold.Chemscore.DG>
-16.8231

> <Gold.Chemscore.ZeroCoef>
-5.4800

> <Gold.Chemscore.Hbond>
1.8805

> <Gold.Chemscore.Metal>
0.0000

> <Gold.Chemscore.Lipo>
77.7276

> <Gold.Chemscore.Internal_Hbond>
0.0000

> <Gold.Chemscore.DEClash>
0.2457

> <Gold.Chemscore.DEInternal>
2.4314

> <Gold.Chemscore.Rot>
1.5750

> <Gold.Chemscore.Internal.Correction>
   9.000000E+99

> <Gold.Chemscore.Hbonds>
donor molecule, donor type, donor heavy atom, donor atom, acceptor molecule, acceptor atom, score
      L1  H     8    33       P1  7948  0.90
      L1  H    11    34       P1  7948  0.95

> <Gold.Chemscore.Hbond.Weighted>
-6.2809

> <Gold.Chemscore.Metal.Weighted>
-0.0000

> <Gold.Chemscore.Lipo.Weighted>
-9.0941

> <Gold.Chemscore.Internal_Hbond.Weighted>
0.0000

> <Gold.Chemscore.DEClash.Weighted>
0.2457

> <Gold.Chemscore.DEInternal.Weighted>
2.4314

> <Gold.Chemscore.Rot.Weighted>
4.0319

> <Gold.Chemscore.Internal.Correction.Weighted>
   9.000000E+99

> <Gold.Protein.RotatedTorsions>
[ 6907 6896 6895 6894 ] final  -74.16 input  -60.11 | X-H torsion
[ 7974 7965 7964 7962 ] final -174.15 input  175.53 | X-H torsion
[ 8008 7997 7996 7995 ] final -129.80 input   59.86 | X-H torsion
[ 10167 10162 10161 10158 ] final -136.53 input  -65.29 | X-H torsion
[ 10718 10713 10712 10709 ] final -110.98 input   66.30 | X-H torsion
[ 10763 10752 10751 10750 ] final -153.66 input  -60.55 | X-H torsion
[ 11005 11000 10999 10996 ] final -119.12 input  -57.11 | X-H torsion

> <Gold.Protein.ActiveResidues>
 VAL166  LYS551  ARG553  GLY616  TRP617  ASP618  TYR619  PRO620  LYS621  CYS622 
 ASP623  PHE694  ASN695  SER759  ASP760  ASP761  ALA762  ILE779  LEU786  VAL792 
 PHE793  MET794  SER795  GLU796  ALA797  LYS798  CYS799  TRP800  GLU811  SER814 

> <Gold.Protein.RotatedAtoms>
  150.7103  134.4910  159.5515 H   0  0  0  0  0  0  0  0  0  0  0  0  # atno 6907 bound_to 6896
  152.2527  134.8113  160.0452 H   0  0  0  0  0  0  0  0  0  0  0  0  # atno 6908 bound_to 6896
  151.8854  133.3469  159.3817 H   0  0  0  0  0  0  0  0  0  0  0  0  # atno 6909 bound_to 6896
  144.7133  140.1515  143.6384 H   0  0  0  0  0  0  0  0  0  0  0  0  # atno 7974 bound_to 7965
  155.2853  140.0446  157.3019 H   0  0  0  0  0  0  0  0  0  0  0  0  # atno 8008 bound_to 7997
  154.5573  140.2335  155.8358 H   0  0  0  0  0  0  0  0  0  0  0  0  # atno 8009 bound_to 7997
  156.2018  140.3023  155.9549 H   0  0  0  0  0  0  0  0  0  0  0  0  # atno 8010 bound_to 7997
  139.8669  143.7006  152.2644 H   0  0  0  0  0  0  0  0  0  0  0  0  # atno 10167 bound_to 10162
  156.0621  130.5843  150.8310 H   0  0  0  0  0  0  0  0  0  0  0  0  # atno 10718 bound_to 10713
  154.7912  135.3208  154.7772 H   0  0  0  0  0  0  0  0  0  0  0  0  # atno 10763 bound_to 10752
  153.8460  135.6866  153.4802 H   0  0  0  0  0  0  0  0  0  0  0  0  # atno 10764 bound_to 10752
  153.1583  135.4671  154.9677 H   0  0  0  0  0  0  0  0  0  0  0  0  # atno 10765 bound_to 10752
  141.0238  134.0085  157.3244 H   0  0  0  0  0  0  0  0  0  0  0  0  # atno 11005 bound_to 11000
  145.9112  139.2488  143.1436 LP  0  0  0  0  0  0  0  0  0  0  0  0  # atno 17320 bound_to 7965
  145.9714  140.8757  143.0160 LP  0  0  0  0  0  0  0  0  0  0  0  0  # atno 17321 bound_to 7965
  139.7321  144.7580  151.0786 LP  0  0  0  0  0  0  0  0  0  0  0  0  # atno 17342 bound_to 10162
  140.7767  143.5076  150.9693 LP  0  0  0  0  0  0  0  0  0  0  0  0  # atno 17343 bound_to 10162
  157.5637  131.0946  150.9522 LP  0  0  0  0  0  0  0  0  0  0  0  0  # atno 17370 bound_to 10713
  156.9754  130.5506  149.5293 LP  0  0  0  0  0  0  0  0  0  0  0  0  # atno 17371 bound_to 10713
  139.9163  135.0197  156.7892 LP  0  0  0  0  0  0  0  0  0  0  0  0  # atno 17394 bound_to 11000
  140.6527  133.9716  155.7763 LP  0  0  0  0  0  0  0  0  0  0  0  0  # atno 17395 bound_to 11000

$$$$
