#       Name:                AV-unprocessed.smi:164
#       Creating user name   scv26
#       Creation time:       Thu Mar 26 19:11:23 2020


#       File generated by GOLD software.
#

@<TRIPOS>MOLECULE
AV-unprocessed.smi:164
    63    65     1
SMALL
NO_CHARGES


@<TRIPOS>ATOM
      1 ****        -3.5448   5.1668   3.4829 C.3            1 S1                 0.0000
      2 ****        -3.4342   4.4352   2.1561 C.ar           1 S1                 0.0000
      3 ****        -3.9479   5.0472   0.9945 C.ar           1 S1                 0.0000
      4 ****        -3.8670   4.3962  -0.2490 C.ar           1 S1                 0.0000
      5 ****        -3.2622   3.1282  -0.3461 C.ar           1 S1                 0.0000
      6 ****        -3.1853   2.4336  -1.6933 C.3            1 S1                 0.0000
      7 ****        -2.7299   2.5128   0.8103 C.ar           1 S1                 0.0000
      8 ****        -2.1384   1.2807   0.7000 O.3            1 S1                 0.0000
      9 ****        -0.7344   1.3399   0.4928 C.3            1 S1                 0.0000
     10 ****        -0.2258  -0.0653   0.1336 C.3            1 S1                 0.0000
     11 ****        -0.4847  -0.2605  -1.2427 O.3            1 S1                 0.0000
     12 ****         1.2968  -0.1991   0.3635 C.3            1 S1                 0.0000
     13 ****         1.7393  -1.5774   0.5034 N.am           1 S1                 0.0000
     14 ****         1.5795  -2.1913   1.7703 C.2            1 S1                 0.0000
     15 ****         1.1067  -1.5873   2.7352 O.2            1 S1                 0.0000
     16 ****         2.0016  -3.5864   1.8253 C.2            1 S1                 0.0000
     17 ****         1.8827  -4.2722   2.9748 F              1 S1                 0.0000
     18 ****         2.5044  -4.2056   0.7356 C.2            1 S1                 0.0000
     19 ****         2.6649  -3.5772  -0.4859 N.am           1 S1                 0.0000
     20 ****         3.1850  -4.3725  -1.6610 C.3            1 S1                 0.0000
     21 ****         4.4475  -3.7691  -2.3052 C.3            1 S1                 0.0000
     22 ****         4.0173  -3.5368  -3.7443 C.3            1 S1                 0.0000
     23 ****         2.8334  -4.4847  -3.9024 C.3            1 S1                 0.0000
     24 ****         2.1919  -4.4217  -2.6384 O.3            1 S1                 0.0000
     25 ****         2.2494  -2.2340  -0.6422 C.2            1 S1                 0.0000
     26 ****         2.3223  -1.6687  -1.7350 O.2            1 S1                 0.0000
     27 ****        -2.8300   3.1558   2.0699 C.ar           1 S1                 0.0000
     28 ****        -2.2912   2.4770   3.3222 C.3            1 S1                 0.0000
     29 ****        -3.9008   6.1882   3.3449 H              1 S1                 0.0000
     30 ****        -2.5749   5.2175   3.9783 H              1 S1                 0.0000
     31 ****        -4.2459   4.6537   4.1415 H              1 S1                 0.0000
     32 ****        -4.4127   6.0207   1.0525 H              1 S1                 0.0000
     33 ****        -4.2719   4.8755  -1.1281 H              1 S1                 0.0000
     34 ****        -3.4914   1.3908  -1.6064 H              1 S1                 0.0000
     35 ****        -2.1649   2.4615  -2.0756 H              1 S1                 0.0000
     36 ****        -3.8360   2.9135  -2.4247 H              1 S1                 0.0000
     37 ****        -0.4619   2.0673  -0.2746 H              1 S1                 0.0000
     38 ****        -0.2728   1.6747   1.4226 H              1 S1                 0.0000
     39 ****        -0.7672  -0.8074   0.7218 H              1 S1                 0.0000
     40 ****        -0.0008   0.3853  -1.7343 H              1 S1                 0.0000
     41 ****         1.8835   0.2877  -0.4174 H              1 S1                 0.0000
     42 ****         1.6039   0.3080   1.2799 H              1 S1                 0.0000
     43 ****         2.7939  -5.2418   0.8322 H              1 S1                 0.0000
     44 ****         3.3676  -5.3805  -1.2857 H              1 S1                 0.0000
     45 ****         4.7788  -2.8576  -1.8066 H              1 S1                 0.0000
     46 ****         5.2508  -4.5045  -2.2494 H              1 S1                 0.0000
     47 ****         3.6878  -2.5060  -3.8765 H              1 S1                 0.0000
     48 ****         4.8137  -3.7302  -4.4632 H              1 S1                 0.0000
     49 ****         2.1622  -4.1905  -4.7093 H              1 S1                 0.0000
     50 ****         3.1731  -5.5047  -4.0889 H              1 S1                 0.0000
     51 ****        -2.1026   1.4148   3.1673 H              1 S1                 0.0000
     52 ****        -3.0023   2.5558   4.1443 H              1 S1                 0.0000
     53 ****        -1.3558   2.9451   3.6294 H              1 S1                 0.0000
     54 ****        -2.5520   0.7996  -0.0730 LP             1 S1                 0.0000
     55 ****        -2.3124   0.7701   1.5420 LP             1 S1                 0.0000
     56 ****        -1.4633  -0.1553  -1.4198 LP             1 S1                 0.0000
     57 ****        -0.1936  -1.1781  -1.5136 LP             1 S1                 0.0000
     58 ****         0.8221  -0.6337   2.6375 LP             1 S1                 0.0000
     59 ****         1.0078  -2.0509   3.6157 LP             1 S1                 0.0000
     60 ****         1.6218  -3.6018  -2.5863 LP             1 S1                 0.0000
     61 ****         1.6223  -5.2327  -2.5047 LP             1 S1                 0.0000
     62 ****         2.0166  -0.7213  -1.8292 LP             1 S1                 0.0000
     63 ****         2.6872  -2.1575  -2.5274 LP             1 S1                 0.0000
@<TRIPOS>BOND
    1    1    2 1     
    2    1   29 1     
    3    1   30 1     
    4    1   31 1     
    5    2   27 ar    
    6    2    3 ar    
    7    3    4 ar    
    8    3   32 1     
    9    4    5 ar    
   10    4   33 1     
   11    5    6 1     
   12    5    7 ar    
   13    6   34 1     
   14    6   35 1     
   15    6   36 1     
   16    7    8 1     
   17    7   27 ar    
   18    8    9 1     
   19    9   10 1     
   20    9   37 1     
   21    9   38 1     
   22   10   11 1     
   23   10   12 1     
   24   10   39 1     
   25   11   40 1     
   26   12   13 1     
   27   12   41 1     
   28   12   42 1     
   29   13   25 am    
   30   13   14 am    
   31   14   15 2     
   32   14   16 1     
   33   16   17 1     
   34   16   18 2     
   35   18   19 1     
   36   18   43 1     
   37   19   20 1     
   38   19   25 am    
   39   20   24 1     
   40   20   21 1     
   41   20   44 1     
   42   21   22 1     
   43   21   45 1     
   44   21   46 1     
   45   22   23 1     
   46   22   47 1     
   47   22   48 1     
   48   23   24 1     
   49   23   49 1     
   50   23   50 1     
   51   25   26 2     
   52   27   28 1     
   53   28   51 1     
   54   28   52 1     
   55   28   53 1     
   56    8   54 1     
   57    8   55 1     
   58   11   56 1     
   59   11   57 1     
   60   15   58 1     
   61   15   59 1     
   62   24   60 1     
   63   24   61 1     
   64   26   62 1     
   65   26   63 1     
@<TRIPOS>SUBSTRUCTURE
      1 S1             1
@<TRIPOS>SET
LONE_PAIRS      STATIC     ATOMS    <user>   **** ""
10 54 55 56 57 58 59 60 61 62 63
DONOR_HYDROGENS      STATIC     ATOMS    <user>   **** ""
1 40
ATOM$BLUE        STATIC     ATOMS    COLORGROUP SYSTEM
10 54 55 56 57 58 59 60 61 62 63
ATOM$RED        STATIC     ATOMS    COLORGROUP SYSTEM
1 40
