AV-unprocessed.smi:1396|AV-procd|sdf|5675|dock2
  -GOLD-   22720 5303D 1   1.00000     0.00000
 Structure written by MMmdl.
 47 48  0  0  0  0  0  0  0  0  2 V2000
  148.6432  126.7609  150.9416 C   0  0  0  0  0  0  0  0  0  0  0  0
  149.0101  127.4739  152.1558 N   0  0  0  0  0  0  0  0  0  0  0  0
  148.1462  128.1613  152.9161 C   0  0  0  0  0  0  0  0  0  0  0  0
  146.9437  128.2454  152.6638 O   0  0  0  0  0  0  0  0  0  0  0  0
  148.7293  128.8459  154.1569 C   0  0  0  0  0  0  0  0  0  0  0  0
  148.8738  130.3160  153.9963 N   0  3  2  0  0  0  0  0  0  0  0  0
  149.2654  131.0052  155.2554 C   0  0  0  0  0  0  0  0  0  0  0  0
  149.5364  132.4984  155.0090 C   0  0  0  0  0  0  0  0  0  0  0  0
  148.3137  133.1863  154.3818 C   0  0  1  0  0  0  0  0  0  0  0  0
  148.6235  134.5831  154.0899 N   0  0  0  0  0  0  0  0  0  0  0  0
  148.9446  135.5094  155.0050 C   0  0  0  0  0  0  0  0  0  0  0  0
  149.0060  135.2732  156.2109 O   0  0  0  0  0  0  0  0  0  0  0  0
  149.1972  136.6964  154.4264 N   0  0  0  0  0  0  0  0  0  0  0  0
  149.5681  137.9262  155.0368 C   0  0  0  0  0  0  0  0  0  0  0  0
  149.3346  138.0697  156.4196 C   0  0  0  0  0  0  0  0  0  0  0  0
  149.7019  139.2683  157.0597 C   0  0  0  0  0  0  0  0  0  0  0  0
  150.2994  140.2898  156.2956 C   0  0  0  0  0  0  0  0  0  0  0  0
  150.6521  141.4656  156.9258 O   0  0  0  0  0  0  0  0  0  0  0  0
  150.7143  141.4780  158.3478 C   0  0  0  0  0  0  0  0  0  0  0  0
  150.5415  140.1583  154.9680 N   0  0  0  0  0  0  0  0  0  0  0  0
  150.1869  139.0061  154.3598 C   0  0  0  0  0  0  0  0  0  0  0  0
  147.9012  132.4347  153.1030 C   0  0  0  0  0  0  0  0  0  0  0  0
  147.6723  130.9397  153.3845 C   0  0  0  0  0  0  0  0  0  0  0  0
  149.5266  126.2998  150.4997 H   0  0  0  0  0  0  0  0  0  0  0  0
  148.2112  127.4412  150.2064 H   0  0  0  0  0  0  0  0  0  0  0  0
  147.9190  125.9740  151.1564 H   0  0  0  0  0  0  0  0  0  0  0  0
  149.9810  127.4426  152.4325 H   0  0  0  0  0  0  0  0  0  0  0  0
  148.0464  128.6319  154.9801 H   0  0  0  0  0  0  0  0  0  0  0  0
  149.6906  128.4033  154.4239 H   0  0  0  0  0  0  0  0  0  0  0  0
  148.4744  130.8860  155.9976 H   0  0  0  0  0  0  0  0  0  0  0  0
  150.1610  130.5461  155.6749 H   0  0  0  0  0  0  0  0  0  0  0  0
  149.7974  132.9845  155.9497 H   0  0  0  0  0  0  0  0  0  0  0  0
  150.4024  132.6054  154.3537 H   0  0  0  0  0  0  0  0  0  0  0  0
  147.4927  133.1435  155.1006 H   0  0  0  0  0  0  0  0  0  0  0  0
  148.6003  134.8627  153.1198 H   0  0  0  0  0  0  0  0  0  0  0  0
  149.1668  136.7110  153.4175 H   0  0  0  0  0  0  0  0  0  0  0  0
  148.8752  137.2730  156.9864 H   0  0  0  0  0  0  0  0  0  0  0  0
  149.5284  139.4023  158.1172 H   0  0  0  0  0  0  0  0  0  0  0  0
  151.0138  142.4696  158.6869 H   0  0  0  0  0  0  0  0  0  0  0  0
  151.4504  140.7649  158.7219 H   0  0  0  0  0  0  0  0  0  0  0  0
  149.7427  141.2562  158.7913 H   0  0  0  0  0  0  0  0  0  0  0  0
  150.4305  138.9642  153.3103 H   0  0  0  0  0  0  0  0  0  0  0  0
  146.9928  132.8709  152.6857 H   0  0  0  0  0  0  0  0  0  0  0  0
  148.6748  132.5456  152.3415 H   0  0  0  0  0  0  0  0  0  0  0  0
  147.4306  130.4336  152.4492 H   0  0  0  0  0  0  0  0  0  0  0  0
  146.8154  130.8085  154.0474 H   0  0  0  0  0  0  0  0  0  0  0  0
  149.6298  130.4506  153.3395 H   0  0  0  0  0  0  0  0  0  0  0  0
  1  2  1  0  0  0  0
  1 24  1  0  0  0  0
  1 25  1  0  0  0  0
  1 26  1  0  0  0  0
  2  3  1  0  0  0  0
  2 27  1  0  0  0  0
  3  4  2  0  0  0  0
  3  5  1  0  0  0  0
  5  6  1  0  0  0  0
  5 28  1  0  0  0  0
  5 29  1  0  0  0  0
  6 23  1  0  0  0  0
  6  7  1  0  0  0  0
  6 47  1  0  0  0  0
  7  8  1  0  0  0  0
  7 30  1  0  0  0  0
  7 31  1  0  0  0  0
  8  9  1  0  0  0  0
  8 32  1  0  0  0  0
  8 33  1  0  0  0  0
  9 10  1  0  0  0  0
  9 22  1  0  0  0  0
  9 34  1  0  0  0  0
 10 11  1  0  0  0  0
 10 35  1  0  0  0  0
 11 12  2  0  0  0  0
 11 13  1  0  0  0  0
 13 14  1  0  0  0  0
 13 36  1  0  0  0  0
 14 21  1  0  0  0  0
 14 15  2  0  0  0  0
 15 16  1  0  0  0  0
 15 37  1  0  0  0  0
 16 17  2  0  0  0  0
 16 38  1  0  0  0  0
 17 18  1  0  0  0  0
 17 20  1  0  0  0  0
 18 19  1  0  0  0  0
 19 39  1  0  0  0  0
 19 40  1  0  0  0  0
 19 41  1  0  0  0  0
 20 21  2  0  0  0  0
 21 42  1  0  0  0  0
 22 23  1  0  0  0  0
 22 43  1  0  0  0  0
 22 44  1  0  0  0  0
 23 45  1  0  0  0  0
 23 46  1  0  0  0  0
M  CHG  1   6   1
M  END
> <s_m_source_file>
AV-unprocessed.smi

> <i_m_source_file_index>
1396

> <i_lp_mmshare_version>
43012

> <i_f3d_flags>
0

> <s_epik_input>
W0NIM11bTkhdQyg9TylbQ0gyXU4xW0NIMl1bQ0gyXVtDSF0oW0NIMl1bQ0gyXTEpW05IXUMoPU8pW05IXWMyW2NIXVtjSF1jKE9bQ0gzXSluW2NIXTI=

> <s_epik_cmdline>
J2VwaWtfcHl0aG9uJywgJy1waCcsICc3LjAnLCAnLXRuJywgJzgnLCAnLW1hJywgJzIwMCcsICctbWV0YWxfYmluZGluZycsICctaW1hZScsICc8aW5maWxlLm1hZT4nLCAnLW9tYWUnLCAnPG91dGZpbGUubWFlPic=

> <r_lp_tautomer_probability>
1

> <r_epik_Ionization_Penalty>
0.838943

> <r_epik_Ionization_Penalty_Charging>
0.838844

> <r_epik_Ionization_Penalty_Neutral>
9.87511e-05

> <r_epik_State_Penalty>
0.8734

> <r_epik_Charging_Adjusted_Penalty>
1.71224

> <i_epik_Tot_Q>
1

> <i_epik_Tot_abs_Q>
1

> <r_epik_Metal_State_Penalty>
0.877926

> <b_epik_Metal_Only>
0

> <s_lp_Force_Field>
OPLS_2005

> <r_lp_Energy>
18.1916

> <b_lp_Chiralities_Consistent>
1

> <s_lp_Variant>
AV-unprocessed.smi:1396-2

> <Gold.Version>
5.8.1

> <Gold.Id.Protein>
6NUR|6NUR_protein|mol2

> <Gold.PLP.Fitness>
49.7222

> <Gold.PLP.PLP>
-35.9242

> <Gold.PLP.part.hbond>
-4.0000

> <Gold.PLP.part.metal>
0.0000

> <Gold.PLP.part.buried>
-5.3255

> <Gold.PLP.part.nonpolar>
-25.8490

> <Gold.PLP.part.repulsive>
0.3768

> <Gold.PLP.ligand.clash>
0.0000

> <Gold.PLP.ligand.torsion>
0.5543

> <Gold.PLP.Chemscore.Hbond>
3.9600

> <Gold.PLP.Chemscore.CHOScore>
1.0000

> <Gold.PLP.Chemscore.Metal>
0.0000

> <Gold.Chemscore.Hbonds>
donor molecule, donor type, donor heavy atom, donor atom, acceptor molecule, acceptor atom, score
      L1  H     2    27       P1 10737  0.52
      L1  H    10    35       P1  7948  0.94
      L1  H    13    36       P1  7948  1.00
      P1  H  7989  7998       L1    20  0.85
      L1  C    21    42       P1  7957  1.00

> <Gold.PLP.Chemscore.Internal.Correction>
0.0266

> <Gold.Rescore>
     Score         DG    S(hbond)    S(metal)    S(lipo)     H(rot)  DE(clash)    DE(int)     intcor
     14.81     -18.11       2.99        0.00      66.22       2.00       0.34       2.96       ----

> <Gold.Chemscore.Fitness>
14.8112

> <Gold.Chemscore.DG>
-18.1064

> <Gold.Chemscore.ZeroCoef>
-5.4800

> <Gold.Chemscore.Hbond>
2.9906

> <Gold.Chemscore.Metal>
0.0000

> <Gold.Chemscore.Lipo>
66.2240

> <Gold.Chemscore.Internal_Hbond>
0.0000

> <Gold.Chemscore.DEClash>
0.3353

> <Gold.Chemscore.DEInternal>
2.9599

> <Gold.Chemscore.Rot>
1.9963

> <Gold.Chemscore.Internal.Correction>
   9.000000E+99

> <Gold.Chemscore.Hbonds>
donor molecule, donor type, donor heavy atom, donor atom, acceptor molecule, acceptor atom, score
      L1  H     2    27       P1 10737  0.50
      L1  H    10    35       P1  7948  0.46
      L1  H    13    36       P1  7948  0.97
      P1  H  7989  7998       L1    20  0.14

> <Gold.Chemscore.Hbond.Weighted>
-9.9888

> <Gold.Chemscore.Metal.Weighted>
-0.0000

> <Gold.Chemscore.Lipo.Weighted>
-7.7482

> <Gold.Chemscore.Internal_Hbond.Weighted>
0.0000

> <Gold.Chemscore.DEClash.Weighted>
0.3353

> <Gold.Chemscore.DEInternal.Weighted>
2.9599

> <Gold.Chemscore.Rot.Weighted>
5.1105

> <Gold.Chemscore.Internal.Correction.Weighted>
   9.000000E+99

> <Gold.Protein.RotatedTorsions>
[ 6907 6896 6895 6894 ] final   15.98 input  -60.11 | X-H torsion
[ 7974 7965 7964 7962 ] final  144.23 input  175.53 | X-H torsion
[ 8008 7997 7996 7995 ] final   43.37 input   59.86 | X-H torsion
[ 10167 10162 10161 10158 ] final   49.23 input  -65.29 | X-H torsion
[ 10718 10713 10712 10709 ] final  -69.72 input   66.30 | X-H torsion
[ 10763 10752 10751 10750 ] final  -59.93 input  -60.55 | X-H torsion
[ 11005 11000 10999 10996 ] final  -87.48 input  -57.11 | X-H torsion

> <Gold.Protein.ActiveResidues>
 VAL166  LYS551  ARG553  GLY616  TRP617  ASP618  TYR619  PRO620  LYS621  CYS622 
 ASP623  PHE694  ASN695  SER759  ASP760  ASP761  ALA762  ILE779  LEU786  VAL792 
 PHE793  MET794  SER795  GLU796  ALA797  LYS798  CYS799  TRP800  GLU811  SER814 

> <Gold.Protein.RotatedAtoms>
  151.8266  135.0635  160.0431 H   0  0  0  0  0  0  0  0  0  0  0  0  # atno 6907 bound_to 6896
  152.2912  133.5558  159.5567 H   0  0  0  0  0  0  0  0  0  0  0  0  # atno 6908 bound_to 6896
  150.7231  134.0342  159.3786 H   0  0  0  0  0  0  0  0  0  0  0  0  # atno 6909 bound_to 6896
  144.8853  139.5637  143.5823 H   0  0  0  0  0  0  0  0  0  0  0  0  # atno 7974 bound_to 7965
  155.3017  140.3385  155.4247 H   0  0  0  0  0  0  0  0  0  0  0  0  # atno 8008 bound_to 7997
  156.1998  140.1728  156.7962 H   0  0  0  0  0  0  0  0  0  0  0  0  # atno 8009 bound_to 7997
  154.5545  140.0699  156.8704 H   0  0  0  0  0  0  0  0  0  0  0  0  # atno 8010 bound_to 7997
  140.2850  144.3112  150.6254 H   0  0  0  0  0  0  0  0  0  0  0  0  # atno 10167 bound_to 10162
  156.0441  130.4318  150.2190 H   0  0  0  0  0  0  0  0  0  0  0  0  # atno 10718 bound_to 10713
  154.2613  135.6308  153.5275 H   0  0  0  0  0  0  0  0  0  0  0  0  # atno 10763 bound_to 10752
  152.9895  135.5588  154.5701 H   0  0  0  0  0  0  0  0  0  0  0  0  # atno 10764 bound_to 10752
  154.5251  135.2885  155.1204 H   0  0  0  0  0  0  0  0  0  0  0  0  # atno 10765 bound_to 10752
  141.1616  133.7514  156.9313 H   0  0  0  0  0  0  0  0  0  0  0  0  # atno 11005 bound_to 11000
  146.3021  139.7459  142.9084 LP  0  0  0  0  0  0  0  0  0  0  0  0  # atno 17320 bound_to 7965
  145.3879  141.0368  143.3140 LP  0  0  0  0  0  0  0  0  0  0  0  0  # atno 17321 bound_to 7965
  140.5780  143.2175  151.7480 LP  0  0  0  0  0  0  0  0  0  0  0  0  # atno 17342 bound_to 10162
  139.4952  144.4122  152.0069 LP  0  0  0  0  0  0  0  0  0  0  0  0  # atno 17343 bound_to 10162
  157.0282  130.9999  151.3320 LP  0  0  0  0  0  0  0  0  0  0  0  0  # atno 17370 bound_to 10713
  157.5296  130.8050  149.7902 LP  0  0  0  0  0  0  0  0  0  0  0  0  # atno 17371 bound_to 10713
  140.1384  134.9309  157.2434 LP  0  0  0  0  0  0  0  0  0  0  0  0  # atno 17394 bound_to 11000
  140.2866  134.3288  155.7327 LP  0  0  0  0  0  0  0  0  0  0  0  0  # atno 17395 bound_to 11000

$$$$
