AV-unprocessed.smi:1978|AV-procd|sdf|8008|dock2
  -GOLD-   2272010193D 1   1.00000     0.00000
 Structure written by MMmdl.
 44 45  0  0  0  0  0  0  0  0  3 V2000
  147.0268  135.7774  163.0500 C   0  0  0  0  0  0  0  0  0  0  0  0
  147.5155  135.9739  161.6561 C   0  0  0  0  0  0  0  0  0  0  0  0
  147.7612  135.1100  160.6264 C   0  0  0  0  0  0  0  0  0  0  0  0
  148.2056  135.9684  159.5857 C   0  0  0  0  0  0  0  0  0  0  0  0
  148.5665  135.4410  158.3177 N   0  0  0  0  0  0  0  0  0  0  0  0
  148.2308  135.8858  157.0930 C   0  0  0  0  0  0  0  0  0  0  0  0
  147.5209  136.8903  156.9647 O   0  0  0  0  0  0  0  0  0  0  0  0
  148.7504  135.1091  156.1025 N   0  5  0  0  0  0  0  0  0  0  0  0
  148.4218  135.2337  154.6816 C   0  0  0  0  0  0  0  0  0  0  0  0
  148.0131  133.8623  154.0786 C   0  0  2  0  0  0  0  0  0  0  0  0
  149.1987  132.8730  153.9187 C   0  0  0  0  0  0  0  0  0  0  0  0
  147.2450  134.0825  152.8122 N   0  3  1  0  0  0  0  0  0  0  0  0
  146.9228  132.8682  152.0049 C   0  0  0  0  0  0  0  0  0  0  0  0
  146.4341  133.2542  150.6000 C   0  0  0  0  0  0  0  0  0  0  0  0
  145.2325  134.2035  150.6750 C   0  0  0  0  0  0  0  0  0  0  0  0
  145.5843  135.4299  151.5296 C   0  0  0  0  0  0  0  0  0  0  0  0
  146.0992  135.0363  152.9303 C   0  0  1  0  0  0  0  0  0  0  0  0
  144.9686  134.5293  153.8498 C   0  0  0  0  0  0  0  0  0  0  0  0
  148.2288  137.2424  159.9490 N   0  0  0  0  0  0  0  0  0  0  0  0
  147.7871  137.2521  161.2774 O   0  0  0  0  0  0  0  0  0  0  0  0
  146.8939  134.7179  163.2703 H   0  0  0  0  0  0  0  0  0  0  0  0
  146.0688  136.2760  163.1974 H   0  0  0  0  0  0  0  0  0  0  0  0
  147.7364  136.1857  163.7696 H   0  0  0  0  0  0  0  0  0  0  0  0
  147.6411  134.0371  160.6199 H   0  0  0  0  0  0  0  0  0  0  0  0
  149.1481  134.6167  158.3389 H   0  0  0  0  0  0  0  0  0  0  0  0
  147.6101  135.9452  154.5208 H   0  0  0  0  0  0  0  0  0  0  0  0
  149.2628  135.6326  154.1139 H   0  0  0  0  0  0  0  0  0  0  0  0
  147.3242  133.4093  154.7932 H   0  0  0  0  0  0  0  0  0  0  0  0
  149.6382  132.6125  154.8831 H   0  0  0  0  0  0  0  0  0  0  0  0
  150.0028  133.2694  153.2963 H   0  0  0  0  0  0  0  0  0  0  0  0
  148.8746  131.9349  153.4692 H   0  0  0  0  0  0  0  0  0  0  0  0
  147.8103  132.2427  151.9038 H   0  0  0  0  0  0  0  0  0  0  0  0
  146.1675  132.2630  152.5066 H   0  0  0  0  0  0  0  0  0  0  0  0
  147.2454  133.7331  150.0503 H   0  0  0  0  0  0  0  0  0  0  0  0
  146.1672  132.3582  150.0391 H   0  0  0  0  0  0  0  0  0  0  0  0
  144.9400  134.5167  149.6724 H   0  0  0  0  0  0  0  0  0  0  0  0
  144.3731  133.6831  151.0991 H   0  0  0  0  0  0  0  0  0  0  0  0
  146.3540  136.0086  151.0171 H   0  0  0  0  0  0  0  0  0  0  0  0
  144.7193  136.0887  151.6145 H   0  0  0  0  0  0  0  0  0  0  0  0
  146.4880  135.9511  153.3801 H   0  0  0  0  0  0  0  0  0  0  0  0
  144.1547  135.2531  153.8938 H   0  0  0  0  0  0  0  0  0  0  0  0
  145.3167  134.3861  154.8724 H   0  0  0  0  0  0  0  0  0  0  0  0
  144.5451  133.5859  153.5067 H   0  0  0  0  0  0  0  0  0  0  0  0
  147.9066  134.5885  152.2406 H   0  0  0  0  0  0  0  0  0  0  0  0
  1  2  1  0  0  0  0
  1 21  1  0  0  0  0
  1 22  1  0  0  0  0
  1 23  1  0  0  0  0
  2 20  1  0  0  0  0
  2  3  2  0  0  0  0
  3  4  1  0  0  0  0
  3 24  1  0  0  0  0
  4  5  1  0  0  0  0
  4 19  2  0  0  0  0
  5  6  1  0  0  0  0
  5 25  1  0  0  0  0
  6  7  2  0  0  0  0
  6  8  1  0  0  0  0
  8  9  1  0  0  0  0
  9 10  1  0  0  0  0
  9 26  1  0  0  0  0
  9 27  1  0  0  0  0
 10 11  1  0  0  0  0
 10 12  1  0  0  0  0
 10 28  1  0  0  0  0
 11 29  1  0  0  0  0
 11 30  1  0  0  0  0
 11 31  1  0  0  0  0
 12 17  1  0  0  0  0
 12 13  1  0  0  0  0
 12 44  1  0  0  0  0
 13 14  1  0  0  0  0
 13 32  1  0  0  0  0
 13 33  1  0  0  0  0
 14 15  1  0  0  0  0
 14 34  1  0  0  0  0
 14 35  1  0  0  0  0
 15 16  1  0  0  0  0
 15 36  1  0  0  0  0
 15 37  1  0  0  0  0
 16 17  1  0  0  0  0
 16 38  1  0  0  0  0
 16 39  1  0  0  0  0
 17 18  1  0  0  0  0
 17 40  1  0  0  0  0
 18 41  1  0  0  0  0
 18 42  1  0  0  0  0
 18 43  1  0  0  0  0
 19 20  1  0  0  0  0
M  CHG  1   8  -1
M  CHG  1  12   1
M  END
> <s_m_source_file>
AV-unprocessed.smi

> <i_m_source_file_index>
1978

> <i_lp_mmshare_version>
43012

> <i_f3d_flags>
0

> <s_epik_input>
W0NIM11jMVtjSF1jKG5vMSlbTkhdQyg9TylbTkhdW0NIMl1bQ0BIXShbQ0gzXSlOMltDSDJdW0NIMl1bQ0gyXVtDSDJdW0NASF0yW0NIM10=

> <s_epik_cmdline>
J2VwaWtfcHl0aG9uJywgJy1waCcsICc3LjAnLCAnLXRuJywgJzgnLCAnLW1hJywgJzIwMCcsICctbWV0YWxfYmluZGluZycsICctaW1hZScsICc8aW5maWxlLm1hZT4nLCAnLW9tYWUnLCAnPG91dGZpbGUubWFlPic=

> <r_epik_Ionization_Penalty>
6.7666

> <r_epik_Ionization_Penalty_Charging>
6.7666

> <r_epik_Ionization_Penalty_Neutral>
5.77131e-06

> <r_epik_State_Penalty>
6.79217

> <r_epik_Charging_Adjusted_Penalty>
13.5588

> <i_epik_Tot_Q>
0

> <i_epik_Tot_abs_Q>
2

> <r_epik_Metal_State_Penalty>
2.72569

> <b_epik_Metal_Only>
1

> <s_lp_Force_Field>
OPLS_2005

> <r_lp_Energy>
20.2617

> <b_lp_Chiralities_Consistent>
1

> <s_lp_Variant>
AV-unprocessed.smi:1978-17

> <Gold.Version>
5.8.1

> <Gold.Id.Protein>
6NUR|6NUR_protein|mol2

> <Gold.PLP.Fitness>
39.8175

> <Gold.PLP.PLP>
-31.1524

> <Gold.PLP.part.hbond>
-4.5622

> <Gold.PLP.part.metal>
0.0000

> <Gold.PLP.part.buried>
-1.2658

> <Gold.PLP.part.nonpolar>
-25.3576

> <Gold.PLP.part.repulsive>
0.1149

> <Gold.PLP.ligand.clash>
0.0000

> <Gold.PLP.ligand.torsion>
0.6496

> <Gold.PLP.Chemscore.Hbond>
3.2516

> <Gold.PLP.Chemscore.CHOScore>
0.0000

> <Gold.PLP.Chemscore.Metal>
0.0000

> <Gold.Chemscore.Hbonds>
donor molecule, donor type, donor heavy atom, donor atom, acceptor molecule, acceptor atom, score
      L1  H    12    44       P1  7948  2.00
      P1  H  6931  6943       L1    20  0.82
      P1  H  6934  6947       L1    20  0.24

> <Gold.PLP.Chemscore.Internal.Correction>
0.2095

> <Gold.Rescore>
     Score         DG    S(hbond)    S(metal)    S(lipo)     H(rot)  DE(clash)    DE(int)     intcor
     12.77     -14.80       1.64        0.00      65.97       1.52       1.28       0.74       ----

> <Gold.Chemscore.Fitness>
12.7737

> <Gold.Chemscore.DG>
-14.7964

> <Gold.Chemscore.ZeroCoef>
-5.4800

> <Gold.Chemscore.Hbond>
1.6428

> <Gold.Chemscore.Metal>
0.0000

> <Gold.Chemscore.Lipo>
65.9666

> <Gold.Chemscore.Internal_Hbond>
0.0000

> <Gold.Chemscore.DEClash>
1.2838

> <Gold.Chemscore.DEInternal>
0.7390

> <Gold.Chemscore.Rot>
1.5190

> <Gold.Chemscore.Internal.Correction>
   9.000000E+99

> <Gold.Chemscore.Hbonds>
donor molecule, donor type, donor heavy atom, donor atom, acceptor molecule, acceptor atom, score
      L1  H    12    44       P1  7948  0.43
      P1  H  6931  6943       L1    20  0.13

> <Gold.Chemscore.Hbond.Weighted>
-5.4870

> <Gold.Chemscore.Metal.Weighted>
-0.0000

> <Gold.Chemscore.Lipo.Weighted>
-7.7181

> <Gold.Chemscore.Internal_Hbond.Weighted>
0.0000

> <Gold.Chemscore.DEClash.Weighted>
1.2838

> <Gold.Chemscore.DEInternal.Weighted>
0.7390

> <Gold.Chemscore.Rot.Weighted>
3.8886

> <Gold.Chemscore.Internal.Correction.Weighted>
   9.000000E+99

> <Gold.Protein.RotatedTorsions>
[ 6907 6896 6895 6894 ] final  124.49 input  -60.11 | X-H torsion
[ 7974 7965 7964 7962 ] final  155.30 input  175.53 | X-H torsion
[ 8008 7997 7996 7995 ] final -106.43 input   59.86 | X-H torsion
[ 10167 10162 10161 10158 ] final  110.15 input  -65.29 | X-H torsion
[ 10718 10713 10712 10709 ] final -110.66 input   66.30 | X-H torsion
[ 10763 10752 10751 10750 ] final -134.33 input  -60.55 | X-H torsion
[ 11005 11000 10999 10996 ] final  -78.68 input  -57.11 | X-H torsion

> <Gold.Protein.ActiveResidues>
 VAL166  LYS551  ARG553  GLY616  TRP617  ASP618  TYR619  PRO620  LYS621  CYS622 
 ASP623  PHE694  ASN695  SER759  ASP760  ASP761  ALA762  ILE779  LEU786  VAL792 
 PHE793  MET794  SER795  GLU796  ALA797  LYS798  CYS799  TRP800  GLU811  SER814 

> <Gold.Protein.RotatedAtoms>
  152.4073  133.6909  159.6367 H   0  0  0  0  0  0  0  0  0  0  0  0  # atno 6907 bound_to 6896
  150.7957  133.8686  159.3261 H   0  0  0  0  0  0  0  0  0  0  0  0  # atno 6908 bound_to 6896
  151.6438  135.1011  160.0198 H   0  0  0  0  0  0  0  0  0  0  0  0  # atno 6909 bound_to 6896
  144.8034  139.7049  143.6172 H   0  0  0  0  0  0  0  0  0  0  0  0  # atno 7974 bound_to 7965
  154.9144  140.0409  157.1964 H   0  0  0  0  0  0  0  0  0  0  0  0  # atno 8008 bound_to 7997
  154.8316  140.2900  155.5697 H   0  0  0  0  0  0  0  0  0  0  0  0  # atno 8009 bound_to 7997
  156.2987  140.2499  156.3243 H   0  0  0  0  0  0  0  0  0  0  0  0  # atno 8010 bound_to 7997
  139.6711  144.7125  151.1687 H   0  0  0  0  0  0  0  0  0  0  0  0  # atno 10167 bound_to 10162
  156.0603  130.5827  150.8267 H   0  0  0  0  0  0  0  0  0  0  0  0  # atno 10718 bound_to 10713
  154.8720  135.3738  154.4719 H   0  0  0  0  0  0  0  0  0  0  0  0  # atno 10763 bound_to 10752
  153.5378  135.7027  153.5656 H   0  0  0  0  0  0  0  0  0  0  0  0  # atno 10764 bound_to 10752
  153.3831  135.3991  155.1836 H   0  0  0  0  0  0  0  0  0  0  0  0  # atno 10765 bound_to 10752
  141.1665  133.7073  156.8008 H   0  0  0  0  0  0  0  0  0  0  0  0  # atno 11005 bound_to 11000
  146.2320  139.5832  142.9549 LP  0  0  0  0  0  0  0  0  0  0  0  0  # atno 17320 bound_to 7965
  145.5498  141.0414  143.2285 LP  0  0  0  0  0  0  0  0  0  0  0  0  # atno 17321 bound_to 7965
  140.7618  143.5843  150.8862 LP  0  0  0  0  0  0  0  0  0  0  0  0  # atno 17342 bound_to 10162
  139.9509  143.6274  152.3029 LP  0  0  0  0  0  0  0  0  0  0  0  0  # atno 17343 bound_to 10162
  157.5606  131.0946  150.9564 LP  0  0  0  0  0  0  0  0  0  0  0  0  # atno 17370 bound_to 10713
  156.9803  130.5524  149.5296 LP  0  0  0  0  0  0  0  0  0  0  0  0  # atno 17371 bound_to 10713
  140.2257  134.8723  157.3424 LP  0  0  0  0  0  0  0  0  0  0  0  0  # atno 17394 bound_to 11000
  140.1942  134.4335  155.7699 LP  0  0  0  0  0  0  0  0  0  0  0  0  # atno 17395 bound_to 11000

$$$$
