#       Name:                AV-unprocessed.smi:2428
#       Creating user name   scv26
#       Creation time:       Fri Mar 27 13:21:27 2020


#       File generated by GOLD software.
#

@<TRIPOS>MOLECULE
AV-unprocessed.smi:2428
    33    34     1
SMALL
NO_CHARGES


@<TRIPOS>ATOM
      1 ****        -4.9283  -2.0313  -0.1764 F              1 S1                 0.0000
      2 ****        -4.5463  -1.2881   0.8624 C.3            1 S1                 0.0000
      3 ****        -5.0621  -0.0670   0.7187 F              1 S1                 0.0000
      4 ****        -5.0319  -1.8290   1.9791 F              1 S1                 0.0000
      5 ****        -3.0288  -1.2503   0.9415 C.ar           1 S1                 0.0000
      6 ****        -2.2782  -2.4388   0.8341 C.ar           1 S1                 0.0000
      7 ****        -0.8739  -2.3715   0.9152 C.ar           1 S1                 0.0000
      8 ****        -0.2628  -1.1142   1.1012 C.ar           1 S1                 0.0000
      9 ****         1.1363  -1.0553   1.1801 N.pl3          1 S1                 0.0000
     10 ****         1.8476   0.2065   1.0138 C.3            1 S1                 0.0000
     11 ****         2.0497   0.5721  -0.4661 C.3            1 S1                 0.0000
     12 ****         2.9836   1.7608  -0.6760 C.3            1 S1                 0.0000
     13 ****         2.5878   2.2760  -2.0495 C.3            1 S1                 0.0000
     14 ****         1.1824   1.7069  -2.2669 C.3            1 S1                 0.0000
     15 ****         0.8481   1.0457  -1.0538 O.3            1 S1                 0.0000
     16 ****        -0.9792   0.0290   1.2158 N.ar           1 S1                 0.0000
     17 ****        -2.3251  -0.0419   1.1354 C.ar           1 S1                 0.0000
     18 ****        -2.7705  -3.3896   0.6918 H              1 S1                 0.0000
     19 ****        -0.2807  -3.2707   0.8330 H              1 S1                 0.0000
     20 ****         1.6592  -1.9087   1.0474 H              1 S1                 0.0000
     21 ****         1.3557   1.0157   1.5545 H              1 S1                 0.0000
     22 ****         2.8232   0.0813   1.4838 H              1 S1                 0.0000
     23 ****         2.4168  -0.2874  -1.0307 H              1 S1                 0.0000
     24 ****         2.7875   2.5290   0.0734 H              1 S1                 0.0000
     25 ****         4.0370   1.4876  -0.6114 H              1 S1                 0.0000
     26 ****         2.6013   3.3656  -2.0857 H              1 S1                 0.0000
     27 ****         3.2681   1.9054  -2.8168 H              1 S1                 0.0000
     28 ****         0.4501   2.4809  -2.4970 H              1 S1                 0.0000
     29 ****         1.1830   0.9847  -3.0844 H              1 S1                 0.0000
     30 ****        -2.8484   0.8976   1.2327 H              1 S1                 0.0000
     31 ****         0.3956   1.6853  -0.4323 LP             1 S1                 0.0000
     32 ****         0.2373   0.2769  -1.2436 LP             1 S1                 0.0000
     33 ****        -0.5214   0.9067   1.3570 LP             1 S1                 0.0000
@<TRIPOS>BOND
    1    1    2 1     
    2    2    3 1     
    3    2    4 1     
    4    2    5 1     
    5    5   17 ar    
    6    5    6 ar    
    7    6    7 ar    
    8    6   18 1     
    9    7    8 ar    
   10    7   19 1     
   11    8    9 1     
   12    8   16 ar    
   13    9   10 1     
   14    9   20 1     
   15   10   11 1     
   16   10   21 1     
   17   10   22 1     
   18   11   15 1     
   19   11   12 1     
   20   11   23 1     
   21   12   13 1     
   22   12   24 1     
   23   12   25 1     
   24   13   14 1     
   25   13   26 1     
   26   13   27 1     
   27   14   15 1     
   28   14   28 1     
   29   14   29 1     
   30   16   17 ar    
   31   17   30 1     
   32   15   31 1     
   33   15   32 1     
   34   16   33 1     
@<TRIPOS>SUBSTRUCTURE
      1 S1             1
@<TRIPOS>SET
LONE_PAIRS      STATIC     ATOMS    <user>   **** ""
3 31 32 33
DONOR_HYDROGENS      STATIC     ATOMS    <user>   **** ""
1 20
ATOM$BLUE        STATIC     ATOMS    COLORGROUP SYSTEM
3 31 32 33
ATOM$RED        STATIC     ATOMS    COLORGROUP SYSTEM
1 20
