AV-unprocessed.smi:2660|AV-procd|sdf|10315|dock4
  -GOLD-   2272014333D 1   1.00000     0.00000
 Structure written by MMmdl.
 36 37  0  0  0  0  0  0  0  0  1 V2000
  154.4024  138.6314  160.9479 N   0  0  0  0  0  0  0  0  0  0  0  0
  153.5588  138.8714  159.9364 C   0  0  0  0  0  0  0  0  0  0  0  0
  153.2075  137.9327  159.2218 O   0  0  0  0  0  0  0  0  0  0  0  0
  153.1478  140.2879  159.8112 C   0  0  0  0  0  0  0  0  0  0  0  0
  153.6278  141.2629  160.6159 C   0  0  0  0  0  0  0  0  0  0  0  0
  153.1857  142.6217  160.4620 C   0  0  0  0  0  0  0  0  0  0  0  0
  152.3575  142.9530  159.4539 C   0  0  0  0  0  0  0  0  0  0  0  0
  151.7798  144.3701  159.3479 C   0  0  0  0  0  0  0  0  0  0  0  0
  152.1642  145.1279  160.3759 F   0  0  0  0  0  0  0  0  0  0  0  0
  152.1970  144.9819  158.2410 F   0  0  0  0  0  0  0  0  0  0  0  0
  150.4462  144.3512  159.3671 F   0  0  0  0  0  0  0  0  0  0  0  0
  151.9198  141.9476  158.5358 N   0  0  0  0  0  0  0  0  0  0  0  0
  151.1869  142.3202  157.2980 C   0  0  0  0  0  0  0  0  0  0  0  0
  149.7446  141.7514  157.2422 C   0  0  1  0  0  0  0  0  0  0  0  0
  148.8393  142.8061  157.5018 O   0  0  0  0  0  0  0  0  0  0  0  0
  149.4349  141.0142  155.9439 C   0  0  0  0  0  0  0  0  0  0  0  0
  148.3589  141.4150  155.1202 C   0  0  0  0  0  0  0  0  0  0  0  0
  148.0919  140.7339  153.9168 C   0  0  0  0  0  0  0  0  0  0  0  0
  148.8967  139.6462  153.5289 C   0  0  0  0  0  0  0  0  0  0  0  0
  149.9681  139.2388  154.3462 C   0  0  0  0  0  0  0  0  0  0  0  0
  150.2346  139.9190  155.5501 C   0  0  0  0  0  0  0  0  0  0  0  0
  152.1851  140.6110  158.7274 C   0  0  0  0  0  0  0  0  0  0  0  0
  151.6552  139.7642  158.0017 O   0  0  0  0  0  0  0  0  0  0  0  0
  154.7327  137.6909  161.1096 H   0  0  0  0  0  0  0  0  0  0  0  0
  154.7033  139.3862  161.5464 H   0  0  0  0  0  0  0  0  0  0  0  0
  154.3413  141.0611  161.4009 H   0  0  0  0  0  0  0  0  0  0  0  0
  153.4994  143.3545  161.1902 H   0  0  0  0  0  0  0  0  0  0  0  0
  151.1546  143.4087  157.2176 H   0  0  0  0  0  0  0  0  0  0  0  0
  151.6903  142.0165  156.3872 H   0  0  0  0  0  0  0  0  0  0  0  0
  149.5956  141.0440  158.0580 H   0  0  0  0  0  0  0  0  0  0  0  0
  148.9834  143.4889  156.8649 H   0  0  0  0  0  0  0  0  0  0  0  0
  147.7386  142.2535  155.4004 H   0  0  0  0  0  0  0  0  0  0  0  0
  147.2704  141.0481  153.2899 H   0  0  0  0  0  0  0  0  0  0  0  0
  148.6919  139.1244  152.6058 H   0  0  0  0  0  0  0  0  0  0  0  0
  150.5862  138.4045  154.0492 H   0  0  0  0  0  0  0  0  0  0  0  0
  151.0606  139.6001  156.1688 H   0  0  0  0  0  0  0  0  0  0  0  0
  1  2  1  0  0  0  0
  1 24  1  0  0  0  0
  1 25  1  0  0  0  0
  2  3  2  0  0  0  0
  2  4  1  0  0  0  0
  4 22  1  0  0  0  0
  4  5  2  0  0  0  0
  5  6  1  0  0  0  0
  5 26  1  0  0  0  0
  6  7  2  0  0  0  0
  6 27  1  0  0  0  0
  7  8  1  0  0  0  0
  7 12  1  0  0  0  0
  8  9  1  0  0  0  0
  8 10  1  0  0  0  0
  8 11  1  0  0  0  0
 12 13  1  0  0  0  0
 12 22  1  0  0  0  0
 13 14  1  0  0  0  0
 13 28  1  0  0  0  0
 13 29  1  0  0  0  0
 14 15  1  0  0  0  0
 14 16  1  0  0  0  0
 14 30  1  0  0  0  0
 15 31  1  0  0  0  0
 16 21  1  0  0  0  0
 16 17  2  0  0  0  0
 17 18  1  0  0  0  0
 17 32  1  0  0  0  0
 18 19  2  0  0  0  0
 18 33  1  0  0  0  0
 19 20  1  0  0  0  0
 19 34  1  0  0  0  0
 20 21  2  0  0  0  0
 20 35  1  0  0  0  0
 21 36  1  0  0  0  0
 22 23  2  0  0  0  0
M  END
> <s_m_source_file>
AV-unprocessed.smi

> <i_m_source_file_index>
2660

> <i_lp_mmshare_version>
43012

> <i_f3d_flags>
0

> <s_epik_input>
W05IMl1DKD1PKWMxW2NIXVtjSF1jKEMoRikoRilGKW4oYzE9TylbQ0gyXVtDQEhdKFtPSF0pYzJbY0hdW2NIXVtjSF1bY0hdW2NIXTI=

> <s_epik_cmdline>
J2VwaWtfcHl0aG9uJywgJy1waCcsICc3LjAnLCAnLXRuJywgJzgnLCAnLW1hJywgJzIwMCcsICctbWV0YWxfYmluZGluZycsICctaW1hZScsICc8aW5maWxlLm1hZT4nLCAnLW9tYWUnLCAnPG91dGZpbGUubWFlPic=

> <r_lp_tautomer_probability>
1

> <r_epik_Ionization_Penalty>
1.58596e-06

> <r_epik_Ionization_Penalty_Charging>
5.13453e-09

> <r_epik_Ionization_Penalty_Neutral>
1.58083e-06

> <r_epik_State_Penalty>
-0

> <r_epik_Charging_Adjusted_Penalty>
5.13453e-09

> <i_epik_Tot_Q>
0

> <i_epik_Tot_abs_Q>
0

> <r_epik_Metal_State_Penalty>
-0

> <b_epik_Metal_Only>
0

> <s_lp_Force_Field>
OPLS_2005

> <r_lp_Energy>
32.13

> <b_lp_Chiralities_Consistent>
1

> <s_lp_Variant>
AV-unprocessed.smi:2660-2

> <Gold.Version>
5.8.1

> <Gold.Id.Protein>
6NUR|6NUR_protein|mol2

> <Gold.PLP.Fitness>
50.7660

> <Gold.PLP.PLP>
-49.1243

> <Gold.PLP.part.hbond>
-1.4940

> <Gold.PLP.part.metal>
0.0000

> <Gold.PLP.part.buried>
-2.4950

> <Gold.PLP.part.nonpolar>
-45.2798

> <Gold.PLP.part.repulsive>
0.0013

> <Gold.PLP.ligand.clash>
1.8087

> <Gold.PLP.ligand.torsion>
0.7985

> <Gold.PLP.Chemscore.Hbond>
1.0000

> <Gold.PLP.Chemscore.CHOScore>
0.0000

> <Gold.PLP.Chemscore.Metal>
0.0000

> <Gold.Chemscore.Hbonds>
donor molecule, donor type, donor heavy atom, donor atom, acceptor molecule, acceptor atom, score
      L1  H    15    31       P1  8028  1.00

> <Gold.PLP.Chemscore.Internal.Correction>
2.0474

> <Gold.Rescore>
     Score         DG    S(hbond)    S(metal)    S(lipo)     H(rot)  DE(clash)    DE(int)     intcor
      7.43     -14.74       0.89        0.00     102.00       2.21       0.89       6.42       ----

> <Gold.Chemscore.Fitness>
7.4321

> <Gold.Chemscore.DG>
-14.7416

> <Gold.Chemscore.ZeroCoef>
-5.4800

> <Gold.Chemscore.Hbond>
0.8926

> <Gold.Chemscore.Metal>
0.0000

> <Gold.Chemscore.Lipo>
102.0013

> <Gold.Chemscore.Internal_Hbond>
0.0000

> <Gold.Chemscore.DEClash>
0.8895

> <Gold.Chemscore.DEInternal>
6.4200

> <Gold.Chemscore.Rot>
2.2086

> <Gold.Chemscore.Internal.Correction>
   9.000000E+99

> <Gold.Chemscore.Hbonds>
donor molecule, donor type, donor heavy atom, donor atom, acceptor molecule, acceptor atom, score
      L1  H    15    31       P1  8028  0.74

> <Gold.Chemscore.Hbond.Weighted>
-2.9814

> <Gold.Chemscore.Metal.Weighted>
-0.0000

> <Gold.Chemscore.Lipo.Weighted>
-11.9342

> <Gold.Chemscore.Internal_Hbond.Weighted>
0.0000

> <Gold.Chemscore.DEClash.Weighted>
0.8895

> <Gold.Chemscore.DEInternal.Weighted>
6.4200

> <Gold.Chemscore.Rot.Weighted>
5.6540

> <Gold.Chemscore.Internal.Correction.Weighted>
   9.000000E+99

> <Gold.Protein.RotatedTorsions>
[ 6907 6896 6895 6894 ] final   90.16 input  -60.11 | X-H torsion
[ 7974 7965 7964 7962 ] final -102.60 input  175.53 | X-H torsion
[ 8008 7997 7996 7995 ] final -161.99 input   59.86 | X-H torsion
[ 10167 10162 10161 10158 ] final   64.28 input  -65.29 | X-H torsion
[ 10718 10713 10712 10709 ] final -150.51 input   66.30 | X-H torsion
[ 10763 10752 10751 10750 ] final  -39.14 input  -60.55 | X-H torsion
[ 11005 11000 10999 10996 ] final   70.57 input  -57.11 | X-H torsion

> <Gold.Protein.ActiveResidues>
 VAL166  LYS551  ARG553  GLY616  TRP617  ASP618  TYR619  PRO620  LYS621  CYS622 
 ASP623  PHE694  ASN695  SER759  ASP760  ASP761  ALA762  ILE779  LEU786  VAL792 
 PHE793  MET794  SER795  GLU796  ALA797  LYS798  CYS799  TRP800  GLU811  SER814 

> <Gold.Protein.RotatedAtoms>
  152.5442  134.1855  159.8652 H   0  0  0  0  0  0  0  0  0  0  0  0  # atno 6907 bound_to 6896
  151.1854  133.4692  159.2602 H   0  0  0  0  0  0  0  0  0  0  0  0  # atno 6908 bound_to 6896
  151.1136  135.0052  159.8561 H   0  0  0  0  0  0  0  0  0  0  0  0  # atno 6909 bound_to 6896
  145.2666  140.9286  143.3010 H   0  0  0  0  0  0  0  0  0  0  0  0  # atno 7974 bound_to 7965
  155.8003  140.0891  157.1960 H   0  0  0  0  0  0  0  0  0  0  0  0  # atno 8008 bound_to 7997
  154.3982  140.1473  156.3326 H   0  0  0  0  0  0  0  0  0  0  0  0  # atno 8009 bound_to 7997
  155.8469  140.3436  155.5670 H   0  0  0  0  0  0  0  0  0  0  0  0  # atno 8010 bound_to 7997
  140.1239  144.4705  150.6904 H   0  0  0  0  0  0  0  0  0  0  0  0  # atno 10167 bound_to 10162
  156.4471  130.8150  151.2380 H   0  0  0  0  0  0  0  0  0  0  0  0  # atno 10718 bound_to 10713
  153.9244  135.6779  153.4747 H   0  0  0  0  0  0  0  0  0  0  0  0  # atno 10763 bound_to 10752
  153.1012  135.4827  154.8866 H   0  0  0  0  0  0  0  0  0  0  0  0  # atno 10764 bound_to 10752
  154.7461  135.3173  154.8599 H   0  0  0  0  0  0  0  0  0  0  0  0  # atno 10765 bound_to 10752
  139.9590  134.7093  156.0687 H   0  0  0  0  0  0  0  0  0  0  0  0  # atno 11005 bound_to 11000
  144.9372  139.4231  143.6466 LP  0  0  0  0  0  0  0  0  0  0  0  0  # atno 17320 bound_to 7965
  146.3259  139.8313  142.8908 LP  0  0  0  0  0  0  0  0  0  0  0  0  # atno 17321 bound_to 7965
  140.6856  143.2348  151.5269 LP  0  0  0  0  0  0  0  0  0  0  0  0  # atno 17342 bound_to 10162
  139.5554  144.2289  152.1603 LP  0  0  0  0  0  0  0  0  0  0  0  0  # atno 17343 bound_to 10162
  157.7504  131.0150  150.3485 LP  0  0  0  0  0  0  0  0  0  0  0  0  # atno 17370 bound_to 10713
  156.3856  130.3888  149.7069 LP  0  0  0  0  0  0  0  0  0  0  0  0  # atno 17371 bound_to 10713
  141.1265  133.6598  156.3351 LP  0  0  0  0  0  0  0  0  0  0  0  0  # atno 17394 bound_to 11000
  140.5542  134.5997  157.5416 LP  0  0  0  0  0  0  0  0  0  0  0  0  # atno 17395 bound_to 11000

$$$$
