AV-unprocessed.smi:2832|AV-procd|sdf|10913|dock5
  -GOLD-   2272015363D 1   1.00000     0.00000
 Structure written by MMmdl.
 33 33  0  0  0  0  0  0  0  0  2 V2000
  150.9268  138.5301  154.1047 C   0  0  0  0  0  0  0  0  0  0  0  0
  151.6862  137.9950  155.3235 C   0  0  0  0  0  0  0  0  0  0  0  0
  151.8984  139.0784  156.4049 C   0  0  0  0  0  0  0  0  0  0  0  0
  152.3920  138.5816  157.7956 C   0  0  2  0  0  0  0  0  0  0  0  0
  151.2648  137.7527  158.4620 C   0  0  0  0  0  0  0  0  0  0  0  0
  152.8293  139.7475  158.5835 N   0  0  0  0  0  0  0  0  0  0  0  0
  152.1779  140.8544  158.9858 C   0  0  0  0  0  0  0  0  0  0  0  0
  151.0403  141.1711  158.6414 O   0  0  0  0  0  0  0  0  0  0  0  0
  152.9536  141.7598  159.9436 C   0  0  0  0  0  0  0  0  0  0  0  0
  152.5521  143.1492  159.7947 N   0  0  0  0  0  0  0  0  0  0  0  0
  152.0916  144.0216  160.7611 C   0  0  0  0  0  0  0  0  0  0  0  0
  151.8505  145.2179  160.1491 C   0  0  0  0  0  0  0  0  0  0  0  0
  152.2030  144.9797  158.7915 C   0  0  0  0  0  0  0  0  0  0  0  0
  152.6274  143.7439  158.5834 N   0  0  0  0  0  0  0  0  0  0  0  0
  153.6119  137.6334  157.6838 C   0  0  0  0  0  0  0  0  0  0  0  0
  154.6919  137.9794  158.2125 O   0  0  0  0  0  0  0  0  0  0  0  0
  153.4518  136.5688  157.0442 O   0  5  0  0  0  0  0  0  0  0  0  0
  150.7981  137.7496  153.3546 H   0  0  0  0  0  0  0  0  0  0  0  0
  151.4638  139.3561  153.6377 H   0  0  0  0  0  0  0  0  0  0  0  0
  149.9359  138.8884  154.3854 H   0  0  0  0  0  0  0  0  0  0  0  0
  151.1385  137.1461  155.7315 H   0  0  0  0  0  0  0  0  0  0  0  0
  152.6484  137.6057  154.9900 H   0  0  0  0  0  0  0  0  0  0  0  0
  152.6225  139.7971  156.0187 H   0  0  0  0  0  0  0  0  0  0  0  0
  150.9751  139.6470  156.5269 H   0  0  0  0  0  0  0  0  0  0  0  0
  151.0579  136.8429  157.8966 H   0  0  0  0  0  0  0  0  0  0  0  0
  150.3275  138.3076  158.5082 H   0  0  0  0  0  0  0  0  0  0  0  0
  151.5244  137.4488  159.4773 H   0  0  0  0  0  0  0  0  0  0  0  0
  153.7646  139.6506  158.9507 H   0  0  0  0  0  0  0  0  0  0  0  0
  152.7799  141.4544  160.9764 H   0  0  0  0  0  0  0  0  0  0  0  0
  154.0247  141.6638  159.7570 H   0  0  0  0  0  0  0  0  0  0  0  0
  151.9697  143.7200  161.7915 H   0  0  0  0  0  0  0  0  0  0  0  0
  151.4779  146.1243  160.6029 H   0  0  0  0  0  0  0  0  0  0  0  0
  152.1649  145.6644  157.9570 H   0  0  0  0  0  0  0  0  0  0  0  0
  1  2  1  0  0  0  0
  1 18  1  0  0  0  0
  1 19  1  0  0  0  0
  1 20  1  0  0  0  0
  2  3  1  0  0  0  0
  2 21  1  0  0  0  0
  2 22  1  0  0  0  0
  3  4  1  0  0  0  0
  3 23  1  0  0  0  0
  3 24  1  0  0  0  0
  4  5  1  0  0  0  0
  4  6  1  0  0  0  0
  4 15  1  0  0  0  0
  5 25  1  0  0  0  0
  5 26  1  0  0  0  0
  5 27  1  0  0  0  0
  6  7  1  0  0  0  0
  6 28  1  0  0  0  0
  7  8  2  0  0  0  0
  7  9  1  0  0  0  0
  9 10  1  0  0  0  0
  9 29  1  0  0  0  0
  9 30  1  0  0  0  0
 10 14  1  0  0  0  0
 10 11  1  0  0  0  0
 11 12  2  0  0  0  0
 11 31  1  0  0  0  0
 12 13  1  0  0  0  0
 12 32  1  0  0  0  0
 13 14  2  0  0  0  0
 13 33  1  0  0  0  0
 15 16  2  0  0  0  0
 15 17  1  0  0  0  0
M  CHG  1  17  -1
M  END
> <s_m_source_file>
AV-unprocessed.smi

> <i_m_source_file_index>
2832

> <i_lp_mmshare_version>
43012

> <i_f3d_flags>
0

> <s_epik_input>
W0NIM11bQ0gyXVtDSDJdW0NAXShbQ0gzXSkoQyg9TylbT0hdKVtOSF1DKD1PKVtDSDJdbjFbY0hdW2NIXVtjSF1uMQ==

> <s_epik_cmdline>
J2VwaWtfcHl0aG9uJywgJy1waCcsICc3LjAnLCAnLXRuJywgJzgnLCAnLW1hJywgJzIwMCcsICctbWV0YWxfYmluZGluZycsICctaW1hZScsICc8aW5maWxlLm1hZT4nLCAnLW9tYWUnLCAnPG91dGZpbGUubWFlPic=

> <r_lp_tautomer_probability>
1

> <r_epik_Ionization_Penalty>
0.000287256

> <r_epik_Ionization_Penalty_Charging>
0.00026921

> <r_epik_Ionization_Penalty_Neutral>
1.80463e-05

> <r_epik_State_Penalty>
-0

> <r_epik_Charging_Adjusted_Penalty>
0.00026921

> <i_epik_Tot_Q>
-1

> <i_epik_Tot_abs_Q>
1

> <r_epik_Metal_State_Penalty>
-0

> <b_epik_Metal_Only>
0

> <s_lp_Force_Field>
OPLS_2005

> <r_lp_Energy>
2.74442

> <b_lp_Chiralities_Consistent>
1

> <s_lp_Variant>
AV-unprocessed.smi:2832-2

> <Gold.Version>
5.8.1

> <Gold.Id.Protein>
6NUR|6NUR_protein|mol2

> <Gold.PLP.Fitness>
46.1188

> <Gold.PLP.PLP>
-36.1980

> <Gold.PLP.part.hbond>
-2.0000

> <Gold.PLP.part.metal>
0.0000

> <Gold.PLP.part.buried>
-6.2645

> <Gold.PLP.part.nonpolar>
-28.4552

> <Gold.PLP.part.repulsive>
0.1067

> <Gold.PLP.ligand.clash>
0.0000

> <Gold.PLP.ligand.torsion>
0.5294

> <Gold.PLP.Chemscore.Hbond>
3.6320

> <Gold.PLP.Chemscore.CHOScore>
0.0000

> <Gold.PLP.Chemscore.Metal>
0.0000

> <Gold.Chemscore.Hbonds>
donor molecule, donor type, donor heavy atom, donor atom, acceptor molecule, acceptor atom, score
      P1  H  7997  8010       L1    16  0.69
      P1  H 10752 10765       L1    17  1.79

> <Gold.PLP.Chemscore.Internal.Correction>
0.0837

> <Gold.Rescore>
     Score         DG    S(hbond)    S(metal)    S(lipo)     H(rot)  DE(clash)    DE(int)     intcor
     11.52     -13.38       1.51        0.00      78.43       2.47       0.00       1.86       ----

> <Gold.Chemscore.Fitness>
11.5234

> <Gold.Chemscore.DG>
-13.3842

> <Gold.Chemscore.ZeroCoef>
-5.4800

> <Gold.Chemscore.Hbond>
1.5143

> <Gold.Chemscore.Metal>
0.0000

> <Gold.Chemscore.Lipo>
78.4300

> <Gold.Chemscore.Internal_Hbond>
0.0000

> <Gold.Chemscore.DEClash>
0.0038

> <Gold.Chemscore.DEInternal>
1.8570

> <Gold.Chemscore.Rot>
2.4726

> <Gold.Chemscore.Internal.Correction>
   9.000000E+99

> <Gold.Chemscore.Hbonds>
donor molecule, donor type, donor heavy atom, donor atom, acceptor molecule, acceptor atom, score
      P1  H  7997  8010       L1    16  0.20
      P1  H 10752 10765       L1    17  0.83

> <Gold.Chemscore.Hbond.Weighted>
-5.0576

> <Gold.Chemscore.Metal.Weighted>
-0.0000

> <Gold.Chemscore.Lipo.Weighted>
-9.1763

> <Gold.Chemscore.Internal_Hbond.Weighted>
0.0000

> <Gold.Chemscore.DEClash.Weighted>
0.0038

> <Gold.Chemscore.DEInternal.Weighted>
1.8570

> <Gold.Chemscore.Rot.Weighted>
6.3297

> <Gold.Chemscore.Internal.Correction.Weighted>
   9.000000E+99

> <Gold.Protein.RotatedTorsions>
[ 6907 6896 6895 6894 ] final  -82.08 input  -60.11 | X-H torsion
[ 7974 7965 7964 7962 ] final  144.72 input  175.53 | X-H torsion
[ 8008 7997 7996 7995 ] final   -9.61 input   59.86 | X-H torsion
[ 10167 10162 10161 10158 ] final  118.07 input  -65.29 | X-H torsion
[ 10718 10713 10712 10709 ] final  -42.06 input   66.30 | X-H torsion
[ 10763 10752 10751 10750 ] final -106.37 input  -60.55 | X-H torsion
[ 11005 11000 10999 10996 ] final  171.55 input  -57.11 | X-H torsion

> <Gold.Protein.ActiveResidues>
 VAL166  LYS551  ARG553  GLY616  TRP617  ASP618  TYR619  PRO620  LYS621  CYS622 
 ASP623  PHE694  ASN695  SER759  ASP760  ASP761  ALA762  ILE779  LEU786  VAL792 
 PHE793  MET794  SER795  GLU796  ALA797  LYS798  CYS799  TRP800  GLU811  SER814 

> <Gold.Protein.RotatedAtoms>
  150.6902  134.3719  159.4995 H   0  0  0  0  0  0  0  0  0  0  0  0  # atno 6907 bound_to 6896
  152.1534  134.8968  160.0556 H   0  0  0  0  0  0  0  0  0  0  0  0  # atno 6908 bound_to 6896
  152.0057  133.3807  159.4236 H   0  0  0  0  0  0  0  0  0  0  0  0  # atno 6909 bound_to 6896
  144.8812  139.5697  143.5842 H   0  0  0  0  0  0  0  0  0  0  0  0  # atno 7974 bound_to 7965
  154.5631  140.2350  155.8305 H   0  0  0  0  0  0  0  0  0  0  0  0  # atno 8008 bound_to 7997
  156.2046  140.3043  155.9558 H   0  0  0  0  0  0  0  0  0  0  0  0  # atno 8009 bound_to 7997
  155.2852  140.0424  157.3009 H   0  0  0  0  0  0  0  0  0  0  0  0  # atno 8010 bound_to 7997
  139.6136  144.7087  151.2789 H   0  0  0  0  0  0  0  0  0  0  0  0  # atno 10167 bound_to 10162
  156.2636  130.4199  149.8515 H   0  0  0  0  0  0  0  0  0  0  0  0  # atno 10718 bound_to 10713
  154.8007  135.4714  154.0270 H   0  0  0  0  0  0  0  0  0  0  0  0  # atno 10763 bound_to 10752
  153.1777  135.6835  153.8527 H   0  0  0  0  0  0  0  0  0  0  0  0  # atno 10764 bound_to 10752
  153.8088  135.3220  155.3376 H   0  0  0  0  0  0  0  0  0  0  0  0  # atno 10765 bound_to 10752
  140.3202  134.7444  157.4058 H   0  0  0  0  0  0  0  0  0  0  0  0  # atno 11005 bound_to 11000
  146.2995  139.7383  142.9101 LP  0  0  0  0  0  0  0  0  0  0  0  0  # atno 17320 bound_to 7965
  145.3951  141.0378  143.3102 LP  0  0  0  0  0  0  0  0  0  0  0  0  # atno 17321 bound_to 7965
  140.7336  143.6790  150.8017 LP  0  0  0  0  0  0  0  0  0  0  0  0  # atno 17342 bound_to 10162
  140.0389  143.5366  152.2727 LP  0  0  0  0  0  0  0  0  0  0  0  0  # atno 17343 bound_to 10162
  156.6021  130.8551  151.3434 LP  0  0  0  0  0  0  0  0  0  0  0  0  # atno 17370 bound_to 10713
  157.7259  130.9622  150.1635 LP  0  0  0  0  0  0  0  0  0  0  0  0  # atno 17371 bound_to 10713
  140.0948  134.5552  155.8409 LP  0  0  0  0  0  0  0  0  0  0  0  0  # atno 17394 bound_to 11000
  141.2088  133.6677  156.6397 LP  0  0  0  0  0  0  0  0  0  0  0  0  # atno 17395 bound_to 11000

$$$$
