AV-unprocessed.smi:495|AV-procd|sdf|2714|dock2
  -GOLD-   2262023163D 1   1.00000     0.00000
 Structure written by MMmdl.
 35 37  0  0  0  0  0  0  0  0  2 V2000
  147.8833  138.6665  152.3982 N   0  0  0  0  0  0  0  0  0  0  0  0
  148.5520  139.3621  153.4036 C   0  0  0  0  0  0  0  0  0  0  0  0
  149.6241  138.7587  154.0889 C   0  0  0  0  0  0  0  0  0  0  0  0
  150.2981  139.4647  155.1043 C   0  0  0  0  0  0  0  0  0  0  0  0
  149.9090  140.7762  155.4528 C   0  0  0  0  0  0  0  0  0  0  0  0
  150.6227  141.5045  156.5127 C   0  0  0  0  0  0  0  0  0  0  0  0
  150.5221  142.8429  156.7330 N   0  3  0  0  0  0  0  0  0  0  0  0
  151.3469  143.1881  157.8058 C   0  0  0  0  0  0  0  0  0  0  0  0
  151.5844  144.4191  158.4098 C   0  0  0  0  0  0  0  0  0  0  0  0
  152.4966  144.4313  159.4855 C   0  0  0  0  0  0  0  0  0  0  0  0
  153.1350  143.2520  159.9208 C   0  0  0  0  0  0  0  0  0  0  0  0
  152.8882  142.0090  159.3016 C   0  0  0  0  0  0  0  0  0  0  0  0
  151.9813  142.0023  158.2420 C   0  0  0  0  0  0  0  0  0  0  0  0
  151.5030  140.9803  157.4118 N   0  0  0  0  0  0  0  0  0  0  0  0
  152.0083  139.6119  157.5942 C   0  0  0  0  0  0  0  0  0  0  0  0
  151.6373  139.0504  158.9732 C   0  0  0  0  0  0  0  0  0  0  0  0
  152.0617  137.7089  159.0677 O   0  0  0  0  0  0  0  0  0  0  0  0
  148.8370  141.3733  154.7543 C   0  0  0  0  0  0  0  0  0  0  0  0
  148.1600  140.6728  153.7372 C   0  0  0  0  0  0  0  0  0  0  0  0
  147.1130  139.0804  151.8927 H   0  0  0  0  0  0  0  0  0  0  0  0
  148.2007  137.7607  152.0836 H   0  0  0  0  0  0  0  0  0  0  0  0
  149.9338  137.7540  153.8398 H   0  0  0  0  0  0  0  0  0  0  0  0
  151.1174  138.9897  155.6239 H   0  0  0  0  0  0  0  0  0  0  0  0
  151.0991  145.3249  158.0770 H   0  0  0  0  0  0  0  0  0  0  0  0
  152.7125  145.3645  159.9854 H   0  0  0  0  0  0  0  0  0  0  0  0
  153.8294  143.3012  160.7472 H   0  0  0  0  0  0  0  0  0  0  0  0
  153.3857  141.1131  159.6427 H   0  0  0  0  0  0  0  0  0  0  0  0
  151.6216  138.9821  156.7924 H   0  0  0  0  0  0  0  0  0  0  0  0
  153.0907  139.6268  157.4745 H   0  0  0  0  0  0  0  0  0  0  0  0
  152.1121  139.6309  159.7650 H   0  0  0  0  0  0  0  0  0  0  0  0
  150.5600  139.0938  159.1352 H   0  0  0  0  0  0  0  0  0  0  0  0
  151.4961  137.1747  158.5306 H   0  0  0  0  0  0  0  0  0  0  0  0
  148.5309  142.3809  154.9949 H   0  0  0  0  0  0  0  0  0  0  0  0
  147.3417  141.1467  153.2146 H   0  0  0  0  0  0  0  0  0  0  0  0
  149.9336  143.4659  156.1950 H   0  0  0  0  0  0  0  0  0  0  0  0
  1  2  1  0  0  0  0
  1 20  1  0  0  0  0
  1 21  1  0  0  0  0
  2 19  1  0  0  0  0
  2  3  2  0  0  0  0
  3  4  1  0  0  0  0
  3 22  1  0  0  0  0
  4  5  2  0  0  0  0
  4 23  1  0  0  0  0
  5  6  1  0  0  0  0
  5 18  1  0  0  0  0
  6 14  1  0  0  0  0
  6  7  2  0  0  0  0
  7  8  1  0  0  0  0
  7 35  1  0  0  0  0
  8 13  2  0  0  0  0
  8  9  1  0  0  0  0
  9 10  2  0  0  0  0
  9 24  1  0  0  0  0
 10 11  1  0  0  0  0
 10 25  1  0  0  0  0
 11 12  2  0  0  0  0
 11 26  1  0  0  0  0
 12 13  1  0  0  0  0
 12 27  1  0  0  0  0
 13 14  1  0  0  0  0
 14 15  1  0  0  0  0
 15 16  1  0  0  0  0
 15 28  1  0  0  0  0
 15 29  1  0  0  0  0
 16 17  1  0  0  0  0
 16 30  1  0  0  0  0
 16 31  1  0  0  0  0
 17 32  1  0  0  0  0
 18 19  2  0  0  0  0
 18 33  1  0  0  0  0
 19 34  1  0  0  0  0
M  CHG  1   7   1
M  END
> <s_m_source_file>
AV-unprocessed.smi

> <i_m_source_file_index>
495

> <i_lp_mmshare_version>
43012

> <i_f3d_flags>
0

> <s_epik_input>
W05IMl1jMVtjSF1bY0hdYyhbY0hdW2NIXTEpLWMobjIpbihbQ0gyXVtDSDJdW09IXSljKGMyMylbY0hdW2NIXVtjSF1bY0hdMw==

> <s_epik_cmdline>
J2VwaWtfcHl0aG9uJywgJy1waCcsICc3LjAnLCAnLXRuJywgJzgnLCAnLW1hJywgJzIwMCcsICctbWV0YWxfYmluZGluZycsICctaW1hZScsICc8aW5maWxlLm1hZT4nLCAnLW9tYWUnLCAnPG91dGZpbGUubWFlPic=

> <r_epik_Ionization_Penalty>
0.309176

> <r_epik_Ionization_Penalty_Charging>
0.30902

> <r_epik_Ionization_Penalty_Neutral>
0.000156086

> <r_epik_State_Penalty>
0.184773

> <r_epik_Charging_Adjusted_Penalty>
0.493792

> <i_epik_Tot_Q>
1

> <i_epik_Tot_abs_Q>
1

> <r_epik_Metal_State_Penalty>
3.49751

> <b_epik_Metal_Only>
0

> <s_lp_Force_Field>
OPLS_2005

> <r_lp_Energy>
21.3699

> <b_lp_Chiralities_Consistent>
1

> <s_lp_Variant>
AV-unprocessed.smi:495-1

> <Gold.Version>
5.8.1

> <Gold.Id.Protein>
6NUR|6NUR_protein|mol2

> <Gold.PLP.Fitness>
51.5179

> <Gold.PLP.PLP>
-42.6876

> <Gold.PLP.part.hbond>
-2.9941

> <Gold.PLP.part.metal>
0.0000

> <Gold.PLP.part.buried>
-0.7197

> <Gold.PLP.part.nonpolar>
-39.8727

> <Gold.PLP.part.repulsive>
0.1256

> <Gold.PLP.ligand.clash>
0.0000

> <Gold.PLP.ligand.torsion>
0.0911

> <Gold.PLP.Chemscore.Hbond>
3.0000

> <Gold.PLP.Chemscore.CHOScore>
0.0000

> <Gold.PLP.Chemscore.Metal>
0.0000

> <Gold.Chemscore.Hbonds>
donor molecule, donor type, donor heavy atom, donor atom, acceptor molecule, acceptor atom, score
      L1  H     1    21       P1  7948  1.00
      L1  H     7    35       P1  8028  2.00

> <Gold.PLP.Chemscore.Internal.Correction>
0.0126

> <Gold.Rescore>
     Score         DG    S(hbond)    S(metal)    S(lipo)     H(rot)  DE(clash)    DE(int)     intcor
     20.36     -21.57       1.98        0.00     119.99       1.78       0.28       0.93       ----

> <Gold.Chemscore.Fitness>
20.3561

> <Gold.Chemscore.DG>
-21.5666

> <Gold.Chemscore.ZeroCoef>
-5.4800

> <Gold.Chemscore.Hbond>
1.9813

> <Gold.Chemscore.Metal>
0.0000

> <Gold.Chemscore.Lipo>
119.9876

> <Gold.Chemscore.Internal_Hbond>
0.0000

> <Gold.Chemscore.DEClash>
0.2761

> <Gold.Chemscore.DEInternal>
0.9345

> <Gold.Chemscore.Rot>
1.7849

> <Gold.Chemscore.Internal.Correction>
   9.000000E+99

> <Gold.Chemscore.Hbonds>
donor molecule, donor type, donor heavy atom, donor atom, acceptor molecule, acceptor atom, score
      L1  H     1    21       P1  7948  1.00
      L1  H     7    35       P1  8028  1.00

> <Gold.Chemscore.Hbond.Weighted>
-6.6175

> <Gold.Chemscore.Metal.Weighted>
-0.0000

> <Gold.Chemscore.Lipo.Weighted>
-14.0385

> <Gold.Chemscore.Internal_Hbond.Weighted>
0.0000

> <Gold.Chemscore.DEClash.Weighted>
0.2761

> <Gold.Chemscore.DEInternal.Weighted>
0.9345

> <Gold.Chemscore.Rot.Weighted>
4.5694

> <Gold.Chemscore.Internal.Correction.Weighted>
   9.000000E+99

> <Gold.Protein.RotatedTorsions>
[ 6907 6896 6895 6894 ] final   63.35 input  -60.11 | X-H torsion
[ 7974 7965 7964 7962 ] final -173.29 input  175.53 | X-H torsion
[ 8008 7997 7996 7995 ] final  -53.90 input   59.86 | X-H torsion
[ 10167 10162 10161 10158 ] final    5.33 input  -65.29 | X-H torsion
[ 10718 10713 10712 10709 ] final   35.80 input   66.30 | X-H torsion
[ 10763 10752 10751 10750 ] final   18.60 input  -60.55 | X-H torsion
[ 11005 11000 10999 10996 ] final -129.99 input  -57.11 | X-H torsion

> <Gold.Protein.ActiveResidues>
 VAL166  LYS551  ARG553  GLY616  TRP617  ASP618  TYR619  PRO620  LYS621  CYS622 
 ASP623  PHE694  ASN695  SER759  ASP760  ASP761  ALA762  ILE779  LEU786  VAL792 
 PHE793  MET794  SER795  GLU796  ALA797  LYS798  CYS799  TRP800  GLU811  SER814 

> <Gold.Protein.RotatedAtoms>
  152.4246  134.5892  159.9969 H   0  0  0  0  0  0  0  0  0  0  0  0  # atno 6907 bound_to 6896
  151.6032  133.3348  159.3060 H   0  0  0  0  0  0  0  0  0  0  0  0  # atno 6908 bound_to 6896
  150.8135  134.7341  159.6775 H   0  0  0  0  0  0  0  0  0  0  0  0  # atno 6909 bound_to 6896
  144.7139  140.1643  143.6373 H   0  0  0  0  0  0  0  0  0  0  0  0  # atno 7974 bound_to 7965
  154.4146  140.1189  156.5228 H   0  0  0  0  0  0  0  0  0  0  0  0  # atno 8008 bound_to 7997
  155.6685  140.3496  155.4790 H   0  0  0  0  0  0  0  0  0  0  0  0  # atno 8009 bound_to 7997
  155.9653  140.1131  157.0850 H   0  0  0  0  0  0  0  0  0  0  0  0  # atno 8010 bound_to 7997
  140.6488  143.7597  150.7541 H   0  0  0  0  0  0  0  0  0  0  0  0  # atno 10167 bound_to 10162
  157.3271  130.7478  149.6823 H   0  0  0  0  0  0  0  0  0  0  0  0  # atno 10718 bound_to 10713
  153.1234  135.6724  153.9297 H   0  0  0  0  0  0  0  0  0  0  0  0  # atno 10763 bound_to 10752
  153.8805  135.3059  155.3446 H   0  0  0  0  0  0  0  0  0  0  0  0  # atno 10764 bound_to 10752
  154.7643  135.4972  153.9604 H   0  0  0  0  0  0  0  0  0  0  0  0  # atno 10765 bound_to 10752
  140.9384  134.1226  157.4173 H   0  0  0  0  0  0  0  0  0  0  0  0  # atno 11005 bound_to 11000
  145.9001  139.2426  143.1498 LP  0  0  0  0  0  0  0  0  0  0  0  0  # atno 17320 bound_to 7965
  145.9818  140.8676  143.0110 LP  0  0  0  0  0  0  0  0  0  0  0  0  # atno 17321 bound_to 7965
  140.1243  143.4583  152.2294 LP  0  0  0  0  0  0  0  0  0  0  0  0  # atno 17342 bound_to 10162
  139.5701  144.7457  151.3915 LP  0  0  0  0  0  0  0  0  0  0  0  0  # atno 17343 bound_to 10162
  155.9692  130.4206  150.4430 LP  0  0  0  0  0  0  0  0  0  0  0  0  # atno 17370 bound_to 10713
  157.2455  131.0535  151.2411 LP  0  0  0  0  0  0  0  0  0  0  0  0  # atno 17371 bound_to 10713
  139.8814  135.0028  156.6150 LP  0  0  0  0  0  0  0  0  0  0  0  0  # atno 17394 bound_to 11000
  140.7768  133.8693  155.8535 LP  0  0  0  0  0  0  0  0  0  0  0  0  # atno 17395 bound_to 11000

$$$$
