AV-unprocessed.smi:2764|AV-procd|sdf|10642|dock2
  -GOLD-   2272015 93D 1   1.00000     0.00000
 Structure written by MMmdl.
 47 49  0  0  0  0  0  0  0  0  2 V2000
  149.7397  140.3940  156.1816 O   0  0  0  0  0  0  0  0  0  0  0  0
  149.4593  141.5886  156.0833 C   0  0  0  0  0  0  0  0  0  0  0  0
  150.0272  142.5838  156.7870 N   0  0  0  0  0  0  0  0  0  0  0  0
  151.0368  142.4910  157.7817 C   0  0  0  0  0  0  0  0  0  0  0  0
  151.1692  141.2183  158.3817 C   0  0  0  0  0  0  0  0  0  0  0  0
  152.1444  141.0200  159.3785 C   0  0  0  0  0  0  0  0  0  0  0  0
  152.9623  142.1025  159.7481 C   0  0  0  0  0  0  0  0  0  0  0  0
  153.9143  141.9600  160.7004 F   0  0  0  0  0  0  0  0  0  0  0  0
  152.7654  143.3374  159.1031 C   0  0  0  0  0  0  0  0  0  0  0  0
  151.8304  143.5287  158.1479 N   0  0  0  0  0  0  0  0  0  0  0  0
  148.5317  142.0612  155.2379 N   0  0  0  0  0  0  0  0  0  0  0  0
  147.7146  141.2492  154.3363 C   0  0  2  0  0  0  0  0  0  0  0  0
  146.9083  142.1151  153.3500 C   0  0  0  0  0  0  0  0  0  0  0  0
  145.7918  142.9028  154.0573 C   0  0  0  0  0  0  0  0  0  0  0  0
  144.8829  142.0035  154.8170 N   0  3  2  0  0  0  0  0  0  0  0  0
  143.7364  142.7479  155.4039 C   0  0  0  0  0  0  0  0  0  0  0  0
  144.0537  144.2257  155.7207 C   0  0  2  0  0  0  0  0  0  0  0  0
  143.2439  144.7592  156.8894 C   0  0  0  0  0  0  0  0  0  0  0  0
  143.3061  146.2616  156.6619 C   0  0  0  0  0  0  0  0  0  0  0  0
  143.1610  146.3889  155.2569 O   0  0  0  0  0  0  0  0  0  0  0  0
  143.7074  145.2390  154.6168 C   0  0  0  0  0  0  0  0  0  0  0  0
  145.6323  141.1873  155.8099 C   0  0  0  0  0  0  0  0  0  0  0  0
  146.7486  140.3646  155.1402 C   0  0  0  0  0  0  0  0  0  0  0  0
  149.6948  143.5170  156.5943 H   0  0  0  0  0  0  0  0  0  0  0  0
  150.5327  140.3976  158.0839 H   0  0  0  0  0  0  0  0  0  0  0  0
  152.2624  140.0547  159.8490 H   0  0  0  0  0  0  0  0  0  0  0  0
  153.3727  144.1931  159.3585 H   0  0  0  0  0  0  0  0  0  0  0  0
  148.3654  143.0568  155.2300 H   0  0  0  0  0  0  0  0  0  0  0  0
  148.3836  140.5976  153.7708 H   0  0  0  0  0  0  0  0  0  0  0  0
  147.5649  142.7994  152.8113 H   0  0  0  0  0  0  0  0  0  0  0  0
  146.4622  141.4703  152.5916 H   0  0  0  0  0  0  0  0  0  0  0  0
  146.2210  143.6442  154.7332 H   0  0  0  0  0  0  0  0  0  0  0  0
  145.2238  143.4537  153.3064 H   0  0  0  0  0  0  0  0  0  0  0  0
  142.8506  142.6533  154.7740 H   0  0  0  0  0  0  0  0  0  0  0  0
  143.4774  142.2714  156.3505 H   0  0  0  0  0  0  0  0  0  0  0  0
  145.1093  144.3281  155.9782 H   0  0  0  0  0  0  0  0  0  0  0  0
  142.2090  144.4187  156.8285 H   0  0  0  0  0  0  0  0  0  0  0  0
  143.6443  144.4615  157.8587 H   0  0  0  0  0  0  0  0  0  0  0  0
  142.5279  146.8048  157.1984 H   0  0  0  0  0  0  0  0  0  0  0  0
  144.2763  146.6593  156.9635 H   0  0  0  0  0  0  0  0  0  0  0  0
  144.5914  145.5187  154.0433 H   0  0  0  0  0  0  0  0  0  0  0  0
  142.9637  144.8471  153.9221 H   0  0  0  0  0  0  0  0  0  0  0  0
  146.0497  141.8392  156.5789 H   0  0  0  0  0  0  0  0  0  0  0  0
  144.9627  140.4963  156.3160 H   0  0  0  0  0  0  0  0  0  0  0  0
  146.2967  139.6301  154.4721 H   0  0  0  0  0  0  0  0  0  0  0  0
  147.2950  139.7930  155.8917 H   0  0  0  0  0  0  0  0  0  0  0  0
  144.4940  141.3630  154.1395 H   0  0  0  0  0  0  0  0  0  0  0  0
  1  2  2  0  0  0  0
  2  3  1  0  0  0  0
  2 11  1  0  0  0  0
  3  4  1  0  0  0  0
  3 24  1  0  0  0  0
  4 10  1  0  0  0  0
  4  5  2  0  0  0  0
  5  6  1  0  0  0  0
  5 25  1  0  0  0  0
  6  7  2  0  0  0  0
  6 26  1  0  0  0  0
  7  8  1  0  0  0  0
  7  9  1  0  0  0  0
  9 10  2  0  0  0  0
  9 27  1  0  0  0  0
 11 12  1  0  0  0  0
 11 28  1  0  0  0  0
 12 23  1  0  0  0  0
 12 13  1  0  0  0  0
 12 29  1  0  0  0  0
 13 14  1  0  0  0  0
 13 30  1  0  0  0  0
 13 31  1  0  0  0  0
 14 15  1  0  0  0  0
 14 32  1  0  0  0  0
 14 33  1  0  0  0  0
 15 16  1  0  0  0  0
 15 22  1  0  0  0  0
 15 47  1  0  0  0  0
 16 17  1  0  0  0  0
 16 34  1  0  0  0  0
 16 35  1  0  0  0  0
 17 21  1  0  0  0  0
 17 18  1  0  0  0  0
 17 36  1  0  0  0  0
 18 19  1  0  0  0  0
 18 37  1  0  0  0  0
 18 38  1  0  0  0  0
 19 20  1  0  0  0  0
 19 39  1  0  0  0  0
 19 40  1  0  0  0  0
 20 21  1  0  0  0  0
 21 41  1  0  0  0  0
 21 42  1  0  0  0  0
 22 23  1  0  0  0  0
 22 43  1  0  0  0  0
 22 44  1  0  0  0  0
 23 45  1  0  0  0  0
 23 46  1  0  0  0  0
M  CHG  1  15   1
M  END
> <s_m_source_file>
AV-unprocessed.smi

> <i_m_source_file_index>
2764

> <i_lp_mmshare_version>
43012

> <i_f3d_flags>
0

> <s_epik_input>
bjFbY0hdYyhGKVtjSF1bY0hdYzFbTkhdQyg9TylbTkhdW0NIXTJbQ0gyXVtDSDJdTihbQ0gyXVtDSDJdMilbQ0gyXVtDQEBIXTNbQ0gyXVtDSDJdT1tDSDJdMw==

> <s_epik_cmdline>
J2VwaWtfcHl0aG9uJywgJy1waCcsICc3LjAnLCAnLXRuJywgJzgnLCAnLW1hJywgJzIwMCcsICctbWV0YWxfYmluZGluZycsICctaW1hZScsICc8aW5maWxlLm1hZT4nLCAnLW9tYWUnLCAnPG91dGZpbGUubWFlPic=

> <r_epik_Ionization_Penalty>
0.0075076

> <r_epik_Ionization_Penalty_Charging>
0.00747775

> <r_epik_Ionization_Penalty_Neutral>
2.98483e-05

> <r_epik_State_Penalty>
0.00558817

> <r_epik_Charging_Adjusted_Penalty>
0.0130659

> <i_epik_Tot_Q>
1

> <i_epik_Tot_abs_Q>
1

> <r_epik_Metal_State_Penalty>
-0

> <b_epik_Metal_Only>
0

> <s_lp_Force_Field>
OPLS_2005

> <r_lp_Energy>
37.0331

> <b_lp_Chiralities_Consistent>
1

> <s_lp_Variant>
AV-unprocessed.smi:2764-3

> <Gold.Version>
5.8.1

> <Gold.Id.Protein>
6NUR|6NUR_protein|mol2

> <Gold.PLP.Fitness>
52.9401

> <Gold.PLP.PLP>
-43.1051

> <Gold.PLP.part.hbond>
-4.0000

> <Gold.PLP.part.metal>
0.0000

> <Gold.PLP.part.buried>
-8.2579

> <Gold.PLP.part.nonpolar>
-32.0806

> <Gold.PLP.part.repulsive>
0.2792

> <Gold.PLP.ligand.clash>
0.1631

> <Gold.PLP.ligand.torsion>
1.0240

> <Gold.PLP.Chemscore.Hbond>
4.0000

> <Gold.PLP.Chemscore.CHOScore>
0.0000

> <Gold.PLP.Chemscore.Metal>
0.0000

> <Gold.Chemscore.Hbonds>
donor molecule, donor type, donor heavy atom, donor atom, acceptor molecule, acceptor atom, score
      L1  H     3    24       P1  8028  1.00
      L1  H    11    28       P1  8028  1.00
      L1  H    15    47       P1 10175  2.00

> <Gold.PLP.Chemscore.Internal.Correction>
0.0462

> <Gold.Rescore>
     Score         DG    S(hbond)    S(metal)    S(lipo)     H(rot)  DE(clash)    DE(int)     intcor
     17.68     -21.05       2.66        0.00      89.80       1.49       0.92       2.44       ----

> <Gold.Chemscore.Fitness>
17.6849

> <Gold.Chemscore.DG>
-21.0506

> <Gold.Chemscore.ZeroCoef>
-5.4800

> <Gold.Chemscore.Hbond>
2.6576

> <Gold.Chemscore.Metal>
0.0000

> <Gold.Chemscore.Lipo>
89.7958

> <Gold.Chemscore.Internal_Hbond>
0.0000

> <Gold.Chemscore.DEClash>
0.9229

> <Gold.Chemscore.DEInternal>
2.4428

> <Gold.Chemscore.Rot>
1.4891

> <Gold.Chemscore.Internal.Correction>
   9.000000E+99

> <Gold.Chemscore.Hbonds>
donor molecule, donor type, donor heavy atom, donor atom, acceptor molecule, acceptor atom, score
      L1  H     3    24       P1  8028  0.98
      L1  H    11    28       P1  8028  0.95
      L1  H    15    47       P1 10175  0.42

> <Gold.Chemscore.Hbond.Weighted>
-8.8766

> <Gold.Chemscore.Metal.Weighted>
-0.0000

> <Gold.Chemscore.Lipo.Weighted>
-10.5061

> <Gold.Chemscore.Internal_Hbond.Weighted>
0.0000

> <Gold.Chemscore.DEClash.Weighted>
0.9229

> <Gold.Chemscore.DEInternal.Weighted>
2.4428

> <Gold.Chemscore.Rot.Weighted>
3.8121

> <Gold.Chemscore.Internal.Correction.Weighted>
   9.000000E+99

> <Gold.Protein.RotatedTorsions>
[ 6907 6896 6895 6894 ] final   92.77 input  -60.11 | X-H torsion
[ 7974 7965 7964 7962 ] final  -23.69 input  175.53 | X-H torsion
[ 8008 7997 7996 7995 ] final  -15.73 input   59.86 | X-H torsion
[ 10167 10162 10161 10158 ] final   28.22 input  -65.29 | X-H torsion
[ 10718 10713 10712 10709 ] final   71.73 input   66.30 | X-H torsion
[ 10763 10752 10751 10750 ] final  -70.70 input  -60.55 | X-H torsion
[ 11005 11000 10999 10996 ] final  153.27 input  -57.11 | X-H torsion

> <Gold.Protein.ActiveResidues>
 VAL166  LYS551  ARG553  GLY616  TRP617  ASP618  TYR619  PRO620  LYS621  CYS622 
 ASP623  PHE694  ASN695  SER759  ASP760  ASP761  ALA762  ILE779  LEU786  VAL792 
 PHE793  MET794  SER795  GLU796  ALA797  LYS798  CYS799  TRP800  GLU811  SER814 

> <Gold.Protein.RotatedAtoms>
  152.5453  134.1450  159.8494 H   0  0  0  0  0  0  0  0  0  0  0  0  # atno 6907 bound_to 6896
  151.1483  133.4918  159.2603 H   0  0  0  0  0  0  0  0  0  0  0  0  # atno 6908 bound_to 6896
  151.1500  135.0233  159.8719 H   0  0  0  0  0  0  0  0  0  0  0  0  # atno 6909 bound_to 6896
  146.1601  140.4650  142.8575 H   0  0  0  0  0  0  0  0  0  0  0  0  # atno 7974 bound_to 7965
  154.5108  140.2188  155.9160 H   0  0  0  0  0  0  0  0  0  0  0  0  # atno 8008 bound_to 7997
  156.1549  140.3154  155.8676 H   0  0  0  0  0  0  0  0  0  0  0  0  # atno 8009 bound_to 7997
  155.3865  140.0475  157.3033 H   0  0  0  0  0  0  0  0  0  0  0  0  # atno 8010 bound_to 7997
  140.4872  144.0524  150.6284 H   0  0  0  0  0  0  0  0  0  0  0  0  # atno 10167 bound_to 10162
  157.6466  130.9543  150.0830 H   0  0  0  0  0  0  0  0  0  0  0  0  # atno 10718 bound_to 10713
  154.4213  135.5986  153.6012 H   0  0  0  0  0  0  0  0  0  0  0  0  # atno 10763 bound_to 10752
  152.9794  135.5953  154.3951 H   0  0  0  0  0  0  0  0  0  0  0  0  # atno 10764 bound_to 10752
  154.3777  135.2841  155.2208 H   0  0  0  0  0  0  0  0  0  0  0  0  # atno 10765 bound_to 10752
  140.1382  134.8756  157.2296 H   0  0  0  0  0  0  0  0  0  0  0  0  # atno 11005 bound_to 11000
  144.8015  140.6221  143.6475 LP  0  0  0  0  0  0  0  0  0  0  0  0  # atno 17320 bound_to 7965
  145.4611  139.1513  143.3866 LP  0  0  0  0  0  0  0  0  0  0  0  0  # atno 17321 bound_to 7965
  140.3783  143.2816  152.0199 LP  0  0  0  0  0  0  0  0  0  0  0  0  # atno 17342 bound_to 10162
  139.4844  144.6175  151.7318 LP  0  0  0  0  0  0  0  0  0  0  0  0  # atno 17343 bound_to 10162
  156.1800  130.3649  149.9048 LP  0  0  0  0  0  0  0  0  0  0  0  0  # atno 17370 bound_to 10713
  156.7002  130.8930  151.3598 LP  0  0  0  0  0  0  0  0  0  0  0  0  # atno 17371 bound_to 10713
  140.2755  134.3410  155.7359 LP  0  0  0  0  0  0  0  0  0  0  0  0  # atno 17394 bound_to 11000
  141.2182  133.7448  156.9286 LP  0  0  0  0  0  0  0  0  0  0  0  0  # atno 17395 bound_to 11000

$$$$
