AV-unprocessed.smi:3259|AV-procd|sdf|12473|dock1
  -GOLD-   2272018373D 1   1.00000     0.00000
 Structure written by MMmdl.
 39 40  0  0  0  0  0  0  0  0  1 V2000
  152.1626  143.6817  161.3106 C   0  0  0  0  0  0  0  0  0  0  0  0
  151.6064  142.8083  160.3354 O   0  0  0  0  0  0  0  0  0  0  0  0
  151.4529  143.3198  159.0042 C   0  0  2  0  0  0  0  0  0  0  0  0
  152.7663  143.9402  158.5110 C   0  0  0  0  0  0  0  0  0  0  0  0
  150.1466  144.1293  158.8916 C   0  0  0  0  0  0  0  0  0  0  0  0
  149.4272  142.7984  158.6813 C   0  0  1  0  0  0  0  0  0  0  0  0
  148.3535  142.8882  157.6997 N   0  0  0  0  0  0  0  0  0  0  0  0
  147.1199  142.3912  157.8759 C   0  0  0  0  0  0  0  0  0  0  0  0
  146.7379  141.8834  158.9298 O   0  0  0  0  0  0  0  0  0  0  0  0
  146.1776  142.4625  156.6728 C   0  0  0  0  0  0  0  0  0  0  0  0
  146.6984  141.6977  155.5520 N   0  0  0  0  0  0  0  0  0  0  0  0
  147.3466  142.1610  154.4256 C   0  0  0  0  0  0  0  0  0  0  0  0
  147.6710  141.0736  153.6664 C   0  0  0  0  0  0  0  0  0  0  0  0
  147.1717  139.9744  154.4194 C   0  0  0  0  0  0  0  0  0  0  0  0
  146.5895  140.3508  155.5467 N   0  0  0  0  0  0  0  0  0  0  0  0
  150.7586  142.2241  158.1308 C   0  0  0  0  0  0  0  0  0  0  0  0
  150.9833  142.3313  156.6092 C   0  0  0  0  0  0  0  0  0  0  0  0
  151.0573  140.7651  158.4925 C   0  0  0  0  0  0  0  0  0  0  0  0
  152.0690  143.2209  162.2938 H   0  0  0  0  0  0  0  0  0  0  0  0
  151.6530  144.6441  161.3475 H   0  0  0  0  0  0  0  0  0  0  0  0
  153.2248  143.8536  161.1370 H   0  0  0  0  0  0  0  0  0  0  0  0
  152.7031  144.2467  157.4674 H   0  0  0  0  0  0  0  0  0  0  0  0
  153.5937  143.2352  158.5950 H   0  0  0  0  0  0  0  0  0  0  0  0
  153.0303  144.8362  159.0721 H   0  0  0  0  0  0  0  0  0  0  0  0
  149.8362  144.6689  159.7854 H   0  0  0  0  0  0  0  0  0  0  0  0
  150.1267  144.7805  158.0158 H   0  0  0  0  0  0  0  0  0  0  0  0
  149.1259  142.3473  159.6297 H   0  0  0  0  0  0  0  0  0  0  0  0
  148.5821  143.2951  156.8046 H   0  0  0  0  0  0  0  0  0  0  0  0
  145.1913  142.0804  156.9414 H   0  0  0  0  0  0  0  0  0  0  0  0
  146.0492  143.5013  156.3668 H   0  0  0  0  0  0  0  0  0  0  0  0
  147.5260  143.2136  154.2631 H   0  0  0  0  0  0  0  0  0  0  0  0
  148.1873  141.0644  152.7179 H   0  0  0  0  0  0  0  0  0  0  0  0
  147.2146  138.9216  154.1824 H   0  0  0  0  0  0  0  0  0  0  0  0
  150.3327  141.6529  156.0558 H   0  0  0  0  0  0  0  0  0  0  0  0
  152.0096  142.0810  156.3390 H   0  0  0  0  0  0  0  0  0  0  0  0
  150.7873  143.3353  156.2324 H   0  0  0  0  0  0  0  0  0  0  0  0
  150.4806  140.0731  157.8778 H   0  0  0  0  0  0  0  0  0  0  0  0
  150.8070  140.5423  159.5298 H   0  0  0  0  0  0  0  0  0  0  0  0
  152.1128  140.5286  158.3550 H   0  0  0  0  0  0  0  0  0  0  0  0
  1  2  1  0  0  0  0
  1 19  1  0  0  0  0
  1 20  1  0  0  0  0
  1 21  1  0  0  0  0
  2  3  1  0  0  0  0
  3 16  1  0  0  0  0
  3  4  1  0  0  0  0
  3  5  1  0  0  0  0
  4 22  1  0  0  0  0
  4 23  1  0  0  0  0
  4 24  1  0  0  0  0
  5  6  1  0  0  0  0
  5 25  1  0  0  0  0
  5 26  1  0  0  0  0
  6  7  1  0  0  0  0
  6 16  1  0  0  0  0
  6 27  1  0  0  0  0
  7  8  1  0  0  0  0
  7 28  1  0  0  0  0
  8  9  2  0  0  0  0
  8 10  1  0  0  0  0
 10 11  1  0  0  0  0
 10 29  1  0  0  0  0
 10 30  1  0  0  0  0
 11 15  1  0  0  0  0
 11 12  1  0  0  0  0
 12 13  2  0  0  0  0
 12 31  1  0  0  0  0
 13 14  1  0  0  0  0
 13 32  1  0  0  0  0
 14 15  2  0  0  0  0
 14 33  1  0  0  0  0
 16 17  1  0  0  0  0
 16 18  1  0  0  0  0
 17 34  1  0  0  0  0
 17 35  1  0  0  0  0
 17 36  1  0  0  0  0
 18 37  1  0  0  0  0
 18 38  1  0  0  0  0
 18 39  1  0  0  0  0
M  END
> <s_m_source_file>
AV-unprocessed.smi

> <i_m_source_file_index>
3259

> <i_lp_mmshare_version>
43012

> <i_f3d_flags>
0

> <s_epik_input>
W0NIM11PW0NAQF0xKFtDSDNdKVtDSDJdW0NASF0oQzEoW0NIM10pW0NIM10pW05IXUMoPU8pW0NIMl1uMltjSF1bY0hdW2NIXW4y

> <s_epik_cmdline>
J2VwaWtfcHl0aG9uJywgJy1waCcsICc3LjAnLCAnLXRuJywgJzgnLCAnLW1hJywgJzIwMCcsICctbWV0YWxfYmluZGluZycsICctaW1hZScsICc8aW5maWxlLm1hZT4nLCAnLW9tYWUnLCAnPG91dGZpbGUubWFlPic=

> <r_lp_tautomer_probability>
1

> <r_epik_Ionization_Penalty>
1.78399e-05

> <r_epik_Ionization_Penalty_Charging>
0

> <r_epik_Ionization_Penalty_Neutral>
1.78399e-05

> <r_epik_State_Penalty>
-0

> <r_epik_Charging_Adjusted_Penalty>
0

> <i_epik_Tot_Q>
0

> <i_epik_Tot_abs_Q>
0

> <r_epik_Metal_State_Penalty>
-0

> <b_epik_Metal_Only>
0

> <s_lp_Force_Field>
OPLS_2005

> <r_lp_Energy>
22.327

> <b_lp_Chiralities_Consistent>
1

> <s_lp_Variant>
AV-unprocessed.smi:3259-2

> <Gold.Version>
5.8.1

> <Gold.Id.Protein>
6NUR|6NUR_protein|mol2

> <Gold.PLP.Fitness>
40.5401

> <Gold.PLP.PLP>
-33.2758

> <Gold.PLP.part.hbond>
-3.5625

> <Gold.PLP.part.metal>
0.0000

> <Gold.PLP.part.buried>
-3.7205

> <Gold.PLP.part.nonpolar>
-27.0621

> <Gold.PLP.part.repulsive>
0.1713

> <Gold.PLP.ligand.clash>
0.0000

> <Gold.PLP.ligand.torsion>
0.5013

> <Gold.PLP.Chemscore.Hbond>
1.6635

> <Gold.PLP.Chemscore.CHOScore>
0.9638

> <Gold.PLP.Chemscore.Metal>
0.0000

> <Gold.Chemscore.Hbonds>
donor molecule, donor type, donor heavy atom, donor atom, acceptor molecule, acceptor atom, score
      L1  H     7    28       P1  8028  1.00
      P1  H  6934  6946       L1     9  0.69
      L1  C    12    31       P1  8028  0.97

> <Gold.PLP.Chemscore.Internal.Correction>
0.3850

> <Gold.Rescore>
     Score         DG    S(hbond)    S(metal)    S(lipo)     H(rot)  DE(clash)    DE(int)     intcor
     16.13     -16.50       1.39        0.00      89.54       1.60       0.07       0.31       ----

> <Gold.Chemscore.Fitness>
16.1259

> <Gold.Chemscore.DG>
-16.5017

> <Gold.Chemscore.ZeroCoef>
-5.4800

> <Gold.Chemscore.Hbond>
1.3866

> <Gold.Chemscore.Metal>
0.0000

> <Gold.Chemscore.Lipo>
89.5446

> <Gold.Chemscore.Internal_Hbond>
0.0000

> <Gold.Chemscore.DEClash>
0.0672

> <Gold.Chemscore.DEInternal>
0.3087

> <Gold.Chemscore.Rot>
1.5962

> <Gold.Chemscore.Internal.Correction>
   9.000000E+99

> <Gold.Chemscore.Hbonds>
donor molecule, donor type, donor heavy atom, donor atom, acceptor molecule, acceptor atom, score
      L1  H     7    28       P1  8028  0.48
      P1  H  6934  6946       L1     9  0.65

> <Gold.Chemscore.Hbond.Weighted>
-4.6312

> <Gold.Chemscore.Metal.Weighted>
-0.0000

> <Gold.Chemscore.Lipo.Weighted>
-10.4767

> <Gold.Chemscore.Internal_Hbond.Weighted>
0.0000

> <Gold.Chemscore.DEClash.Weighted>
0.0672

> <Gold.Chemscore.DEInternal.Weighted>
0.3087

> <Gold.Chemscore.Rot.Weighted>
4.0862

> <Gold.Chemscore.Internal.Correction.Weighted>
   9.000000E+99

> <Gold.Protein.RotatedTorsions>
[ 6907 6896 6895 6894 ] final   -5.93 input  -60.11 | X-H torsion
[ 7974 7965 7964 7962 ] final  -49.72 input  175.53 | X-H torsion
[ 8008 7997 7996 7995 ] final  152.03 input   59.86 | X-H torsion
[ 10167 10162 10161 10158 ] final  -79.44 input  -65.29 | X-H torsion
[ 10718 10713 10712 10709 ] final  -86.53 input   66.30 | X-H torsion
[ 10763 10752 10751 10750 ] final  -93.88 input  -60.55 | X-H torsion
[ 11005 11000 10999 10996 ] final  -55.17 input  -57.11 | X-H torsion

> <Gold.Protein.ActiveResidues>
 VAL166  LYS551  ARG553  GLY616  TRP617  ASP618  TYR619  PRO620  LYS621  CYS622 
 ASP623  PHE694  ASN695  SER759  ASP760  ASP761  ALA762  ILE779  LEU786  VAL792 
 PHE793  MET794  SER795  GLU796  ALA797  LYS798  CYS799  TRP800  GLU811  SER814 

> <Gold.Protein.RotatedAtoms>
  151.4738  135.1047  159.9758 H   0  0  0  0  0  0  0  0  0  0  0  0  # atno 6907 bound_to 6896
  152.4806  133.8241  159.7079 H   0  0  0  0  0  0  0  0  0  0  0  0  # atno 6908 bound_to 6896
  150.8875  133.7226  159.2940 H   0  0  0  0  0  0  0  0  0  0  0  0  # atno 6909 bound_to 6896
  145.9375  140.7693  142.9568 H   0  0  0  0  0  0  0  0  0  0  0  0  # atno 7974 bound_to 7965
  156.2647  140.2032  156.6269 H   0  0  0  0  0  0  0  0  0  0  0  0  # atno 8008 bound_to 7997
  154.6713  140.0550  157.0193 H   0  0  0  0  0  0  0  0  0  0  0  0  # atno 8009 bound_to 7997
  155.1133  140.3217  155.4519 H   0  0  0  0  0  0  0  0  0  0  0  0  # atno 8010 bound_to 7997
  140.4593  143.2459  151.8373 H   0  0  0  0  0  0  0  0  0  0  0  0  # atno 10167 bound_to 10162
  155.9989  130.4768  150.4729 H   0  0  0  0  0  0  0  0  0  0  0  0  # atno 10718 bound_to 10713
  154.7001  135.5178  153.8515 H   0  0  0  0  0  0  0  0  0  0  0  0  # atno 10763 bound_to 10752
  153.0698  135.6597  154.0283 H   0  0  0  0  0  0  0  0  0  0  0  0  # atno 10764 bound_to 10752
  154.0143  135.2999  155.3368 H   0  0  0  0  0  0  0  0  0  0  0  0  # atno 10765 bound_to 10752
  141.1061  133.6613  156.4430 H   0  0  0  0  0  0  0  0  0  0  0  0  # atno 11005 bound_to 11000
  144.6774  140.2226  143.7364 LP  0  0  0  0  0  0  0  0  0  0  0  0  # atno 17320 bound_to 7965
  145.8344  139.2101  143.1864 LP  0  0  0  0  0  0  0  0  0  0  0  0  # atno 17321 bound_to 7965
  139.4804  144.5027  151.9038 LP  0  0  0  0  0  0  0  0  0  0  0  0  # atno 17342 bound_to 10162
  140.4113  144.2365  150.5889 LP  0  0  0  0  0  0  0  0  0  0  0  0  # atno 17343 bound_to 10162
  157.2742  131.0593  151.2240 LP  0  0  0  0  0  0  0  0  0  0  0  0  # atno 17370 bound_to 10713
  157.3310  130.6985  149.6324 LP  0  0  0  0  0  0  0  0  0  0  0  0  # atno 17371 bound_to 10713
  140.4898  134.6586  157.5206 LP  0  0  0  0  0  0  0  0  0  0  0  0  # atno 17394 bound_to 11000
  139.9932  134.6952  155.9654 LP  0  0  0  0  0  0  0  0  0  0  0  0  # atno 17395 bound_to 11000

$$$$
