AV-unprocessed.smi:250|AV-procd|sdf|1932|dock5
  -GOLD-   2262021 53D 1   1.00000     0.00000
 Structure written by MMmdl.
 56 60  0  0  0  0  0  0  0  0  1 V2000
  152.2352  143.9166  161.2806 C   0  0  0  0  0  0  0  0  0  0  0  0
  151.7222  143.6927  159.9354 N   0  0  0  0  0  0  0  0  0  0  0  0
  150.8944  144.4925  159.2304 C   0  0  0  0  0  0  0  0  0  0  0  0
  150.4477  145.5796  159.5913 O   0  0  0  0  0  0  0  0  0  0  0  0
  150.6320  143.8972  158.0539 N   0  0  0  0  0  0  0  0  0  0  0  0
  151.5225  142.7764  157.8584 C   0  0  2  0  0  0  0  0  0  0  0  0
  151.0797  141.5287  157.0979 C   0  0  0  0  0  0  0  0  0  0  0  0
  152.1850  140.5571  157.1636 N   0  0  0  0  0  0  0  0  0  0  0  0
  152.0883  139.5220  156.2896 C   0  0  0  0  0  0  0  0  0  0  0  0
  152.9232  139.4664  155.2172 N   0  0  0  0  0  0  0  0  0  0  0  0
  152.8484  138.4510  154.3523 C   0  0  0  0  0  0  0  0  0  0  0  0
  152.0258  137.4013  154.3684 N   0  0  0  0  0  0  0  0  0  0  0  0
  151.1802  137.4513  155.4369 C   0  0  0  0  0  0  0  0  0  0  0  0
  151.1403  138.4683  156.4333 C   0  0  0  0  0  0  0  0  0  0  0  0
  150.1288  138.1917  157.3458 N   0  0  0  0  0  0  0  0  0  0  0  0
  149.6099  137.0728  156.9201 C   0  0  0  0  0  0  0  0  0  0  0  0
  150.1922  136.5475  155.7886 N   0  0  0  0  0  0  0  0  0  0  0  0
  149.8122  135.3202  155.1026 C   0  0  0  0  0  0  0  0  0  0  0  0
  150.0757  134.0111  155.9055 C   0  0  0  0  0  0  0  0  0  0  0  0
  149.2396  133.9857  157.2174 C   0  0  0  0  0  0  0  0  0  0  0  0
  147.8528  134.1070  156.9712 O   0  0  0  0  0  0  0  0  0  0  0  0
  149.7331  132.8044  154.9959 C   0  0  0  0  0  0  0  0  0  0  0  0
  150.2251  131.4615  155.5653 C   0  0  0  0  0  0  0  0  0  0  0  0
  151.6265  131.5183  155.7966 O   0  0  0  0  0  0  0  0  0  0  0  0
  151.9876  132.5050  156.7540 C   0  0  0  0  0  0  0  0  0  0  0  0
  151.5824  133.9032  156.2517 C   0  0  0  0  0  0  0  0  0  0  0  0
  152.7771  140.2728  158.4892 C   0  0  0  0  0  0  0  0  0  0  0  0
  153.0781  141.5536  159.3140 C   0  0  0  0  0  0  0  0  0  0  0  0
  151.8027  142.3965  159.2921 C   0  0  1  0  0  0  0  0  0  0  0  0
  152.4186  143.1792  157.3788 H   0  0  0  0  0  0  0  0  0  0  0  0
  150.9823  141.8008  159.7012 H   0  0  0  0  0  0  0  0  0  0  0  0
  151.9915  144.9132  161.6511 H   0  0  0  0  0  0  0  0  0  0  0  0
  153.3200  143.8105  161.2904 H   0  0  0  0  0  0  0  0  0  0  0  0
  151.8140  143.1854  161.9707 H   0  0  0  0  0  0  0  0  0  0  0  0
  150.0563  144.2893  157.3229 H   0  0  0  0  0  0  0  0  0  0  0  0
  150.1836  141.0957  157.5446 H   0  0  0  0  0  0  0  0  0  0  0  0
  150.8312  141.7959  156.0721 H   0  0  0  0  0  0  0  0  0  0  0  0
  153.5490  138.4831  153.5309 H   0  0  0  0  0  0  0  0  0  0  0  0
  148.7846  136.5937  157.4264 H   0  0  0  0  0  0  0  0  0  0  0  0
  148.7559  135.3969  154.8414 H   0  0  0  0  0  0  0  0  0  0  0  0
  150.3446  135.2913  154.1509 H   0  0  0  0  0  0  0  0  0  0  0  0
  149.3926  133.0630  157.7743 H   0  0  0  0  0  0  0  0  0  0  0  0
  149.5425  134.7899  157.8878 H   0  0  0  0  0  0  0  0  0  0  0  0
  147.4192  133.3387  157.3105 H   0  0  0  0  0  0  0  0  0  0  0  0
  148.6605  132.7548  154.8061 H   0  0  0  0  0  0  0  0  0  0  0  0
  150.1997  132.9437  154.0196 H   0  0  0  0  0  0  0  0  0  0  0  0
  149.6996  131.1961  156.4830 H   0  0  0  0  0  0  0  0  0  0  0  0
  150.0244  130.6627  154.8513 H   0  0  0  0  0  0  0  0  0  0  0  0
  151.5352  132.2769  157.7193 H   0  0  0  0  0  0  0  0  0  0  0  0
  153.0668  132.4647  156.9016 H   0  0  0  0  0  0  0  0  0  0  0  0
  152.1750  134.1240  155.3630 H   0  0  0  0  0  0  0  0  0  0  0  0
  151.8615  134.6501  156.9957 H   0  0  0  0  0  0  0  0  0  0  0  0
  152.0865  139.6417  159.0506 H   0  0  0  0  0  0  0  0  0  0  0  0
  153.6978  139.7011  158.3650 H   0  0  0  0  0  0  0  0  0  0  0  0
  153.3572  141.2906  160.3346 H   0  0  0  0  0  0  0  0  0  0  0  0
  153.9157  142.1032  158.8827 H   0  0  0  0  0  0  0  0  0  0  0  0
  1  2  1  0  0  0  0
  1 32  1  0  0  0  0
  1 33  1  0  0  0  0
  1 34  1  0  0  0  0
  2 29  1  0  0  0  0
  2  3  1  0  0  0  0
  3  4  2  0  0  0  0
  3  5  1  0  0  0  0
  5  6  1  0  0  0  0
  5 35  1  0  0  0  0
  6 30  1  0  0  0  0
  6 29  1  0  0  0  0
  6  7  1  0  0  0  0
  7  8  1  0  0  0  0
  7 36  1  0  0  0  0
  7 37  1  0  0  0  0
  8  9  1  0  0  0  0
  8 27  1  0  0  0  0
  9 14  1  0  0  0  0
  9 10  2  0  0  0  0
 10 11  1  0  0  0  0
 11 12  2  0  0  0  0
 11 38  1  0  0  0  0
 12 13  1  0  0  0  0
 13 17  1  0  0  0  0
 13 14  2  0  0  0  0
 14 15  1  0  0  0  0
 15 16  2  0  0  0  0
 16 17  1  0  0  0  0
 16 39  1  0  0  0  0
 17 18  1  0  0  0  0
 18 19  1  0  0  0  0
 18 40  1  0  0  0  0
 18 41  1  0  0  0  0
 19 26  1  0  0  0  0
 19 20  1  0  0  0  0
 19 22  1  0  0  0  0
 20 21  1  0  0  0  0
 20 42  1  0  0  0  0
 20 43  1  0  0  0  0
 21 44  1  0  0  0  0
 22 23  1  0  0  0  0
 22 45  1  0  0  0  0
 22 46  1  0  0  0  0
 23 24  1  0  0  0  0
 23 47  1  0  0  0  0
 23 48  1  0  0  0  0
 24 25  1  0  0  0  0
 25 26  1  0  0  0  0
 25 49  1  0  0  0  0
 25 50  1  0  0  0  0
 26 51  1  0  0  0  0
 26 52  1  0  0  0  0
 27 28  1  0  0  0  0
 27 53  1  0  0  0  0
 27 54  1  0  0  0  0
 28 29  1  0  0  0  0
 28 55  1  0  0  0  0
 28 56  1  0  0  0  0
 29 31  1  0  0  0  0
M  END
> <s_m_source_file>
AV-unprocessed.smi

> <i_m_source_file_index>
250

> <i_lp_mmshare_version>
43012

> <i_f3d_flags>
0

> <s_epik_input>
Tz1DKFtOSF0xKU4oW0NIM10pW0NASF0oW0NASF0xMilbQ0gyXVtDSDJdTihbQ0gyXTIpYyhuW2NIXW4zKWMoYzM0KW5bY0hdbjRbQ0gyXUM1KFtDSDJdW09IXSlbQ0gyXVtDSDJdT1tDSDJdW0NIMl01

> <s_epik_cmdline>
J2VwaWtfcHl0aG9uJywgJy1waCcsICc3LjAnLCAnLXRuJywgJzgnLCAnLW1hJywgJzIwMCcsICctbWV0YWxfYmluZGluZycsICctaW1hZScsICc8aW5maWxlLm1hZT4nLCAnLW9tYWUnLCAnPG91dGZpbGUubWFlPic=

> <r_lp_tautomer_probability>
1

> <r_epik_Ionization_Penalty>
0.00229024

> <r_epik_Ionization_Penalty_Charging>
0

> <r_epik_Ionization_Penalty_Neutral>
0.00229024

> <r_epik_State_Penalty>
0.0013961

> <r_epik_Charging_Adjusted_Penalty>
0.0013961

> <i_epik_Tot_Q>
0

> <i_epik_Tot_abs_Q>
0

> <r_epik_Metal_State_Penalty>
-0

> <b_epik_Metal_Only>
0

> <s_lp_Force_Field>
OPLS_2005

> <r_lp_Energy>
71.8921

> <b_lp_Chiralities_Consistent>
1

> <s_lp_Variant>
AV-unprocessed.smi:250-3

> <Gold.Version>
5.8.1

> <Gold.Id.Protein>
6NUR|6NUR_protein|mol2

> <Gold.PLP.Fitness>
51.7475

> <Gold.PLP.PLP>
-46.2008

> <Gold.PLP.part.hbond>
-4.9105

> <Gold.PLP.part.metal>
0.0000

> <Gold.PLP.part.buried>
-5.9742

> <Gold.PLP.part.nonpolar>
-34.8007

> <Gold.PLP.part.repulsive>
0.3974

> <Gold.PLP.ligand.clash>
0.0000

> <Gold.PLP.ligand.torsion>
1.4145

> <Gold.PLP.Chemscore.Hbond>
2.6891

> <Gold.PLP.Chemscore.CHOScore>
0.0000

> <Gold.PLP.Chemscore.Metal>
0.0000

> <Gold.Chemscore.Hbonds>
donor molecule, donor type, donor heavy atom, donor atom, acceptor molecule, acceptor atom, score
      L1  H     5    35       P1  8028  0.96
      P1  H  7997  8009       L1    10  1.00
      P1  H 10752 10763       L1    12  0.70

> <Gold.PLP.Chemscore.Internal.Correction>
0.3084

> <Gold.Rescore>
     Score         DG    S(hbond)    S(metal)    S(lipo)     H(rot)  DE(clash)    DE(int)     intcor
     15.25     -17.45       2.05        0.00      92.42       2.22       0.79       1.42       ----

> <Gold.Chemscore.Fitness>
15.2474

> <Gold.Chemscore.DG>
-17.4549

> <Gold.Chemscore.ZeroCoef>
-5.4800

> <Gold.Chemscore.Hbond>
2.0472

> <Gold.Chemscore.Metal>
0.0000

> <Gold.Chemscore.Lipo>
92.4186

> <Gold.Chemscore.Internal_Hbond>
0.0000

> <Gold.Chemscore.DEClash>
0.7853

> <Gold.Chemscore.DEInternal>
1.4222

> <Gold.Chemscore.Rot>
2.2170

> <Gold.Chemscore.Internal.Correction>
   9.000000E+99

> <Gold.Chemscore.Hbonds>
donor molecule, donor type, donor heavy atom, donor atom, acceptor molecule, acceptor atom, score
      L1  H     5    35       P1  8028  0.50
      P1  H  7997  8009       L1    10  0.59
      P1  H 10752 10763       L1    12  0.42

> <Gold.Chemscore.Hbond.Weighted>
-6.8376

> <Gold.Chemscore.Metal.Weighted>
-0.0000

> <Gold.Chemscore.Lipo.Weighted>
-10.8130

> <Gold.Chemscore.Internal_Hbond.Weighted>
0.0000

> <Gold.Chemscore.DEClash.Weighted>
0.7853

> <Gold.Chemscore.DEInternal.Weighted>
1.4222

> <Gold.Chemscore.Rot.Weighted>
5.6756

> <Gold.Chemscore.Internal.Correction.Weighted>
   9.000000E+99

> <Gold.Protein.RotatedTorsions>
[ 6907 6896 6895 6894 ] final  120.93 input  -60.11 | X-H torsion
[ 7974 7965 7964 7962 ] final  -64.60 input  175.53 | X-H torsion
[ 8008 7997 7996 7995 ] final -125.16 input   59.86 | X-H torsion
[ 10167 10162 10161 10158 ] final  128.79 input  -65.29 | X-H torsion
[ 10718 10713 10712 10709 ] final   47.83 input   66.30 | X-H torsion
[ 10763 10752 10751 10750 ] final   16.73 input  -60.55 | X-H torsion
[ 11005 11000 10999 10996 ] final  -77.18 input  -57.11 | X-H torsion

> <Gold.Protein.ActiveResidues>
 VAL166  LYS551  ARG553  GLY616  TRP617  ASP618  TYR619  PRO620  LYS621  CYS622 
 ASP623  PHE694  ASN695  SER759  ASP760  ASP761  ALA762  ILE779  LEU786  VAL792 
 PHE793  MET794  SER795  GLU796  ALA797  LYS798  CYS799  TRP800  GLU811  SER814 

> <Gold.Protein.RotatedAtoms>
  152.4360  133.7362  159.6614 H   0  0  0  0  0  0  0  0  0  0  0  0  # atno 6907 bound_to 6896
  150.8244  133.8186  159.3131 H   0  0  0  0  0  0  0  0  0  0  0  0  # atno 6908 bound_to 6896
  151.5859  135.1058  160.0079 H   0  0  0  0  0  0  0  0  0  0  0  0  # atno 6909 bound_to 6896
  145.7647  140.8843  143.0411 H   0  0  0  0  0  0  0  0  0  0  0  0  # atno 7974 bound_to 7965
  155.2088  140.0418  157.2930 H   0  0  0  0  0  0  0  0  0  0  0  0  # atno 8008 bound_to 7997
  154.6025  140.2456  155.7744 H   0  0  0  0  0  0  0  0  0  0  0  0  # atno 8009 bound_to 7997
  156.2330  140.2931  156.0247 H   0  0  0  0  0  0  0  0  0  0  0  0  # atno 8010 bound_to 7997
  139.5510  144.6812  151.4325 H   0  0  0  0  0  0  0  0  0  0  0  0  # atno 10167 bound_to 10162
  157.4625  130.8205  149.7901 H   0  0  0  0  0  0  0  0  0  0  0  0  # atno 10718 bound_to 10713
  153.1404  135.6758  153.9037 H   0  0  0  0  0  0  0  0  0  0  0  0  # atno 10763 bound_to 10752
  153.8495  135.3095  155.3433 H   0  0  0  0  0  0  0  0  0  0  0  0  # atno 10764 bound_to 10752
  154.7782  135.4903  153.9872 H   0  0  0  0  0  0  0  0  0  0  0  0  # atno 10765 bound_to 10752
  141.1659  133.7012  156.7781 H   0  0  0  0  0  0  0  0  0  0  0  0  # atno 11005 bound_to 11000
  144.6824  139.9772  143.7483 LP  0  0  0  0  0  0  0  0  0  0  0  0  # atno 17320 bound_to 7965
  146.0229  139.3267  143.0802 LP  0  0  0  0  0  0  0  0  0  0  0  0  # atno 17321 bound_to 7965
  140.6772  143.8164  150.7073 LP  0  0  0  0  0  0  0  0  0  0  0  0  # atno 17342 bound_to 10162
  140.1606  143.4279  152.2070 LP  0  0  0  0  0  0  0  0  0  0  0  0  # atno 17343 bound_to 10162
  156.0035  130.3867  150.2516 LP  0  0  0  0  0  0  0  0  0  0  0  0  # atno 17370 bound_to 10713
  157.0695  131.0112  151.3195 LP  0  0  0  0  0  0  0  0  0  0  0  0  # atno 17371 bound_to 10713
  140.2415  134.8610  157.3578 LP  0  0  0  0  0  0  0  0  0  0  0  0  # atno 17394 bound_to 11000
  140.1791  134.4512  155.7783 LP  0  0  0  0  0  0  0  0  0  0  0  0  # atno 17395 bound_to 11000

$$$$
