#       Name:                AV-unprocessed.smi:1498
#       Creating user name   scv26
#       Creation time:       Fri Mar 27 06:17:51 2020


#       File generated by GOLD software.
#

@<TRIPOS>MOLECULE
AV-unprocessed.smi:1498
    43    44     1
SMALL
NO_CHARGES


@<TRIPOS>ATOM
      1 ****        -5.1359  -0.3927   0.9395 C.3            1 S1                 0.0000
      2 ****        -4.2372  -0.2469  -0.1962 N.3            1 S1                 0.0000
      3 ****        -3.2186  -1.2988  -0.1578 C.3            1 S1                 0.0000
      4 ****        -2.2530  -1.1417  -1.3495 C.3            1 S1                 0.0000
      5 ****        -1.6236   0.1863  -1.2748 N.am           1 S1                 0.0000
      6 ****        -0.3415   0.4512  -0.9195 C.2            1 S1                 0.0000
      7 ****         0.0408   1.5778  -0.6001 O.2            1 S1                 0.0000
      8 ****         0.4865  -0.6062  -1.0190 N.am           1 S1                 0.0000
      9 ****         1.8631  -0.6662  -0.6843 C.2            1 S1                 0.0000
     10 ****         2.6805  -1.8171  -0.8285 C.2            1 S1                 0.0000
     11 ****         3.9204  -1.5774  -0.4301 N.2            1 S1                 0.0000
     12 ****         3.9160  -0.2838  -0.0212 N.pl3          1 S1                 0.0000
     13 ****         5.1380   0.3153   0.4876 C.3            1 S1                 0.0000
     14 ****         5.0613   0.5469   1.9993 C.2            1 S1                 0.0000
     15 ****         5.2553   1.7944   2.4347 N.am           1 S1                 0.0000
     16 ****         4.8288  -0.3859   2.7658 O.2            1 S1                 0.0000
     17 ****         2.6742   0.3041  -0.1678 C.2            1 S1                 0.0000
     18 ****        -2.6493   1.2316  -1.3565 C.3            1 S1                 0.0000
     19 ****        -3.6141   1.0785  -0.1644 C.3            1 S1                 0.0000
     20 ****        -5.6260  -1.3667   0.9163 H              1 S1                 0.0000
     21 ****        -5.9136   0.3713   0.9120 H              1 S1                 0.0000
     22 ****        -4.5999  -0.3013   1.8855 H              1 S1                 0.0000
     23 ****        -2.6657  -1.2541   0.7820 H              1 S1                 0.0000
     24 ****        -3.7026  -2.2751  -0.2012 H              1 S1                 0.0000
     25 ****        -1.5430  -1.9682  -1.3474 H              1 S1                 0.0000
     26 ****        -2.7989  -1.2286  -2.2903 H              1 S1                 0.0000
     27 ****         0.0757  -1.4690  -1.3446 H              1 S1                 0.0000
     28 ****         2.4223  -2.7973  -1.2013 H              1 S1                 0.0000
     29 ****         5.9857  -0.3348   0.2653 H              1 S1                 0.0000
     30 ****         5.3071   1.2550  -0.0404 H              1 S1                 0.0000
     31 ****         5.2144   1.9979   3.4228 H              1 S1                 0.0000
     32 ****         5.4426   2.5319   1.7708 H              1 S1                 0.0000
     33 ****         2.4920   1.3321   0.1083 H              1 S1                 0.0000
     34 ****        -2.2247   2.2363  -1.3631 H              1 S1                 0.0000
     35 ****        -3.1922   1.1350  -2.2981 H              1 S1                 0.0000
     36 ****        -4.3878   1.8455  -0.2150 H              1 S1                 0.0000
     37 ****        -3.0774   1.2225   0.7750 H              1 S1                 0.0000
     38 ****        -4.7545  -0.3357  -1.0474 LP             1 S1                 0.0000
     39 ****        -0.6040   2.3421  -0.5959 LP             1 S1                 0.0000
     40 ****         0.9960   1.7281  -0.3450 LP             1 S1                 0.0000
     41 ****         4.6929  -2.2125  -0.4306 LP             1 S1                 0.0000
     42 ****         4.6876  -1.3073   2.4037 LP             1 S1                 0.0000
     43 ****         4.7810  -0.2232   3.7513 LP             1 S1                 0.0000
@<TRIPOS>BOND
    1    1    2 1     
    2    1   20 1     
    3    1   21 1     
    4    1   22 1     
    5    2   19 1     
    6    2    3 1     
    7    3    4 1     
    8    3   23 1     
    9    3   24 1     
   10    4    5 1     
   11    4   25 1     
   12    4   26 1     
   13    5    6 am    
   14    5   18 1     
   15    6    7 2     
   16    6    8 am    
   17    8    9 1     
   18    8   27 1     
   19    9   17 2     
   20    9   10 1     
   21   10   11 2     
   22   10   28 1     
   23   11   12 1     
   24   12   13 1     
   25   12   17 1     
   26   13   14 1     
   27   13   29 1     
   28   13   30 1     
   29   14   15 am    
   30   14   16 2     
   31   15   31 1     
   32   15   32 1     
   33   17   33 1     
   34   18   19 1     
   35   18   34 1     
   36   18   35 1     
   37   19   36 1     
   38   19   37 1     
   39    2   38 1     
   40    7   39 1     
   41    7   40 1     
   42   11   41 1     
   43   16   42 1     
   44   16   43 1     
@<TRIPOS>SUBSTRUCTURE
      1 S1             1
@<TRIPOS>SET
LONE_PAIRS      STATIC     ATOMS    <user>   **** ""
6 38 39 40 41 42 43
DONOR_HYDROGENS      STATIC     ATOMS    <user>   **** ""
3 27 31 32
ATOM$BLUE        STATIC     ATOMS    COLORGROUP SYSTEM
6 38 39 40 41 42 43
ATOM$RED        STATIC     ATOMS    COLORGROUP SYSTEM
3 27 31 32
