AV-unprocessed.smi:1619|AV-procd|sdf|6488|dock1
  -GOLD-   22720 7153D 1   1.00000     0.00000
 Structure written by MMmdl.
 44 46  0  0  0  0  0  0  0  0  2 V2000
  152.1839  144.3060  160.9614 C   0  0  0  0  0  0  0  0  0  0  0  0
  152.1245  143.0485  160.1121 C   0  0  0  0  0  0  0  0  0  0  0  0
  153.0550  142.0128  160.3523 C   0  0  0  0  0  0  0  0  0  0  0  0
  153.0350  140.8286  159.5838 C   0  0  0  0  0  0  0  0  0  0  0  0
  153.8385  139.7033  159.6459 N   0  0  0  0  0  0  0  0  0  0  0  0
  153.3271  138.9539  158.6742 C   0  0  0  0  0  0  0  0  0  0  0  0
  152.2761  139.4555  157.9968 N   0  0  0  0  0  0  0  0  0  0  0  0
  151.5541  138.8225  156.9081 C   0  0  0  0  0  0  0  0  0  0  0  0
  151.4786  139.7076  155.6480 C   0  0  1  0  0  0  0  0  0  0  0  0
  152.7562  139.7096  155.0442 O   0  0  0  0  0  0  0  0  0  0  0  0
  150.4389  139.2249  154.6130 C   0  0  0  0  0  0  0  0  0  0  0  0
  149.1261  139.8901  154.7863 N   0  3  0  0  0  0  0  0  0  0  0  0
  149.1441  141.3425  154.5227 C   0  0  0  0  0  0  0  0  0  0  0  0
  147.6955  141.7017  154.2106 C   0  0  0  0  0  0  0  0  0  0  0  0
  147.2052  140.4855  153.4312 C   0  0  0  0  0  0  0  0  0  0  0  0
  148.0103  139.3090  154.0001 C   0  0  0  0  0  0  0  0  0  0  0  0
  152.0499  140.7071  158.5602 C   0  0  0  0  0  0  0  0  0  0  0  0
  151.1197  141.7315  158.3105 C   0  0  0  0  0  0  0  0  0  0  0  0
  151.1529  142.9075  159.0889 C   0  0  0  0  0  0  0  0  0  0  0  0
  150.1426  144.0074  158.8132 C   0  0  0  0  0  0  0  0  0  0  0  0
  152.9974  144.2596  161.6858 H   0  0  0  0  0  0  0  0  0  0  0  0
  151.2528  144.4389  161.5123 H   0  0  0  0  0  0  0  0  0  0  0  0
  152.3445  145.1836  160.3350 H   0  0  0  0  0  0  0  0  0  0  0  0
  153.7959  142.1206  161.1311 H   0  0  0  0  0  0  0  0  0  0  0  0
  153.7358  137.9800  158.4466 H   0  0  0  0  0  0  0  0  0  0  0  0
  152.0464  137.8762  156.6793 H   0  0  0  0  0  0  0  0  0  0  0  0
  150.5500  138.5758  157.2572 H   0  0  0  0  0  0  0  0  0  0  0  0
  151.2515  140.7292  155.9529 H   0  0  0  0  0  0  0  0  0  0  0  0
  152.6470  139.7577  154.1061 H   0  0  0  0  0  0  0  0  0  0  0  0
  150.8121  139.4230  153.6070 H   0  0  0  0  0  0  0  0  0  0  0  0
  150.2892  138.1464  154.6800 H   0  0  0  0  0  0  0  0  0  0  0  0
  149.5430  141.9016  155.3695 H   0  0  0  0  0  0  0  0  0  0  0  0
  149.7693  141.5525  153.6530 H   0  0  0  0  0  0  0  0  0  0  0  0
  147.1294  141.8027  155.1376 H   0  0  0  0  0  0  0  0  0  0  0  0
  147.5988  142.6332  153.6516 H   0  0  0  0  0  0  0  0  0  0  0  0
  146.1279  140.3393  153.5167 H   0  0  0  0  0  0  0  0  0  0  0  0
  147.4389  140.6118  152.3730 H   0  0  0  0  0  0  0  0  0  0  0  0
  148.3672  138.6678  153.1922 H   0  0  0  0  0  0  0  0  0  0  0  0
  147.3976  138.6956  154.6617 H   0  0  0  0  0  0  0  0  0  0  0  0
  150.3872  141.6150  157.5256 H   0  0  0  0  0  0  0  0  0  0  0  0
  149.4461  143.7200  158.0250 H   0  0  0  0  0  0  0  0  0  0  0  0
  150.6485  144.9200  158.4971 H   0  0  0  0  0  0  0  0  0  0  0  0
  149.5603  144.2265  159.7086 H   0  0  0  0  0  0  0  0  0  0  0  0
  148.8710  139.7886  155.7587 H   0  0  0  0  0  0  0  0  0  0  0  0
  1  2  1  0  0  0  0
  1 21  1  0  0  0  0
  1 22  1  0  0  0  0
  1 23  1  0  0  0  0
  2 19  1  0  0  0  0
  2  3  2  0  0  0  0
  3  4  1  0  0  0  0
  3 24  1  0  0  0  0
  4 17  2  0  0  0  0
  4  5  1  0  0  0  0
  5  6  2  0  0  0  0
  6  7  1  0  0  0  0
  6 25  1  0  0  0  0
  7  8  1  0  0  0  0
  7 17  1  0  0  0  0
  8  9  1  0  0  0  0
  8 26  1  0  0  0  0
  8 27  1  0  0  0  0
  9 10  1  0  0  0  0
  9 11  1  0  0  0  0
  9 28  1  0  0  0  0
 10 29  1  0  0  0  0
 11 12  1  0  0  0  0
 11 30  1  0  0  0  0
 11 31  1  0  0  0  0
 12 16  1  0  0  0  0
 12 13  1  0  0  0  0
 12 44  1  0  0  0  0
 13 14  1  0  0  0  0
 13 32  1  0  0  0  0
 13 33  1  0  0  0  0
 14 15  1  0  0  0  0
 14 34  1  0  0  0  0
 14 35  1  0  0  0  0
 15 16  1  0  0  0  0
 15 36  1  0  0  0  0
 15 37  1  0  0  0  0
 16 38  1  0  0  0  0
 16 39  1  0  0  0  0
 17 18  1  0  0  0  0
 18 19  2  0  0  0  0
 18 40  1  0  0  0  0
 19 20  1  0  0  0  0
 20 41  1  0  0  0  0
 20 42  1  0  0  0  0
 20 43  1  0  0  0  0
M  CHG  1  12   1
M  END
> <s_m_source_file>
AV-unprocessed.smi

> <i_m_source_file_index>
1619

> <i_lp_mmshare_version>
43012

> <i_f3d_flags>
0

> <s_epik_input>
W0NIM11jKFtjSF0xKWMoW0NIM10pW2NIXWMoYzEyKW4oW2NIXW4yKVtDSDJdW0NASF0oW09IXSlbQ0gyXU4zW0NIMl1bQ0gyXVtDSDJdW0NIMl0z

> <s_epik_cmdline>
J2VwaWtfcHl0aG9uJywgJy1waCcsICc3LjAnLCAnLXRuJywgJzgnLCAnLW1hJywgJzIwMCcsICctbWV0YWxfYmluZGluZycsICctaW1hZScsICc8aW5maWxlLm1hZT4nLCAnLW9tYWUnLCAnPG91dGZpbGUubWFlPic=

> <r_epik_Ionization_Penalty>
0.0947557

> <r_epik_Ionization_Penalty_Charging>
0.00674132

> <r_epik_Ionization_Penalty_Neutral>
0.0880144

> <r_epik_State_Penalty>
0.0806172

> <r_epik_Charging_Adjusted_Penalty>
0.0873585

> <i_epik_Tot_Q>
1

> <i_epik_Tot_abs_Q>
1

> <r_epik_Metal_State_Penalty>
8.03852e-05

> <b_epik_Metal_Only>
0

> <s_lp_Force_Field>
OPLS_2005

> <r_lp_Energy>
32.1533

> <b_lp_Chiralities_Consistent>
1

> <s_lp_Variant>
AV-unprocessed.smi:1619-2

> <Gold.Version>
5.8.1

> <Gold.Id.Protein>
6NUR|6NUR_protein|mol2

> <Gold.PLP.Fitness>
45.5601

> <Gold.PLP.PLP>
-43.7127

> <Gold.PLP.part.hbond>
-2.0000

> <Gold.PLP.part.metal>
0.0000

> <Gold.PLP.part.buried>
-2.8843

> <Gold.PLP.part.nonpolar>
-38.0514

> <Gold.PLP.part.repulsive>
0.0955

> <Gold.PLP.ligand.clash>
0.0000

> <Gold.PLP.ligand.torsion>
0.6139

> <Gold.PLP.Chemscore.Hbond>
1.0000

> <Gold.PLP.Chemscore.CHOScore>
0.0000

> <Gold.PLP.Chemscore.Metal>
0.0000

> <Gold.Chemscore.Hbonds>
donor molecule, donor type, donor heavy atom, donor atom, acceptor molecule, acceptor atom, score
      P1  H  7997  8009       L1    10  1.00

> <Gold.PLP.Chemscore.Internal.Correction>
0.0752

> <Gold.Rescore>
     Score         DG    S(hbond)    S(metal)    S(lipo)     H(rot)  DE(clash)    DE(int)     intcor
     17.36     -18.10       0.99        0.00     123.72       2.02       0.14       0.60       ----

> <Gold.Chemscore.Fitness>
17.3626

> <Gold.Chemscore.DG>
-18.0966

> <Gold.Chemscore.ZeroCoef>
-5.4800

> <Gold.Chemscore.Hbond>
0.9937

> <Gold.Chemscore.Metal>
0.0000

> <Gold.Chemscore.Lipo>
123.7228

> <Gold.Chemscore.Internal_Hbond>
0.0000

> <Gold.Chemscore.DEClash>
0.1377

> <Gold.Chemscore.DEInternal>
0.5964

> <Gold.Chemscore.Rot>
2.0227

> <Gold.Chemscore.Internal.Correction>
   9.000000E+99

> <Gold.Chemscore.Hbonds>
donor molecule, donor type, donor heavy atom, donor atom, acceptor molecule, acceptor atom, score
      P1  H  7997  8009       L1    10  0.98

> <Gold.Chemscore.Hbond.Weighted>
-3.3191

> <Gold.Chemscore.Metal.Weighted>
-0.0000

> <Gold.Chemscore.Lipo.Weighted>
-14.4756

> <Gold.Chemscore.Internal_Hbond.Weighted>
0.0000

> <Gold.Chemscore.DEClash.Weighted>
0.1377

> <Gold.Chemscore.DEInternal.Weighted>
0.5964

> <Gold.Chemscore.Rot.Weighted>
5.1780

> <Gold.Chemscore.Internal.Correction.Weighted>
   9.000000E+99

> <Gold.Protein.RotatedTorsions>
[ 6907 6896 6895 6894 ] final   22.55 input  -60.11 | X-H torsion
[ 7974 7965 7964 7962 ] final   74.32 input  175.53 | X-H torsion
[ 8008 7997 7996 7995 ] final -140.31 input   59.86 | X-H torsion
[ 10167 10162 10161 10158 ] final   84.24 input  -65.29 | X-H torsion
[ 10718 10713 10712 10709 ] final  -68.07 input   66.30 | X-H torsion
[ 10763 10752 10751 10750 ] final  174.22 input  -60.55 | X-H torsion
[ 11005 11000 10999 10996 ] final  -30.53 input  -57.11 | X-H torsion

> <Gold.Protein.ActiveResidues>
 VAL166  LYS551  ARG553  GLY616  TRP617  ASP618  TYR619  PRO620  LYS621  CYS622 
 ASP623  PHE694  ASN695  SER759  ASP760  ASP761  ALA762  ILE779  LEU786  VAL792 
 PHE793  MET794  SER795  GLU796  ALA797  LYS798  CYS799  TRP800  GLU811  SER814 

> <Gold.Protein.RotatedAtoms>
  151.9288  135.0266  160.0527 H   0  0  0  0  0  0  0  0  0  0  0  0  # atno 6907 bound_to 6896
  152.2137  133.4925  159.5132 H   0  0  0  0  0  0  0  0  0  0  0  0  # atno 6908 bound_to 6896
  150.6982  134.1351  159.4127 H   0  0  0  0  0  0  0  0  0  0  0  0  # atno 6909 bound_to 6896
  145.7297  139.2679  143.1548 H   0  0  0  0  0  0  0  0  0  0  0  0  # atno 7974 bound_to 7965
  155.4593  140.0544  157.2992 H   0  0  0  0  0  0  0  0  0  0  0  0  # atno 8008 bound_to 7997
  154.4744  140.2054  155.9869 H   0  0  0  0  0  0  0  0  0  0  0  0  # atno 8009 bound_to 7997
  156.1108  140.3204  155.8075 H   0  0  0  0  0  0  0  0  0  0  0  0  # atno 8010 bound_to 7997
  139.9101  144.6277  150.8546 H   0  0  0  0  0  0  0  0  0  0  0  0  # atno 10167 bound_to 10162
  156.0524  130.4288  150.1947 H   0  0  0  0  0  0  0  0  0  0  0  0  # atno 10718 bound_to 10713
  154.4509  135.2764  155.1782 H   0  0  0  0  0  0  0  0  0  0  0  0  # atno 10763 bound_to 10752
  154.3609  135.6129  153.5694 H   0  0  0  0  0  0  0  0  0  0  0  0  # atno 10764 bound_to 10752
  152.9847  135.5834  154.4853 H   0  0  0  0  0  0  0  0  0  0  0  0  # atno 10765 bound_to 10752
  140.9391  133.7290  156.1049 H   0  0  0  0  0  0  0  0  0  0  0  0  # atno 11005 bound_to 11000
  146.0549  140.8031  142.9763 LP  0  0  0  0  0  0  0  0  0  0  0  0  # atno 17320 bound_to 7965
  144.6896  140.3108  143.7248 LP  0  0  0  0  0  0  0  0  0  0  0  0  # atno 17321 bound_to 7965
  140.7687  143.3372  151.2284 LP  0  0  0  0  0  0  0  0  0  0  0  0  # atno 17342 bound_to 10162
  139.6950  143.9628  152.2878 LP  0  0  0  0  0  0  0  0  0  0  0  0  # atno 17343 bound_to 10162
  157.0028  130.9927  151.3386 LP  0  0  0  0  0  0  0  0  0  0  0  0  # atno 17370 bound_to 10713
  157.5463  130.8153  149.8090 LP  0  0  0  0  0  0  0  0  0  0  0  0  # atno 17371 bound_to 10713
  140.7759  134.3781  157.5498 LP  0  0  0  0  0  0  0  0  0  0  0  0  # atno 17394 bound_to 11000
  139.8815  134.9051  156.2892 LP  0  0  0  0  0  0  0  0  0  0  0  0  # atno 17395 bound_to 11000

$$$$
