#       Name:                AV-unprocessed.smi:686
#       Creating user name   scv26
#       Creation time:       Fri Mar 27 00:31:13 2020


#       File generated by GOLD software.
#

@<TRIPOS>MOLECULE
AV-unprocessed.smi:686
    45    46     1
SMALL
NO_CHARGES


@<TRIPOS>ATOM
      1 ****        -1.9548   0.6698  -2.9679 C.3            1 S1                 0.0000
      2 ****        -1.1624  -0.2232  -2.0036 C.3            1 S1                 0.0000
      3 ****        -1.9274  -1.4641  -1.5433 C.3            1 S1                 0.0000
      4 ****        -1.2912  -1.8547  -0.2692 N.4            1 S1                 1.0000
      5 ****        -2.0613  -2.8257   0.5591 C.3            1 S1                 0.0000
      6 ****        -1.3025  -3.1841   1.8507 C.3            1 S1                 0.0000
      7 ****        -2.3823  -4.1118  -0.2253 C.3            1 S1                 0.0000
      8 ****        -0.9537  -0.5822   0.4080 C.3            1 S1                 0.0000
      9 ****        -0.7535   0.4736  -0.6953 C.3            1 S1                 0.0000
     10 ****         0.6433   0.9117  -0.7676 N.3            1 S1                 0.0000
     11 ****         1.1580   2.1762   0.2875 S.o2           1 S1                 0.0000
     12 ****         0.6614   3.4426  -0.2711 O.2            1 S1                 0.0000
     13 ****         0.7960   1.7889   1.6598 O.2            1 S1                 0.0000
     14 ****         2.9917   2.1167   0.1213 C.3            1 S1                 0.0000
     15 ****         3.6116   3.1646   1.0007 C.2            1 S1                 0.0000
     16 ****         3.9127   3.0886   2.3889 C.2            1 S1                 0.0000
     17 ****         4.4614   4.3082   2.6629 C.2            1 S1                 0.0000
     18 ****         4.4995   5.0742   1.5433 O.3            1 S1                 0.0000
     19 ****         3.9560   4.3347   0.4868 N.2            1 S1                 0.0000
     20 ****        -2.8769   1.0298  -2.5107 H              1 S1                 0.0000
     21 ****        -2.2220   0.1260  -3.8744 H              1 S1                 0.0000
     22 ****        -1.3681   1.5399  -3.2638 H              1 S1                 0.0000
     23 ****        -0.2656  -0.5731  -2.5188 H              1 S1                 0.0000
     24 ****        -2.9766  -1.2204  -1.3657 H              1 S1                 0.0000
     25 ****        -1.8837  -2.2612  -2.2861 H              1 S1                 0.0000
     26 ****        -3.0068  -2.3593   0.8405 H              1 S1                 0.0000
     27 ****        -1.8507  -3.9254   2.4329 H              1 S1                 0.0000
     28 ****        -1.1621  -2.3177   2.4972 H              1 S1                 0.0000
     29 ****        -0.3189  -3.6003   1.6304 H              1 S1                 0.0000
     30 ****        -2.9000  -4.8349   0.4060 H              1 S1                 0.0000
     31 ****        -1.4740  -4.5884  -0.5958 H              1 S1                 0.0000
     32 ****        -3.0332  -3.9192  -1.0780 H              1 S1                 0.0000
     33 ****        -1.7798  -0.2740   1.0511 H              1 S1                 0.0000
     34 ****        -0.0747  -0.7087   1.0412 H              1 S1                 0.0000
     35 ****        -1.3924   1.3371  -0.5016 H              1 S1                 0.0000
     36 ****         0.9124   1.1135  -1.7307 H              1 S1                 0.0000
     37 ****         3.3311   1.1207   0.4048 H              1 S1                 0.0000
     38 ****         3.2495   2.2716  -0.9269 H              1 S1                 0.0000
     39 ****         3.7501   2.2706   3.0749 H              1 S1                 0.0000
     40 ****         4.8541   4.7605   3.5616 H              1 S1                 0.0000
     41 ****        -0.4131  -2.2904  -0.5126 H              1 S1                 0.0000
     42 ****         1.1349   0.1171  -0.4114 LP             1 S1                 0.0000
     43 ****         5.4460   5.3190   1.3330 LP             1 S1                 0.0000
     44 ****         3.9634   5.9065   1.6845 LP             1 S1                 0.0000
     45 ****         3.8495   4.6300  -0.4627 LP             1 S1                 0.0000
@<TRIPOS>BOND
    1    1    2 1     
    2    1   20 1     
    3    1   21 1     
    4    1   22 1     
    5    2    9 1     
    6    2    3 1     
    7    2   23 1     
    8    3    4 1     
    9    3   24 1     
   10    3   25 1     
   11    4    5 1     
   12    4    8 1     
   13    4   41 1     
   14    5    6 1     
   15    5    7 1     
   16    5   26 1     
   17    6   27 1     
   18    6   28 1     
   19    6   29 1     
   20    7   30 1     
   21    7   31 1     
   22    7   32 1     
   23    8    9 1     
   24    8   33 1     
   25    8   34 1     
   26    9   10 1     
   27    9   35 1     
   28   10   11 1     
   29   10   36 1     
   30   11   12 2     
   31   11   13 2     
   32   11   14 1     
   33   14   15 1     
   34   14   37 1     
   35   14   38 1     
   36   15   19 2     
   37   15   16 1     
   38   16   17 2     
   39   16   39 1     
   40   17   18 1     
   41   17   40 1     
   42   18   19 1     
   43   10   42 1     
   44   18   43 1     
   45   18   44 1     
   46   19   45 1     
@<TRIPOS>SUBSTRUCTURE
      1 S1             1
@<TRIPOS>SET
LONE_PAIRS      STATIC     ATOMS    <user>   **** ""
6 42 12 13 43 44 45
DONOR_HYDROGENS      STATIC     ATOMS    <user>   **** ""
2 41 36
ATOM$BLUE        STATIC     ATOMS    COLORGROUP SYSTEM
6 42 12 13 43 44 45
ATOM$RED        STATIC     ATOMS    COLORGROUP SYSTEM
2 41 36
