AV-unprocessed.smi:1602|AV-procd|sdf|6442|dock5
  -GOLD-   22720 7 93D 1   1.00000     0.00000
 Structure written by MMmdl.
 35 36  0  0  0  0  0  0  0  0  2 V2000
  149.9835  141.6919  155.3594 C   0  0  0  0  0  0  0  0  0  0  0  0
  151.0583  140.8150  156.0244 C   0  0  1  0  0  0  0  0  0  0  0  0
  151.0841  140.9284  157.5728 C   0  0  0  0  0  0  0  0  0  0  0  0
  151.6483  142.1666  158.1069 N   0  0  0  0  0  0  0  0  0  0  0  0
  151.2879  143.4710  157.8255 C   0  0  0  0  0  0  0  0  0  0  0  0
  152.1155  144.2903  158.5384 C   0  0  0  0  0  0  0  0  0  0  0  0
  152.9735  143.3872  159.2251 C   0  0  0  0  0  0  0  0  0  0  0  0
  152.7005  142.1213  158.9577 N   0  0  0  0  0  0  0  0  0  0  0  0
  150.8628  139.4263  155.6328 N   0  5  0  0  0  0  0  0  0  0  0  0
  151.8733  138.2837  156.1840 S   0  0  0  0  0  0  0  0  0  0  0  0
  152.3915  137.3869  155.1379 O   0  0  0  0  0  0  0  0  0  0  0  0
  152.8284  138.8028  157.1766 O   0  0  0  0  0  0  0  0  0  0  0  0
  150.7023  137.3525  157.0670 N   0  0  0  0  0  0  0  0  0  0  0  0
  150.7720  137.4272  158.5366 C   0  0  0  0  0  0  0  0  0  0  0  0
  149.5560  136.7508  159.1901 C   0  0  0  0  0  0  0  0  0  0  0  0
  149.4246  135.4186  158.7201 O   0  0  0  0  0  0  0  0  0  0  0  0
  149.1937  135.3891  157.3202 C   0  0  0  0  0  0  0  0  0  0  0  0
  150.3917  135.9952  156.5721 C   0  0  0  0  0  0  0  0  0  0  0  0
  150.0770  142.7299  155.6783 H   0  0  0  0  0  0  0  0  0  0  0  0
  148.9758  141.3560  155.6064 H   0  0  0  0  0  0  0  0  0  0  0  0
  150.0764  141.6762  154.2734 H   0  0  0  0  0  0  0  0  0  0  0  0
  152.0278  141.1751  155.6779 H   0  0  0  0  0  0  0  0  0  0  0  0
  150.0797  140.7940  157.9783 H   0  0  0  0  0  0  0  0  0  0  0  0
  151.6756  140.1056  157.9757 H   0  0  0  0  0  0  0  0  0  0  0  0
  150.4762  143.7027  157.1519 H   0  0  0  0  0  0  0  0  0  0  0  0
  152.1107  145.3698  158.5627 H   0  0  0  0  0  0  0  0  0  0  0  0
  153.7852  143.6123  159.9010 H   0  0  0  0  0  0  0  0  0  0  0  0
  151.6931  136.9472  158.8693 H   0  0  0  0  0  0  0  0  0  0  0  0
  150.8204  138.4687  158.8535 H   0  0  0  0  0  0  0  0  0  0  0  0
  149.6777  136.7321  160.2732 H   0  0  0  0  0  0  0  0  0  0  0  0
  148.6438  137.3132  158.9846 H   0  0  0  0  0  0  0  0  0  0  0  0
  149.0462  134.3548  157.0090 H   0  0  0  0  0  0  0  0  0  0  0  0
  148.2747  135.9256  157.0781 H   0  0  0  0  0  0  0  0  0  0  0  0
  150.1751  136.0172  155.5045 H   0  0  0  0  0  0  0  0  0  0  0  0
  151.2711  135.3637  156.7037 H   0  0  0  0  0  0  0  0  0  0  0  0
  1  2  1  0  0  0  0
  1 19  1  0  0  0  0
  1 20  1  0  0  0  0
  1 21  1  0  0  0  0
  2  3  1  0  0  0  0
  2  9  1  0  0  0  0
  2 22  1  0  0  0  0
  3  4  1  0  0  0  0
  3 23  1  0  0  0  0
  3 24  1  0  0  0  0
  4  8  1  0  0  0  0
  4  5  1  0  0  0  0
  5  6  2  0  0  0  0
  5 25  1  0  0  0  0
  6  7  1  0  0  0  0
  6 26  1  0  0  0  0
  7  8  2  0  0  0  0
  7 27  1  0  0  0  0
  9 10  1  0  0  0  0
 10 11  2  0  0  0  0
 10 12  2  0  0  0  0
 10 13  1  0  0  0  0
 13 18  1  0  0  0  0
 13 14  1  0  0  0  0
 14 15  1  0  0  0  0
 14 28  1  0  0  0  0
 14 29  1  0  0  0  0
 15 16  1  0  0  0  0
 15 30  1  0  0  0  0
 15 31  1  0  0  0  0
 16 17  1  0  0  0  0
 17 18  1  0  0  0  0
 17 32  1  0  0  0  0
 17 33  1  0  0  0  0
 18 34  1  0  0  0  0
 18 35  1  0  0  0  0
M  CHG  1   9  -1
M  END
> <s_m_source_file>
AV-unprocessed.smi

> <i_m_source_file_index>
1602

> <i_lp_mmshare_version>
43012

> <i_f3d_flags>
0

> <s_epik_input>
bjFbY0hdW2NIXVtjSF1uMVtDSDJdW0NAQEhdKFtDSDNdKVtOSF1TKD1PKSg9TylOMltDSDJdW0NIMl1PW0NIMl1bQ0gyXTI=

> <s_epik_cmdline>
J2VwaWtfcHl0aG9uJywgJy1waCcsICc3LjAnLCAnLXRuJywgJzgnLCAnLW1hJywgJzIwMCcsICctbWV0YWxfYmluZGluZycsICctaW1hZScsICc8aW5maWxlLm1hZT4nLCAnLW9tYWUnLCAnPG91dGZpbGUubWFlPic=

> <r_lp_tautomer_probability>
1

> <r_epik_Ionization_Penalty>
1.03144

> <r_epik_Ionization_Penalty_Charging>
1.03142

> <r_epik_Ionization_Penalty_Neutral>
2.21579e-05

> <r_epik_State_Penalty>
1.0826

> <r_epik_Charging_Adjusted_Penalty>
2.11402

> <i_epik_Tot_Q>
-1

> <i_epik_Tot_abs_Q>
1

> <r_epik_Metal_State_Penalty>
0.386234

> <b_epik_Metal_Only>
0

> <s_lp_Force_Field>
OPLS_2005

> <r_lp_Energy>
7.84511

> <b_lp_Chiralities_Consistent>
1

> <s_lp_Variant>
AV-unprocessed.smi:1602-4

> <Gold.Version>
5.8.1

> <Gold.Id.Protein>
6NUR|6NUR_protein|mol2

> <Gold.PLP.Fitness>
41.3662

> <Gold.PLP.PLP>
-30.7003

> <Gold.PLP.part.hbond>
-3.0000

> <Gold.PLP.part.metal>
0.0000

> <Gold.PLP.part.buried>
-3.8318

> <Gold.PLP.part.nonpolar>
-24.5837

> <Gold.PLP.part.repulsive>
0.0566

> <Gold.PLP.ligand.clash>
0.0000

> <Gold.PLP.ligand.torsion>
0.9339

> <Gold.PLP.Chemscore.Hbond>
2.6720

> <Gold.PLP.Chemscore.CHOScore>
1.0000

> <Gold.PLP.Chemscore.Metal>
0.0000

> <Gold.Chemscore.Hbonds>
donor molecule, donor type, donor heavy atom, donor atom, acceptor molecule, acceptor atom, score
      P1  H  6896  6907       L1    16  1.00
      P1  H  7997  8010       L1    12  0.86
      P1  H 10752 10764       L1    11  0.67
      L1  C     5    25       P1  8028  1.00

> <Gold.PLP.Chemscore.Internal.Correction>
1.5178

> <Gold.Rescore>
     Score         DG    S(hbond)    S(metal)    S(lipo)     H(rot)  DE(clash)    DE(int)     intcor
     16.01     -18.38       2.55        0.00      73.88       1.67       0.04       2.34       ----

> <Gold.Chemscore.Fitness>
16.0107

> <Gold.Chemscore.DG>
-18.3837

> <Gold.Chemscore.ZeroCoef>
-5.4800

> <Gold.Chemscore.Hbond>
2.5546

> <Gold.Chemscore.Metal>
0.0000

> <Gold.Chemscore.Lipo>
73.8763

> <Gold.Chemscore.Internal_Hbond>
0.0000

> <Gold.Chemscore.DEClash>
0.0356

> <Gold.Chemscore.DEInternal>
2.3374

> <Gold.Chemscore.Rot>
1.6688

> <Gold.Chemscore.Internal.Correction>
   9.000000E+99

> <Gold.Chemscore.Hbonds>
donor molecule, donor type, donor heavy atom, donor atom, acceptor molecule, acceptor atom, score
      P1  H  6896  6907       L1    16  0.45
      P1  H  7997  8010       L1    12  0.82
      P1  H 10752 10764       L1    11  0.66

> <Gold.Chemscore.Hbond.Weighted>
-8.5324

> <Gold.Chemscore.Metal.Weighted>
-0.0000

> <Gold.Chemscore.Lipo.Weighted>
-8.6435

> <Gold.Chemscore.Internal_Hbond.Weighted>
0.0000

> <Gold.Chemscore.DEClash.Weighted>
0.0356

> <Gold.Chemscore.DEInternal.Weighted>
2.3374

> <Gold.Chemscore.Rot.Weighted>
4.2722

> <Gold.Chemscore.Internal.Correction.Weighted>
   9.000000E+99

> <Gold.Protein.RotatedTorsions>
[ 6907 6896 6895 6894 ] final  -71.84 input  -60.11 | X-H torsion
[ 7974 7965 7964 7962 ] final   41.75 input  175.53 | X-H torsion
[ 8008 7997 7996 7995 ] final   64.11 input   59.86 | X-H torsion
[ 10167 10162 10161 10158 ] final  -60.24 input  -65.29 | X-H torsion
[ 10718 10713 10712 10709 ] final -128.93 input   66.30 | X-H torsion
[ 10763 10752 10751 10750 ] final  -56.59 input  -60.55 | X-H torsion
[ 11005 11000 10999 10996 ] final  -34.58 input  -57.11 | X-H torsion

> <Gold.Protein.ActiveResidues>
 VAL166  LYS551  ARG553  GLY616  TRP617  ASP618  TYR619  PRO620  LYS621  CYS622 
 ASP623  PHE694  ASN695  SER759  ASP760  ASP761  ALA762  ILE779  LEU786  VAL792 
 PHE793  MET794  SER795  GLU796  ALA797  LYS798  CYS799  TRP800  GLU811  SER814 

> <Gold.Protein.RotatedAtoms>
  150.7195  134.5250  159.5671 H   0  0  0  0  0  0  0  0  0  0  0  0  # atno 6907 bound_to 6896
  152.2796  134.7840  160.0408 H   0  0  0  0  0  0  0  0  0  0  0  0  # atno 6908 bound_to 6896
  151.8491  133.3401  159.3704 H   0  0  0  0  0  0  0  0  0  0  0  0  # atno 6909 bound_to 6896
  146.0798  139.5380  142.9544 H   0  0  0  0  0  0  0  0  0  0  0  0  # atno 7974 bound_to 7965
  155.6409  140.3497  155.4715 H   0  0  0  0  0  0  0  0  0  0  0  0  # atno 8008 bound_to 7997
  155.9926  140.1197  157.0647 H   0  0  0  0  0  0  0  0  0  0  0  0  # atno 8009 bound_to 7997
  154.4224  140.1116  156.5573 H   0  0  0  0  0  0  0  0  0  0  0  0  # atno 8010 bound_to 7997
  140.6084  143.2380  151.5767 H   0  0  0  0  0  0  0  0  0  0  0  0  # atno 10167 bound_to 10162
  156.1998  130.6849  151.0525 H   0  0  0  0  0  0  0  0  0  0  0  0  # atno 10718 bound_to 10713
  154.2091  135.6397  153.5110 H   0  0  0  0  0  0  0  0  0  0  0  0  # atno 10763 bound_to 10752
  152.9994  135.5470  154.6234 H   0  0  0  0  0  0  0  0  0  0  0  0  # atno 10764 bound_to 10752
  154.5666  135.2913  155.0841 H   0  0  0  0  0  0  0  0  0  0  0  0  # atno 10765 bound_to 10752
  140.9727  133.7100  156.1551 H   0  0  0  0  0  0  0  0  0  0  0  0  # atno 11005 bound_to 11000
  145.6239  141.0317  143.1900 LP  0  0  0  0  0  0  0  0  0  0  0  0  # atno 17320 bound_to 7965
  144.7285  139.7798  143.7356 LP  0  0  0  0  0  0  0  0  0  0  0  0  # atno 17321 bound_to 7965
  139.5342  144.2828  152.1216 LP  0  0  0  0  0  0  0  0  0  0  0  0  # atno 17342 bound_to 10162
  140.2022  144.4647  150.6426 LP  0  0  0  0  0  0  0  0  0  0  0  0  # atno 17343 bound_to 10162
  157.6979  131.0787  150.6913 LP  0  0  0  0  0  0  0  0  0  0  0  0  # atno 17370 bound_to 10713
  156.6970  130.4612  149.5583 LP  0  0  0  0  0  0  0  0  0  0  0  0  # atno 17371 bound_to 10713
  140.7304  134.4260  157.5566 LP  0  0  0  0  0  0  0  0  0  0  0  0  # atno 17394 bound_to 11000
  139.8918  134.8769  156.2300 LP  0  0  0  0  0  0  0  0  0  0  0  0  # atno 17395 bound_to 11000

$$$$
