AV-unprocessed.smi:565|AV-procd|sdf|2953|dock6
  -GOLD-   2262023453D 1   1.00000     0.00000
 Structure written by MMmdl.
 50 51  0  0  0  0  0  0  0  0  2 V2000
  151.4403  144.4815  157.4679 C   0  0  0  0  0  0  0  0  0  0  0  0
  151.7428  143.1013  157.9774 C   0  0  0  0  0  0  0  0  0  0  0  0
  152.5695  142.9521  158.9988 N   0  0  0  0  0  0  0  0  0  0  0  0
  152.6202  141.6212  159.2089 N   0  0  0  0  0  0  0  0  0  0  0  0
  153.4494  141.0999  160.2780 C   0  0  0  0  0  0  0  0  0  0  0  0
  151.8247  140.9285  158.3174 C   0  0  0  0  0  0  0  0  0  0  0  0
  151.7051  139.4387  158.3500 C   0  0  0  0  0  0  0  0  0  0  0  0
  151.2391  141.8565  157.4979 C   0  0  0  0  0  0  0  0  0  0  0  0
  150.2789  141.6363  156.3569 C   0  0  0  0  0  0  0  0  0  0  0  0
  150.6414  140.3441  155.6232 C   0  0  0  0  0  0  0  0  0  0  0  0
  151.7263  140.2428  155.0500 O   0  0  0  0  0  0  0  0  0  0  0  0
  149.7308  139.3589  155.6554 N   0  0  0  0  0  0  0  0  0  0  0  0
  149.9089  138.0350  155.0710 C   0  0  0  0  0  0  0  0  0  0  0  0
  148.6319  137.1776  155.1832 C   0  0  0  0  0  0  0  0  0  0  0  0
  148.8094  135.8155  154.6199 N   0  3  1  0  0  0  0  0  0  0  0  0
  150.0678  135.1775  155.0855 C   0  0  0  0  0  0  0  0  0  0  0  0
  150.3120  133.8419  154.3657 C   0  0  0  0  0  0  0  0  0  0  0  0
  149.1172  132.8941  154.5418 C   0  0  0  0  0  0  0  0  0  0  0  0
  147.7997  133.5719  154.1226 C   0  0  2  0  0  0  0  0  0  0  0  0
  147.6553  133.7017  152.5960 C   0  0  0  0  0  0  0  0  0  0  0  0
  147.6352  134.9271  154.8415 C   0  0  0  0  0  0  0  0  0  0  0  0
  150.3654  144.6598  157.4423 H   0  0  0  0  0  0  0  0  0  0  0  0
  151.8233  144.6146  156.4562 H   0  0  0  0  0  0  0  0  0  0  0  0
  151.8874  145.2530  158.0960 H   0  0  0  0  0  0  0  0  0  0  0  0
  154.2396  140.4782  159.8570 H   0  0  0  0  0  0  0  0  0  0  0  0
  152.8420  140.4963  160.9526 H   0  0  0  0  0  0  0  0  0  0  0  0
  153.9032  141.9128  160.8463 H   0  0  0  0  0  0  0  0  0  0  0  0
  151.0167  139.0788  157.5857 H   0  0  0  0  0  0  0  0  0  0  0  0
  151.3310  139.1015  159.3167 H   0  0  0  0  0  0  0  0  0  0  0  0
  152.6729  138.9682  158.1768 H   0  0  0  0  0  0  0  0  0  0  0  0
  149.2490  141.5863  156.7132 H   0  0  0  0  0  0  0  0  0  0  0  0
  150.3077  142.4606  155.6441 H   0  0  0  0  0  0  0  0  0  0  0  0
  148.8673  139.5291  156.1510 H   0  0  0  0  0  0  0  0  0  0  0  0
  150.2249  138.1538  154.0346 H   0  0  0  0  0  0  0  0  0  0  0  0
  150.7315  137.5448  155.5923 H   0  0  0  0  0  0  0  0  0  0  0  0
  148.3731  137.0984  156.2401 H   0  0  0  0  0  0  0  0  0  0  0  0
  147.7844  137.6613  154.6955 H   0  0  0  0  0  0  0  0  0  0  0  0
  150.9127  135.8411  154.8977 H   0  0  0  0  0  0  0  0  0  0  0  0
  150.0208  135.0218  156.1648 H   0  0  0  0  0  0  0  0  0  0  0  0
  150.4922  134.0228  153.3055 H   0  0  0  0  0  0  0  0  0  0  0  0
  151.2168  133.3716  154.7521 H   0  0  0  0  0  0  0  0  0  0  0  0
  149.2742  131.9758  153.9746 H   0  0  0  0  0  0  0  0  0  0  0  0
  149.0506  132.5977  155.5896 H   0  0  0  0  0  0  0  0  0  0  0  0
  146.9843  132.9268  154.4527 H   0  0  0  0  0  0  0  0  0  0  0  0
  148.4191  134.3504  152.1672 H   0  0  0  0  0  0  0  0  0  0  0  0
  146.6835  134.1179  152.3288 H   0  0  0  0  0  0  0  0  0  0  0  0
  147.7375  132.7283  152.1117 H   0  0  0  0  0  0  0  0  0  0  0  0
  147.5120  134.7630  155.9134 H   0  0  0  0  0  0  0  0  0  0  0  0
  146.7177  135.4021  154.4969 H   0  0  0  0  0  0  0  0  0  0  0  0
  148.9058  135.9306  153.6212 H   0  0  0  0  0  0  0  0  0  0  0  0
  1  2  1  0  0  0  0
  1 22  1  0  0  0  0
  1 23  1  0  0  0  0
  1 24  1  0  0  0  0
  2  8  1  0  0  0  0
  2  3  2  0  0  0  0
  3  4  1  0  0  0  0
  4  5  1  0  0  0  0
  4  6  1  0  0  0  0
  5 25  1  0  0  0  0
  5 26  1  0  0  0  0
  5 27  1  0  0  0  0
  6  7  1  0  0  0  0
  6  8  2  0  0  0  0
  7 28  1  0  0  0  0
  7 29  1  0  0  0  0
  7 30  1  0  0  0  0
  8  9  1  0  0  0  0
  9 10  1  0  0  0  0
  9 31  1  0  0  0  0
  9 32  1  0  0  0  0
 10 11  2  0  0  0  0
 10 12  1  0  0  0  0
 12 13  1  0  0  0  0
 12 33  1  0  0  0  0
 13 14  1  0  0  0  0
 13 34  1  0  0  0  0
 13 35  1  0  0  0  0
 14 15  1  0  0  0  0
 14 36  1  0  0  0  0
 14 37  1  0  0  0  0
 15 21  1  0  0  0  0
 15 16  1  0  0  0  0
 15 50  1  0  0  0  0
 16 17  1  0  0  0  0
 16 38  1  0  0  0  0
 16 39  1  0  0  0  0
 17 18  1  0  0  0  0
 17 40  1  0  0  0  0
 17 41  1  0  0  0  0
 18 19  1  0  0  0  0
 18 42  1  0  0  0  0
 18 43  1  0  0  0  0
 19 20  1  0  0  0  0
 19 21  1  0  0  0  0
 19 44  1  0  0  0  0
 20 45  1  0  0  0  0
 20 46  1  0  0  0  0
 20 47  1  0  0  0  0
 21 48  1  0  0  0  0
 21 49  1  0  0  0  0
M  CHG  1  15   1
M  END
> <s_m_source_file>
AV-unprocessed.smi

> <i_m_source_file_index>
565

> <i_lp_mmshare_version>
43012

> <i_f3d_flags>
0

> <s_epik_input>
W0NIM11jMW5uKFtDSDNdKWMoW0NIM10pYzFbQ0gyXUMoPU8pW05IXVtDSDJdW0NIMl1OMltDSDJdW0NIMl1bQ0gyXVtDQEBIXShbQ0gzXSlbQ0gyXTI=

> <s_epik_cmdline>
J2VwaWtfcHl0aG9uJywgJy1waCcsICc3LjAnLCAnLXRuJywgJzgnLCAnLW1hJywgJzIwMCcsICctbWV0YWxfYmluZGluZycsICctaW1hZScsICc8aW5maWxlLm1hZT4nLCAnLW9tYWUnLCAnPG91dGZpbGUubWFlPic=

> <r_lp_tautomer_probability>
1

> <r_epik_Ionization_Penalty>
0.00411138

> <r_epik_Ionization_Penalty_Charging>
0.0019503

> <r_epik_Ionization_Penalty_Neutral>
0.00216107

> <r_epik_State_Penalty>
-0

> <r_epik_Charging_Adjusted_Penalty>
0.0019503

> <i_epik_Tot_Q>
1

> <i_epik_Tot_abs_Q>
1

> <r_epik_Metal_State_Penalty>
-0

> <b_epik_Metal_Only>
0

> <s_lp_Force_Field>
OPLS_2005

> <r_lp_Energy>
13.161

> <b_lp_Chiralities_Consistent>
1

> <s_lp_Variant>
AV-unprocessed.smi:565-3

> <Gold.Version>
5.8.1

> <Gold.Id.Protein>
6NUR|6NUR_protein|mol2

> <Gold.PLP.Fitness>
43.4962

> <Gold.PLP.PLP>
-35.3273

> <Gold.PLP.part.hbond>
-2.0000

> <Gold.PLP.part.metal>
0.0000

> <Gold.PLP.part.buried>
-4.3022

> <Gold.PLP.part.nonpolar>
-28.7481

> <Gold.PLP.part.repulsive>
0.0819

> <Gold.PLP.ligand.clash>
0.0000

> <Gold.PLP.ligand.torsion>
0.4209

> <Gold.PLP.Chemscore.Hbond>
2.9920

> <Gold.PLP.Chemscore.CHOScore>
0.0000

> <Gold.PLP.Chemscore.Metal>
0.0000

> <Gold.Chemscore.Hbonds>
donor molecule, donor type, donor heavy atom, donor atom, acceptor molecule, acceptor atom, score
      L1  H    15    50       P1  7948  2.00
      P1  H  7989  7998       L1    11  0.90

> <Gold.PLP.Chemscore.Internal.Correction>
0.0348

> <Gold.Rescore>
     Score         DG    S(hbond)    S(metal)    S(lipo)     H(rot)  DE(clash)    DE(int)     intcor
     17.69     -18.06       1.97        0.00      86.59       1.61       0.03       0.33       ----

> <Gold.Chemscore.Fitness>
17.6945

> <Gold.Chemscore.DG>
-18.0582

> <Gold.Chemscore.ZeroCoef>
-5.4800

> <Gold.Chemscore.Hbond>
1.9700

> <Gold.Chemscore.Metal>
0.0000

> <Gold.Chemscore.Lipo>
86.5874

> <Gold.Chemscore.Internal_Hbond>
0.0000

> <Gold.Chemscore.DEClash>
0.0297

> <Gold.Chemscore.DEInternal>
0.3340

> <Gold.Chemscore.Rot>
1.6142

> <Gold.Chemscore.Internal.Correction>
   9.000000E+99

> <Gold.Chemscore.Hbonds>
donor molecule, donor type, donor heavy atom, donor atom, acceptor molecule, acceptor atom, score
      L1  H    15    50       P1  7948  0.98
      P1  H  7989  7998       L1    11  0.72

> <Gold.Chemscore.Hbond.Weighted>
-6.5799

> <Gold.Chemscore.Metal.Weighted>
-0.0000

> <Gold.Chemscore.Lipo.Weighted>
-10.1307

> <Gold.Chemscore.Internal_Hbond.Weighted>
0.0000

> <Gold.Chemscore.DEClash.Weighted>
0.0297

> <Gold.Chemscore.DEInternal.Weighted>
0.3340

> <Gold.Chemscore.Rot.Weighted>
4.1324

> <Gold.Chemscore.Internal.Correction.Weighted>
   9.000000E+99

> <Gold.Protein.RotatedTorsions>
[ 6907 6896 6895 6894 ] final -155.98 input  -60.11 | X-H torsion
[ 7974 7965 7964 7962 ] final  -60.45 input  175.53 | X-H torsion
[ 8008 7997 7996 7995 ] final  151.00 input   59.86 | X-H torsion
[ 10167 10162 10161 10158 ] final  125.17 input  -65.29 | X-H torsion
[ 10718 10713 10712 10709 ] final   90.82 input   66.30 | X-H torsion
[ 10763 10752 10751 10750 ] final   84.82 input  -60.55 | X-H torsion
[ 11005 11000 10999 10996 ] final  -62.65 input  -57.11 | X-H torsion

> <Gold.Protein.ActiveResidues>
 VAL166  LYS551  ARG553  GLY616  TRP617  ASP618  TYR619  PRO620  LYS621  CYS622 
 ASP623  PHE694  ASN695  SER759  ASP760  ASP761  ALA762  ILE779  LEU786  VAL792 
 PHE793  MET794  SER795  GLU796  ALA797  LYS798  CYS799  TRP800  GLU811  SER814 

> <Gold.Protein.RotatedAtoms>
  151.2807  133.4211  159.2626 H   0  0  0  0  0  0  0  0  0  0  0  0  # atno 6907 bound_to 6896
  151.0363  134.9576  159.8148 H   0  0  0  0  0  0  0  0  0  0  0  0  # atno 6908 bound_to 6896
  152.5356  134.2766  159.9044 H   0  0  0  0  0  0  0  0  0  0  0  0  # atno 6909 bound_to 6896
  145.8154  140.8573  143.0160 H   0  0  0  0  0  0  0  0  0  0  0  0  # atno 7974 bound_to 7965
  156.2692  140.2059  156.6106 H   0  0  0  0  0  0  0  0  0  0  0  0  # atno 8008 bound_to 7997
  154.6834  140.0537  157.0313 H   0  0  0  0  0  0  0  0  0  0  0  0  # atno 8009 bound_to 7997
  155.0968  140.3202  155.4561 H   0  0  0  0  0  0  0  0  0  0  0  0  # atno 8010 bound_to 7997
  139.5701  144.6934  151.3803 H   0  0  0  0  0  0  0  0  0  0  0  0  # atno 10167 bound_to 10162
  157.6959  131.0385  150.3636 H   0  0  0  0  0  0  0  0  0  0  0  0  # atno 10718 bound_to 10713
  153.1417  135.4640  154.9506 H   0  0  0  0  0  0  0  0  0  0  0  0  # atno 10763 bound_to 10752
  154.7753  135.3171  154.8108 H   0  0  0  0  0  0  0  0  0  0  0  0  # atno 10764 bound_to 10752
  153.8629  135.6911  153.4835 H   0  0  0  0  0  0  0  0  0  0  0  0  # atno 10765 bound_to 10752
  141.1367  133.6642  156.5560 H   0  0  0  0  0  0  0  0  0  0  0  0  # atno 11005 bound_to 11000
  144.6753  140.0455  143.7480 LP  0  0  0  0  0  0  0  0  0  0  0  0  # atno 17320 bound_to 7965
  145.9733  139.2886  143.1086 LP  0  0  0  0  0  0  0  0  0  0  0  0  # atno 17321 bound_to 7965
  140.6985  143.7690  150.7364 LP  0  0  0  0  0  0  0  0  0  0  0  0  # atno 17342 bound_to 10162
  140.1194  143.4626  152.2322 LP  0  0  0  0  0  0  0  0  0  0  0  0  # atno 17343 bound_to 10162
  156.4069  130.3926  149.6919 LP  0  0  0  0  0  0  0  0  0  0  0  0  # atno 17370 bound_to 10713
  156.4216  130.7772  151.2789 LP  0  0  0  0  0  0  0  0  0  0  0  0  # atno 17371 bound_to 10713
  140.4026  134.7343  157.4789 LP  0  0  0  0  0  0  0  0  0  0  0  0  # atno 17394 bound_to 11000
  140.0485  134.6165  155.8891 LP  0  0  0  0  0  0  0  0  0  0  0  0  # atno 17395 bound_to 11000

$$$$
