AV-unprocessed.smi:3243|AV-procd|sdf|12394|dock3
  -GOLD-   2272018263D 1   1.00000     0.00000
 Structure written by MMmdl.
 37 38  0  0  0  0  0  0  0  0  1 V2000
  152.0956  140.8106  158.4867 C   0  0  0  0  0  0  0  0  0  0  0  0
  150.9404  141.6444  157.9145 C   0  0  0  0  0  0  0  0  0  0  0  0
  151.0055  141.7976  156.3881 C   0  0  0  0  0  0  0  0  0  0  0  0
  150.8011  142.9638  158.6067 C   0  0  0  0  0  0  0  0  0  0  0  0
  149.7133  143.3324  159.2908 N   0  0  0  0  0  0  0  0  0  0  0  0
  149.8311  144.6094  159.8471 C   0  0  0  0  0  0  0  0  0  0  0  0
  148.7083  145.1792  160.6592 C   0  0  0  0  0  0  0  0  0  0  0  0
  147.4056  144.3808  160.4843 C   0  0  0  0  0  0  0  0  0  0  0  0
  147.0843  144.1718  159.0771 N   0  0  0  0  0  0  0  0  0  0  0  0
  146.5985  143.0336  158.5584 C   0  0  0  0  0  0  0  0  0  0  0  0
  146.3635  142.0332  159.2385 O   0  0  0  0  0  0  0  0  0  0  0  0
  146.3685  143.0886  157.0833 C   0  0  2  0  0  0  0  0  0  0  0  0
  144.9405  142.9668  156.5916 C   0  0  0  0  0  0  0  0  0  0  0  0
  145.9018  141.8202  156.3937 C   0  0  1  0  0  0  0  0  0  0  0  0
  146.4151  141.4655  155.0149 C   0  0  0  0  0  0  0  0  0  0  0  0
  151.0333  145.2110  159.5705 C   0  0  0  0  0  0  0  0  0  0  0  0
  152.0618  144.1924  158.6014 S   0  0  0  0  0  0  0  0  0  0  0  0
  151.9707  140.6513  159.5582 H   0  0  0  0  0  0  0  0  0  0  0  0
  153.0556  141.3043  158.3325 H   0  0  0  0  0  0  0  0  0  0  0  0
  152.1457  139.8309  158.0111 H   0  0  0  0  0  0  0  0  0  0  0  0
  150.0264  141.0888  158.1277 H   0  0  0  0  0  0  0  0  0  0  0  0
  150.1277  142.3218  156.0090 H   0  0  0  0  0  0  0  0  0  0  0  0
  151.0473  140.8252  155.8968 H   0  0  0  0  0  0  0  0  0  0  0  0
  151.8879  142.3614  156.0835 H   0  0  0  0  0  0  0  0  0  0  0  0
  148.9903  145.1972  161.7128 H   0  0  0  0  0  0  0  0  0  0  0  0
  148.5384  146.2195  160.3787 H   0  0  0  0  0  0  0  0  0  0  0  0
  147.5024  143.4027  160.9567 H   0  0  0  0  0  0  0  0  0  0  0  0
  146.5779  144.8863  160.9850 H   0  0  0  0  0  0  0  0  0  0  0  0
  147.2490  144.9469  158.4512 H   0  0  0  0  0  0  0  0  0  0  0  0
  147.0242  143.7467  156.5148 H   0  0  0  0  0  0  0  0  0  0  0  0
  144.1469  142.8323  157.3244 H   0  0  0  0  0  0  0  0  0  0  0  0
  144.6663  143.5649  155.7250 H   0  0  0  0  0  0  0  0  0  0  0  0
  145.7337  140.9483  157.0238 H   0  0  0  0  0  0  0  0  0  0  0  0
  146.5582  142.3624  154.4116 H   0  0  0  0  0  0  0  0  0  0  0  0
  145.7033  140.8150  154.5067 H   0  0  0  0  0  0  0  0  0  0  0  0
  147.3688  140.9441  155.0941 H   0  0  0  0  0  0  0  0  0  0  0  0
  151.3760  146.1874  159.8799 H   0  0  0  0  0  0  0  0  0  0  0  0
  1  2  1  0  0  0  0
  1 18  1  0  0  0  0
  1 19  1  0  0  0  0
  1 20  1  0  0  0  0
  2  3  1  0  0  0  0
  2  4  1  0  0  0  0
  2 21  1  0  0  0  0
  3 22  1  0  0  0  0
  3 23  1  0  0  0  0
  3 24  1  0  0  0  0
  4 17  1  0  0  0  0
  4  5  2  0  0  0  0
  5  6  1  0  0  0  0
  6  7  1  0  0  0  0
  6 16  2  0  0  0  0
  7  8  1  0  0  0  0
  7 25  1  0  0  0  0
  7 26  1  0  0  0  0
  8  9  1  0  0  0  0
  8 27  1  0  0  0  0
  8 28  1  0  0  0  0
  9 10  1  0  0  0  0
  9 29  1  0  0  0  0
 10 11  2  0  0  0  0
 10 12  1  0  0  0  0
 12 14  1  0  0  0  0
 12 13  1  0  0  0  0
 12 30  1  0  0  0  0
 13 14  1  0  0  0  0
 13 31  1  0  0  0  0
 13 32  1  0  0  0  0
 14 15  1  0  0  0  0
 14 33  1  0  0  0  0
 15 34  1  0  0  0  0
 15 35  1  0  0  0  0
 15 36  1  0  0  0  0
 16 17  1  0  0  0  0
 16 37  1  0  0  0  0
M  END
> <s_m_source_file>
AV-unprocessed.smi

> <i_m_source_file_index>
3243

> <i_lp_mmshare_version>
43012

> <i_f3d_flags>
0

> <s_epik_input>
W0NIM11bQ0hdKFtDSDNdKWMxbmMoW2NIXXMxKVtDSDJdW0NIMl1bTkhdQyg9TylbQ0BASF0yW0NIMl1bQ0BIXTJbQ0gzXQ==

> <s_epik_cmdline>
J2VwaWtfcHl0aG9uJywgJy1waCcsICc3LjAnLCAnLXRuJywgJzgnLCAnLW1hJywgJzIwMCcsICctbWV0YWxfYmluZGluZycsICctaW1hZScsICc8aW5maWxlLm1hZT4nLCAnLW9tYWUnLCAnPG91dGZpbGUubWFlPic=

> <r_epik_Ionization_Penalty>
0.00084212

> <r_epik_Ionization_Penalty_Charging>
0

> <r_epik_Ionization_Penalty_Neutral>
0.00084212

> <r_epik_State_Penalty>
0.000542609

> <r_epik_Charging_Adjusted_Penalty>
0.000542609

> <i_epik_Tot_Q>
0

> <i_epik_Tot_abs_Q>
0

> <r_epik_Metal_State_Penalty>
-0

> <b_epik_Metal_Only>
0

> <s_lp_Force_Field>
OPLS_2005

> <r_lp_Energy>
-2.76955

> <b_lp_Chiralities_Consistent>
1

> <s_lp_Variant>
AV-unprocessed.smi:3243-1

> <Gold.Version>
5.8.1

> <Gold.Id.Protein>
6NUR|6NUR_protein|mol2

> <Gold.PLP.Fitness>
39.0627

> <Gold.PLP.PLP>
-33.6937

> <Gold.PLP.part.hbond>
-2.6149

> <Gold.PLP.part.metal>
0.0000

> <Gold.PLP.part.buried>
-6.0939

> <Gold.PLP.part.nonpolar>
-23.8516

> <Gold.PLP.part.repulsive>
0.2090

> <Gold.PLP.ligand.clash>
0.0000

> <Gold.PLP.ligand.torsion>
0.4041

> <Gold.PLP.Chemscore.Hbond>
2.0000

> <Gold.PLP.Chemscore.CHOScore>
0.0000

> <Gold.PLP.Chemscore.Metal>
0.0000

> <Gold.Chemscore.Hbonds>
donor molecule, donor type, donor heavy atom, donor atom, acceptor molecule, acceptor atom, score
      L1  H     9    29       P1  8029  1.00
      P1  H  6934  6946       L1    11  0.99

> <Gold.PLP.Chemscore.Internal.Correction>
0.1771

> <Gold.Rescore>
     Score         DG    S(hbond)    S(metal)    S(lipo)     H(rot)  DE(clash)    DE(int)     intcor
     17.42     -17.99       1.98        0.00      82.77       1.49       0.04       0.53       ----

> <Gold.Chemscore.Fitness>
17.4176

> <Gold.Chemscore.DG>
-17.9864

> <Gold.Chemscore.ZeroCoef>
-5.4800

> <Gold.Chemscore.Hbond>
1.9846

> <Gold.Chemscore.Metal>
0.0000

> <Gold.Chemscore.Lipo>
82.7731

> <Gold.Chemscore.Internal_Hbond>
0.0000

> <Gold.Chemscore.DEClash>
0.0354

> <Gold.Chemscore.DEInternal>
0.5334

> <Gold.Chemscore.Rot>
1.4870

> <Gold.Chemscore.Internal.Correction>
   9.000000E+99

> <Gold.Chemscore.Hbonds>
donor molecule, donor type, donor heavy atom, donor atom, acceptor molecule, acceptor atom, score
      L1  H     9    29       P1  8029  0.99
      P1  H  6934  6946       L1    11  0.92

> <Gold.Chemscore.Hbond.Weighted>
-6.6286

> <Gold.Chemscore.Metal.Weighted>
-0.0000

> <Gold.Chemscore.Lipo.Weighted>
-9.6844

> <Gold.Chemscore.Internal_Hbond.Weighted>
0.0000

> <Gold.Chemscore.DEClash.Weighted>
0.0354

> <Gold.Chemscore.DEInternal.Weighted>
0.5334

> <Gold.Chemscore.Rot.Weighted>
3.8067

> <Gold.Chemscore.Internal.Correction.Weighted>
   9.000000E+99

> <Gold.Protein.RotatedTorsions>
[ 6907 6896 6895 6894 ] final -131.12 input  -60.11 | X-H torsion
[ 7974 7965 7964 7962 ] final  173.35 input  175.53 | X-H torsion
[ 8008 7997 7996 7995 ] final   96.30 input   59.86 | X-H torsion
[ 10167 10162 10161 10158 ] final   -3.43 input  -65.29 | X-H torsion
[ 10718 10713 10712 10709 ] final    4.02 input   66.30 | X-H torsion
[ 10763 10752 10751 10750 ] final   15.92 input  -60.55 | X-H torsion
[ 11005 11000 10999 10996 ] final  -84.98 input  -57.11 | X-H torsion

> <Gold.Protein.ActiveResidues>
 VAL166  LYS551  ARG553  GLY616  TRP617  ASP618  TYR619  PRO620  LYS621  CYS622 
 ASP623  PHE694  ASN695  SER759  ASP760  ASP761  ALA762  ILE779  LEU786  VAL792 
 PHE793  MET794  SER795  GLU796  ALA797  LYS798  CYS799  TRP800  GLU811  SER814 

> <Gold.Protein.RotatedAtoms>
  150.9474  133.6587  159.2778 H   0  0  0  0  0  0  0  0  0  0  0  0  # atno 6907 bound_to 6896
  151.3955  135.0961  159.9549 H   0  0  0  0  0  0  0  0  0  0  0  0  # atno 6908 bound_to 6896
  152.5095  133.8979  159.7481 H   0  0  0  0  0  0  0  0  0  0  0  0  # atno 6909 bound_to 6896
  144.7246  139.9634  143.6435 H   0  0  0  0  0  0  0  0  0  0  0  0  # atno 7974 bound_to 7965
  156.0782  140.3274  155.7660 H   0  0  0  0  0  0  0  0  0  0  0  0  # atno 8008 bound_to 7997
  155.5196  140.0584  157.2926 H   0  0  0  0  0  0  0  0  0  0  0  0  # atno 8009 bound_to 7997
  154.4567  140.1946  156.0377 H   0  0  0  0  0  0  0  0  0  0  0  0  # atno 8010 bound_to 7997
  140.6890  143.6540  150.8325 H   0  0  0  0  0  0  0  0  0  0  0  0  # atno 10167 bound_to 10162
  156.8865  130.5672  149.5651 H   0  0  0  0  0  0  0  0  0  0  0  0  # atno 10718 bound_to 10713
  153.1479  135.6773  153.8926 H   0  0  0  0  0  0  0  0  0  0  0  0  # atno 10763 bound_to 10752
  153.8362  135.3111  155.3424 H   0  0  0  0  0  0  0  0  0  0  0  0  # atno 10764 bound_to 10752
  154.7840  135.4873  153.9990 H   0  0  0  0  0  0  0  0  0  0  0  0  # atno 10765 bound_to 10752
  141.1645  133.7375  156.8948 H   0  0  0  0  0  0  0  0  0  0  0  0  # atno 11005 bound_to 11000
  146.0620  139.3612  143.0576 LP  0  0  0  0  0  0  0  0  0  0  0  0  # atno 17320 bound_to 7965
  145.8081  140.9739  143.0963 LP  0  0  0  0  0  0  0  0  0  0  0  0  # atno 17321 bound_to 7965
  140.0251  143.5502  152.2784 LP  0  0  0  0  0  0  0  0  0  0  0  0  # atno 17342 bound_to 10162
  139.6274  144.7639  151.2609 LP  0  0  0  0  0  0  0  0  0  0  0  0  # atno 17343 bound_to 10162
  156.0651  130.5696  150.9271 LP  0  0  0  0  0  0  0  0  0  0  0  0  # atno 17370 bound_to 10713
  157.6109  131.0936  150.8796 LP  0  0  0  0  0  0  0  0  0  0  0  0  # atno 17371 bound_to 10713
  140.1623  134.9157  157.2731 LP  0  0  0  0  0  0  0  0  0  0  0  0  # atno 17394 bound_to 11000
  140.2596  134.3586  155.7411 LP  0  0  0  0  0  0  0  0  0  0  0  0  # atno 17395 bound_to 11000

$$$$
