AV-unprocessed.smi:149|AV-procd|sdf|1238|dock2
  -GOLD-   2262018453D 1   1.00000     0.00000
 Structure written by MMmdl.
 59 63  0  0  0  0  0  0  0  0  1 V2000
  154.0118  140.2725  160.5681 C   0  0  0  0  0  0  0  0  0  0  0  0
  152.7763  140.3056  159.6503 C   0  0  2  0  0  0  0  0  0  0  0  0
  152.7794  139.1001  158.6927 C   0  0  0  0  0  0  0  0  0  0  0  0
  152.7112  139.6375  157.3468 N   0  0  0  0  0  0  0  0  0  0  0  0
  152.4076  138.8332  156.2925 C   0  0  0  0  0  0  0  0  0  0  0  0
  152.9788  139.0988  155.0869 N   0  0  0  0  0  0  0  0  0  0  0  0
  152.7191  138.3321  154.0249 C   0  0  0  0  0  0  0  0  0  0  0  0
  151.9355  137.2565  153.9456 N   0  0  0  0  0  0  0  0  0  0  0  0
  151.3660  136.9710  155.1510 C   0  0  0  0  0  0  0  0  0  0  0  0
  151.5394  137.7018  156.3627 C   0  0  0  0  0  0  0  0  0  0  0  0
  150.7883  137.1073  157.3718 N   0  0  0  0  0  0  0  0  0  0  0  0
  150.2020  136.0972  156.7907 C   0  0  0  0  0  0  0  0  0  0  0  0
  150.5179  135.9227  155.4633 N   0  0  0  0  0  0  0  0  0  0  0  0
  149.9995  134.9200  154.5793 C   0  0  0  0  0  0  0  0  0  0  0  0
  148.4924  134.7534  154.3584 C   0  0  0  0  0  0  0  0  0  0  0  0
  148.7004  133.2314  154.1755 C   0  0  0  0  0  0  0  0  0  0  0  0
  147.6521  132.2906  154.8023 C   0  0  0  0  0  0  0  0  0  0  0  0
  148.1553  130.9890  155.0281 O   0  0  0  0  0  0  0  0  0  0  0  0
  148.9223  132.7616  152.7253 C   0  0  0  0  0  0  0  0  0  0  0  0
  147.9382  133.2821  151.8549 O   0  0  0  0  0  0  0  0  0  0  0  0
  150.0055  133.4404  154.9768 C   0  0  0  0  0  0  0  0  0  0  0  0
  152.1969  140.9913  157.4160 C   0  0  0  0  0  0  0  0  0  0  0  0
  152.6991  141.5649  158.7494 C   0  0  1  0  0  0  0  0  0  0  0  0
  151.8588  142.6684  159.2448 N   0  0  0  0  0  0  0  0  0  0  0  0
  151.8184  143.7846  158.2976 C   0  0  0  0  0  0  0  0  0  0  0  0
  150.9507  144.9503  158.8023 C   0  0  0  0  0  0  0  0  0  0  0  0
  151.4369  145.3923  160.0637 O   0  0  0  0  0  0  0  0  0  0  0  0
  151.4399  144.3540  161.0359 C   0  0  0  0  0  0  0  0  0  0  0  0
  152.3029  143.1803  160.5407 C   0  0  0  0  0  0  0  0  0  0  0  0
  154.9344  140.3013  159.9872 H   0  0  0  0  0  0  0  0  0  0  0  0
  154.0262  139.3600  161.1647 H   0  0  0  0  0  0  0  0  0  0  0  0
  154.0367  141.1116  161.2608 H   0  0  0  0  0  0  0  0  0  0  0  0
  151.8743  140.2410  160.2607 H   0  0  0  0  0  0  0  0  0  0  0  0
  153.6898  138.5108  158.8048 H   0  0  0  0  0  0  0  0  0  0  0  0
  151.9275  138.4471  158.8879 H   0  0  0  0  0  0  0  0  0  0  0  0
  153.2140  138.6187  153.1086 H   0  0  0  0  0  0  0  0  0  0  0  0
  149.5261  135.4436  157.3229 H   0  0  0  0  0  0  0  0  0  0  0  0
  150.5139  135.0651  153.6278 H   0  0  0  0  0  0  0  0  0  0  0  0
  147.9122  135.0091  155.2466 H   0  0  0  0  0  0  0  0  0  0  0  0
  148.1075  135.2770  153.4828 H   0  0  0  0  0  0  0  0  0  0  0  0
  147.3000  132.6751  155.7598 H   0  0  0  0  0  0  0  0  0  0  0  0
  146.7768  132.2026  154.1578 H   0  0  0  0  0  0  0  0  0  0  0  0
  148.0745  130.7915  155.9488 H   0  0  0  0  0  0  0  0  0  0  0  0
  149.8972  133.0733  152.3500 H   0  0  0  0  0  0  0  0  0  0  0  0
  148.9059  131.6732  152.6591 H   0  0  0  0  0  0  0  0  0  0  0  0
  148.1404  134.1886  151.6807 H   0  0  0  0  0  0  0  0  0  0  0  0
  150.8654  132.8804  154.6077 H   0  0  0  0  0  0  0  0  0  0  0  0
  149.8896  133.3040  156.0531 H   0  0  0  0  0  0  0  0  0  0  0  0
  152.5433  141.5889  156.5720 H   0  0  0  0  0  0  0  0  0  0  0  0
  151.1062  140.9595  157.3917 H   0  0  0  0  0  0  0  0  0  0  0  0
  153.7157  141.9285  158.5891 H   0  0  0  0  0  0  0  0  0  0  0  0
  152.8306  144.1458  158.1092 H   0  0  0  0  0  0  0  0  0  0  0  0
  151.4221  143.4551  157.3373 H   0  0  0  0  0  0  0  0  0  0  0  0
  150.9836  145.7807  158.0972 H   0  0  0  0  0  0  0  0  0  0  0  0
  149.9067  144.6458  158.8912 H   0  0  0  0  0  0  0  0  0  0  0  0
  151.8352  144.7450  161.9734 H   0  0  0  0  0  0  0  0  0  0  0  0
  150.4179  144.0258  161.2311 H   0  0  0  0  0  0  0  0  0  0  0  0
  152.2538  142.3926  161.2910 H   0  0  0  0  0  0  0  0  0  0  0  0
  153.3449  143.4975  160.4776 H   0  0  0  0  0  0  0  0  0  0  0  0
  1  2  1  0  0  0  0
  1 30  1  0  0  0  0
  1 31  1  0  0  0  0
  1 32  1  0  0  0  0
  2 23  1  0  0  0  0
  2  3  1  0  0  0  0
  2 33  1  0  0  0  0
  3  4  1  0  0  0  0
  3 34  1  0  0  0  0
  3 35  1  0  0  0  0
  4  5  1  0  0  0  0
  4 22  1  0  0  0  0
  5 10  1  0  0  0  0
  5  6  2  0  0  0  0
  6  7  1  0  0  0  0
  7  8  2  0  0  0  0
  7 36  1  0  0  0  0
  8  9  1  0  0  0  0
  9 13  1  0  0  0  0
  9 10  2  0  0  0  0
 10 11  1  0  0  0  0
 11 12  2  0  0  0  0
 12 13  1  0  0  0  0
 12 37  1  0  0  0  0
 13 14  1  0  0  0  0
 14 21  1  0  0  0  0
 14 15  1  0  0  0  0
 14 38  1  0  0  0  0
 15 16  1  0  0  0  0
 15 39  1  0  0  0  0
 15 40  1  0  0  0  0
 16 17  1  0  0  0  0
 16 19  1  0  0  0  0
 16 21  1  0  0  0  0
 17 18  1  0  0  0  0
 17 41  1  0  0  0  0
 17 42  1  0  0  0  0
 18 43  1  0  0  0  0
 19 20  1  0  0  0  0
 19 44  1  0  0  0  0
 19 45  1  0  0  0  0
 20 46  1  0  0  0  0
 21 47  1  0  0  0  0
 21 48  1  0  0  0  0
 22 23  1  0  0  0  0
 22 49  1  0  0  0  0
 22 50  1  0  0  0  0
 23 24  1  0  0  0  0
 23 51  1  0  0  0  0
 24 29  1  0  0  0  0
 24 25  1  0  0  0  0
 25 26  1  0  0  0  0
 25 52  1  0  0  0  0
 25 53  1  0  0  0  0
 26 27  1  0  0  0  0
 26 54  1  0  0  0  0
 26 55  1  0  0  0  0
 27 28  1  0  0  0  0
 28 29  1  0  0  0  0
 28 56  1  0  0  0  0
 28 57  1  0  0  0  0
 29 58  1  0  0  0  0
 29 59  1  0  0  0  0
M  END
> <s_m_source_file>
AV-unprocessed.smi

> <i_m_source_file_index>
149

> <i_lp_mmshare_version>
43012

> <i_f3d_flags>
0

> <s_epik_input>
W0NIMl0xW0NIMl1PW0NIMl1bQ0gyXU4xW0NAQEhdMltDSDJdTihbQ0gyXVtDQEhdMltDSDNdKWMobltjSF1uMyljKGMzNCluW2NIXW40W0NIXShbQ0gyXTUpW0NIMl1DNShbQ0gyXVtPSF0pW0NIMl1bT0hd

> <s_epik_cmdline>
J2VwaWtfcHl0aG9uJywgJy1waCcsICc3LjAnLCAnLXRuJywgJzgnLCAnLW1hJywgJzIwMCcsICctbWV0YWxfYmluZGluZycsICctaW1hZScsICc8aW5maWxlLm1hZT4nLCAnLW9tYWUnLCAnPG91dGZpbGUubWFlPic=

> <r_lp_tautomer_probability>
1

> <r_epik_Ionization_Penalty>
0.41918

> <r_epik_Ionization_Penalty_Charging>
0

> <r_epik_Ionization_Penalty_Neutral>
0.41918

> <r_epik_State_Penalty>
0.654916

> <r_epik_Charging_Adjusted_Penalty>
0.654916

> <i_epik_Tot_Q>
0

> <i_epik_Tot_abs_Q>
0

> <r_epik_Metal_State_Penalty>
0.653217

> <b_epik_Metal_Only>
0

> <s_lp_Force_Field>
OPLS_2005

> <r_lp_Energy>
75.7626

> <b_lp_Chiralities_Consistent>
1

> <s_lp_Variant>
AV-unprocessed.smi:149-5

> <Gold.Version>
5.8.1

> <Gold.Id.Protein>
6NUR|6NUR_protein|mol2

> <Gold.PLP.Fitness>
54.1720

> <Gold.PLP.PLP>
-46.5016

> <Gold.PLP.part.hbond>
-4.0142

> <Gold.PLP.part.metal>
0.0000

> <Gold.PLP.part.buried>
-6.1935

> <Gold.PLP.part.nonpolar>
-35.7171

> <Gold.PLP.part.repulsive>
0.3607

> <Gold.PLP.ligand.clash>
0.0000

> <Gold.PLP.ligand.torsion>
1.1350

> <Gold.PLP.Chemscore.Hbond>
2.9920

> <Gold.PLP.Chemscore.CHOScore>
0.0000

> <Gold.PLP.Chemscore.Metal>
0.0000

> <Gold.Chemscore.Hbonds>
donor molecule, donor type, donor heavy atom, donor atom, acceptor molecule, acceptor atom, score
      L1  H    20    46       P1  7948  0.22
      P1  H  7997  8010       L1     6  0.75
      P1  H 10752 10765       L1     8  0.35

> <Gold.PLP.Chemscore.Internal.Correction>
0.9645

> <Gold.Rescore>
     Score         DG    S(hbond)    S(metal)    S(lipo)     H(rot)  DE(clash)    DE(int)     intcor
     12.87     -15.13       1.28        0.00     119.14       3.34       1.29       0.97       ----

> <Gold.Chemscore.Fitness>
12.8690

> <Gold.Chemscore.DG>
-15.1334

> <Gold.Chemscore.ZeroCoef>
-5.4800

> <Gold.Chemscore.Hbond>
1.2782

> <Gold.Chemscore.Metal>
0.0000

> <Gold.Chemscore.Lipo>
119.1351

> <Gold.Chemscore.Internal_Hbond>
0.0000

> <Gold.Chemscore.DEClash>
1.2930

> <Gold.Chemscore.DEInternal>
0.9714

> <Gold.Chemscore.Rot>
3.3416

> <Gold.Chemscore.Internal.Correction>
   9.000000E+99

> <Gold.Chemscore.Hbonds>
donor molecule, donor type, donor heavy atom, donor atom, acceptor molecule, acceptor atom, score
      P1  H  7997  8010       L1     6  0.09
      P1  H 10752 10765       L1     8  0.01

> <Gold.Chemscore.Hbond.Weighted>
-4.2690

> <Gold.Chemscore.Metal.Weighted>
-0.0000

> <Gold.Chemscore.Lipo.Weighted>
-13.9388

> <Gold.Chemscore.Internal_Hbond.Weighted>
0.0000

> <Gold.Chemscore.DEClash.Weighted>
1.2930

> <Gold.Chemscore.DEInternal.Weighted>
0.9714

> <Gold.Chemscore.Rot.Weighted>
8.5545

> <Gold.Chemscore.Internal.Correction.Weighted>
   9.000000E+99

> <Gold.Protein.RotatedTorsions>
[ 6907 6896 6895 6894 ] final  -12.80 input  -60.11 | X-H torsion
[ 7974 7965 7964 7962 ] final -111.70 input  175.53 | X-H torsion
[ 8008 7997 7996 7995 ] final  108.42 input   59.86 | X-H torsion
[ 10167 10162 10161 10158 ] final  -32.84 input  -65.29 | X-H torsion
[ 10718 10713 10712 10709 ] final   33.57 input   66.30 | X-H torsion
[ 10763 10752 10751 10750 ] final  156.50 input  -60.55 | X-H torsion
[ 11005 11000 10999 10996 ] final  128.19 input  -57.11 | X-H torsion

> <Gold.Protein.ActiveResidues>
 VAL166  LYS551  ARG553  GLY616  TRP617  ASP618  TYR619  PRO620  LYS621  CYS622 
 ASP623  PHE694  ASN695  SER759  ASP760  ASP761  ALA762  ILE779  LEU786  VAL792 
 PHE793  MET794  SER795  GLU796  ALA797  LYS798  CYS799  TRP800  GLU811  SER814 

> <Gold.Protein.RotatedAtoms>
  151.3649  135.0911  159.9446 H   0  0  0  0  0  0  0  0  0  0  0  0  # atno 6907 bound_to 6896
  152.5151  133.9221  159.7550 H   0  0  0  0  0  0  0  0  0  0  0  0  # atno 6908 bound_to 6896
  150.9623  133.6377  159.2781 H   0  0  0  0  0  0  0  0  0  0  0  0  # atno 6909 bound_to 6896
  145.1529  140.8838  143.3636 H   0  0  0  0  0  0  0  0  0  0  0  0  # atno 7974 bound_to 7965
  156.1902  140.3076  155.9317 H   0  0  0  0  0  0  0  0  0  0  0  0  # atno 8008 bound_to 7997
  155.3191  140.0455  157.3055 H   0  0  0  0  0  0  0  0  0  0  0  0  # atno 8009 bound_to 7997
  154.5443  140.2271  155.8599 H   0  0  0  0  0  0  0  0  0  0  0  0  # atno 8010 bound_to 7997
  140.7214  143.3665  151.1861 H   0  0  0  0  0  0  0  0  0  0  0  0  # atno 10167 bound_to 10162
  157.2996  130.7344  149.6658 H   0  0  0  0  0  0  0  0  0  0  0  0  # atno 10718 bound_to 10713
  154.1854  135.2797  155.3039 H   0  0  0  0  0  0  0  0  0  0  0  0  # atno 10763 bound_to 10752
  154.5970  135.5541  153.7339 H   0  0  0  0  0  0  0  0  0  0  0  0  # atno 10764 bound_to 10752
  153.0127  135.6382  154.1992 H   0  0  0  0  0  0  0  0  0  0  0  0  # atno 10765 bound_to 10752
  139.9547  134.9615  156.8965 H   0  0  0  0  0  0  0  0  0  0  0  0  # atno 11005 bound_to 11000
  145.0411  139.3259  143.5976 LP  0  0  0  0  0  0  0  0  0  0  0  0  # atno 17320 bound_to 7965
  146.3492  139.9785  142.8698 LP  0  0  0  0  0  0  0  0  0  0  0  0  # atno 17321 bound_to 7965
  139.7227  143.9197  152.2991 LP  0  0  0  0  0  0  0  0  0  0  0  0  # atno 17342 bound_to 10162
  139.8959  144.6939  150.8718 LP  0  0  0  0  0  0  0  0  0  0  0  0  # atno 17343 bound_to 10162
  155.9671  130.4284  150.4787 LP  0  0  0  0  0  0  0  0  0  0  0  0  # atno 17370 bound_to 10713
  157.2765  131.0598  151.2226 LP  0  0  0  0  0  0  0  0  0  0  0  0  # atno 17371 bound_to 10713
  140.5637  134.0510  155.7407 LP  0  0  0  0  0  0  0  0  0  0  0  0  # atno 17394 bound_to 11000
  141.1216  133.9451  157.2717 LP  0  0  0  0  0  0  0  0  0  0  0  0  # atno 17395 bound_to 11000

$$$$
