AV-unprocessed.smi:859|AV-procd|sdf|3964|dock8
  -GOLD-   22720 1433D 1   1.00000     0.00000
 Structure written by MMmdl.
 35 36  0  0  0  0  0  0  0  0  1 V2000
  149.1981  141.9659  157.6784 O   0  0  0  0  0  0  0  0  0  0  0  0
  150.3163  142.2064  157.2220 C   0  0  0  0  0  0  0  0  0  0  0  0
  150.6583  141.9648  155.9467 N   0  0  0  0  0  0  0  0  0  0  0  0
  149.8002  141.3302  154.9501 C   0  0  0  0  0  0  0  0  0  0  0  0
  149.7869  139.7974  155.1000 C   0  0  0  0  0  0  0  0  0  0  0  0
  151.0670  139.1928  154.7786 N   0  0  0  0  0  0  0  0  0  0  0  0
  152.3117  139.5476  155.2824 C   0  0  0  0  0  0  0  0  0  0  0  0
  153.2264  138.6951  154.7068 C   0  0  0  0  0  0  0  0  0  0  0  0
  152.5721  137.8186  153.8444 N   0  0  0  0  0  0  0  0  0  0  0  0
  151.2973  138.1740  153.9390 C   0  0  0  0  0  0  0  0  0  0  0  0
  151.4118  142.7845  158.1271 C   0  0  0  0  0  0  0  0  0  0  0  0
  151.8203  141.7577  159.2056 C   0  0  0  0  0  0  0  0  0  0  0  0
  152.9032  142.3231  160.1387 C   0  0  0  0  0  0  0  0  0  0  0  0
  152.4473  143.6405  160.7854 C   0  0  0  0  0  0  0  0  0  0  0  0
  152.0355  144.6692  159.7205 C   0  0  0  0  0  0  0  0  0  0  0  0
  150.9523  144.1022  158.7877 C   0  0  0  0  0  0  0  0  0  0  0  0
  151.5968  142.1990  155.6568 H   0  0  0  0  0  0  0  0  0  0  0  0
  148.7850  141.7292  154.9876 H   0  0  0  0  0  0  0  0  0  0  0  0
  150.1899  141.5910  153.9661 H   0  0  0  0  0  0  0  0  0  0  0  0
  149.5330  139.5277  156.1257 H   0  0  0  0  0  0  0  0  0  0  0  0
  149.0188  139.3581  154.4623 H   0  0  0  0  0  0  0  0  0  0  0  0
  152.4388  140.3490  155.9951 H   0  0  0  0  0  0  0  0  0  0  0  0
  154.2963  138.6459  154.8454 H   0  0  0  0  0  0  0  0  0  0  0  0
  150.5114  137.6778  153.3887 H   0  0  0  0  0  0  0  0  0  0  0  0
  152.2881  143.0001  157.5131 H   0  0  0  0  0  0  0  0  0  0  0  0
  150.9514  141.4689  159.7994 H   0  0  0  0  0  0  0  0  0  0  0  0
  152.1866  140.8441  158.7349 H   0  0  0  0  0  0  0  0  0  0  0  0
  153.1443  141.5934  160.9124 H   0  0  0  0  0  0  0  0  0  0  0  0
  153.8218  142.4910  159.5751 H   0  0  0  0  0  0  0  0  0  0  0  0
  151.6054  143.4477  161.4514 H   0  0  0  0  0  0  0  0  0  0  0  0
  153.2464  144.0466  161.4062 H   0  0  0  0  0  0  0  0  0  0  0  0
  151.6716  145.5769  160.2027 H   0  0  0  0  0  0  0  0  0  0  0  0
  152.9088  144.9588  159.1346 H   0  0  0  0  0  0  0  0  0  0  0  0
  150.7074  144.8406  158.0231 H   0  0  0  0  0  0  0  0  0  0  0  0
  150.0389  143.9377  159.3616 H   0  0  0  0  0  0  0  0  0  0  0  0
  1  2  2  0  0  0  0
  2  3  1  0  0  0  0
  2 11  1  0  0  0  0
  3  4  1  0  0  0  0
  3 17  1  0  0  0  0
  4  5  1  0  0  0  0
  4 18  1  0  0  0  0
  4 19  1  0  0  0  0
  5  6  1  0  0  0  0
  5 20  1  0  0  0  0
  5 21  1  0  0  0  0
  6 10  1  0  0  0  0
  6  7  1  0  0  0  0
  7  8  2  0  0  0  0
  7 22  1  0  0  0  0
  8  9  1  0  0  0  0
  8 23  1  0  0  0  0
  9 10  2  0  0  0  0
 10 24  1  0  0  0  0
 11 16  1  0  0  0  0
 11 12  1  0  0  0  0
 11 25  1  0  0  0  0
 12 13  1  0  0  0  0
 12 26  1  0  0  0  0
 12 27  1  0  0  0  0
 13 14  1  0  0  0  0
 13 28  1  0  0  0  0
 13 29  1  0  0  0  0
 14 15  1  0  0  0  0
 14 30  1  0  0  0  0
 14 31  1  0  0  0  0
 15 16  1  0  0  0  0
 15 32  1  0  0  0  0
 15 33  1  0  0  0  0
 16 34  1  0  0  0  0
 16 35  1  0  0  0  0
M  END
> <s_m_source_file>
AV-unprocessed.smi

> <i_m_source_file_index>
859

> <i_lp_mmshare_version>
43012

> <i_f3d_flags>
0

> <s_epik_input>
W0NIMl0xW0NIMl1bQ0gyXVtDSDJdW0NIMl1bQ0hdMUMoPU8pW05IXVtDSDJdW0NIMl1uMltjSF1bY0hdbltjSF0y

> <s_epik_cmdline>
J2VwaWtfcHl0aG9uJywgJy1waCcsICc3LjAnLCAnLXRuJywgJzgnLCAnLW1hJywgJzIwMCcsICctbWV0YWxfYmluZGluZycsICctaW1hZScsICc8aW5maWxlLm1hZT4nLCAnLW9tYWUnLCAnPG91dGZpbGUubWFlPic=

> <r_lp_tautomer_probability>
1

> <r_epik_Ionization_Penalty>
0.600603

> <r_epik_Ionization_Penalty_Charging>
0.600603

> <r_epik_Ionization_Penalty_Neutral>
2.01201e-08

> <r_epik_State_Penalty>
0.614954

> <r_epik_Charging_Adjusted_Penalty>
1.21556

> <i_epik_Tot_Q>
0

> <i_epik_Tot_abs_Q>
0

> <r_epik_Metal_State_Penalty>
0.301281

> <b_epik_Metal_Only>
0

> <s_lp_Force_Field>
OPLS_2005

> <r_lp_Energy>
12.3333

> <b_lp_Chiralities_Consistent>
1

> <s_lp_Variant>
AV-unprocessed.smi:859-2

> <Gold.Version>
5.8.1

> <Gold.Id.Protein>
6NUR|6NUR_protein|mol2

> <Gold.PLP.Fitness>
44.1765

> <Gold.PLP.PLP>
-39.2281

> <Gold.PLP.part.hbond>
-1.0000

> <Gold.PLP.part.metal>
0.0000

> <Gold.PLP.part.buried>
-3.6474

> <Gold.PLP.part.nonpolar>
-34.7898

> <Gold.PLP.part.repulsive>
0.4241

> <Gold.PLP.ligand.clash>
0.0000

> <Gold.PLP.ligand.torsion>
0.2944

> <Gold.PLP.Chemscore.Hbond>
0.7680

> <Gold.PLP.Chemscore.CHOScore>
1.0719

> <Gold.PLP.Chemscore.Metal>
0.0000

> <Gold.Chemscore.Hbonds>
donor molecule, donor type, donor heavy atom, donor atom, acceptor molecule, acceptor atom, score
      P1  H 10752 10763       L1     9  0.47
      L1  C    10    24       P1  7948  0.64
      L1  C    10    24       P1  7949  0.34

> <Gold.PLP.Chemscore.Internal.Correction>
0.0176

> <Gold.Rescore>
     Score         DG    S(hbond)    S(metal)    S(lipo)     H(rot)  DE(clash)    DE(int)     intcor
     13.78     -14.38       0.63        0.00      97.18       1.79       0.33       0.27       ----

> <Gold.Chemscore.Fitness>
13.7755

> <Gold.Chemscore.DG>
-14.3767

> <Gold.Chemscore.ZeroCoef>
-5.4800

> <Gold.Chemscore.Hbond>
0.6294

> <Gold.Chemscore.Metal>
0.0000

> <Gold.Chemscore.Lipo>
97.1772

> <Gold.Chemscore.Internal_Hbond>
0.0000

> <Gold.Chemscore.DEClash>
0.3323

> <Gold.Chemscore.DEInternal>
0.2690

> <Gold.Chemscore.Rot>
1.7872

> <Gold.Chemscore.Internal.Correction>
   9.000000E+99

> <Gold.Chemscore.Hbonds>
donor molecule, donor type, donor heavy atom, donor atom, acceptor molecule, acceptor atom, score
      P1  H 10752 10763       L1     9  0.41

> <Gold.Chemscore.Hbond.Weighted>
-2.1021

> <Gold.Chemscore.Metal.Weighted>
-0.0000

> <Gold.Chemscore.Lipo.Weighted>
-11.3697

> <Gold.Chemscore.Internal_Hbond.Weighted>
0.0000

> <Gold.Chemscore.DEClash.Weighted>
0.3323

> <Gold.Chemscore.DEInternal.Weighted>
0.2690

> <Gold.Chemscore.Rot.Weighted>
4.5751

> <Gold.Chemscore.Internal.Correction.Weighted>
   9.000000E+99

> <Gold.Protein.RotatedTorsions>
[ 6907 6896 6895 6894 ] final   49.75 input  -60.11 | X-H torsion
[ 7974 7965 7964 7962 ] final   58.72 input  175.53 | X-H torsion
[ 8008 7997 7996 7995 ] final   61.91 input   59.86 | X-H torsion
[ 10167 10162 10161 10158 ] final  -54.54 input  -65.29 | X-H torsion
[ 10718 10713 10712 10709 ] final  -44.60 input   66.30 | X-H torsion
[ 10763 10752 10751 10750 ] final   24.32 input  -60.55 | X-H torsion
[ 11005 11000 10999 10996 ] final   99.85 input  -57.11 | X-H torsion

> <Gold.Protein.ActiveResidues>
 VAL166  LYS551  ARG553  GLY616  TRP617  ASP618  TYR619  PRO620  LYS621  CYS622 
 ASP623  PHE694  ASN695  SER759  ASP760  ASP761  ALA762  ILE779  LEU786  VAL792 
 PHE793  MET794  SER795  GLU796  ALA797  LYS798  CYS799  TRP800  GLU811  SER814 

> <Gold.Protein.RotatedAtoms>
  152.2942  134.7686  160.0371 H   0  0  0  0  0  0  0  0  0  0  0  0  # atno 6907 bound_to 6896
  151.8221  133.3391  159.3595 H   0  0  0  0  0  0  0  0  0  0  0  0  # atno 6908 bound_to 6896
  150.7244  134.5493  159.5831 H   0  0  0  0  0  0  0  0  0  0  0  0  # atno 6909 bound_to 6896
  145.9151  139.3684  143.0512 H   0  0  0  0  0  0  0  0  0  0  0  0  # atno 7974 bound_to 7965
  155.6059  140.3494  155.4607 H   0  0  0  0  0  0  0  0  0  0  0  0  # atno 8008 bound_to 7997
  156.0192  140.1250  157.0399 H   0  0  0  0  0  0  0  0  0  0  0  0  # atno 8009 bound_to 7997
  154.4309  140.1066  156.5926 H   0  0  0  0  0  0  0  0  0  0  0  0  # atno 8010 bound_to 7997
  140.6425  143.2516  151.4950 H   0  0  0  0  0  0  0  0  0  0  0  0  # atno 10167 bound_to 10162
  156.2369  130.4177  149.8807 H   0  0  0  0  0  0  0  0  0  0  0  0  # atno 10718 bound_to 10713
  153.0772  135.6608  154.0120 H   0  0  0  0  0  0  0  0  0  0  0  0  # atno 10763 bound_to 10752
  153.9751  135.2960  155.3426 H   0  0  0  0  0  0  0  0  0  0  0  0  # atno 10764 bound_to 10752
  154.7164  135.5183  153.8814 H   0  0  0  0  0  0  0  0  0  0  0  0  # atno 10765 bound_to 10752
  139.8770  134.9114  156.4668 H   0  0  0  0  0  0  0  0  0  0  0  0  # atno 11005 bound_to 11000
  145.8622  140.9468  143.0694 LP  0  0  0  0  0  0  0  0  0  0  0  0  # atno 17320 bound_to 7965
  144.6747  140.0546  143.7478 LP  0  0  0  0  0  0  0  0  0  0  0  0  # atno 17321 bound_to 7965
  139.5634  144.2100  152.1728 LP  0  0  0  0  0  0  0  0  0  0  0  0  # atno 17342 bound_to 10162
  140.1375  144.5232  150.6764 LP  0  0  0  0  0  0  0  0  0  0  0  0  # atno 17343 bound_to 10162
  156.6402  130.8702  151.3512 LP  0  0  0  0  0  0  0  0  0  0  0  0  # atno 17370 bound_to 10713
  157.7158  130.9495  150.1251 LP  0  0  0  0  0  0  0  0  0  0  0  0  # atno 17371 bound_to 10713
  140.8824  133.7908  155.9481 LP  0  0  0  0  0  0  0  0  0  0  0  0  # atno 17394 bound_to 11000
  140.8840  134.2577  157.5129 LP  0  0  0  0  0  0  0  0  0  0  0  0  # atno 17395 bound_to 11000

$$$$
