#       Name:                AV-unprocessed.smi:2424
#       Creating user name   scv26
#       Creation time:       Fri Mar 27 13:19:38 2020


#       File generated by GOLD software.
#

@<TRIPOS>MOLECULE
AV-unprocessed.smi:2424
    56    57     1
SMALL
NO_CHARGES


@<TRIPOS>ATOM
      1 ****        -3.0381   1.0807  -1.3413 C.3            1 S1                 0.0000
      2 ****        -2.2323  -0.1804  -1.6975 C.3            1 S1                 0.0000
      3 ****        -1.7300  -1.0487  -0.5181 C.3            1 S1                 0.0000
      4 ****        -0.6578  -2.0179  -1.0940 C.3            1 S1                 0.0000
      5 ****        -1.0965  -2.8971  -2.2805 C.3            1 S1                 0.0000
      6 ****        -1.3280  -0.2998   0.7897 C.3            1 S1                 0.0000
      7 ****         0.1083  -0.1559   1.0039 N.am           1 S1                 0.0000
      8 ****         0.8586   0.8219   0.4789 C.2            1 S1                 0.0000
      9 ****         0.3982   1.7099  -0.2372 O.2            1 S1                 0.0000
     10 ****         2.1479   0.6790   0.8357 N.am           1 S1                 0.0000
     11 ****         3.2548   1.4712   0.5004 C.2            1 S1                 0.0000
     12 ****         4.4600   1.0837   0.9527 C.2            1 S1                 0.0000
     13 ****         5.6191   1.8082   0.6656 N.am           1 S1                 0.0000
     14 ****         5.6444   2.9396  -0.0746 C.2            1 S1                 0.0000
     15 ****         6.7069   3.5210  -0.2877 O.2            1 S1                 0.0000
     16 ****         4.3389   3.3940  -0.5804 C.2            1 S1                 0.0000
     17 ****         4.2991   4.6641  -1.4116 C.3            1 S1                 0.0000
     18 ****         3.2168   2.6906  -0.3009 C.2            1 S1                 0.0000
     19 ****        -1.9321  -1.4380   1.6178 C.3            1 S1                 0.0000
     20 ****        -2.5629  -1.1049   2.9640 C.3            1 S1                 0.0000
     21 ****        -2.8237  -1.6821   0.3894 C.3            1 S1                 0.0000
     22 ****        -3.0751  -3.0501   0.1074 O.3            1 S1                 0.0000
     23 ****        -4.0741  -3.6240   0.9316 C.3            1 S1                 0.0000
     24 ****         6.4874   1.4525   1.0386 H              1 S1                 0.0000
     25 ****        -3.4178   1.5532  -2.2474 H              1 S1                 0.0000
     26 ****        -2.4225   1.8232  -0.8343 H              1 S1                 0.0000
     27 ****        -3.8974   0.8577  -0.7103 H              1 S1                 0.0000
     28 ****        -2.8631  -0.7873  -2.3473 H              1 S1                 0.0000
     29 ****        -1.3896   0.1352  -2.3143 H              1 S1                 0.0000
     30 ****         0.2183  -1.4524  -1.4128 H              1 S1                 0.0000
     31 ****        -0.2931  -2.6836  -0.3119 H              1 S1                 0.0000
     32 ****        -0.3037  -3.5976  -2.5433 H              1 S1                 0.0000
     33 ****        -1.3016  -2.3046  -3.1717 H              1 S1                 0.0000
     34 ****        -1.9852  -3.4851  -2.0577 H              1 S1                 0.0000
     35 ****        -1.8822   0.6226   0.9686 H              1 S1                 0.0000
     36 ****         0.5579  -0.8512   1.5814 H              1 S1                 0.0000
     37 ****         2.3607  -0.1138   1.4231 H              1 S1                 0.0000
     38 ****         4.6315   0.2037   1.5554 H              1 S1                 0.0000
     39 ****         3.2839   4.9004  -1.7311 H              1 S1                 0.0000
     40 ****         4.9158   4.5544  -2.3042 H              1 S1                 0.0000
     41 ****         4.6761   5.5093  -0.8349 H              1 S1                 0.0000
     42 ****         2.2864   3.0691  -0.6906 H              1 S1                 0.0000
     43 ****        -1.2154  -2.2546   1.7213 H              1 S1                 0.0000
     44 ****        -3.3485  -0.3558   2.8616 H              1 S1                 0.0000
     45 ****        -1.8201  -0.7092   3.6566 H              1 S1                 0.0000
     46 ****        -3.0051  -1.9856   3.4282 H              1 S1                 0.0000
     47 ****        -3.7400  -1.0895   0.4162 H              1 S1                 0.0000
     48 ****        -4.2578  -4.6510   0.6167 H              1 S1                 0.0000
     49 ****        -5.0143  -3.0765   0.8561 H              1 S1                 0.0000
     50 ****        -3.7631  -3.6484   1.9753 H              1 S1                 0.0000
     51 ****        -0.5785   1.7235  -0.4514 LP             1 S1                 0.0000
     52 ****         1.0006   2.4182  -0.6052 LP             1 S1                 0.0000
     53 ****         7.5597   3.1575   0.0873 LP             1 S1                 0.0000
     54 ****         6.7181   4.3572  -0.8360 LP             1 S1                 0.0000
     55 ****        -2.2255  -3.5612   0.2377 LP             1 S1                 0.0000
     56 ****        -3.3681  -3.1279  -0.8455 LP             1 S1                 0.0000
@<TRIPOS>BOND
    1    1    2 1     
    2    1   25 1     
    3    1   26 1     
    4    1   27 1     
    5    2    3 1     
    6    2   28 1     
    7    2   29 1     
    8    3   21 1     
    9    3    4 1     
   10    3    6 1     
   11    4    5 1     
   12    4   30 1     
   13    4   31 1     
   14    5   32 1     
   15    5   33 1     
   16    5   34 1     
   17    6    7 1     
   18    6   19 1     
   19    6   35 1     
   20    7    8 am    
   21    7   36 1     
   22    8    9 2     
   23    8   10 am    
   24   10   11 1     
   25   10   37 1     
   26   11   18 1     
   27   11   12 2     
   28   12   13 1     
   29   12   38 1     
   30   13   24 1     
   31   13   14 am    
   32   14   15 2     
   33   14   16 1     
   34   16   17 1     
   35   16   18 2     
   36   17   39 1     
   37   17   40 1     
   38   17   41 1     
   39   18   42 1     
   40   19   20 1     
   41   19   21 1     
   42   19   43 1     
   43   20   44 1     
   44   20   45 1     
   45   20   46 1     
   46   21   22 1     
   47   21   47 1     
   48   22   23 1     
   49   23   48 1     
   50   23   49 1     
   51   23   50 1     
   52    9   51 1     
   53    9   52 1     
   54   15   53 1     
   55   15   54 1     
   56   22   55 1     
   57   22   56 1     
@<TRIPOS>SUBSTRUCTURE
      1 S1             1
@<TRIPOS>SET
LONE_PAIRS      STATIC     ATOMS    <user>   **** ""
6 51 52 53 54 55 56
DONOR_HYDROGENS      STATIC     ATOMS    <user>   **** ""
3 36 37 24
ATOM$BLUE        STATIC     ATOMS    COLORGROUP SYSTEM
6 51 52 53 54 55 56
ATOM$RED        STATIC     ATOMS    COLORGROUP SYSTEM
3 36 37 24
