#       Name:                AV-unprocessed.smi:100
#       Creating user name   scv26
#       Creation time:       Thu Mar 26 17:41:07 2020


#       File generated by GOLD software.
#

@<TRIPOS>MOLECULE
AV-unprocessed.smi:100
    40    42     1
SMALL
NO_CHARGES


@<TRIPOS>ATOM
      1 ****        -5.0138   0.2783  -0.5413 N.pl3          1 S1                 0.0000
      2 ****        -3.7211   0.5945  -0.7013 C.ar           1 S1                 0.0000
      3 ****        -3.4032   1.8822  -0.9684 N.ar           1 S1                 0.0000
      4 ****        -2.1218   2.2208  -1.1400 C.ar           1 S1                 0.0000
      5 ****        -1.0378   1.4430  -1.0826 N.ar           1 S1                 0.0000
      6 ****        -1.3557   0.1432  -0.8045 C.ar           1 S1                 0.0000
      7 ****        -2.6739  -0.3573  -0.6085 C.ar           1 S1                 0.0000
      8 ****        -2.6326  -1.7229  -0.3691 N.2            1 S1                 0.0000
      9 ****        -1.3609  -2.0111  -0.4276 C.2            1 S1                 0.0000
     10 ****        -0.5135  -0.9454  -0.6535 N.pl3          1 S1                 0.0000
     11 ****         0.9843  -0.9908  -0.8025 C.3            1 S1                 0.0000
     12 ****         1.4975   0.3041  -0.7152 O.3            1 S1                 0.0000
     13 ****         1.8320   0.5785   0.6369 C.3            1 S1                 0.0000
     14 ****         2.7450   1.8110   0.7125 C.3            1 S1                 0.0000
     15 ****         3.0013   2.1564   2.0570 O.3            1 S1                 0.0000
     16 ****         2.4864  -0.7373   1.0514 C.3            1 S1                 0.0000
     17 ****         2.4895  -0.9024   2.3747 F              1 S1                 0.0000
     18 ****         1.6174  -1.7828   0.3638 C.3            1 S1                 0.0000
     19 ****         2.4042  -2.8689  -0.0807 O.3            1 S1                 0.0000
     20 ****        -5.2769  -0.6767  -0.3448 H              1 S1                 0.0000
     21 ****        -5.7214   0.9943  -0.6195 H              1 S1                 0.0000
     22 ****        -1.9380   3.2634  -1.3534 H              1 S1                 0.0000
     23 ****        -1.0022  -3.0226  -0.3027 H              1 S1                 0.0000
     24 ****         1.1430  -1.4200  -1.7927 H              1 S1                 0.0000
     25 ****         0.9117   0.7470   1.2000 H              1 S1                 0.0000
     26 ****         3.6877   1.6330   0.1945 H              1 S1                 0.0000
     27 ****         2.2648   2.6602   0.2257 H              1 S1                 0.0000
     28 ****         3.5446   2.9295   2.0703 H              1 S1                 0.0000
     29 ****         3.5183  -0.7794   0.6989 H              1 S1                 0.0000
     30 ****         0.8489  -2.1409   1.0496 H              1 S1                 0.0000
     31 ****         2.7965  -3.2815   0.6737 H              1 S1                 0.0000
     32 ****        -4.1212   2.5749  -1.0369 LP             1 S1                 0.0000
     33 ****        -0.1046   1.7724  -1.2261 LP             1 S1                 0.0000
     34 ****        -3.3980  -2.3418  -0.1929 LP             1 S1                 0.0000
     35 ****         0.8105   0.9590  -1.0302 LP             1 S1                 0.0000
     36 ****         2.3158   0.3796  -1.2850 LP             1 S1                 0.0000
     37 ****         3.4749   1.4036   2.5141 LP             1 S1                 0.0000
     38 ****         2.1388   2.3423   2.5276 LP             1 S1                 0.0000
     39 ****         3.1203  -2.5379  -0.6953 LP             1 S1                 0.0000
     40 ****         1.8280  -3.5276  -0.5645 LP             1 S1                 0.0000
@<TRIPOS>BOND
    1    1    2 1     
    2    1   20 1     
    3    1   21 1     
    4    2    7 ar    
    5    2    3 ar    
    6    3    4 ar    
    7    4    5 ar    
    8    4   22 1     
    9    5    6 ar    
   10    6   10 1     
   11    6    7 ar    
   12    7    8 1     
   13    8    9 2     
   14    9   10 1     
   15    9   23 1     
   16   10   11 1     
   17   11   18 1     
   18   11   12 1     
   19   11   24 1     
   20   12   13 1     
   21   13   14 1     
   22   13   16 1     
   23   13   25 1     
   24   14   15 1     
   25   14   26 1     
   26   14   27 1     
   27   15   28 1     
   28   16   17 1     
   29   16   18 1     
   30   16   29 1     
   31   18   19 1     
   32   18   30 1     
   33   19   31 1     
   34    3   32 1     
   35    5   33 1     
   36    8   34 1     
   37   12   35 1     
   38   12   36 1     
   39   15   37 1     
   40   15   38 1     
   41   19   39 1     
   42   19   40 1     
@<TRIPOS>SUBSTRUCTURE
      1 S1             1
@<TRIPOS>SET
LONE_PAIRS      STATIC     ATOMS    <user>   **** ""
9 32 33 34 35 36 37 38 39 40
DONOR_HYDROGENS      STATIC     ATOMS    <user>   **** ""
4 20 21 28 31
ATOM$BLUE        STATIC     ATOMS    COLORGROUP SYSTEM
9 32 33 34 35 36 37 38 39 40
ATOM$RED        STATIC     ATOMS    COLORGROUP SYSTEM
4 20 21 28 31
