AV-unprocessed.smi:2298|AV-procd|sdf|9225|dock1
  -GOLD-   2272012443D 1   1.00000     0.00000
 Structure written by MMmdl.
 37 38  0  0  0  0  0  0  0  0  1 V2000
  152.0806  136.3989  157.1056 C   0  0  0  0  0  0  0  0  0  0  0  0
  151.4559  135.1604  156.4910 C   0  0  0  0  0  0  0  0  0  0  0  0
  151.8777  133.9811  156.9967 N   0  0  0  0  0  0  0  0  0  0  0  0
  151.3594  132.8482  156.4805 C   0  0  0  0  0  0  0  0  0  0  0  0
  150.4012  132.8337  155.4491 C   0  0  0  0  0  0  0  0  0  0  0  0
  149.9450  134.0679  154.9258 C   0  0  0  0  0  0  0  0  0  0  0  0
  148.9910  134.1772  153.8742 N   0  0  0  0  0  0  0  0  0  0  0  0
  148.0799  133.2824  153.4542 C   0  0  0  0  0  0  0  0  0  0  0  0
  147.9129  132.1564  153.9218 O   0  0  0  0  0  0  0  0  0  0  0  0
  147.3465  133.7802  152.4481 N   0  0  0  0  0  0  0  0  0  0  0  0
  146.2635  133.0797  151.7641 C   0  0  1  0  0  0  0  0  0  0  0  0
  144.9426  133.8413  151.9759 C   0  0  0  0  0  0  0  0  0  0  0  0
  143.7768  133.1705  151.2282 C   0  0  0  0  0  0  0  0  0  0  0  0
  144.0754  132.9841  149.7287 C   0  0  1  0  0  0  0  0  0  0  0  0
  144.0813  134.2389  149.0766 O   0  0  0  0  0  0  0  0  0  0  0  0
  145.4184  132.2637  149.5042 C   0  0  0  0  0  0  0  0  0  0  0  0
  146.5767  132.9368  150.2613 C   0  0  0  0  0  0  0  0  0  0  0  0
  150.4973  135.2587  155.4551 C   0  0  0  0  0  0  0  0  0  0  0  0
  150.0079  136.8071  154.8516 Cl  0  0  0  0  0  0  0  0  0  0  0  0
  146.1511  132.0836  152.1971 H   0  0  0  0  0  0  0  0  0  0  0  0
  143.2756  132.3962  149.2771 H   0  0  0  0  0  0  0  0  0  0  0  0
  151.3081  137.0496  157.5164 H   0  0  0  0  0  0  0  0  0  0  0  0
  152.6366  136.9566  156.3514 H   0  0  0  0  0  0  0  0  0  0  0  0
  152.7688  136.1434  157.9127 H   0  0  0  0  0  0  0  0  0  0  0  0
  151.7244  131.9219  156.8986 H   0  0  0  0  0  0  0  0  0  0  0  0
  150.0512  131.8829  155.0798 H   0  0  0  0  0  0  0  0  0  0  0  0
  148.9563  135.0807  153.4252 H   0  0  0  0  0  0  0  0  0  0  0  0
  147.5505  134.7162  152.1299 H   0  0  0  0  0  0  0  0  0  0  0  0
  144.7097  133.8952  153.0400 H   0  0  0  0  0  0  0  0  0  0  0  0
  145.0495  134.8714  151.6328 H   0  0  0  0  0  0  0  0  0  0  0  0
  143.5866  132.1943  151.6760 H   0  0  0  0  0  0  0  0  0  0  0  0
  142.8622  133.7492  151.3631 H   0  0  0  0  0  0  0  0  0  0  0  0
  144.7735  134.2402  148.4331 H   0  0  0  0  0  0  0  0  0  0  0  0
  145.3282  131.2319  149.8461 H   0  0  0  0  0  0  0  0  0  0  0  0
  145.6470  132.2104  148.4391 H   0  0  0  0  0  0  0  0  0  0  0  0
  146.7716  133.9193  149.8290 H   0  0  0  0  0  0  0  0  0  0  0  0
  147.4881  132.3545  150.1212 H   0  0  0  0  0  0  0  0  0  0  0  0
  1  2  1  0  0  0  0
  1 22  1  0  0  0  0
  1 23  1  0  0  0  0
  1 24  1  0  0  0  0
  2 18  1  0  0  0  0
  2  3  2  0  0  0  0
  3  4  1  0  0  0  0
  4  5  2  0  0  0  0
  4 25  1  0  0  0  0
  5  6  1  0  0  0  0
  5 26  1  0  0  0  0
  6  7  1  0  0  0  0
  6 18  2  0  0  0  0
  7  8  1  0  0  0  0
  7 27  1  0  0  0  0
  8  9  2  0  0  0  0
  8 10  1  0  0  0  0
 10 11  1  0  0  0  0
 10 28  1  0  0  0  0
 11 20  1  0  0  0  0
 11 17  1  0  0  0  0
 11 12  1  0  0  0  0
 12 13  1  0  0  0  0
 12 29  1  0  0  0  0
 12 30  1  0  0  0  0
 13 14  1  0  0  0  0
 13 31  1  0  0  0  0
 13 32  1  0  0  0  0
 14 21  1  0  0  0  0
 14 15  1  0  0  0  0
 14 16  1  0  0  0  0
 15 33  1  0  0  0  0
 16 17  1  0  0  0  0
 16 34  1  0  0  0  0
 16 35  1  0  0  0  0
 17 36  1  0  0  0  0
 17 37  1  0  0  0  0
 18 19  1  0  0  0  0
M  END
> <s_m_source_file>
AV-unprocessed.smi

> <i_m_source_file_index>
2298

> <i_lp_mmshare_version>
43012

> <i_f3d_flags>
0

> <s_epik_input>
W0NIM11jMW5bY0hdW2NIXWMoYzFDbClbTkhdQyg9TylbTkhdW0NASF0yW0NIMl1bQ0gyXVtDQEhdKFtPSF0pW0NIMl1bQ0gyXTI=

> <s_epik_cmdline>
J2VwaWtfcHl0aG9uJywgJy1waCcsICc3LjAnLCAnLXRuJywgJzgnLCAnLW1hJywgJzIwMCcsICctbWV0YWxfYmluZGluZycsICctaW1hZScsICc8aW5maWxlLm1hZT4nLCAnLW9tYWUnLCAnPG91dGZpbGUubWFlPic=

> <r_epik_Ionization_Penalty>
0.00999805

> <r_epik_Ionization_Penalty_Charging>
0

> <r_epik_Ionization_Penalty_Neutral>
0.00999805

> <r_epik_State_Penalty>
0.00759022

> <r_epik_Charging_Adjusted_Penalty>
0.00759022

> <i_epik_Tot_Q>
0

> <i_epik_Tot_abs_Q>
0

> <r_epik_Metal_State_Penalty>
0.00746447

> <b_epik_Metal_Only>
0

> <s_lp_Force_Field>
OPLS_2005

> <r_lp_Energy>
16.8241

> <b_lp_Chiralities_Consistent>
1

> <s_lp_Variant>
AV-unprocessed.smi:2298-2

> <Gold.Version>
5.8.1

> <Gold.Id.Protein>
6NUR|6NUR_protein|mol2

> <Gold.PLP.Fitness>
43.6786

> <Gold.PLP.PLP>
-34.9212

> <Gold.PLP.part.hbond>
-4.6304

> <Gold.PLP.part.metal>
0.0000

> <Gold.PLP.part.buried>
-2.9623

> <Gold.PLP.part.nonpolar>
-26.0508

> <Gold.PLP.part.repulsive>
0.0798

> <Gold.PLP.ligand.clash>
0.0000

> <Gold.PLP.ligand.torsion>
0.0965

> <Gold.PLP.Chemscore.Hbond>
2.9824

> <Gold.PLP.Chemscore.CHOScore>
0.0000

> <Gold.PLP.Chemscore.Metal>
0.0000

> <Gold.Chemscore.Hbonds>
donor molecule, donor type, donor heavy atom, donor atom, acceptor molecule, acceptor atom, score
      L1  H     7    27       P1  7948  1.00
      L1  H    10    28       P1  7948  0.94
      L1  H    15    33       P1  7921  1.00

> <Gold.PLP.Chemscore.Internal.Correction>
0.0031

> <Gold.Rescore>
     Score         DG    S(hbond)    S(metal)    S(lipo)     H(rot)  DE(clash)    DE(int)     intcor
     18.03     -19.25       2.37        0.00      80.98       1.42       0.06       1.16       ----

> <Gold.Chemscore.Fitness>
18.0272

> <Gold.Chemscore.DG>
-19.2525

> <Gold.Chemscore.ZeroCoef>
-5.4800

> <Gold.Chemscore.Hbond>
2.3750

> <Gold.Chemscore.Metal>
0.0000

> <Gold.Chemscore.Lipo>
80.9831

> <Gold.Chemscore.Internal_Hbond>
0.0000

> <Gold.Chemscore.DEClash>
0.0612

> <Gold.Chemscore.DEInternal>
1.1641

> <Gold.Chemscore.Rot>
1.4199

> <Gold.Chemscore.Internal.Correction>
   9.000000E+99

> <Gold.Chemscore.Hbonds>
donor molecule, donor type, donor heavy atom, donor atom, acceptor molecule, acceptor atom, score
      L1  H     7    27       P1  7948  0.38
      L1  H    10    28       P1  7948  0.67
      L1  H    15    33       P1  7921  0.99

> <Gold.Chemscore.Hbond.Weighted>
-7.9324

> <Gold.Chemscore.Metal.Weighted>
-0.0000

> <Gold.Chemscore.Lipo.Weighted>
-9.4750

> <Gold.Chemscore.Internal_Hbond.Weighted>
0.0000

> <Gold.Chemscore.DEClash.Weighted>
0.0612

> <Gold.Chemscore.DEInternal.Weighted>
1.1641

> <Gold.Chemscore.Rot.Weighted>
3.6349

> <Gold.Chemscore.Internal.Correction.Weighted>
   9.000000E+99

> <Gold.Protein.RotatedTorsions>
[ 6907 6896 6895 6894 ] final -127.09 input  -60.11 | X-H torsion
[ 7974 7965 7964 7962 ] final  -82.83 input  175.53 | X-H torsion
[ 8008 7997 7996 7995 ] final   54.58 input   59.86 | X-H torsion
[ 10167 10162 10161 10158 ] final   -0.31 input  -65.29 | X-H torsion
[ 10718 10713 10712 10709 ] final  -49.82 input   66.30 | X-H torsion
[ 10763 10752 10751 10750 ] final  -27.81 input  -60.55 | X-H torsion
[ 11005 11000 10999 10996 ] final  -49.32 input  -57.11 | X-H torsion

> <Gold.Protein.ActiveResidues>
 VAL166  LYS551  ARG553  GLY616  TRP617  ASP618  TYR619  PRO620  LYS621  CYS622 
 ASP623  PHE694  ASN695  SER759  ASP760  ASP761  ALA762  ILE779  LEU786  VAL792 
 PHE793  MET794  SER795  GLU796  ALA797  LYS798  CYS799  TRP800  GLU811  SER814 

> <Gold.Protein.RotatedAtoms>
  150.9037  133.7085  159.2872 H   0  0  0  0  0  0  0  0  0  0  0  0  # atno 6907 bound_to 6896
  151.4596  135.1036  159.9730 H   0  0  0  0  0  0  0  0  0  0  0  0  # atno 6908 bound_to 6896
  152.4891  133.8403  159.7204 H   0  0  0  0  0  0  0  0  0  0  0  0  # atno 6909 bound_to 6896
  145.5281  140.9524  143.1618 H   0  0  0  0  0  0  0  0  0  0  0  0  # atno 7974 bound_to 7965
  155.4870  140.3470  155.4349 H   0  0  0  0  0  0  0  0  0  0  0  0  # atno 8008 bound_to 7997
  156.1002  140.1433  156.9506 H   0  0  0  0  0  0  0  0  0  0  0  0  # atno 8009 bound_to 7997
  154.4689  140.0908  156.7070 H   0  0  0  0  0  0  0  0  0  0  0  0  # atno 8010 bound_to 7997
  140.6762  143.6910  150.8028 H   0  0  0  0  0  0  0  0  0  0  0  0  # atno 10167 bound_to 10162
  156.1857  130.4151  149.9442 H   0  0  0  0  0  0  0  0  0  0  0  0  # atno 10718 bound_to 10713
  153.7381  135.6934  153.4973 H   0  0  0  0  0  0  0  0  0  0  0  0  # atno 10763 bound_to 10752
  153.2088  135.4410  155.0354 H   0  0  0  0  0  0  0  0  0  0  0  0  # atno 10764 bound_to 10752
  154.8230  135.3431  154.6908 H   0  0  0  0  0  0  0  0  0  0  0  0  # atno 10765 bound_to 10752
  141.0752  133.6667  156.3569 H   0  0  0  0  0  0  0  0  0  0  0  0  # atno 11005 bound_to 11000
  144.7640  139.6888  143.7222 LP  0  0  0  0  0  0  0  0  0  0  0  0  # atno 17320 bound_to 7965
  146.2062  139.5388  142.9711 LP  0  0  0  0  0  0  0  0  0  0  0  0  # atno 17321 bound_to 7965
  140.0603  143.5161  152.2631 LP  0  0  0  0  0  0  0  0  0  0  0  0  # atno 17342 bound_to 10162
  139.6055  144.7595  151.3071 LP  0  0  0  0  0  0  0  0  0  0  0  0  # atno 17343 bound_to 10162
  156.7198  130.9002  151.3617 LP  0  0  0  0  0  0  0  0  0  0  0  0  # atno 17370 bound_to 10713
  157.6897  130.9221  150.0481 LP  0  0  0  0  0  0  0  0  0  0  0  0  # atno 17371 bound_to 10713
  140.5587  134.5955  157.5428 LP  0  0  0  0  0  0  0  0  0  0  0  0  # atno 17394 bound_to 11000
  139.9565  134.7526  156.0331 LP  0  0  0  0  0  0  0  0  0  0  0  0  # atno 17395 bound_to 11000

$$$$
