AV-unprocessed.smi:944|AV-procd|sdf|4232|dock2
  -GOLD-   22720 2143D 1   1.00000     0.00000
 Structure written by MMmdl.
 28 28  0  0  0  0  0  0  0  0  1 V2000
  146.8600  145.0185  160.7078 C   0  0  0  0  0  0  0  0  0  0  0  0
  146.8811  144.3484  159.4168 N   0  0  0  0  0  0  0  0  0  0  0  0
  146.4271  143.1051  159.2045 C   0  0  0  0  0  0  0  0  0  0  0  0
  145.9509  142.4015  160.0971 O   0  0  0  0  0  0  0  0  0  0  0  0
  146.5480  142.5739  157.7663 C   0  0  1  0  0  0  0  0  0  0  0  0
  145.7255  143.4943  156.8491 C   0  0  0  0  0  0  0  0  0  0  0  0
  147.9386  142.6144  157.3158 N   0  0  0  0  0  0  0  0  0  0  0  0
  148.8673  141.6818  157.5797 C   0  0  0  0  0  0  0  0  0  0  0  0
  148.6300  140.6596  158.2248 O   0  0  0  0  0  0  0  0  0  0  0  0
  150.2690  141.9566  157.0231 C   0  0  0  0  0  0  0  0  0  0  0  0
  151.0609  142.8017  157.9011 N   0  0  0  0  0  0  0  0  0  0  0  0
  150.8613  144.0557  158.3123 C   0  0  0  0  0  0  0  0  0  0  0  0
  151.8089  144.5121  159.1194 N   0  0  0  0  0  0  0  0  0  0  0  0
  152.6177  143.4118  159.1661 C   0  0  0  0  0  0  0  0  0  0  0  0
  152.2174  142.3607  158.4503 N   0  0  0  0  0  0  0  0  0  0  0  0
  147.2755  146.0215  160.6129 H   0  0  0  0  0  0  0  0  0  0  0  0
  147.4554  144.4707  161.4396 H   0  0  0  0  0  0  0  0  0  0  0  0
  145.8395  145.1060  161.0834 H   0  0  0  0  0  0  0  0  0  0  0  0
  147.2604  144.8623  158.6345 H   0  0  0  0  0  0  0  0  0  0  0  0
  146.1621  141.5543  157.7049 H   0  0  0  0  0  0  0  0  0  0  0  0
  144.6743  143.5088  157.1402 H   0  0  0  0  0  0  0  0  0  0  0  0
  145.7694  143.1507  155.8153 H   0  0  0  0  0  0  0  0  0  0  0  0
  146.0911  144.5224  156.8704 H   0  0  0  0  0  0  0  0  0  0  0  0
  148.2188  143.4250  156.7832 H   0  0  0  0  0  0  0  0  0  0  0  0
  150.7865  141.0090  156.8665 H   0  0  0  0  0  0  0  0  0  0  0  0
  150.1947  142.4488  156.0522 H   0  0  0  0  0  0  0  0  0  0  0  0
  150.0052  144.6448  158.0168 H   0  0  0  0  0  0  0  0  0  0  0  0
  153.5310  143.3856  159.7424 H   0  0  0  0  0  0  0  0  0  0  0  0
  1  2  1  0  0  0  0
  1 16  1  0  0  0  0
  1 17  1  0  0  0  0
  1 18  1  0  0  0  0
  2  3  1  0  0  0  0
  2 19  1  0  0  0  0
  3  4  2  0  0  0  0
  3  5  1  0  0  0  0
  5  6  1  0  0  0  0
  5  7  1  0  0  0  0
  5 20  1  0  0  0  0
  6 21  1  0  0  0  0
  6 22  1  0  0  0  0
  6 23  1  0  0  0  0
  7  8  1  0  0  0  0
  7 24  1  0  0  0  0
  8  9  2  0  0  0  0
  8 10  1  0  0  0  0
 10 11  1  0  0  0  0
 10 25  1  0  0  0  0
 10 26  1  0  0  0  0
 11 15  1  0  0  0  0
 11 12  1  0  0  0  0
 12 13  2  0  0  0  0
 12 27  1  0  0  0  0
 13 14  1  0  0  0  0
 14 15  2  0  0  0  0
 14 28  1  0  0  0  0
M  END
> <s_m_source_file>
AV-unprocessed.smi

> <i_m_source_file_index>
944

> <i_lp_mmshare_version>
43012

> <i_f3d_flags>
0

> <s_epik_input>
W0NIM11bTkhdQyg9TylbQ0BIXShbQ0gzXSlbTkhdQyg9TylbQ0gyXW4xW2NIXW5bY0hdbjE=

> <s_epik_cmdline>
J2VwaWtfcHl0aG9uJywgJy1waCcsICc3LjAnLCAnLXRuJywgJzgnLCAnLW1hJywgJzIwMCcsICctbWV0YWxfYmluZGluZycsICctaW1hZScsICc8aW5maWxlLm1hZT4nLCAnLW9tYWUnLCAnPG91dGZpbGUubWFlPic=

> <r_lp_tautomer_probability>
1

> <r_epik_Ionization_Penalty>
7.54354e-06

> <r_epik_Ionization_Penalty_Charging>
0

> <r_epik_Ionization_Penalty_Neutral>
7.54354e-06

> <r_epik_State_Penalty>
-0

> <r_epik_Charging_Adjusted_Penalty>
0

> <i_epik_Tot_Q>
0

> <i_epik_Tot_abs_Q>
0

> <r_epik_Metal_State_Penalty>
-0

> <b_epik_Metal_Only>
0

> <s_lp_Force_Field>
OPLS_2005

> <r_lp_Energy>
4.79019

> <b_lp_Chiralities_Consistent>
1

> <s_lp_Variant>
AV-unprocessed.smi:944-2

> <Gold.Version>
5.8.1

> <Gold.Id.Protein>
6NUR|6NUR_protein|mol2

> <Gold.PLP.Fitness>
33.0578

> <Gold.PLP.PLP>
-22.4213

> <Gold.PLP.part.hbond>
-4.0321

> <Gold.PLP.part.metal>
0.0000

> <Gold.PLP.part.buried>
-4.2868

> <Gold.PLP.part.nonpolar>
-14.8910

> <Gold.PLP.part.repulsive>
0.1636

> <Gold.PLP.ligand.clash>
0.0000

> <Gold.PLP.ligand.torsion>
0.6677

> <Gold.PLP.Chemscore.Hbond>
2.8500

> <Gold.PLP.Chemscore.CHOScore>
1.1353

> <Gold.PLP.Chemscore.Metal>
0.0000

> <Gold.Chemscore.Hbonds>
donor molecule, donor type, donor heavy atom, donor atom, acceptor molecule, acceptor atom, score
      L1  H     2    19       P1  8029  1.00
      L1  H     7    24       P1  8028  0.80
      P1  H  6934  6946       L1     4  1.00
      L1  C    12    27       P1  8028  0.53
      L1  C    12    27       P1  8029  0.54

> <Gold.PLP.Chemscore.Internal.Correction>
0.0160

> <Gold.Rescore>
     Score         DG    S(hbond)    S(metal)    S(lipo)     H(rot)  DE(clash)    DE(int)     intcor
      8.62      -9.22       2.70        0.00      14.89       2.74       0.03       0.56       ----

> <Gold.Chemscore.Fitness>
8.6228

> <Gold.Chemscore.DG>
-9.2156

> <Gold.Chemscore.ZeroCoef>
-5.4800

> <Gold.Chemscore.Hbond>
2.6991

> <Gold.Chemscore.Metal>
0.0000

> <Gold.Chemscore.Lipo>
14.8860

> <Gold.Chemscore.Internal_Hbond>
0.0000

> <Gold.Chemscore.DEClash>
0.0309

> <Gold.Chemscore.DEInternal>
0.5619

> <Gold.Chemscore.Rot>
2.7426

> <Gold.Chemscore.Internal.Correction>
   9.000000E+99

> <Gold.Chemscore.Hbonds>
donor molecule, donor type, donor heavy atom, donor atom, acceptor molecule, acceptor atom, score
      L1  H     2    19       P1  8029  1.00
      L1  H     7    24       P1  8028  0.12
      P1  H  6934  6946       L1     4  0.97

> <Gold.Chemscore.Hbond.Weighted>
-9.0149

> <Gold.Chemscore.Metal.Weighted>
-0.0000

> <Gold.Chemscore.Lipo.Weighted>
-1.7417

> <Gold.Chemscore.Internal_Hbond.Weighted>
0.0000

> <Gold.Chemscore.DEClash.Weighted>
0.0309

> <Gold.Chemscore.DEInternal.Weighted>
0.5619

> <Gold.Chemscore.Rot.Weighted>
7.0210

> <Gold.Chemscore.Internal.Correction.Weighted>
   9.000000E+99

> <Gold.Protein.RotatedTorsions>
[ 6907 6896 6895 6894 ] final  -25.03 input  -60.11 | X-H torsion
[ 7974 7965 7964 7962 ] final   -9.67 input  175.53 | X-H torsion
[ 8008 7997 7996 7995 ] final  -38.63 input   59.86 | X-H torsion
[ 10167 10162 10161 10158 ] final   37.50 input  -65.29 | X-H torsion
[ 10718 10713 10712 10709 ] final -147.83 input   66.30 | X-H torsion
[ 10763 10752 10751 10750 ] final  106.46 input  -60.55 | X-H torsion
[ 11005 11000 10999 10996 ] final -145.32 input  -57.11 | X-H torsion

> <Gold.Protein.ActiveResidues>
 VAL166  LYS551  ARG553  GLY616  TRP617  ASP618  TYR619  PRO620  LYS621  CYS622 
 ASP623  PHE694  ASN695  SER759  ASP760  ASP761  ALA762  ILE779  LEU786  VAL792 
 PHE793  MET794  SER795  GLU796  ALA797  LYS798  CYS799  TRP800  GLU811  SER814 

> <Gold.Protein.RotatedAtoms>
  151.1811  135.0361  159.8792 H   0  0  0  0  0  0  0  0  0  0  0  0  # atno 6907 bound_to 6896
  152.5444  134.1062  159.8349 H   0  0  0  0  0  0  0  0  0  0  0  0  # atno 6908 bound_to 6896
  151.1179  133.5078  159.2635 H   0  0  0  0  0  0  0  0  0  0  0  0  # atno 6909 bound_to 6896
  146.2244  140.2651  142.8354 H   0  0  0  0  0  0  0  0  0  0  0  0  # atno 7974 bound_to 7965
  154.4034  140.1573  156.2731 H   0  0  0  0  0  0  0  0  0  0  0  0  # atno 8008 bound_to 7997
  155.8935  140.3437  155.5952 H   0  0  0  0  0  0  0  0  0  0  0  0  # atno 8009 bound_to 7997
  155.7530  140.0807  157.2182 H   0  0  0  0  0  0  0  0  0  0  0  0  # atno 8010 bound_to 7997
  140.4026  144.1703  150.6134 H   0  0  0  0  0  0  0  0  0  0  0  0  # atno 10167 bound_to 10162
  156.4125  130.7988  151.2207 H   0  0  0  0  0  0  0  0  0  0  0  0  # atno 10718 bound_to 10713
  153.3932  135.3876  155.1937 H   0  0  0  0  0  0  0  0  0  0  0  0  # atno 10763 bound_to 10752
  154.8721  135.3753  154.4711 H   0  0  0  0  0  0  0  0  0  0  0  0  # atno 10764 bound_to 10752
  153.5200  135.7087  153.5798 H   0  0  0  0  0  0  0  0  0  0  0  0  # atno 10765 bound_to 10752
  140.7934  134.2941  157.5005 H   0  0  0  0  0  0  0  0  0  0  0  0  # atno 11005 bound_to 11000
  144.9310  140.7975  143.5689 LP  0  0  0  0  0  0  0  0  0  0  0  0  # atno 17320 bound_to 7965
  145.2595  139.1998  143.4900 LP  0  0  0  0  0  0  0  0  0  0  0  0  # atno 17321 bound_to 7965
  140.4723  143.2408  151.9071 LP  0  0  0  0  0  0  0  0  0  0  0  0  # atno 17342 bound_to 10162
  139.4784  144.5356  151.8603 LP  0  0  0  0  0  0  0  0  0  0  0  0  # atno 17343 bound_to 10162
  157.7507  131.0253  150.3914 LP  0  0  0  0  0  0  0  0  0  0  0  0  # atno 17370 bound_to 10713
  156.4215  130.3954  149.6822 LP  0  0  0  0  0  0  0  0  0  0  0  0  # atno 17371 bound_to 10713
  139.8729  134.9388  156.3724 LP  0  0  0  0  0  0  0  0  0  0  0  0  # atno 17394 bound_to 11000
  140.9367  133.7542  156.0093 LP  0  0  0  0  0  0  0  0  0  0  0  0  # atno 17395 bound_to 11000

$$$$
