#       Name:                AV-unprocessed.smi:594
#       Creating user name   scv26
#       Creation time:       Thu Mar 26 23:52:23 2020


#       File generated by GOLD software.
#

@<TRIPOS>MOLECULE
AV-unprocessed.smi:594
    46    47     1
SMALL
NO_CHARGES


@<TRIPOS>ATOM
      1 ****        -1.9759  -0.9124  -3.3262 C.3            1 S1                 0.0000
      2 ****        -2.2923  -1.6109  -1.9926 C.3            1 S1                 0.0000
      3 ****        -1.6119  -2.9931  -1.9018 C.3            1 S1                 0.0000
      4 ****        -1.9653  -3.7147  -0.5914 C.3            1 S1                 0.0000
      5 ****        -1.6189  -2.8535   0.6321 C.3            1 S1                 0.0000
      6 ****        -2.2989  -1.4763   0.5517 C.3            1 S1                 0.0000
      7 ****        -1.9566  -0.7348  -0.7597 C.3            1 S1                 0.0000
      8 ****        -0.5535  -0.3199  -0.7736 N.am           1 S1                 0.0000
      9 ****        -0.0476   0.7494  -0.1416 C.2            1 S1                 0.0000
     10 ****        -0.7331   1.5374   0.5111 O.2            1 S1                 0.0000
     11 ****         1.4654   0.9617  -0.2862 C.3            1 S1                 0.0000
     12 ****         2.0680   1.6203   0.8849 N.am           1 S1                 0.0000
     13 ****         2.3175   3.0035   0.7871 C.2            1 S1                 0.0000
     14 ****         2.8640   3.7058   1.7989 C.2            1 S1                 0.0000
     15 ****         3.1120   5.1261   1.6816 N.pl3          1 S1                 1.0000
     16 ****         3.5954   5.7202   2.6399 O.2            1 S1                 0.0000
     17 ****         2.8342   5.6944   0.6296 O.2            1 S1                -1.0000
     18 ****         3.1956   2.9890   3.0151 C.2            1 S1                 0.0000
     19 ****         2.9571   1.6666   3.1161 C.2            1 S1                 0.0000
     20 ****         2.3604   0.9048   2.0143 C.2            1 S1                 0.0000
     21 ****         2.1374  -0.3031   2.1009 O.2            1 S1                 0.0000
     22 ****        -0.9052  -0.7529  -3.4556 H              1 S1                 0.0000
     23 ****        -2.4678   0.0588  -3.3865 H              1 S1                 0.0000
     24 ****        -2.3228  -1.5088  -4.1704 H              1 S1                 0.0000
     25 ****        -3.3698  -1.7819  -1.9781 H              1 S1                 0.0000
     26 ****        -1.9126  -3.6117  -2.7482 H              1 S1                 0.0000
     27 ****        -0.5292  -2.8814  -1.9746 H              1 S1                 0.0000
     28 ****        -3.0299  -3.9519  -0.5809 H              1 S1                 0.0000
     29 ****        -1.4364  -4.6666  -0.5371 H              1 S1                 0.0000
     30 ****        -1.9252  -3.3654   1.5446 H              1 S1                 0.0000
     31 ****        -0.5374  -2.7282   0.6987 H              1 S1                 0.0000
     32 ****        -3.3796  -1.6097   0.6143 H              1 S1                 0.0000
     33 ****        -2.0215  -0.8735   1.4172 H              1 S1                 0.0000
     34 ****        -2.5736   0.1642  -0.8135 H              1 S1                 0.0000
     35 ****         0.0844  -0.9060  -1.2923 H              1 S1                 0.0000
     36 ****         1.9555   0.0026  -0.4657 H              1 S1                 0.0000
     37 ****         1.6401   1.5442  -1.1917 H              1 S1                 0.0000
     38 ****         2.0296   3.4459  -0.1557 H              1 S1                 0.0000
     39 ****         3.6365   3.5076   3.8539 H              1 S1                 0.0000
     40 ****         3.2112   1.1528   4.0316 H              1 S1                 0.0000
     41 ****        -1.7198   1.3955   0.5896 LP             1 S1                 0.0000
     42 ****        -0.3029   2.3192   0.9625 LP             1 S1                 0.0000
     43 ****         3.8098   5.2226   3.4804 LP             1 S1                 0.0000
     44 ****         3.7751   6.7022   2.5806 LP             1 S1                 0.0000
     45 ****         1.7297  -0.7928   1.3302 LP             1 S1                 0.0000
     46 ****         2.3640  -0.7943   2.9419 LP             1 S1                 0.0000
@<TRIPOS>BOND
    1    1    2 1     
    2    1   22 1     
    3    1   23 1     
    4    1   24 1     
    5    2    7 1     
    6    2    3 1     
    7    2   25 1     
    8    3    4 1     
    9    3   26 1     
   10    3   27 1     
   11    4    5 1     
   12    4   28 1     
   13    4   29 1     
   14    5    6 1     
   15    5   30 1     
   16    5   31 1     
   17    6    7 1     
   18    6   32 1     
   19    6   33 1     
   20    7    8 1     
   21    7   34 1     
   22    8    9 am    
   23    8   35 1     
   24    9   10 2     
   25    9   11 1     
   26   11   12 1     
   27   11   36 1     
   28   11   37 1     
   29   12   20 am    
   30   12   13 1     
   31   13   14 2     
   32   13   38 1     
   33   14   15 1     
   34   14   18 1     
   35   15   16 2     
   36   15   17 1     
   37   18   19 2     
   38   18   39 1     
   39   19   20 1     
   40   19   40 1     
   41   20   21 2     
   42   10   41 1     
   43   10   42 1     
   44   16   43 1     
   45   16   44 1     
   46   21   45 1     
   47   21   46 1     
@<TRIPOS>SUBSTRUCTURE
      1 S1             1
@<TRIPOS>SET
LONE_PAIRS      STATIC     ATOMS    <user>   **** ""
7 41 42 43 44 17 45 46
DONOR_HYDROGENS      STATIC     ATOMS    <user>   **** ""
1 35
ATOM$BLUE        STATIC     ATOMS    COLORGROUP SYSTEM
7 41 42 43 44 17 45 46
ATOM$RED        STATIC     ATOMS    COLORGROUP SYSTEM
1 35
