AV-unprocessed.smi:1209|AV-procd|sdf|5070|dock1
  -GOLD-   22720 4113D 1   1.00000     0.00000
 Structure written by MMmdl.
 48 50  0  0  0  0  0  0  0  0  1 V2000
  149.8005  131.3579  154.5264 C   0  0  0  0  0  0  0  0  0  0  0  0
  149.8770  132.8089  154.8569 C   0  0  0  0  0  0  0  0  0  0  0  0
  149.1677  133.8981  154.4379 C   0  0  0  0  0  0  0  0  0  0  0  0
  149.7588  134.9781  155.1495 C   0  0  0  0  0  0  0  0  0  0  0  0
  149.3967  136.4387  155.0988 C   0  0  0  0  0  0  0  0  0  0  0  0
  150.3512  137.3081  155.7955 N   0  0  0  0  0  0  0  0  0  0  0  0
  149.8707  137.6639  157.1279 C   0  0  0  0  0  0  0  0  0  0  0  0
  150.6472  138.5228  155.0330 C   0  0  0  0  0  0  0  0  0  0  0  0
  151.5158  139.5713  155.7619 C   0  0  1  0  0  0  0  0  0  0  0  0
  152.6655  139.8411  154.9810 O   0  0  0  0  0  0  0  0  0  0  0  0
  150.7535  140.8920  155.9883 C   0  0  0  0  0  0  0  0  0  0  0  0
  151.2917  141.6639  157.0946 N   0  0  0  0  0  0  0  0  0  0  0  0
  151.1865  142.9938  157.2788 C   0  0  0  0  0  0  0  0  0  0  0  0
  151.7559  143.5050  158.3664 N   0  0  0  0  0  0  0  0  0  0  0  0
  152.2917  142.3738  158.9584 C   0  0  0  0  0  0  0  0  0  0  0  0
  153.0293  142.2269  160.1536 C   0  0  0  0  0  0  0  0  0  0  0  0
  153.4831  140.9563  160.5739 C   0  0  0  0  0  0  0  0  0  0  0  0
  154.2720  140.8441  161.8666 C   0  0  0  0  0  0  0  0  0  0  0  0
  153.1999  139.8066  159.7932 C   0  0  0  0  0  0  0  0  0  0  0  0
  153.6751  138.4309  160.2263 C   0  0  0  0  0  0  0  0  0  0  0  0
  152.4653  139.9359  158.5959 C   0  0  0  0  0  0  0  0  0  0  0  0
  152.0193  141.2055  158.1879 C   0  0  0  0  0  0  0  0  0  0  0  0
  150.7463  134.5693  155.9298 N   0  0  0  0  0  0  0  0  0  0  0  0
  150.8284  133.1839  155.7500 O   0  0  0  0  0  0  0  0  0  0  0  0
  148.9160  131.1413  153.9272 H   0  0  0  0  0  0  0  0  0  0  0  0
  149.7492  130.7563  155.4340 H   0  0  0  0  0  0  0  0  0  0  0  0
  150.6777  131.0446  153.9602 H   0  0  0  0  0  0  0  0  0  0  0  0
  148.3503  133.9200  153.7329 H   0  0  0  0  0  0  0  0  0  0  0  0
  149.3312  136.7277  154.0505 H   0  0  0  0  0  0  0  0  0  0  0  0
  148.3971  136.5871  155.5092 H   0  0  0  0  0  0  0  0  0  0  0  0
  150.5906  138.3009  157.6430 H   0  0  0  0  0  0  0  0  0  0  0  0
  149.7278  136.7788  157.7479 H   0  0  0  0  0  0  0  0  0  0  0  0
  148.9221  138.2000  157.0748 H   0  0  0  0  0  0  0  0  0  0  0  0
  151.0834  138.2696  154.0650 H   0  0  0  0  0  0  0  0  0  0  0  0
  149.6950  139.0014  154.7995 H   0  0  0  0  0  0  0  0  0  0  0  0
  151.8333  139.1821  156.7306 H   0  0  0  0  0  0  0  0  0  0  0  0
  152.8957  139.0590  154.5035 H   0  0  0  0  0  0  0  0  0  0  0  0
  150.7744  141.5073  155.0879 H   0  0  0  0  0  0  0  0  0  0  0  0
  149.7032  140.6874  156.1999 H   0  0  0  0  0  0  0  0  0  0  0  0
  150.6619  143.6220  156.5736 H   0  0  0  0  0  0  0  0  0  0  0  0
  153.2437  143.1027  160.7482 H   0  0  0  0  0  0  0  0  0  0  0  0
  153.7446  140.2118  162.5813 H   0  0  0  0  0  0  0  0  0  0  0  0
  154.4206  141.8203  162.3289 H   0  0  0  0  0  0  0  0  0  0  0  0
  155.2545  140.4107  161.6792 H   0  0  0  0  0  0  0  0  0  0  0  0
  153.3651  137.6617  159.5184 H   0  0  0  0  0  0  0  0  0  0  0  0
  153.2618  138.1736  161.2017 H   0  0  0  0  0  0  0  0  0  0  0  0
  154.7629  138.4061  160.2921 H   0  0  0  0  0  0  0  0  0  0  0  0
  152.2415  139.0686  157.9928 H   0  0  0  0  0  0  0  0  0  0  0  0
  1  2  1  0  0  0  0
  1 25  1  0  0  0  0
  1 26  1  0  0  0  0
  1 27  1  0  0  0  0
  2 24  1  0  0  0  0
  2  3  2  0  0  0  0
  3  4  1  0  0  0  0
  3 28  1  0  0  0  0
  4  5  1  0  0  0  0
  4 23  2  0  0  0  0
  5  6  1  0  0  0  0
  5 29  1  0  0  0  0
  5 30  1  0  0  0  0
  6  7  1  0  0  0  0
  6  8  1  0  0  0  0
  7 31  1  0  0  0  0
  7 32  1  0  0  0  0
  7 33  1  0  0  0  0
  8  9  1  0  0  0  0
  8 34  1  0  0  0  0
  8 35  1  0  0  0  0
  9 10  1  0  0  0  0
  9 11  1  0  0  0  0
  9 36  1  0  0  0  0
 10 37  1  0  0  0  0
 11 12  1  0  0  0  0
 11 38  1  0  0  0  0
 11 39  1  0  0  0  0
 12 22  1  0  0  0  0
 12 13  1  0  0  0  0
 13 14  2  0  0  0  0
 13 40  1  0  0  0  0
 14 15  1  0  0  0  0
 15 22  2  0  0  0  0
 15 16  1  0  0  0  0
 16 17  2  0  0  0  0
 16 41  1  0  0  0  0
 17 18  1  0  0  0  0
 17 19  1  0  0  0  0
 18 42  1  0  0  0  0
 18 43  1  0  0  0  0
 18 44  1  0  0  0  0
 19 20  1  0  0  0  0
 19 21  2  0  0  0  0
 20 45  1  0  0  0  0
 20 46  1  0  0  0  0
 20 47  1  0  0  0  0
 21 22  1  0  0  0  0
 21 48  1  0  0  0  0
 23 24  1  0  0  0  0
M  END
> <s_m_source_file>
AV-unprocessed.smi

> <i_m_source_file_index>
1209

> <i_lp_mmshare_version>
43012

> <i_f3d_flags>
0

> <s_epik_input>
W0NIM11jMVtjSF1jKG5vMSlbQ0gyXU4oW0NIM10pW0NIMl1bQ0BIXShbT0hdKVtDSDJdbihbY0hdbjIpYyhjMjMpW2NIXWMoW0NIM10pYyhbY0hdMylbQ0gzXQ==

> <s_epik_cmdline>
J2VwaWtfcHl0aG9uJywgJy1waCcsICc3LjAnLCAnLXRuJywgJzgnLCAnLW1hJywgJzIwMCcsICctbWV0YWxfYmluZGluZycsICctaW1hZScsICc8aW5maWxlLm1hZT4nLCAnLW9tYWUnLCAnPG91dGZpbGUubWFlPic=

> <r_epik_Ionization_Penalty>
0.103258

> <r_epik_Ionization_Penalty_Charging>
0

> <r_epik_Ionization_Penalty_Neutral>
0.103258

> <r_epik_State_Penalty>
0.0919675

> <r_epik_Charging_Adjusted_Penalty>
0.0919675

> <i_epik_Tot_Q>
0

> <i_epik_Tot_abs_Q>
0

> <r_epik_Metal_State_Penalty>
0.0812522

> <b_epik_Metal_Only>
0

> <s_lp_Force_Field>
OPLS_2005

> <r_lp_Energy>
16.8498

> <b_lp_Chiralities_Consistent>
1

> <s_lp_Variant>
AV-unprocessed.smi:1209-2

> <Gold.Version>
5.8.1

> <Gold.Id.Protein>
6NUR|6NUR_protein|mol2

> <Gold.PLP.Fitness>
48.5571

> <Gold.PLP.PLP>
-45.1318

> <Gold.PLP.part.hbond>
-2.0000

> <Gold.PLP.part.metal>
0.0000

> <Gold.PLP.part.buried>
-5.3584

> <Gold.PLP.part.nonpolar>
-38.0565

> <Gold.PLP.part.repulsive>
0.1497

> <Gold.PLP.ligand.clash>
0.0000

> <Gold.PLP.ligand.torsion>
2.0363

> <Gold.PLP.Chemscore.Hbond>
1.3840

> <Gold.PLP.Chemscore.CHOScore>
1.0000

> <Gold.PLP.Chemscore.Metal>
0.0000

> <Gold.Chemscore.Hbonds>
donor molecule, donor type, donor heavy atom, donor atom, acceptor molecule, acceptor atom, score
      P1  H  7989  7998       L1    10  0.38
      P1  H  7997  8008       L1    10  0.99
      L1  C    13    40       P1  8028  1.00

> <Gold.PLP.Chemscore.Internal.Correction>
0.3459

> <Gold.Rescore>
     Score         DG    S(hbond)    S(metal)    S(lipo)     H(rot)  DE(clash)    DE(int)     intcor
     12.37     -15.43       0.89        0.00     113.23       2.45       0.05       3.01       ----

> <Gold.Chemscore.Fitness>
12.3736

> <Gold.Chemscore.DG>
-15.4346

> <Gold.Chemscore.ZeroCoef>
-5.4800

> <Gold.Chemscore.Hbond>
0.8891

> <Gold.Chemscore.Metal>
0.0000

> <Gold.Chemscore.Lipo>
113.2251

> <Gold.Chemscore.Internal_Hbond>
0.0000

> <Gold.Chemscore.DEClash>
0.0491

> <Gold.Chemscore.DEInternal>
3.0119

> <Gold.Chemscore.Rot>
2.4462

> <Gold.Chemscore.Internal.Correction>
   9.000000E+99

> <Gold.Chemscore.Hbonds>
donor molecule, donor type, donor heavy atom, donor atom, acceptor molecule, acceptor atom, score
      P1  H  7989  7998       L1    10  0.01
      P1  H  7997  8008       L1    10  0.22

> <Gold.Chemscore.Hbond.Weighted>
-2.9695

> <Gold.Chemscore.Metal.Weighted>
-0.0000

> <Gold.Chemscore.Lipo.Weighted>
-13.2473

> <Gold.Chemscore.Internal_Hbond.Weighted>
0.0000

> <Gold.Chemscore.DEClash.Weighted>
0.0491

> <Gold.Chemscore.DEInternal.Weighted>
3.0119

> <Gold.Chemscore.Rot.Weighted>
6.2623

> <Gold.Chemscore.Internal.Correction.Weighted>
   9.000000E+99

> <Gold.Protein.RotatedTorsions>
[ 6907 6896 6895 6894 ] final    7.20 input  -60.11 | X-H torsion
[ 7974 7965 7964 7962 ] final  161.72 input  175.53 | X-H torsion
[ 8008 7997 7996 7995 ] final  -21.78 input   59.86 | X-H torsion
[ 10167 10162 10161 10158 ] final  125.79 input  -65.29 | X-H torsion
[ 10718 10713 10712 10709 ] final  114.08 input   66.30 | X-H torsion
[ 10763 10752 10751 10750 ] final -133.14 input  -60.55 | X-H torsion
[ 11005 11000 10999 10996 ] final -157.87 input  -57.11 | X-H torsion

> <Gold.Protein.ActiveResidues>
 VAL166  LYS551  ARG553  GLY616  TRP617  ASP618  TYR619  PRO620  LYS621  CYS622 
 ASP623  PHE694  ASN695  SER759  ASP760  ASP761  ALA762  ILE779  LEU786  VAL792 
 PHE793  MET794  SER795  GLU796  ALA797  LYS798  CYS799  TRP800  GLU811  SER814 

> <Gold.Protein.RotatedAtoms>
  151.6860  135.0954  160.0224 H   0  0  0  0  0  0  0  0  0  0  0  0  # atno 6907 bound_to 6896
  152.3807  133.6538  159.6167 H   0  0  0  0  0  0  0  0  0  0  0  0  # atno 6908 bound_to 6896
  150.7744  133.9035  159.3389 H   0  0  0  0  0  0  0  0  0  0  0  0  # atno 6909 bound_to 6896
  144.7672  139.7937  143.6311 H   0  0  0  0  0  0  0  0  0  0  0  0  # atno 7974 bound_to 7965
  154.4684  140.2025  156.0058 H   0  0  0  0  0  0  0  0  0  0  0  0  # atno 8008 bound_to 7997
  156.0968  140.3250  155.7859 H   0  0  0  0  0  0  0  0  0  0  0  0  # atno 8009 bound_to 7997
  155.4865  140.0543  157.2950 H   0  0  0  0  0  0  0  0  0  0  0  0  # atno 8010 bound_to 7997
  139.5666  144.6915  151.3892 H   0  0  0  0  0  0  0  0  0  0  0  0  # atno 10167 bound_to 10162
  157.6301  131.0993  150.7134 H   0  0  0  0  0  0  0  0  0  0  0  0  # atno 10718 bound_to 10713
  154.8736  135.3775  154.4524 H   0  0  0  0  0  0  0  0  0  0  0  0  # atno 10763 bound_to 10752
  153.5199  135.7029  153.5742 H   0  0  0  0  0  0  0  0  0  0  0  0  # atno 10764 bound_to 10752
  153.3993  135.3952  155.1942 H   0  0  0  0  0  0  0  0  0  0  0  0  # atno 10765 bound_to 10752
  140.6598  134.4361  157.5234 H   0  0  0  0  0  0  0  0  0  0  0  0  # atno 11005 bound_to 11000
  146.1789  139.4972  142.9879 LP  0  0  0  0  0  0  0  0  0  0  0  0  # atno 17320 bound_to 7965
  145.6434  141.0279  143.1799 LP  0  0  0  0  0  0  0  0  0  0  0  0  # atno 17321 bound_to 7965
  140.6950  143.7771  150.7313 LP  0  0  0  0  0  0  0  0  0  0  0  0  # atno 17342 bound_to 10162
  140.1264  143.4565  152.2281 LP  0  0  0  0  0  0  0  0  0  0  0  0  # atno 17343 bound_to 10162
  156.7475  130.4758  149.5464 LP  0  0  0  0  0  0  0  0  0  0  0  0  # atno 17370 bound_to 10713
  156.1500  130.6303  151.0582 LP  0  0  0  0  0  0  0  0  0  0  0  0  # atno 17371 bound_to 10713
  139.9017  134.8541  156.1870 LP  0  0  0  0  0  0  0  0  0  0  0  0  # atno 17394 bound_to 11000
  141.0474  133.6906  156.1708 LP  0  0  0  0  0  0  0  0  0  0  0  0  # atno 17395 bound_to 11000

$$$$
