#       Name:                AV-unprocessed.smi:2844
#       Creating user name   scv26
#       Creation time:       Fri Mar 27 15:39:05 2020


#       File generated by GOLD software.
#

@<TRIPOS>MOLECULE
AV-unprocessed.smi:2844
    42    44     1
SMALL
NO_CHARGES


@<TRIPOS>ATOM
      1 ****        -2.3641   3.7773  -2.8172 C.3            1 S1                 0.0000
      2 ****        -2.0676   2.7208  -1.7661 C.ar           1 S1                 0.0000
      3 ****        -2.3505   3.0170  -0.4133 C.ar           1 S1                 0.0000
      4 ****        -2.0646   2.0321   0.5248 C.ar           1 S1                 0.0000
      5 ****        -2.2203   2.0159   1.9127 N.pl3          1 S1                 1.0000
      6 ****        -1.7952   0.8189   2.4041 C.2            1 S1                 0.0000
      7 ****        -1.3706   0.0709   1.3498 N.pl3          1 S1                 0.0000
      8 ****        -0.8120  -1.2870   1.3154 C.3            1 S1                 0.0000
      9 ****         0.7260  -1.2933   1.2256 C.3            1 S1                 0.0000
     10 ****         1.2673  -0.6447   2.3617 O.3            1 S1                 0.0000
     11 ****         1.2942  -2.7211   1.1153 C.3            1 S1                 0.0000
     12 ****         2.7389  -2.7372   0.9693 N.pl3          1 S1                 0.0000
     13 ****         3.6897  -3.0943   1.9062 C.2            1 S1                 0.0000
     14 ****         4.8894  -2.9395   1.2815 C.2            1 S1                 0.0000
     15 ****         6.4498  -3.2332   1.9548 Cl             1 S1                 0.0000
     16 ****         4.6022  -2.4898  -0.0323 C.2            1 S1                 0.0000
     17 ****         3.2948  -2.3729  -0.2148 N.2            1 S1                 0.0000
     18 ****        -1.5190   0.7870   0.1575 C.ar           1 S1                 0.0000
     19 ****        -1.2354   0.4777  -1.1704 C.ar           1 S1                 0.0000
     20 ****        -1.5169   1.4673  -2.1395 C.ar           1 S1                 0.0000
     21 ****        -1.2161   1.1602  -3.5966 C.3            1 S1                 0.0000
     22 ****        -2.7992   4.6724  -2.3716 H              1 S1                 0.0000
     23 ****        -3.0703   3.3969  -3.5555 H              1 S1                 0.0000
     24 ****        -1.4493   4.0723  -3.3318 H              1 S1                 0.0000
     25 ****        -2.7695   3.9689  -0.1215 H              1 S1                 0.0000
     26 ****        -1.7907   0.5199   3.4424 H              1 S1                 0.0000
     27 ****        -1.1438  -1.8033   2.2175 H              1 S1                 0.0000
     28 ****        -1.2556  -1.8193   0.4730 H              1 S1                 0.0000
     29 ****         1.0323  -0.7243   0.3470 H              1 S1                 0.0000
     30 ****         1.0413  -1.1457   3.1305 H              1 S1                 0.0000
     31 ****         1.0266  -3.3077   1.9953 H              1 S1                 0.0000
     32 ****         0.8597  -3.2337   0.2559 H              1 S1                 0.0000
     33 ****         3.4364  -3.4153   2.9057 H              1 S1                 0.0000
     34 ****         5.2798  -2.2515  -0.8388 H              1 S1                 0.0000
     35 ****        -0.8145  -0.4759  -1.4535 H              1 S1                 0.0000
     36 ****        -0.8013   0.1590  -3.7165 H              1 S1                 0.0000
     37 ****        -0.4918   1.8705  -3.9961 H              1 S1                 0.0000
     38 ****        -2.1254   1.2173  -4.1954 H              1 S1                 0.0000
     39 ****        -2.5862   2.7660   2.4851 H              1 S1                 0.0000
     40 ****         0.8872   0.2773   2.4365 LP             1 S1                 0.0000
     41 ****         2.2621  -0.5891   2.2760 LP             1 S1                 0.0000
     42 ****         2.8204  -2.0798  -1.0449 LP             1 S1                 0.0000
@<TRIPOS>BOND
    1    1    2 1     
    2    1   22 1     
    3    1   23 1     
    4    1   24 1     
    5    2   20 ar    
    6    2    3 ar    
    7    3    4 ar    
    8    3   25 1     
    9    4   18 ar    
   10    4    5 1     
   11    5    6 2     
   12    5   39 1     
   13    6    7 1     
   14    6   26 1     
   15    7    8 1     
   16    7   18 1     
   17    8    9 1     
   18    8   27 1     
   19    8   28 1     
   20    9   10 1     
   21    9   11 1     
   22    9   29 1     
   23   10   30 1     
   24   11   12 1     
   25   11   31 1     
   26   11   32 1     
   27   12   17 1     
   28   12   13 1     
   29   13   14 2     
   30   13   33 1     
   31   14   15 1     
   32   14   16 1     
   33   16   17 2     
   34   16   34 1     
   35   18   19 ar    
   36   19   20 ar    
   37   19   35 1     
   38   20   21 1     
   39   21   36 1     
   40   21   37 1     
   41   21   38 1     
   42   10   40 1     
   43   10   41 1     
   44   17   42 1     
@<TRIPOS>SUBSTRUCTURE
      1 S1             1
@<TRIPOS>SET
LONE_PAIRS      STATIC     ATOMS    <user>   **** ""
3 40 41 42
DONOR_HYDROGENS      STATIC     ATOMS    <user>   **** ""
2 39 30
ATOM$BLUE        STATIC     ATOMS    COLORGROUP SYSTEM
3 40 41 42
ATOM$RED        STATIC     ATOMS    COLORGROUP SYSTEM
2 39 30
