AV-unprocessed.smi:2563|AV-procd|sdf|10057|dock3
  -GOLD-   2272014 93D 1   1.00000     0.00000
 Structure written by MMmdl.
 35 36  0  0  0  0  0  0  0  0  2 V2000
  150.8091  138.6481  158.1524 C   0  0  0  0  0  0  0  0  0  0  0  0
  149.9610  139.8948  157.8692 C   0  0  0  0  0  0  0  0  0  0  0  0
  150.7356  140.9554  157.2234 N   0  0  0  0  0  0  0  0  0  0  0  0
  151.4131  140.6554  155.9634 C   0  0  0  0  0  0  0  0  0  0  0  0
  150.4242  140.4297  154.8062 C   0  0  1  0  0  0  0  0  0  0  0  0
  150.4213  138.9605  154.3402 C   0  0  0  0  0  0  0  0  0  0  0  0
  149.4042  138.7596  153.2892 N   0  3  0  0  0  0  0  0  0  0  0  0
  148.0685  139.2019  153.7338 C   0  0  0  0  0  0  0  0  0  0  0  0
  148.1339  140.6553  154.2316 C   0  0  0  0  0  0  0  0  0  0  0  0
  149.1129  140.7588  155.2597 O   0  0  0  0  0  0  0  0  0  0  0  0
  150.9253  142.2016  157.8697 C   0  0  0  0  0  0  0  0  0  0  0  0
  151.3388  143.3571  157.1615 C   0  0  0  0  0  0  0  0  0  0  0  0
  151.5041  144.5531  157.8806 C   0  0  0  0  0  0  0  0  0  0  0  0
  151.2447  144.5190  159.2609 C   0  0  0  0  0  0  0  0  0  0  0  0
  150.8489  143.3951  159.8953 N   0  0  0  0  0  0  0  0  0  0  0  0
  150.6932  142.2594  159.2072 N   0  0  0  0  0  0  0  0  0  0  0  0
  150.2048  137.8682  158.6157 H   0  0  0  0  0  0  0  0  0  0  0  0
  151.6328  138.8739  158.8299 H   0  0  0  0  0  0  0  0  0  0  0  0
  151.2324  138.2388  157.2348 H   0  0  0  0  0  0  0  0  0  0  0  0
  149.1349  139.6191  157.2133 H   0  0  0  0  0  0  0  0  0  0  0  0
  149.4941  140.2543  158.7866 H   0  0  0  0  0  0  0  0  0  0  0  0
  152.1149  141.4534  155.7214 H   0  0  0  0  0  0  0  0  0  0  0  0
  152.0294  139.7644  156.0907 H   0  0  0  0  0  0  0  0  0  0  0  0
  150.6918  141.0732  153.9661 H   0  0  0  0  0  0  0  0  0  0  0  0
  151.3990  138.6796  153.9479 H   0  0  0  0  0  0  0  0  0  0  0  0
  150.2069  138.2948  155.1773 H   0  0  0  0  0  0  0  0  0  0  0  0
  149.6683  139.2990  152.4770 H   0  0  0  0  0  0  0  0  0  0  0  0
  147.3622  139.1089  152.9089 H   0  0  0  0  0  0  0  0  0  0  0  0
  147.7206  138.5454  154.5324 H   0  0  0  0  0  0  0  0  0  0  0  0
  148.3722  141.3392  153.4154 H   0  0  0  0  0  0  0  0  0  0  0  0
  147.1668  140.9608  154.6309 H   0  0  0  0  0  0  0  0  0  0  0  0
  151.5233  143.3544  156.0986 H   0  0  0  0  0  0  0  0  0  0  0  0
  151.8167  145.4642  157.3926 H   0  0  0  0  0  0  0  0  0  0  0  0
  151.3541  145.4064  159.8666 H   0  0  0  0  0  0  0  0  0  0  0  0
  149.3680  137.7818  153.0380 H   0  0  0  0  0  0  0  0  0  0  0  0
  1  2  1  0  0  0  0
  1 17  1  0  0  0  0
  1 18  1  0  0  0  0
  1 19  1  0  0  0  0
  2  3  1  0  0  0  0
  2 20  1  0  0  0  0
  2 21  1  0  0  0  0
  3  4  1  0  0  0  0
  3 11  1  0  0  0  0
  4  5  1  0  0  0  0
  4 22  1  0  0  0  0
  4 23  1  0  0  0  0
  5 10  1  0  0  0  0
  5  6  1  0  0  0  0
  5 24  1  0  0  0  0
  6  7  1  0  0  0  0
  6 25  1  0  0  0  0
  6 26  1  0  0  0  0
  7  8  1  0  0  0  0
  7 27  1  0  0  0  0
  7 35  1  0  0  0  0
  8  9  1  0  0  0  0
  8 28  1  0  0  0  0
  8 29  1  0  0  0  0
  9 10  1  0  0  0  0
  9 30  1  0  0  0  0
  9 31  1  0  0  0  0
 11 16  1  0  0  0  0
 11 12  2  0  0  0  0
 12 13  1  0  0  0  0
 12 32  1  0  0  0  0
 13 14  2  0  0  0  0
 13 33  1  0  0  0  0
 14 15  1  0  0  0  0
 14 34  1  0  0  0  0
 15 16  2  0  0  0  0
M  CHG  1   7   1
M  END
> <s_m_source_file>
AV-unprocessed.smi

> <i_m_source_file_index>
2563

> <i_lp_mmshare_version>
43012

> <i_f3d_flags>
0

> <s_epik_input>
bjFuW2NIXVtjSF1bY0hdYzFOKFtDSDJdW0NIM10pW0NIMl1bQ0BASF0yW0NIMl1bTkhdW0NIMl1bQ0gyXU8y

> <s_epik_cmdline>
J2VwaWtfcHl0aG9uJywgJy1waCcsICc3LjAnLCAnLXRuJywgJzgnLCAnLW1hJywgJzIwMCcsICctbWV0YWxfYmluZGluZycsICctaW1hZScsICc8aW5maWxlLm1hZT4nLCAnLW9tYWUnLCAnPG91dGZpbGUubWFlPic=

> <r_lp_tautomer_probability>
1

> <r_epik_Ionization_Penalty>
0.0472862

> <r_epik_Ionization_Penalty_Charging>
0.0127794

> <r_epik_Ionization_Penalty_Neutral>
0.0345068

> <r_epik_State_Penalty>
0.0614045

> <r_epik_Charging_Adjusted_Penalty>
0.0741839

> <i_epik_Tot_Q>
1

> <i_epik_Tot_abs_Q>
1

> <r_epik_Metal_State_Penalty>
0.0547208

> <b_epik_Metal_Only>
0

> <s_lp_Force_Field>
OPLS_2005

> <r_lp_Energy>
26.038

> <b_lp_Chiralities_Consistent>
1

> <s_lp_Variant>
AV-unprocessed.smi:2563-2

> <Gold.Version>
5.8.1

> <Gold.Id.Protein>
6NUR|6NUR_protein|mol2

> <Gold.PLP.Fitness>
39.7806

> <Gold.PLP.PLP>
-32.5943

> <Gold.PLP.part.hbond>
-3.5507

> <Gold.PLP.part.metal>
0.0000

> <Gold.PLP.part.buried>
-2.8120

> <Gold.PLP.part.nonpolar>
-26.0304

> <Gold.PLP.part.repulsive>
0.2313

> <Gold.PLP.ligand.clash>
0.0000

> <Gold.PLP.ligand.torsion>
0.9491

> <Gold.PLP.Chemscore.Hbond>
3.0000

> <Gold.PLP.Chemscore.CHOScore>
0.0000

> <Gold.PLP.Chemscore.Metal>
0.0000

> <Gold.Chemscore.Hbonds>
donor molecule, donor type, donor heavy atom, donor atom, acceptor molecule, acceptor atom, score
      L1  H     7    27       P1  7957  0.93
      L1  H     7    35       P1  7948  2.00

> <Gold.PLP.Chemscore.Internal.Correction>
0.0845

> <Gold.Rescore>
     Score         DG    S(hbond)    S(metal)    S(lipo)     H(rot)  DE(clash)    DE(int)     intcor
     15.45     -16.78       1.91        0.00      72.82       1.40       0.15       1.17       ----

> <Gold.Chemscore.Fitness>
15.4548

> <Gold.Chemscore.DG>
-16.7764

> <Gold.Chemscore.ZeroCoef>
-5.4800

> <Gold.Chemscore.Hbond>
1.9069

> <Gold.Chemscore.Metal>
0.0000

> <Gold.Chemscore.Lipo>
72.8188

> <Gold.Chemscore.Internal_Hbond>
0.0000

> <Gold.Chemscore.DEClash>
0.1486

> <Gold.Chemscore.DEInternal>
1.1730

> <Gold.Chemscore.Rot>
1.4033

> <Gold.Chemscore.Internal.Correction>
   9.000000E+99

> <Gold.Chemscore.Hbonds>
donor molecule, donor type, donor heavy atom, donor atom, acceptor molecule, acceptor atom, score
      L1  H     7    27       P1  7957  0.86
      L1  H     7    35       P1  7948  0.91

> <Gold.Chemscore.Hbond.Weighted>
-6.3691

> <Gold.Chemscore.Metal.Weighted>
-0.0000

> <Gold.Chemscore.Lipo.Weighted>
-8.5198

> <Gold.Chemscore.Internal_Hbond.Weighted>
0.0000

> <Gold.Chemscore.DEClash.Weighted>
0.1486

> <Gold.Chemscore.DEInternal.Weighted>
1.1730

> <Gold.Chemscore.Rot.Weighted>
3.5924

> <Gold.Chemscore.Internal.Correction.Weighted>
   9.000000E+99

> <Gold.Protein.RotatedTorsions>
[ 6907 6896 6895 6894 ] final  150.85 input  -60.11 | X-H torsion
[ 7974 7965 7964 7962 ] final   63.57 input  175.53 | X-H torsion
[ 8008 7997 7996 7995 ] final -177.67 input   59.86 | X-H torsion
[ 10167 10162 10161 10158 ] final   34.01 input  -65.29 | X-H torsion
[ 10718 10713 10712 10709 ] final  -96.50 input   66.30 | X-H torsion
[ 10763 10752 10751 10750 ] final  -72.14 input  -60.55 | X-H torsion
[ 11005 11000 10999 10996 ] final  -54.61 input  -57.11 | X-H torsion

> <Gold.Protein.ActiveResidues>
 VAL166  LYS551  ARG553  GLY616  TRP617  ASP618  TYR619  PRO620  LYS621  CYS622 
 ASP623  PHE694  ASN695  SER759  ASP760  ASP761  ALA762  ILE779  LEU786  VAL792 
 PHE793  MET794  SER795  GLU796  ALA797  LYS798  CYS799  TRP800  GLU811  SER814 

> <Gold.Protein.RotatedAtoms>
  152.1088  133.4289  159.4620 H   0  0  0  0  0  0  0  0  0  0  0  0  # atno 6907 bound_to 6896
  150.6866  134.2673  159.4583 H   0  0  0  0  0  0  0  0  0  0  0  0  # atno 6908 bound_to 6896
  152.0540  134.9636  160.0625 H   0  0  0  0  0  0  0  0  0  0  0  0  # atno 6909 bound_to 6896
  145.8602  139.3310  143.0823 H   0  0  0  0  0  0  0  0  0  0  0  0  # atno 7974 bound_to 7965
  156.0097  140.1238  157.0466 H   0  0  0  0  0  0  0  0  0  0  0  0  # atno 8008 bound_to 7997
  154.4271  140.1090  156.5882 H   0  0  0  0  0  0  0  0  0  0  0  0  # atno 8009 bound_to 7997
  155.6097  140.3471  155.4621 H   0  0  0  0  0  0  0  0  0  0  0  0  # atno 8010 bound_to 7997
  140.4354  144.1264  150.6165 H   0  0  0  0  0  0  0  0  0  0  0  0  # atno 10167 bound_to 10162
  156.0063  130.5154  150.6235 H   0  0  0  0  0  0  0  0  0  0  0  0  # atno 10718 bound_to 10713
  154.4416  135.5939  153.6133 H   0  0  0  0  0  0  0  0  0  0  0  0  # atno 10763 bound_to 10752
  152.9806  135.5999  154.3715 H   0  0  0  0  0  0  0  0  0  0  0  0  # atno 10764 bound_to 10752
  154.3566  135.2841  155.2322 H   0  0  0  0  0  0  0  0  0  0  0  0  # atno 10765 bound_to 10752
  141.1034  133.6615  156.4346 H   0  0  0  0  0  0  0  0  0  0  0  0  # atno 11005 bound_to 11000
  145.9256  140.9084  143.0382 LP  0  0  0  0  0  0  0  0  0  0  0  0  # atno 17320 bound_to 7965
  144.6727  140.1349  143.7441 LP  0  0  0  0  0  0  0  0  0  0  0  0  # atno 17321 bound_to 7965
  140.4379  143.2539  151.9511 LP  0  0  0  0  0  0  0  0  0  0  0  0  # atno 17342 bound_to 10162
  139.4787  144.5682  151.8130 LP  0  0  0  0  0  0  0  0  0  0  0  0  # atno 17343 bound_to 10162
  157.4046  131.0815  151.1277 LP  0  0  0  0  0  0  0  0  0  0  0  0  # atno 17370 bound_to 10713
  157.1928  130.6359  149.5710 LP  0  0  0  0  0  0  0  0  0  0  0  0  # atno 17371 bound_to 10713
  140.4964  134.6527  157.5231 LP  0  0  0  0  0  0  0  0  0  0  0  0  # atno 17394 bound_to 11000
  139.9894  134.7009  155.9716 LP  0  0  0  0  0  0  0  0  0  0  0  0  # atno 17395 bound_to 11000

$$$$
