AV-unprocessed.smi:2364|AV-procd|sdf|9418|dock10
  -GOLD-   2272013 53D 1   1.00000     0.00000
 Structure written by MMmdl.
 46 47  0  0  0  0  0  0  0  0  1 V2000
  146.3863  132.3914  151.7718 C   0  0  0  0  0  0  0  0  0  0  0  0
  145.9409  133.8649  151.7868 C   0  0  0  0  0  0  0  0  0  0  0  0
  144.5043  134.1393  152.3166 C   0  0  2  0  0  0  0  0  0  0  0  0
  143.4931  133.2846  151.5209 C   0  0  0  0  0  0  0  0  0  0  0  0
  144.1762  135.6440  152.1182 C   0  0  0  0  0  0  0  0  0  0  0  0
  144.4119  136.0760  150.7918 O   0  0  0  0  0  0  0  0  0  0  0  0
  144.3801  133.7652  153.7338 N   0  0  0  0  0  0  0  0  0  0  0  0
  145.0585  134.2480  154.7890 C   0  0  0  0  0  0  0  0  0  0  0  0
  145.9367  135.1074  154.7091 O   0  0  0  0  0  0  0  0  0  0  0  0
  144.6490  133.6654  155.9294 N   0  0  0  0  0  0  0  0  0  0  0  0
  145.1242  133.8860  157.2487 C   0  0  0  0  0  0  0  0  0  0  0  0
  144.2260  134.0473  158.2612 N   0  0  0  0  0  0  0  0  0  0  0  0
  145.0731  134.2085  159.2693 C   0  0  0  0  0  0  0  0  0  0  0  0
  146.3651  134.1906  158.9157 N   0  0  0  0  0  0  0  0  0  0  0  0
  147.5836  134.2407  159.7298 C   0  0  0  0  0  0  0  0  0  0  0  0
  147.5568  133.2205  160.8922 C   0  0  0  0  0  0  0  0  0  0  0  0
  146.5006  133.5822  161.9533 C   0  0  0  0  0  0  0  0  0  0  0  0
  146.7331  134.9985  162.5048 C   0  0  0  0  0  0  0  0  0  0  0  0
  146.8051  136.0407  161.3761 C   0  0  0  0  0  0  0  0  0  0  0  0
  147.8570  135.6458  160.3226 C   0  0  0  0  0  0  0  0  0  0  0  0
  146.4145  133.9307  157.5846 N   0  0  0  0  0  0  0  0  0  0  0  0
  147.4116  132.3093  151.4109 H   0  0  0  0  0  0  0  0  0  0  0  0
  145.7645  131.7851  151.1140 H   0  0  0  0  0  0  0  0  0  0  0  0
  146.3581  131.9479  152.7669 H   0  0  0  0  0  0  0  0  0  0  0  0
  146.6643  134.4285  152.3763 H   0  0  0  0  0  0  0  0  0  0  0  0
  146.0305  134.2631  150.7753 H   0  0  0  0  0  0  0  0  0  0  0  0
  143.5414  133.5040  150.4539 H   0  0  0  0  0  0  0  0  0  0  0  0
  142.4676  133.4652  151.8443 H   0  0  0  0  0  0  0  0  0  0  0  0
  143.6748  132.2174  151.6454 H   0  0  0  0  0  0  0  0  0  0  0  0
  143.1405  135.8660  152.3750 H   0  0  0  0  0  0  0  0  0  0  0  0
  144.7902  136.2520  152.7833 H   0  0  0  0  0  0  0  0  0  0  0  0
  143.9697  136.9010  150.6624 H   0  0  0  0  0  0  0  0  0  0  0  0
  143.6807  133.0646  153.9311 H   0  0  0  0  0  0  0  0  0  0  0  0
  143.9120  132.9813  155.8447 H   0  0  0  0  0  0  0  0  0  0  0  0
  144.7357  134.3420  160.2860 H   0  0  0  0  0  0  0  0  0  0  0  0
  148.4087  133.9826  159.0649 H   0  0  0  0  0  0  0  0  0  0  0  0
  147.3886  132.2100  160.5207 H   0  0  0  0  0  0  0  0  0  0  0  0
  148.5391  133.1954  161.3660 H   0  0  0  0  0  0  0  0  0  0  0  0
  145.5003  133.5159  161.5246 H   0  0  0  0  0  0  0  0  0  0  0  0
  146.5325  132.8593  162.7687 H   0  0  0  0  0  0  0  0  0  0  0  0
  145.9391  135.2611  163.2043 H   0  0  0  0  0  0  0  0  0  0  0  0
  147.6635  135.0165  163.0736 H   0  0  0  0  0  0  0  0  0  0  0  0
  145.8260  136.1422  160.9067 H   0  0  0  0  0  0  0  0  0  0  0  0
  147.0474  137.0190  161.7921 H   0  0  0  0  0  0  0  0  0  0  0  0
  148.8433  135.6500  160.7886 H   0  0  0  0  0  0  0  0  0  0  0  0
  147.9048  136.4016  159.5381 H   0  0  0  0  0  0  0  0  0  0  0  0
  1  2  1  0  0  0  0
  1 22  1  0  0  0  0
  1 23  1  0  0  0  0
  1 24  1  0  0  0  0
  2  3  1  0  0  0  0
  2 25  1  0  0  0  0
  2 26  1  0  0  0  0
  3  4  1  0  0  0  0
  3  5  1  0  0  0  0
  3  7  1  0  0  0  0
  4 27  1  0  0  0  0
  4 28  1  0  0  0  0
  4 29  1  0  0  0  0
  5  6  1  0  0  0  0
  5 30  1  0  0  0  0
  5 31  1  0  0  0  0
  6 32  1  0  0  0  0
  7  8  1  0  0  0  0
  7 33  1  0  0  0  0
  8  9  2  0  0  0  0
  8 10  1  0  0  0  0
 10 11  1  0  0  0  0
 10 34  1  0  0  0  0
 11 21  2  0  0  0  0
 11 12  1  0  0  0  0
 12 13  2  0  0  0  0
 13 14  1  0  0  0  0
 13 35  1  0  0  0  0
 14 15  1  0  0  0  0
 14 21  1  0  0  0  0
 15 20  1  0  0  0  0
 15 16  1  0  0  0  0
 15 36  1  0  0  0  0
 16 17  1  0  0  0  0
 16 37  1  0  0  0  0
 16 38  1  0  0  0  0
 17 18  1  0  0  0  0
 17 39  1  0  0  0  0
 17 40  1  0  0  0  0
 18 19  1  0  0  0  0
 18 41  1  0  0  0  0
 18 42  1  0  0  0  0
 19 20  1  0  0  0  0
 19 43  1  0  0  0  0
 19 44  1  0  0  0  0
 20 45  1  0  0  0  0
 20 46  1  0  0  0  0
M  END
> <s_m_source_file>
AV-unprocessed.smi

> <i_m_source_file_index>
2364

> <i_lp_mmshare_version>
43012

> <i_f3d_flags>
0

> <s_epik_input>
W0NIM11bQ0gyXVtDQEBdKFtDSDNdKShbQ0gyXVtPSF0pW05IXUMoPU8pW05IXWMxbltjSF1uKG4xKVtDSF0yW0NIMl1bQ0gyXVtDSDJdW0NIMl1bQ0gyXTI=

> <s_epik_cmdline>
J2VwaWtfcHl0aG9uJywgJy1waCcsICc3LjAnLCAnLXRuJywgJzgnLCAnLW1hJywgJzIwMCcsICctbWV0YWxfYmluZGluZycsICctaW1hZScsICc8aW5maWxlLm1hZT4nLCAnLW9tYWUnLCAnPG91dGZpbGUubWFlPic=

> <r_lp_tautomer_probability>
1

> <r_epik_Ionization_Penalty>
9.31261e-05

> <r_epik_Ionization_Penalty_Charging>
0

> <r_epik_Ionization_Penalty_Neutral>
9.31261e-05

> <r_epik_State_Penalty>
-0

> <r_epik_Charging_Adjusted_Penalty>
0

> <i_epik_Tot_Q>
0

> <i_epik_Tot_abs_Q>
0

> <r_epik_Metal_State_Penalty>
-0

> <b_epik_Metal_Only>
0

> <s_lp_Force_Field>
OPLS_2005

> <r_lp_Energy>
24.8913

> <b_lp_Chiralities_Consistent>
1

> <s_lp_Variant>
AV-unprocessed.smi:2364-2

> <Gold.Version>
5.8.1

> <Gold.Id.Protein>
6NUR|6NUR_protein|mol2

> <Gold.PLP.Fitness>
36.6205

> <Gold.PLP.PLP>
-28.7410

> <Gold.PLP.part.hbond>
-3.0000

> <Gold.PLP.part.metal>
0.0000

> <Gold.PLP.part.buried>
-4.7171

> <Gold.PLP.part.nonpolar>
-21.7417

> <Gold.PLP.part.repulsive>
0.0783

> <Gold.PLP.ligand.clash>
0.0000

> <Gold.PLP.ligand.torsion>
0.5989

> <Gold.PLP.Chemscore.Hbond>
2.9913

> <Gold.PLP.Chemscore.CHOScore>
0.0000

> <Gold.PLP.Chemscore.Metal>
0.0000

> <Gold.Chemscore.Hbonds>
donor molecule, donor type, donor heavy atom, donor atom, acceptor molecule, acceptor atom, score
      L1  H     6    32       P1 10171  1.00
      L1  H     7    33       P1 10957  1.00
      L1  H    10    34       P1 10957  1.00

> <Gold.PLP.Chemscore.Internal.Correction>
0.1035

> <Gold.Rescore>
     Score         DG    S(hbond)    S(metal)    S(lipo)     H(rot)  DE(clash)    DE(int)     intcor
     16.42     -16.95       2.94        0.00      65.07       2.34       0.00       0.53       ----

> <Gold.Chemscore.Fitness>
16.4166

> <Gold.Chemscore.DG>
-16.9486

> <Gold.Chemscore.ZeroCoef>
-5.4800

> <Gold.Chemscore.Hbond>
2.9442

> <Gold.Chemscore.Metal>
0.0000

> <Gold.Chemscore.Lipo>
65.0746

> <Gold.Chemscore.Internal_Hbond>
0.0000

> <Gold.Chemscore.DEClash>
0.0000

> <Gold.Chemscore.DEInternal>
0.5319

> <Gold.Chemscore.Rot>
2.3354

> <Gold.Chemscore.Internal.Correction>
   9.000000E+99

> <Gold.Chemscore.Hbonds>
donor molecule, donor type, donor heavy atom, donor atom, acceptor molecule, acceptor atom, score
      L1  H     6    32       P1 10171  0.94
      L1  H     7    33       P1 10957  0.99
      L1  H    10    34       P1 10957  0.93

> <Gold.Chemscore.Hbond.Weighted>
-9.8336

> <Gold.Chemscore.Metal.Weighted>
-0.0000

> <Gold.Chemscore.Lipo.Weighted>
-7.6137

> <Gold.Chemscore.Internal_Hbond.Weighted>
0.0000

> <Gold.Chemscore.DEClash.Weighted>
0.0000

> <Gold.Chemscore.DEInternal.Weighted>
0.5319

> <Gold.Chemscore.Rot.Weighted>
5.9787

> <Gold.Chemscore.Internal.Correction.Weighted>
   9.000000E+99

> <Gold.Protein.RotatedTorsions>
[ 6907 6896 6895 6894 ] final -119.82 input  -60.11 | X-H torsion
[ 7974 7965 7964 7962 ] final   41.29 input  175.53 | X-H torsion
[ 8008 7997 7996 7995 ] final  -82.17 input   59.86 | X-H torsion
[ 10167 10162 10161 10158 ] final -138.73 input  -65.29 | X-H torsion
[ 10718 10713 10712 10709 ] final  117.75 input   66.30 | X-H torsion
[ 10763 10752 10751 10750 ] final  -26.70 input  -60.55 | X-H torsion
[ 11005 11000 10999 10996 ] final -114.17 input  -57.11 | X-H torsion

> <Gold.Protein.ActiveResidues>
 VAL166  LYS551  ARG553  GLY616  TRP617  ASP618  TYR619  PRO620  LYS621  CYS622 
 ASP623  PHE694  ASN695  SER759  ASP760  ASP761  ALA762  ILE779  LEU786  VAL792 
 PHE793  MET794  SER795  GLU796  ALA797  LYS798  CYS799  TRP800  GLU811  SER814 

> <Gold.Protein.RotatedAtoms>
  150.8339  133.8046  159.3087 H   0  0  0  0  0  0  0  0  0  0  0  0  # atno 6907 bound_to 6896
  151.5768  135.1058  160.0017 H   0  0  0  0  0  0  0  0  0  0  0  0  # atno 6908 bound_to 6896
  152.4414  133.7413  159.6699 H   0  0  0  0  0  0  0  0  0  0  0  0  # atno 6909 bound_to 6896
  146.0835  139.5433  142.9521 H   0  0  0  0  0  0  0  0  0  0  0  0  # atno 7974 bound_to 7965
  154.6058  140.0637  156.9429 H   0  0  0  0  0  0  0  0  0  0  0  0  # atno 8008 bound_to 7997
  155.2055  140.3318  155.4318 H   0  0  0  0  0  0  0  0  0  0  0  0  # atno 8009 bound_to 7997
  156.2347  140.1857  156.7135 H   0  0  0  0  0  0  0  0  0  0  0  0  # atno 8010 bound_to 7997
  139.8450  143.7273  152.2661 H   0  0  0  0  0  0  0  0  0  0  0  0  # atno 10167 bound_to 10162
  157.6076  131.1040  150.7659 H   0  0  0  0  0  0  0  0  0  0  0  0  # atno 10718 bound_to 10713
  153.7202  135.6945  153.5015 H   0  0  0  0  0  0  0  0  0  0  0  0  # atno 10763 bound_to 10752
  153.2209  135.4370  155.0487 H   0  0  0  0  0  0  0  0  0  0  0  0  # atno 10764 bound_to 10752
  154.8287  135.3460  154.6736 H   0  0  0  0  0  0  0  0  0  0  0  0  # atno 10765 bound_to 10752
  141.0568  133.9599  157.2738 H   0  0  0  0  0  0  0  0  0  0  0  0  # atno 11005 bound_to 11000
  145.6173  141.0329  143.1934 LP  0  0  0  0  0  0  0  0  0  0  0  0  # atno 17320 bound_to 7965
  144.7310  139.7727  143.7347 LP  0  0  0  0  0  0  0  0  0  0  0  0  # atno 17321 bound_to 7965
  139.7522  144.7531  151.0490 LP  0  0  0  0  0  0  0  0  0  0  0  0  # atno 17342 bound_to 10162
  140.7794  143.4847  150.9971 LP  0  0  0  0  0  0  0  0  0  0  0  0  # atno 17343 bound_to 10162
  156.8044  130.4932  149.5365 LP  0  0  0  0  0  0  0  0  0  0  0  0  # atno 17370 bound_to 10713
  156.1167  130.6080  151.0131 LP  0  0  0  0  0  0  0  0  0  0  0  0  # atno 17371 bound_to 10713
  139.9397  135.0192  156.8671 LP  0  0  0  0  0  0  0  0  0  0  0  0  # atno 17394 bound_to 11000
  140.5947  134.0228  155.7513 LP  0  0  0  0  0  0  0  0  0  0  0  0  # atno 17395 bound_to 11000

$$$$
