AV-unprocessed.smi:40|AV-procd|sdf|381|dock1
  -GOLD-   2262016233D 1   1.00000     0.00000
 Structure written by MMmdl.
 47 48  0  0  0  0  0  0  0  0  1 V2000
  152.1849  144.5095  160.3681 C   0  0  0  0  0  0  0  0  0  0  0  0
  151.9162  145.2144  159.0321 C   0  0  0  0  0  0  0  0  0  0  0  0
  151.9741  144.2792  157.8133 C   0  0  0  0  0  0  0  0  0  0  0  0
  150.9347  143.1446  157.8515 C   0  0  0  0  0  0  0  0  0  0  0  0
  151.0087  142.2227  156.6270 C   0  0  0  0  0  0  0  0  0  0  0  0
  150.3437  141.0044  156.9164 O   0  0  0  0  0  0  0  0  0  0  0  0
  149.7679  140.2902  155.9327 C   0  0  0  0  0  0  0  0  0  0  0  0
  150.1615  140.2835  154.7664 O   0  0  0  0  0  0  0  0  0  0  0  0
  148.6503  139.5029  156.4280 N   0  0  0  0  0  0  0  0  0  0  0  0
  147.8286  138.6644  155.7495 C   0  0  0  0  0  0  0  0  0  0  0  0
  146.5180  138.8440  155.6902 N   0  0  0  0  0  0  0  0  0  0  0  0
  145.6639  138.0289  154.9983 C   0  0  0  0  0  0  0  0  0  0  0  0
  144.4541  138.2533  154.9812 O   0  0  0  0  0  0  0  0  0  0  0  0
  146.2291  136.9336  154.3048 N   0  0  0  0  0  0  0  0  0  0  0  0
  145.3034  136.0205  153.5268 C   0  0  2  0  0  0  0  0  0  0  0  0
  146.0267  134.9219  153.0477 O   0  0  0  0  0  0  0  0  0  0  0  0
  146.1004  134.9643  151.6261 C   0  0  1  0  0  0  0  0  0  0  0  0
  146.2658  133.5467  151.0668 C   0  0  0  0  0  0  0  0  0  0  0  0
  144.7924  135.6469  151.2331 C   0  0  2  0  0  0  0  0  0  0  0  0
  144.8162  136.1703  149.9184 O   0  0  0  0  0  0  0  0  0  0  0  0
  144.6424  136.7143  152.3122 C   0  0  2  0  0  0  0  0  0  0  0  0
  145.2657  137.9370  151.9464 O   0  0  0  0  0  0  0  0  0  0  0  0
  147.6030  136.7405  154.3325 C   0  0  0  0  0  0  0  0  0  0  0  0
  148.4225  137.5619  155.0235 C   0  0  0  0  0  0  0  0  0  0  0  0
  149.7510  137.3562  155.0333 F   0  0  0  0  0  0  0  0  0  0  0  0
  144.5795  135.6369  154.2476 H   0  0  0  0  0  0  0  0  0  0  0  0
  146.9487  135.5851  151.3338 H   0  0  0  0  0  0  0  0  0  0  0  0
  143.9689  134.9362  151.3188 H   0  0  0  0  0  0  0  0  0  0  0  0
  143.5940  136.9172  152.5334 H   0  0  0  0  0  0  0  0  0  0  0  0
  152.1945  145.2279  161.1880 H   0  0  0  0  0  0  0  0  0  0  0  0
  153.1506  144.0037  160.3596 H   0  0  0  0  0  0  0  0  0  0  0  0
  151.4178  143.7685  160.5927 H   0  0  0  0  0  0  0  0  0  0  0  0
  150.9481  145.7157  159.0678 H   0  0  0  0  0  0  0  0  0  0  0  0
  152.6582  146.0027  158.9019 H   0  0  0  0  0  0  0  0  0  0  0  0
  151.8122  144.8804  156.9179 H   0  0  0  0  0  0  0  0  0  0  0  0
  152.9766  143.8603  157.7169 H   0  0  0  0  0  0  0  0  0  0  0  0
  151.0871  142.5413  158.7463 H   0  0  0  0  0  0  0  0  0  0  0  0
  149.9306  143.5627  157.9304 H   0  0  0  0  0  0  0  0  0  0  0  0
  150.5533  142.7028  155.7596 H   0  0  0  0  0  0  0  0  0  0  0  0
  152.0512  142.0182  156.3796 H   0  0  0  0  0  0  0  0  0  0  0  0
  148.4624  139.6279  157.4121 H   0  0  0  0  0  0  0  0  0  0  0  0
  146.2974  133.5572  149.9771 H   0  0  0  0  0  0  0  0  0  0  0  0
  145.4412  132.9021  151.3722 H   0  0  0  0  0  0  0  0  0  0  0  0
  147.1918  133.0946  151.4226 H   0  0  0  0  0  0  0  0  0  0  0  0
  144.5802  137.0849  149.9557 H   0  0  0  0  0  0  0  0  0  0  0  0
  144.8613  138.2514  151.1524 H   0  0  0  0  0  0  0  0  0  0  0  0
  148.0524  135.9224  153.7911 H   0  0  0  0  0  0  0  0  0  0  0  0
  1  2  1  0  0  0  0
  1 30  1  0  0  0  0
  1 31  1  0  0  0  0
  1 32  1  0  0  0  0
  2  3  1  0  0  0  0
  2 33  1  0  0  0  0
  2 34  1  0  0  0  0
  3  4  1  0  0  0  0
  3 35  1  0  0  0  0
  3 36  1  0  0  0  0
  4  5  1  0  0  0  0
  4 37  1  0  0  0  0
  4 38  1  0  0  0  0
  5  6  1  0  0  0  0
  5 39  1  0  0  0  0
  5 40  1  0  0  0  0
  6  7  1  0  0  0  0
  7  8  2  0  0  0  0
  7  9  1  0  0  0  0
  9 10  1  0  0  0  0
  9 41  1  0  0  0  0
 10 24  1  0  0  0  0
 10 11  2  0  0  0  0
 11 12  1  0  0  0  0
 12 13  2  0  0  0  0
 12 14  1  0  0  0  0
 14 15  1  0  0  0  0
 14 23  1  0  0  0  0
 15 26  1  0  0  0  0
 15 21  1  0  0  0  0
 15 16  1  0  0  0  0
 16 17  1  0  0  0  0
 17 27  1  0  0  0  0
 17 18  1  0  0  0  0
 17 19  1  0  0  0  0
 18 42  1  0  0  0  0
 18 43  1  0  0  0  0
 18 44  1  0  0  0  0
 19 28  1  0  0  0  0
 19 20  1  0  0  0  0
 19 21  1  0  0  0  0
 20 45  1  0  0  0  0
 21 29  1  0  0  0  0
 21 22  1  0  0  0  0
 22 46  1  0  0  0  0
 23 24  2  0  0  0  0
 23 47  1  0  0  0  0
 24 25  1  0  0  0  0
M  END
> <s_m_source_file>
AV-unprocessed.smi

> <i_m_source_file_index>
40

> <i_lp_mmshare_version>
43012

> <i_f3d_flags>
0

> <s_epik_input>
W0NIM11bQ0gyXVtDSDJdW0NIMl1bQ0gyXU9DKD1PKVtOSF1jMW5jKD1PKW4oW2NIXWMxRilbQ0BASF0yT1tDQEhdKFtDSDNdKVtDQEBIXShbT0hdKVtDQEhdMltPSF0=

> <s_epik_cmdline>
J2VwaWtfcHl0aG9uJywgJy1waCcsICc3LjAnLCAnLXRuJywgJzgnLCAnLW1hJywgJzIwMCcsICctbWV0YWxfYmluZGluZycsICctaW1hZScsICc8aW5maWxlLm1hZT4nLCAnLW9tYWUnLCAnPG91dGZpbGUubWFlPic=

> <r_lp_tautomer_probability>
1

> <r_epik_Ionization_Penalty>
2.29506e-06

> <r_epik_Ionization_Penalty_Charging>
8.26867e-09

> <r_epik_Ionization_Penalty_Neutral>
2.2868e-06

> <r_epik_State_Penalty>
-0

> <r_epik_Charging_Adjusted_Penalty>
8.26867e-09

> <i_epik_Tot_Q>
0

> <i_epik_Tot_abs_Q>
0

> <r_epik_Metal_State_Penalty>
-0

> <b_epik_Metal_Only>
0

> <s_epik_Chemistry_Notes>
This compound has an ester and may undergo hydrolysis at high or low pH. This compound contains an acetal/aminal-like group ( X-CH(R)-Y where X, Y are N, S, or O) that may be acid/base labile, releasing an aldehyde.

> <s_lp_Force_Field>
OPLS_2005

> <r_lp_Energy>
41.7027

> <b_lp_Chiralities_Consistent>
1

> <s_lp_Variant>
AV-unprocessed.smi:40-15

> <Gold.Version>
5.8.1

> <Gold.Id.Protein>
6NUR|6NUR_protein|mol2

> <Gold.PLP.Fitness>
44.3646

> <Gold.PLP.PLP>
-35.1160

> <Gold.PLP.part.hbond>
-5.0000

> <Gold.PLP.part.metal>
0.0000

> <Gold.PLP.part.buried>
-3.3249

> <Gold.PLP.part.nonpolar>
-27.0265

> <Gold.PLP.part.repulsive>
0.3336

> <Gold.PLP.ligand.clash>
0.0000

> <Gold.PLP.ligand.torsion>
1.2728

> <Gold.PLP.Chemscore.Hbond>
3.0000

> <Gold.PLP.Chemscore.CHOScore>
0.8621

> <Gold.PLP.Chemscore.Metal>
0.0000

> <Gold.Chemscore.Hbonds>
donor molecule, donor type, donor heavy atom, donor atom, acceptor molecule, acceptor atom, score
      L1  H    20    45       P1 10171  1.00
      L1  H    22    46       P1 10171  1.00
      P1  H  7989  7998       L1     8  1.00
      L1  C    23    47       P1  7948  0.83

> <Gold.PLP.Chemscore.Internal.Correction>
0.2077

> <Gold.Rescore>
     Score         DG    S(hbond)    S(metal)    S(lipo)     H(rot)  DE(clash)    DE(int)     intcor
     12.80     -15.36       2.92        0.00      81.96       3.70       1.09       1.47       ----

> <Gold.Chemscore.Fitness>
12.8006

> <Gold.Chemscore.DG>
-15.3617

> <Gold.Chemscore.ZeroCoef>
-5.4800

> <Gold.Chemscore.Hbond>
2.9203

> <Gold.Chemscore.Metal>
0.0000

> <Gold.Chemscore.Lipo>
81.9559

> <Gold.Chemscore.Internal_Hbond>
0.0000

> <Gold.Chemscore.DEClash>
1.0909

> <Gold.Chemscore.DEInternal>
1.4702

> <Gold.Chemscore.Rot>
3.6957

> <Gold.Chemscore.Internal.Correction>
   9.000000E+99

> <Gold.Chemscore.Hbonds>
donor molecule, donor type, donor heavy atom, donor atom, acceptor molecule, acceptor atom, score
      L1  H    20    45       P1 10171  1.00
      L1  H    22    46       P1 10171  1.00
      P1  H  7989  7998       L1     8  0.90

> <Gold.Chemscore.Hbond.Weighted>
-9.7538

> <Gold.Chemscore.Metal.Weighted>
-0.0000

> <Gold.Chemscore.Lipo.Weighted>
-9.5888

> <Gold.Chemscore.Internal_Hbond.Weighted>
0.0000

> <Gold.Chemscore.DEClash.Weighted>
1.0909

> <Gold.Chemscore.DEInternal.Weighted>
1.4702

> <Gold.Chemscore.Rot.Weighted>
9.4610

> <Gold.Chemscore.Internal.Correction.Weighted>
   9.000000E+99

> <Gold.Protein.RotatedTorsions>
[ 6907 6896 6895 6894 ] final   60.69 input  -60.11 | X-H torsion
[ 7974 7965 7964 7962 ] final   76.62 input  175.53 | X-H torsion
[ 8008 7997 7996 7995 ] final  131.02 input   59.86 | X-H torsion
[ 10167 10162 10161 10158 ] final   91.44 input  -65.29 | X-H torsion
[ 10718 10713 10712 10709 ] final   68.94 input   66.30 | X-H torsion
[ 10763 10752 10751 10750 ] final -105.16 input  -60.55 | X-H torsion
[ 11005 11000 10999 10996 ] final  151.23 input  -57.11 | X-H torsion

> <Gold.Protein.ActiveResidues>
 VAL166  LYS551  ARG553  GLY616  TRP617  ASP618  TYR619  PRO620  LYS621  CYS622 
 ASP623  PHE694  ASN695  SER759  ASP760  ASP761  ALA762  ILE779  LEU786  VAL792 
 PHE793  MET794  SER795  GLU796  ALA797  LYS798  CYS799  TRP800  GLU811  SER814 

> <Gold.Protein.RotatedAtoms>
  152.4025  134.6262  160.0063 H   0  0  0  0  0  0  0  0  0  0  0  0  # atno 6907 bound_to 6896
  151.6463  133.3317  159.3149 H   0  0  0  0  0  0  0  0  0  0  0  0  # atno 6908 bound_to 6896
  150.7924  134.6999  159.6589 H   0  0  0  0  0  0  0  0  0  0  0  0  # atno 6909 bound_to 6896
  145.7004  139.2581  143.1708 H   0  0  0  0  0  0  0  0  0  0  0  0  # atno 7974 bound_to 7965
  156.2964  140.2581  156.2857 H   0  0  0  0  0  0  0  0  0  0  0  0  # atno 8008 bound_to 7997
  154.9558  140.0393  157.2185 H   0  0  0  0  0  0  0  0  0  0  0  0  # atno 8009 bound_to 7997
  154.7992  140.2825  155.5938 H   0  0  0  0  0  0  0  0  0  0  0  0  # atno 8010 bound_to 7997
  139.8374  144.6658  150.9325 H   0  0  0  0  0  0  0  0  0  0  0  0  # atno 10167 bound_to 10162
  157.6318  130.9400  150.0446 H   0  0  0  0  0  0  0  0  0  0  0  0  # atno 10718 bound_to 10713
  154.7928  135.4759  154.0091 H   0  0  0  0  0  0  0  0  0  0  0  0  # atno 10763 bound_to 10752
  153.1657  135.6816  153.8686 H   0  0  0  0  0  0  0  0  0  0  0  0  # atno 10764 bound_to 10752
  153.8285  135.3195  155.3394 H   0  0  0  0  0  0  0  0  0  0  0  0  # atno 10765 bound_to 10752
  140.1201  134.8869  157.2060 H   0  0  0  0  0  0  0  0  0  0  0  0  # atno 11005 bound_to 11000
  146.0802  140.7772  142.9645 LP  0  0  0  0  0  0  0  0  0  0  0  0  # atno 17320 bound_to 7965
  144.6970  140.3478  143.7187 LP  0  0  0  0  0  0  0  0  0  0  0  0  # atno 17321 bound_to 7965
  140.7801  143.3944  151.1255 LP  0  0  0  0  0  0  0  0  0  0  0  0  # atno 17342 bound_to 10162
  139.7593  143.8660  152.3096 LP  0  0  0  0  0  0  0  0  0  0  0  0  # atno 17343 bound_to 10162
  156.1527  130.3642  149.9414 LP  0  0  0  0  0  0  0  0  0  0  0  0  # atno 17370 bound_to 10713
  156.7431  130.9087  151.3633 LP  0  0  0  0  0  0  0  0  0  0  0  0  # atno 17371 bound_to 10713
  140.2976  134.3168  155.7298 LP  0  0  0  0  0  0  0  0  0  0  0  0  # atno 17394 bound_to 11000
  141.2150  133.7572  156.9594 LP  0  0  0  0  0  0  0  0  0  0  0  0  # atno 17395 bound_to 11000

$$$$
