#       Name:                AV-unprocessed.smi:1392
#       Creating user name   scv26
#       Creation time:       Fri Mar 27 05:28:30 2020


#       File generated by GOLD software.
#

@<TRIPOS>MOLECULE
AV-unprocessed.smi:1392
    44    45     1
SMALL
NO_CHARGES


@<TRIPOS>ATOM
      1 ****        -5.9217  -1.6753  -1.7560 C.3            1 S1                 0.0000
      2 ****        -5.1700  -0.6621  -1.0273 N.pl3          1 S1                 0.0000
      3 ****        -5.8682   0.4203  -0.3429 C.3            1 S1                 0.0000
      4 ****        -3.7694  -0.7847  -0.9009 C.ar           1 S1                 0.0000
      5 ****        -3.0182  -1.7955  -1.5494 C.ar           1 S1                 0.0000
      6 ****        -1.6208  -1.8549  -1.3719 C.ar           1 S1                 0.0000
      7 ****        -0.9790  -0.9147  -0.5393 C.ar           1 S1                 0.0000
      8 ****         0.4313  -1.0037  -0.3929 N.am           1 S1                 0.0000
      9 ****         1.1885  -0.5449   0.6186 C.2            1 S1                 0.0000
     10 ****         0.7624   0.0396   1.6144 O.2            1 S1                 0.0000
     11 ****         2.4852  -0.8233   0.4226 N.am           1 S1                 0.0000
     12 ****         3.5611  -0.4974   1.3535 C.3            1 S1                 0.0000
     13 ****         3.9520   0.9919   1.2987 C.3            1 S1                 0.0000
     14 ****         4.4761   1.4659  -0.0423 C.3            1 S1                 0.0000
     15 ****         5.1934   2.7546   0.3452 C.3            1 S1                 0.0000
     16 ****         5.7005   2.5340   1.6581 O.3            1 S1                 0.0000
     17 ****         5.1158   1.3614   2.2184 C.3            1 S1                 0.0000
     18 ****        -1.7695   0.0851   0.0748 C.ar           1 S1                 0.0000
     19 ****        -3.1048   0.1073  -0.1261 N.pl3          1 S1                 1.0000
     20 ****        -5.6407  -1.6756  -2.8098 H              1 S1                 0.0000
     21 ****        -6.9948  -1.4919  -1.6968 H              1 S1                 0.0000
     22 ****        -5.7315  -2.6664  -1.3430 H              1 S1                 0.0000
     23 ****        -5.4657   1.3881  -0.6439 H              1 S1                 0.0000
     24 ****        -5.7628   0.3206   0.7378 H              1 S1                 0.0000
     25 ****        -6.9328   0.4164  -0.5783 H              1 S1                 0.0000
     26 ****        -3.4911  -2.5291  -2.1849 H              1 S1                 0.0000
     27 ****        -1.0497  -2.6260  -1.8684 H              1 S1                 0.0000
     28 ****         0.9116  -1.5384  -1.1018 H              1 S1                 0.0000
     29 ****         2.7481  -1.3084  -0.4228 H              1 S1                 0.0000
     30 ****         3.2674  -0.7726   2.3678 H              1 S1                 0.0000
     31 ****         4.4210  -1.1200   1.1041 H              1 S1                 0.0000
     32 ****         3.0931   1.6075   1.5723 H              1 S1                 0.0000
     33 ****         5.1891   0.7477  -0.4500 H              1 S1                 0.0000
     34 ****         3.6895   1.6256  -0.7804 H              1 S1                 0.0000
     35 ****         5.9888   3.0172  -0.3524 H              1 S1                 0.0000
     36 ****         4.4873   3.5850   0.3821 H              1 S1                 0.0000
     37 ****         4.7955   1.5291   3.2471 H              1 S1                 0.0000
     38 ****         5.8706   0.5737   2.2247 H              1 S1                 0.0000
     39 ****        -1.3916   0.8738   0.7081 H              1 S1                 0.0000
     40 ****        -3.6445   0.8402   0.3344 H              1 S1                 0.0000
     41 ****        -0.2186   0.2052   1.7155 LP             1 S1                 0.0000
     42 ****         1.3972   0.3489   2.3225 LP             1 S1                 0.0000
     43 ****         5.4802   3.3211   2.2342 LP             1 S1                 0.0000
     44 ****         6.6930   2.4202   1.6144 LP             1 S1                 0.0000
@<TRIPOS>BOND
    1    1    2 1     
    2    1   20 1     
    3    1   21 1     
    4    1   22 1     
    5    2    3 1     
    6    2    4 1     
    7    3   23 1     
    8    3   24 1     
    9    3   25 1     
   10    4   19 ar    
   11    4    5 ar    
   12    5    6 ar    
   13    5   26 1     
   14    6    7 ar    
   15    6   27 1     
   16    7    8 1     
   17    7   18 ar    
   18    8    9 am    
   19    8   28 1     
   20    9   10 2     
   21    9   11 am    
   22   11   12 1     
   23   11   29 1     
   24   12   13 1     
   25   12   30 1     
   26   12   31 1     
   27   13   17 1     
   28   13   14 1     
   29   13   32 1     
   30   14   15 1     
   31   14   33 1     
   32   14   34 1     
   33   15   16 1     
   34   15   35 1     
   35   15   36 1     
   36   16   17 1     
   37   17   37 1     
   38   17   38 1     
   39   18   19 ar    
   40   18   39 1     
   41   19   40 1     
   42   10   41 1     
   43   10   42 1     
   44   16   43 1     
   45   16   44 1     
@<TRIPOS>SUBSTRUCTURE
      1 S1             1
@<TRIPOS>SET
LONE_PAIRS      STATIC     ATOMS    <user>   **** ""
4 41 42 43 44
DONOR_HYDROGENS      STATIC     ATOMS    <user>   **** ""
3 28 29 40
ATOM$BLUE        STATIC     ATOMS    COLORGROUP SYSTEM
4 41 42 43 44
ATOM$RED        STATIC     ATOMS    COLORGROUP SYSTEM
3 28 29 40
