AV-unprocessed.smi:2416|AV-procd|sdf|9547|dock3
  -GOLD-   2272013183D 1   1.00000     0.00000
 Structure written by MMmdl.
 40 41  0  0  0  0  0  0  0  0  1 V2000
  150.8274  141.3557  155.5427 C   0  0  0  0  0  0  0  0  0  0  0  0
  151.2074  140.1711  154.8543 O   0  0  0  0  0  0  0  0  0  0  0  0
  151.2209  138.9683  155.6250 C   0  0  2  0  0  0  0  0  0  0  0  0
  152.0057  139.1880  156.9279 C   0  0  0  0  0  0  0  0  0  0  0  0
  151.5720  137.7372  154.7698 C   0  0  0  0  0  0  0  0  0  0  0  0
  150.4390  137.0169  155.4975 C   0  0  2  0  0  0  0  0  0  0  0  0
  149.7079  136.1003  154.6292 N   0  0  0  0  0  0  0  0  0  0  0  0
  149.3511  134.8551  154.9727 C   0  0  0  0  0  0  0  0  0  0  0  0
  149.6115  134.3537  156.0668 O   0  0  0  0  0  0  0  0  0  0  0  0
  148.6829  134.2475  153.9763 N   0  0  0  0  0  0  0  0  0  0  0  0
  148.1249  132.9413  153.9612 C   0  0  0  0  0  0  0  0  0  0  0  0
  147.0664  132.7536  153.0434 C   0  0  0  0  0  0  0  0  0  0  0  0
  146.4418  131.4941  152.9530 C   0  0  0  0  0  0  0  0  0  0  0  0
  146.8933  130.4550  153.7856 C   0  0  0  0  0  0  0  0  0  0  0  0
  146.3228  129.2279  153.7359 F   0  0  0  0  0  0  0  0  0  0  0  0
  147.9530  130.7234  154.6715 C   0  0  0  0  0  0  0  0  0  0  0  0
  148.5526  131.9301  154.7587 N   0  0  0  0  0  0  0  0  0  0  0  0
  149.7667  138.3986  155.7050 C   0  0  0  0  0  0  0  0  0  0  0  0
  149.0244  138.5865  157.0320 C   0  0  0  0  0  0  0  0  0  0  0  0
  148.7916  138.8693  154.6069 C   0  0  0  0  0  0  0  0  0  0  0  0
  150.9660  142.2111  154.8819 H   0  0  0  0  0  0  0  0  0  0  0  0
  151.4341  141.5250  156.4323 H   0  0  0  0  0  0  0  0  0  0  0  0
  149.7771  141.3376  155.8323 H   0  0  0  0  0  0  0  0  0  0  0  0
  151.9184  138.3372  157.6032 H   0  0  0  0  0  0  0  0  0  0  0  0
  151.6468  140.0675  157.4626 H   0  0  0  0  0  0  0  0  0  0  0  0
  153.0709  139.3235  156.7433 H   0  0  0  0  0  0  0  0  0  0  0  0
  151.3889  137.8781  153.7027 H   0  0  0  0  0  0  0  0  0  0  0  0
  152.5631  137.3211  154.9525 H   0  0  0  0  0  0  0  0  0  0  0  0
  150.7817  136.5631  156.4303 H   0  0  0  0  0  0  0  0  0  0  0  0
  149.4558  136.4399  153.7126 H   0  0  0  0  0  0  0  0  0  0  0  0
  148.5525  134.7851  153.1321 H   0  0  0  0  0  0  0  0  0  0  0  0
  146.7327  133.5645  152.4122 H   0  0  0  0  0  0  0  0  0  0  0  0
  145.6314  131.3302  152.2582 H   0  0  0  0  0  0  0  0  0  0  0  0
  148.3290  129.9520  155.3271 H   0  0  0  0  0  0  0  0  0  0  0  0
  148.0496  138.0980  157.0196 H   0  0  0  0  0  0  0  0  0  0  0  0
  148.8612  139.6422  157.2508 H   0  0  0  0  0  0  0  0  0  0  0  0
  149.5735  138.1615  157.8720 H   0  0  0  0  0  0  0  0  0  0  0  0
  147.8666  138.2919  154.6143 H   0  0  0  0  0  0  0  0  0  0  0  0
  149.2169  138.7765  153.6075 H   0  0  0  0  0  0  0  0  0  0  0  0
  148.5177  139.9163  154.7402 H   0  0  0  0  0  0  0  0  0  0  0  0
  1  2  1  0  0  0  0
  1 21  1  0  0  0  0
  1 22  1  0  0  0  0
  1 23  1  0  0  0  0
  2  3  1  0  0  0  0
  3 18  1  0  0  0  0
  3  4  1  0  0  0  0
  3  5  1  0  0  0  0
  4 24  1  0  0  0  0
  4 25  1  0  0  0  0
  4 26  1  0  0  0  0
  5  6  1  0  0  0  0
  5 27  1  0  0  0  0
  5 28  1  0  0  0  0
  6  7  1  0  0  0  0
  6 18  1  0  0  0  0
  6 29  1  0  0  0  0
  7  8  1  0  0  0  0
  7 30  1  0  0  0  0
  8  9  2  0  0  0  0
  8 10  1  0  0  0  0
 10 11  1  0  0  0  0
 10 31  1  0  0  0  0
 11 17  1  0  0  0  0
 11 12  2  0  0  0  0
 12 13  1  0  0  0  0
 12 32  1  0  0  0  0
 13 14  2  0  0  0  0
 13 33  1  0  0  0  0
 14 15  1  0  0  0  0
 14 16  1  0  0  0  0
 16 17  2  0  0  0  0
 16 34  1  0  0  0  0
 18 19  1  0  0  0  0
 18 20  1  0  0  0  0
 19 35  1  0  0  0  0
 19 36  1  0  0  0  0
 19 37  1  0  0  0  0
 20 38  1  0  0  0  0
 20 39  1  0  0  0  0
 20 40  1  0  0  0  0
M  END
> <s_m_source_file>
AV-unprocessed.smi

> <i_m_source_file_index>
2416

> <i_lp_mmshare_version>
43012

> <i_f3d_flags>
0

> <s_epik_input>
W0NIM11PW0NAQF0xKFtDSDNdKVtDSDJdW0NASF0oQzEoW0NIM10pW0NIM10pW05IXUMoPU8pW05IXWMyW2NIXVtjSF1jKEYpW2NIXW4y

> <s_epik_cmdline>
J2VwaWtfcHl0aG9uJywgJy1waCcsICc3LjAnLCAnLXRuJywgJzgnLCAnLW1hJywgJzIwMCcsICctbWV0YWxfYmluZGluZycsICctaW1hZScsICc8aW5maWxlLm1hZT4nLCAnLW9tYWUnLCAnPG91dGZpbGUubWFlPic=

> <r_lp_tautomer_probability>
1

> <r_epik_Ionization_Penalty>
3.67756e-05

> <r_epik_Ionization_Penalty_Charging>
0

> <r_epik_Ionization_Penalty_Neutral>
3.67756e-05

> <r_epik_State_Penalty>
-0

> <r_epik_Charging_Adjusted_Penalty>
0

> <i_epik_Tot_Q>
0

> <i_epik_Tot_abs_Q>
0

> <r_epik_Metal_State_Penalty>
-0

> <b_epik_Metal_Only>
0

> <s_lp_Force_Field>
OPLS_2005

> <r_lp_Energy>
27.0586

> <b_lp_Chiralities_Consistent>
1

> <s_lp_Variant>
AV-unprocessed.smi:2416-4

> <Gold.Version>
5.8.1

> <Gold.Id.Protein>
6NUR|6NUR_protein|mol2

> <Gold.PLP.Fitness>
39.4044

> <Gold.PLP.PLP>
-30.9134

> <Gold.PLP.part.hbond>
-3.5061

> <Gold.PLP.part.metal>
0.0000

> <Gold.PLP.part.buried>
-3.5513

> <Gold.PLP.part.nonpolar>
-24.2149

> <Gold.PLP.part.repulsive>
0.1996

> <Gold.PLP.ligand.clash>
0.0000

> <Gold.PLP.ligand.torsion>
0.3790

> <Gold.PLP.Chemscore.Hbond>
2.9600

> <Gold.PLP.Chemscore.CHOScore>
0.0000

> <Gold.PLP.Chemscore.Metal>
0.0000

> <Gold.Chemscore.Hbonds>
donor molecule, donor type, donor heavy atom, donor atom, acceptor molecule, acceptor atom, score
      L1  H     7    30       P1  7948  1.00
      L1  H    10    31       P1  7948  1.00
      P1  H  7989  7998       L1     2  0.85

> <Gold.PLP.Chemscore.Internal.Correction>
0.3690

> <Gold.Rescore>
     Score         DG    S(hbond)    S(metal)    S(lipo)     H(rot)  DE(clash)    DE(int)     intcor
     15.48     -17.07       2.49        0.00      55.84       1.27       0.06       1.54       ----

> <Gold.Chemscore.Fitness>
15.4762

> <Gold.Chemscore.DG>
-17.0741

> <Gold.Chemscore.ZeroCoef>
-5.4800

> <Gold.Chemscore.Hbond>
2.4851

> <Gold.Chemscore.Metal>
0.0000

> <Gold.Chemscore.Lipo>
55.8381

> <Gold.Chemscore.Internal_Hbond>
0.0000

> <Gold.Chemscore.DEClash>
0.0567

> <Gold.Chemscore.DEInternal>
1.5412

> <Gold.Chemscore.Rot>
1.2653

> <Gold.Chemscore.Internal.Correction>
   9.000000E+99

> <Gold.Chemscore.Hbonds>
donor molecule, donor type, donor heavy atom, donor atom, acceptor molecule, acceptor atom, score
      L1  H     7    30       P1  7948  0.76
      L1  H    10    31       P1  7948  0.49
      P1  H  7989  7998       L1     2  0.14

> <Gold.Chemscore.Hbond.Weighted>
-8.3002

> <Gold.Chemscore.Metal.Weighted>
-0.0000

> <Gold.Chemscore.Lipo.Weighted>
-6.5331

> <Gold.Chemscore.Internal_Hbond.Weighted>
0.0000

> <Gold.Chemscore.DEClash.Weighted>
0.0567

> <Gold.Chemscore.DEInternal.Weighted>
1.5412

> <Gold.Chemscore.Rot.Weighted>
3.2392

> <Gold.Chemscore.Internal.Correction.Weighted>
   9.000000E+99

> <Gold.Protein.RotatedTorsions>
[ 6907 6896 6895 6894 ] final  160.82 input  -60.11 | X-H torsion
[ 7974 7965 7964 7962 ] final   37.52 input  175.53 | X-H torsion
[ 8008 7997 7996 7995 ] final   16.19 input   59.86 | X-H torsion
[ 10167 10162 10161 10158 ] final -139.80 input  -65.29 | X-H torsion
[ 10718 10713 10712 10709 ] final   99.91 input   66.30 | X-H torsion
[ 10763 10752 10751 10750 ] final   12.41 input  -60.55 | X-H torsion
[ 11005 11000 10999 10996 ] final   56.89 input  -57.11 | X-H torsion

> <Gold.Protein.ActiveResidues>
 VAL166  LYS551  ARG553  GLY616  TRP617  ASP618  TYR619  PRO620  LYS621  CYS622 
 ASP623  PHE694  ASN695  SER759  ASP760  ASP761  ALA762  ILE779  LEU786  VAL792 
 PHE793  MET794  SER795  GLU796  ALA797  LYS798  CYS799  TRP800  GLU811  SER814 

> <Gold.Protein.RotatedAtoms>
  151.9649  133.3707  159.4048 H   0  0  0  0  0  0  0  0  0  0  0  0  # atno 6907 bound_to 6896
  150.6958  134.4201  159.5210 H   0  0  0  0  0  0  0  0  0  0  0  0  # atno 6908 bound_to 6896
  152.1896  134.8683  160.0569 H   0  0  0  0  0  0  0  0  0  0  0  0  # atno 6909 bound_to 6896
  146.1131  139.5884  142.9339 H   0  0  0  0  0  0  0  0  0  0  0  0  # atno 7974 bound_to 7965
  154.8734  140.2962  155.5467 H   0  0  0  0  0  0  0  0  0  0  0  0  # atno 8008 bound_to 7997
  156.3021  140.2456  156.3660 H   0  0  0  0  0  0  0  0  0  0  0  0  # atno 8009 bound_to 7997
  154.8793  140.0398  157.1761 H   0  0  0  0  0  0  0  0  0  0  0  0  # atno 8010 bound_to 7997
  139.8344  143.7405  152.2665 H   0  0  0  0  0  0  0  0  0  0  0  0  # atno 10167 bound_to 10162
  157.6866  131.0683  150.5019 H   0  0  0  0  0  0  0  0  0  0  0  0  # atno 10718 bound_to 10713
  153.1826  135.6830  153.8458 H   0  0  0  0  0  0  0  0  0  0  0  0  # atno 10763 bound_to 10752
  153.7785  135.3186  155.3363 H   0  0  0  0  0  0  0  0  0  0  0  0  # atno 10764 bound_to 10752
  154.8069  135.4743  154.0510 H   0  0  0  0  0  0  0  0  0  0  0  0  # atno 10765 bound_to 10752
  140.0494  134.5759  155.9282 H   0  0  0  0  0  0  0  0  0  0  0  0  # atno 11005 bound_to 11000
  145.5622  141.0403  143.2220 LP  0  0  0  0  0  0  0  0  0  0  0  0  # atno 17320 bound_to 7965
  144.7529  139.7148  143.7266 LP  0  0  0  0  0  0  0  0  0  0  0  0  # atno 17321 bound_to 7965
  139.7622  144.7503  151.0347 LP  0  0  0  0  0  0  0  0  0  0  0  0  # atno 17342 bound_to 10162
  140.7804  143.4738  151.0110 LP  0  0  0  0  0  0  0  0  0  0  0  0  # atno 17343 bound_to 10162
  156.5341  130.4192  149.6187 LP  0  0  0  0  0  0  0  0  0  0  0  0  # atno 17370 bound_to 10713
  156.3043  130.7194  151.2073 LP  0  0  0  0  0  0  0  0  0  0  0  0  # atno 17371 bound_to 10713
  141.1923  133.6574  156.5495 LP  0  0  0  0  0  0  0  0  0  0  0  0  # atno 17394 bound_to 11000
  140.3941  134.7414  157.4740 LP  0  0  0  0  0  0  0  0  0  0  0  0  # atno 17395 bound_to 11000

$$$$
