AV-unprocessed.smi:3018|AV-procd|sdf|11483|dock9
  -GOLD-   2272016423D 1   1.00000     0.00000
 Structure written by MMmdl.
 44 45  0  0  0  0  0  0  0  0  2 V2000
  154.6047  139.0290  161.6400 C   0  0  0  0  0  0  0  0  0  0  0  0
  155.0628  140.4386  161.2455 C   0  0  0  0  0  0  0  0  0  0  0  0
  154.2549  141.0202  160.0710 C   0  0  2  0  0  0  0  0  0  0  0  0
  152.9892  141.4410  160.5781 O   0  0  0  0  0  0  0  0  0  0  0  0
  152.5419  142.7389  160.1932 C   0  0  0  0  0  0  0  0  0  0  0  0
  151.1606  143.0404  160.8099 C   0  0  0  0  0  0  0  0  0  0  0  0
  150.5988  144.3757  160.2942 C   0  0  0  0  0  0  0  0  0  0  0  0
  150.5342  144.3998  158.7586 C   0  0  0  0  0  0  0  0  0  0  0  0
  151.9069  144.0933  158.1392 C   0  0  0  0  0  0  0  0  0  0  0  0
  152.4626  142.7571  158.6569 C   0  0  0  0  0  0  0  0  0  0  0  0
  154.0524  139.9668  158.9713 C   0  0  0  0  0  0  0  0  0  0  0  0
  155.0261  139.4251  158.4477 O   0  0  0  0  0  0  0  0  0  0  0  0
  152.7813  139.6883  158.6413 N   0  0  0  0  0  0  0  0  0  0  0  0
  152.3580  138.7607  157.5945 C   0  0  0  0  0  0  0  0  0  0  0  0
  152.5227  137.2870  158.0196 C   0  0  0  0  0  0  0  0  0  0  0  0
  151.3497  136.4299  157.6184 C   0  0  0  0  0  0  0  0  0  0  0  0
  150.1168  136.6712  157.8690 N   0  0  0  0  0  0  0  0  0  0  0  0
  149.4836  135.6393  157.2881 N   0  0  0  0  0  0  0  0  0  0  0  0
  150.3391  134.7967  156.7045 C   0  0  0  0  0  0  0  0  0  0  0  0
  149.9913  133.7792  156.1093 O   0  0  0  0  0  0  0  0  0  0  0  0
  151.5728  135.2904  156.9113 N   0  5  0  0  0  0  0  0  0  0  0  0
  148.4772  135.5731  157.3256 H   0  0  0  0  0  0  0  0  0  0  0  0
  155.1859  138.6545  162.4830 H   0  0  0  0  0  0  0  0  0  0  0  0
  154.7274  138.3280  160.8141 H   0  0  0  0  0  0  0  0  0  0  0  0
  153.5542  139.0235  161.9314 H   0  0  0  0  0  0  0  0  0  0  0  0
  154.9687  141.0913  162.1150 H   0  0  0  0  0  0  0  0  0  0  0  0
  156.1244  140.4155  160.9944 H   0  0  0  0  0  0  0  0  0  0  0  0
  154.8028  141.8707  159.6628 H   0  0  0  0  0  0  0  0  0  0  0  0
  153.2519  143.5072  160.5015 H   0  0  0  0  0  0  0  0  0  0  0  0
  150.4670  142.2348  160.5662 H   0  0  0  0  0  0  0  0  0  0  0  0
  151.2239  143.0744  161.8972 H   0  0  0  0  0  0  0  0  0  0  0  0
  149.6054  144.5467  160.7098 H   0  0  0  0  0  0  0  0  0  0  0  0
  151.2264  145.1955  160.6462 H   0  0  0  0  0  0  0  0  0  0  0  0
  149.8055  143.6653  158.4128 H   0  0  0  0  0  0  0  0  0  0  0  0
  150.1797  145.3722  158.4157 H   0  0  0  0  0  0  0  0  0  0  0  0
  151.8267  144.0665  157.0521 H   0  0  0  0  0  0  0  0  0  0  0  0
  152.6049  144.8968  158.3781 H   0  0  0  0  0  0  0  0  0  0  0  0
  153.4517  142.5786  158.2338 H   0  0  0  0  0  0  0  0  0  0  0  0
  151.8270  141.9405  158.3115 H   0  0  0  0  0  0  0  0  0  0  0  0
  152.0497  140.1817  159.1313 H   0  0  0  0  0  0  0  0  0  0  0  0
  151.3347  138.9588  157.2696 H   0  0  0  0  0  0  0  0  0  0  0  0
  152.9878  138.9503  156.7254 H   0  0  0  0  0  0  0  0  0  0  0  0
  153.4323  136.8862  157.5702 H   0  0  0  0  0  0  0  0  0  0  0  0
  152.6742  137.2264  159.0979 H   0  0  0  0  0  0  0  0  0  0  0  0
  1  2  1  0  0  0  0
  1 23  1  0  0  0  0
  1 24  1  0  0  0  0
  1 25  1  0  0  0  0
  2  3  1  0  0  0  0
  2 26  1  0  0  0  0
  2 27  1  0  0  0  0
  3  4  1  0  0  0  0
  3 11  1  0  0  0  0
  3 28  1  0  0  0  0
  4  5  1  0  0  0  0
  5 10  1  0  0  0  0
  5  6  1  0  0  0  0
  5 29  1  0  0  0  0
  6  7  1  0  0  0  0
  6 30  1  0  0  0  0
  6 31  1  0  0  0  0
  7  8  1  0  0  0  0
  7 32  1  0  0  0  0
  7 33  1  0  0  0  0
  8  9  1  0  0  0  0
  8 34  1  0  0  0  0
  8 35  1  0  0  0  0
  9 10  1  0  0  0  0
  9 36  1  0  0  0  0
  9 37  1  0  0  0  0
 10 38  1  0  0  0  0
 10 39  1  0  0  0  0
 11 12  2  0  0  0  0
 11 13  1  0  0  0  0
 13 14  1  0  0  0  0
 13 40  1  0  0  0  0
 14 15  1  0  0  0  0
 14 41  1  0  0  0  0
 14 42  1  0  0  0  0
 15 16  1  0  0  0  0
 15 43  1  0  0  0  0
 15 44  1  0  0  0  0
 16 21  1  0  0  0  0
 16 17  2  0  0  0  0
 17 18  1  0  0  0  0
 18 22  1  0  0  0  0
 18 19  1  0  0  0  0
 19 20  2  0  0  0  0
 19 21  1  0  0  0  0
M  CHG  1  21  -1
M  END
> <s_m_source_file>
AV-unprocessed.smi

> <i_m_source_file_index>
3018

> <i_lp_mmshare_version>
43012

> <i_f3d_flags>
0

> <s_epik_input>
W0NIMl0xW0NIMl1bQ0gyXVtDSDJdW0NIMl1bQ0hdMU9bQ0BASF0oW0NIMl1bQ0gzXSlDKD1PKVtOSF1bQ0gyXVtDSDJdYzJuW25IXWMoPU8pW25IXTI=

> <s_epik_cmdline>
J2VwaWtfcHl0aG9uJywgJy1waCcsICc3LjAnLCAnLXRuJywgJzgnLCAnLW1hJywgJzIwMCcsICctbWV0YWxfYmluZGluZycsICctaW1hZScsICc8aW5maWxlLm1hZT4nLCAnLW9tYWUnLCAnPG91dGZpbGUubWFlPic=

> <r_lp_tautomer_probability>
1

> <r_epik_Ionization_Penalty>
13.7173

> <r_epik_Ionization_Penalty_Charging>
13.7173

> <r_epik_Ionization_Penalty_Neutral>
5.37575e-06

> <r_epik_State_Penalty>
4.05785

> <r_epik_Charging_Adjusted_Penalty>
17.7751

> <i_epik_Tot_Q>
-1

> <i_epik_Tot_abs_Q>
1

> <r_epik_Metal_State_Penalty>
0.460256

> <b_epik_Metal_Only>
1

> <s_lp_Force_Field>
OPLS_2005

> <r_lp_Energy>
25.0633

> <b_lp_Chiralities_Consistent>
1

> <s_lp_Variant>
AV-unprocessed.smi:3018-5

> <Gold.Version>
5.8.1

> <Gold.Id.Protein>
6NUR|6NUR_protein|mol2

> <Gold.PLP.Fitness>
49.9670

> <Gold.PLP.PLP>
-43.4131

> <Gold.PLP.part.hbond>
-4.0000

> <Gold.PLP.part.metal>
0.0000

> <Gold.PLP.part.buried>
-4.6763

> <Gold.PLP.part.nonpolar>
-35.3890

> <Gold.PLP.part.repulsive>
0.2871

> <Gold.PLP.ligand.clash>
0.0000

> <Gold.PLP.ligand.torsion>
1.2668

> <Gold.PLP.Chemscore.Hbond>
3.0114

> <Gold.PLP.Chemscore.CHOScore>
0.0000

> <Gold.PLP.Chemscore.Metal>
0.0000

> <Gold.Chemscore.Hbonds>
donor molecule, donor type, donor heavy atom, donor atom, acceptor molecule, acceptor atom, score
      P1  H  7997  8009       L1    12  0.31

> <Gold.PLP.Chemscore.Internal.Correction>
0.0533

> <Gold.Rescore>
     Score         DG    S(hbond)    S(metal)    S(lipo)     H(rot)  DE(clash)    DE(int)     intcor
     15.74     -17.52       1.97        0.00     111.76       2.98       0.10       1.67       ----

> <Gold.Chemscore.Fitness>
15.7413

> <Gold.Chemscore.DG>
-17.5157

> <Gold.Chemscore.ZeroCoef>
-5.4800

> <Gold.Chemscore.Hbond>
1.9705

> <Gold.Chemscore.Metal>
0.0000

> <Gold.Chemscore.Lipo>
111.7586

> <Gold.Chemscore.Internal_Hbond>
0.0000

> <Gold.Chemscore.DEClash>
0.1008

> <Gold.Chemscore.DEInternal>
1.6736

> <Gold.Chemscore.Rot>
2.9772

> <Gold.Chemscore.Internal.Correction>
   9.000000E+99

> <Gold.Chemscore.Hbonds>
donor molecule, donor type, donor heavy atom, donor atom, acceptor molecule, acceptor atom, score
      P1  H  7997  8009       L1    12  0.20
      P1  H 10752 10763       L1    21  0.01

> <Gold.Chemscore.Hbond.Weighted>
-6.5815

> <Gold.Chemscore.Metal.Weighted>
-0.0000

> <Gold.Chemscore.Lipo.Weighted>
-13.0758

> <Gold.Chemscore.Internal_Hbond.Weighted>
0.0000

> <Gold.Chemscore.DEClash.Weighted>
0.1008

> <Gold.Chemscore.DEInternal.Weighted>
1.6736

> <Gold.Chemscore.Rot.Weighted>
7.6216

> <Gold.Chemscore.Internal.Correction.Weighted>
   9.000000E+99

> <Gold.Protein.RotatedTorsions>
[ 6907 6896 6895 6894 ] final  -54.88 input  -60.11 | X-H torsion
[ 7974 7965 7964 7962 ] final -135.84 input  175.53 | X-H torsion
[ 8008 7997 7996 7995 ] final  111.56 input   59.86 | X-H torsion
[ 10167 10162 10161 10158 ] final   84.12 input  -65.29 | X-H torsion
[ 10718 10713 10712 10709 ] final  -81.99 input   66.30 | X-H torsion
[ 10763 10752 10751 10750 ] final   74.28 input  -60.55 | X-H torsion
[ 11005 11000 10999 10996 ] final  157.36 input  -57.11 | X-H torsion

> <Gold.Protein.ActiveResidues>
 VAL166  LYS551  ARG553  GLY616  TRP617  ASP618  TYR619  PRO620  LYS621  CYS622 
 ASP623  PHE694  ASN695  SER759  ASP760  ASP761  ALA762  ILE779  LEU786  VAL792 
 PHE793  MET794  SER795  GLU796  ALA797  LYS798  CYS799  TRP800  GLU811  SER814 

> <Gold.Protein.RotatedAtoms>
  150.8299  134.7548  159.6844 H   0  0  0  0  0  0  0  0  0  0  0  0  # atno 6907 bound_to 6896
  152.4405  134.5596  159.9900 H   0  0  0  0  0  0  0  0  0  0  0  0  # atno 6908 bound_to 6896
  151.5760  133.3346  159.3035 H   0  0  0  0  0  0  0  0  0  0  0  0  # atno 6909 bound_to 6896
  144.8979  140.6731  143.5104 H   0  0  0  0  0  0  0  0  0  0  0  0  # atno 7974 bound_to 7965
  156.2132  140.3017  155.9781 H   0  0  0  0  0  0  0  0  0  0  0  0  # atno 8008 bound_to 7997
  155.2670  140.0432  157.3020 H   0  0  0  0  0  0  0  0  0  0  0  0  # atno 8009 bound_to 7997
  154.5730  140.2353  155.8172 H   0  0  0  0  0  0  0  0  0  0  0  0  # atno 8010 bound_to 7997
  139.9113  144.6270  150.8535 H   0  0  0  0  0  0  0  0  0  0  0  0  # atno 10167 bound_to 10162
  156.0040  130.4620  150.4037 H   0  0  0  0  0  0  0  0  0  0  0  0  # atno 10718 bound_to 10713
  153.0576  135.5031  154.8019 H   0  0  0  0  0  0  0  0  0  0  0  0  # atno 10763 bound_to 10752
  154.6832  135.2972  154.9586 H   0  0  0  0  0  0  0  0  0  0  0  0  # atno 10764 bound_to 10752
  154.0365  135.6722  153.4838 H   0  0  0  0  0  0  0  0  0  0  0  0  # atno 10765 bound_to 10752
  140.1762  134.8508  157.2749 H   0  0  0  0  0  0  0  0  0  0  0  0  # atno 11005 bound_to 11000
  145.3668  139.1668  143.4353 LP  0  0  0  0  0  0  0  0  0  0  0  0  # atno 17320 bound_to 7965
  146.3092  140.3736  142.8676 LP  0  0  0  0  0  0  0  0  0  0  0  0  # atno 17321 bound_to 7965
  140.7684  143.3364  151.2301 LP  0  0  0  0  0  0  0  0  0  0  0  0  # atno 17342 bound_to 10162
  139.6940  143.9644  152.2873 LP  0  0  0  0  0  0  0  0  0  0  0  0  # atno 17343 bound_to 10162
  157.2104  131.0459  151.2602 LP  0  0  0  0  0  0  0  0  0  0  0  0  # atno 17370 bound_to 10713
  157.3894  130.7274  149.6686 LP  0  0  0  0  0  0  0  0  0  0  0  0  # atno 17371 bound_to 10713
  140.2320  134.3898  155.7518 LP  0  0  0  0  0  0  0  0  0  0  0  0  # atno 17394 bound_to 11000
  141.2220  133.7220  156.8655 LP  0  0  0  0  0  0  0  0  0  0  0  0  # atno 17395 bound_to 11000

$$$$
