#       Name:                AV-unprocessed.smi:153
#       Creating user name   scv26
#       Creation time:       Thu Mar 26 18:48:42 2020


#       File generated by GOLD software.
#

@<TRIPOS>MOLECULE
AV-unprocessed.smi:153
    71    74     1
SMALL
NO_CHARGES


@<TRIPOS>ATOM
      1 ****        -3.0810  -1.0295   3.9376 C.3            1 S1                 0.0000
      2 ****        -3.0547  -2.5238   3.5781 C.3            1 S1                 0.0000
      3 ****        -4.1817  -3.0841   4.2558 O.3            1 S1                 0.0000
      4 ****        -4.9373  -3.9054   3.3801 C.3            1 S1                 0.0000
      5 ****        -4.7044  -3.2823   2.0119 C.3            1 S1                 0.0000
      6 ****        -3.2379  -2.8809   2.0764 C.3            1 S1                 0.0000
      7 ****        -2.4738  -4.0445   1.8083 O.3            1 S1                 0.0000
      8 ****        -2.8697  -1.8105   1.0109 C.3            1 S1                 0.0000
      9 ****        -1.5154  -1.2695   1.0922 N.pl3          1 S1                 0.0000
     10 ****        -0.3230  -1.9561   1.0214 C.2            1 S1                 0.0000
     11 ****         0.7502  -1.2188   1.0928 N.2            1 S1                 0.0000
     12 ****         0.2735   0.0823   1.2001 C.ar           1 S1                 0.0000
     13 ****         0.8840   1.3702   1.2968 C.ar           1 S1                 0.0000
     14 ****         2.2260   1.5966   1.3254 N.pl3          1 S1                 0.0000
     15 ****         3.1299   0.5266   1.7284 C.3            1 S1                 0.0000
     16 ****         2.7846   2.7568   0.6274 C.3            1 S1                 0.0000
     17 ****         3.1586   2.4494  -0.8370 C.3            1 S1                 0.0000
     18 ****         3.9452   3.5283  -1.3011 O.3            1 S1                 0.0000
     19 ****         1.9288   2.3109  -1.7624 C.3            1 S1                 0.0000
     20 ****         2.2794   1.8116  -3.1157 N.4            1 S1                 1.0000
     21 ****         2.5253   0.3481  -3.1584 C.3            1 S1                 0.0000
     22 ****         2.9120  -0.0905  -4.5809 C.3            1 S1                 0.0000
     23 ****         1.8881   0.2873  -5.4924 O.3            1 S1                 0.0000
     24 ****         1.7013   1.6965  -5.5276 C.3            1 S1                 0.0000
     25 ****         1.2755   2.1954  -4.1364 C.3            1 S1                 0.0000
     26 ****         0.0530   2.4446   1.3405 N.ar           1 S1                 0.0000
     27 ****        -1.2721   2.2848   1.3069 C.ar           1 S1                 0.0000
     28 ****        -1.9717   1.1535   1.2257 N.ar           1 S1                 0.0000
     29 ****        -1.1514   0.0654   1.1747 C.ar           1 S1                 0.0000
     30 ****        -2.1778  -0.5193   3.6114 H              1 S1                 0.0000
     31 ****        -3.1395  -0.8965   5.0182 H              1 S1                 0.0000
     32 ****        -3.9415  -0.5254   3.4972 H              1 S1                 0.0000
     33 ****        -2.1404  -2.9656   3.9777 H              1 S1                 0.0000
     34 ****        -4.5507  -4.9249   3.4162 H              1 S1                 0.0000
     35 ****        -5.9903  -3.9283   3.6606 H              1 S1                 0.0000
     36 ****        -4.9402  -3.9577   1.1885 H              1 S1                 0.0000
     37 ****        -5.3346  -2.3978   1.9091 H              1 S1                 0.0000
     38 ****        -2.6942  -4.3551   0.9436 H              1 S1                 0.0000
     39 ****        -3.0012  -2.2229   0.0097 H              1 S1                 0.0000
     40 ****        -3.5724  -0.9798   1.0783 H              1 S1                 0.0000
     41 ****        -0.2592  -3.0278   0.9092 H              1 S1                 0.0000
     42 ****         2.7490   0.0036   2.6063 H              1 S1                 0.0000
     43 ****         4.1104   0.9286   1.9848 H              1 S1                 0.0000
     44 ****         3.2633  -0.1925   0.9199 H              1 S1                 0.0000
     45 ****         2.1256   3.6240   0.6763 H              1 S1                 0.0000
     46 ****         3.6836   3.0521   1.1702 H              1 S1                 0.0000
     47 ****         3.7774   1.5532  -0.8628 H              1 S1                 0.0000
     48 ****         4.3159   3.3007  -2.1396 H              1 S1                 0.0000
     49 ****         1.1882   1.6341  -1.3380 H              1 S1                 0.0000
     50 ****         1.4365   3.2823  -1.8361 H              1 S1                 0.0000
     51 ****         3.3211   0.0718  -2.4678 H              1 S1                 0.0000
     52 ****         1.6283  -0.1846  -2.8384 H              1 S1                 0.0000
     53 ****         3.8643   0.3507  -4.8795 H              1 S1                 0.0000
     54 ****         3.0368  -1.1727  -4.6191 H              1 S1                 0.0000
     55 ****         2.6179   2.1894  -5.8559 H              1 S1                 0.0000
     56 ****         0.9320   1.9328  -6.2630 H              1 S1                 0.0000
     57 ****         0.3039   1.7760  -3.8703 H              1 S1                 0.0000
     58 ****         1.1631   3.2801  -4.1558 H              1 S1                 0.0000
     59 ****        -1.8548   3.1931   1.3530 H              1 S1                 0.0000
     60 ****         3.1399   2.2687  -3.3810 H              1 S1                 0.0000
     61 ****        -4.7626  -2.3437   4.5940 LP             1 S1                 0.0000
     62 ****        -3.8607  -3.6346   5.0265 LP             1 S1                 0.0000
     63 ****        -2.6855  -4.7503   2.4843 LP             1 S1                 0.0000
     64 ****        -1.4991  -3.8250   1.8496 LP             1 S1                 0.0000
     65 ****         1.7030  -1.5218   1.0744 LP             1 S1                 0.0000
     66 ****         4.6802   3.7123  -0.6485 LP             1 S1                 0.0000
     67 ****         3.3733   4.3429  -1.3975 LP             1 S1                 0.0000
     68 ****         1.0309  -0.1454  -5.2129 LP             1 S1                 0.0000
     69 ****         2.1378  -0.0285  -6.4078 LP             1 S1                 0.0000
     70 ****         0.4384   3.3655   1.3985 LP             1 S1                 0.0000
     71 ****        -2.9705   1.1083   1.2048 LP             1 S1                 0.0000
@<TRIPOS>BOND
    1    1    2 1     
    2    1   30 1     
    3    1   31 1     
    4    1   32 1     
    5    2    6 1     
    6    2    3 1     
    7    2   33 1     
    8    3    4 1     
    9    4    5 1     
   10    4   34 1     
   11    4   35 1     
   12    5    6 1     
   13    5   36 1     
   14    5   37 1     
   15    6    7 1     
   16    6    8 1     
   17    7   38 1     
   18    8    9 1     
   19    8   39 1     
   20    8   40 1     
   21    9   29 1     
   22    9   10 1     
   23   10   11 2     
   24   10   41 1     
   25   11   12 1     
   26   12   29 ar    
   27   12   13 ar    
   28   13   14 1     
   29   13   26 ar    
   30   14   15 1     
   31   14   16 1     
   32   15   42 1     
   33   15   43 1     
   34   15   44 1     
   35   16   17 1     
   36   16   45 1     
   37   16   46 1     
   38   17   18 1     
   39   17   19 1     
   40   17   47 1     
   41   18   48 1     
   42   19   20 1     
   43   19   49 1     
   44   19   50 1     
   45   20   25 1     
   46   20   21 1     
   47   20   60 1     
   48   21   22 1     
   49   21   51 1     
   50   21   52 1     
   51   22   23 1     
   52   22   53 1     
   53   22   54 1     
   54   23   24 1     
   55   24   25 1     
   56   24   55 1     
   57   24   56 1     
   58   25   57 1     
   59   25   58 1     
   60   26   27 ar    
   61   27   28 ar    
   62   27   59 1     
   63   28   29 ar    
   64    3   61 1     
   65    3   62 1     
   66    7   63 1     
   67    7   64 1     
   68   11   65 1     
   69   18   66 1     
   70   18   67 1     
   71   23   68 1     
   72   23   69 1     
   73   26   70 1     
   74   28   71 1     
@<TRIPOS>SUBSTRUCTURE
      1 S1             1
@<TRIPOS>SET
LONE_PAIRS      STATIC     ATOMS    <user>   **** ""
11 61 62 63 64 65 66 67 68 69 70 71
DONOR_HYDROGENS      STATIC     ATOMS    <user>   **** ""
3 38 48 60
ATOM$BLUE        STATIC     ATOMS    COLORGROUP SYSTEM
11 61 62 63 64 65 66 67 68 69 70 71
ATOM$RED        STATIC     ATOMS    COLORGROUP SYSTEM
3 38 48 60
