AV-unprocessed.smi:573|AV-procd|sdf|2970|dock9
  -GOLD-   2262023473D 1   1.00000     0.00000
 Structure written by MMmdl.
 45 47  0  0  0  0  0  0  0  0  2 V2000
  147.0888  140.8743  152.9788 C   0  0  0  0  0  0  0  0  0  0  0  0
  147.9519  140.2052  154.0609 C   0  0  1  0  0  0  0  0  0  0  0  0
  148.9992  139.4693  153.4642 O   0  0  0  0  0  0  0  0  0  0  0  0
  148.5126  141.1587  155.1404 C   0  0  0  0  0  0  0  0  0  0  0  0
  149.6518  140.6225  155.8746 N   0  0  0  0  0  0  0  0  0  0  0  0
  150.4126  141.4630  156.6956 C   0  0  0  0  0  0  0  0  0  0  0  0
  150.4174  142.8222  156.6710 N   0  3  0  0  0  0  0  0  0  0  0  0
  151.2942  143.2771  157.6593 C   0  0  0  0  0  0  0  0  0  0  0  0
  151.6393  144.5703  158.0399 C   0  0  0  0  0  0  0  0  0  0  0  0
  152.5612  144.6944  159.1000 C   0  0  0  0  0  0  0  0  0  0  0  0
  153.1024  143.5606  159.7398 C   0  0  0  0  0  0  0  0  0  0  0  0
  152.7492  142.2534  159.3460 C   0  0  0  0  0  0  0  0  0  0  0  0
  151.8400  142.1355  158.2949 C   0  0  0  0  0  0  0  0  0  0  0  0
  151.2711  141.0274  157.6528 N   0  0  0  0  0  0  0  0  0  0  0  0
  151.6216  139.6643  158.0778 C   0  0  0  0  0  0  0  0  0  0  0  0
  152.0311  138.7809  156.8887 C   0  0  1  0  0  0  0  0  0  0  0  0
  150.8630  137.9226  156.3695 C   0  0  0  0  0  0  0  0  0  0  0  0
  151.3042  137.0982  155.1546 C   0  0  0  0  0  0  0  0  0  0  0  0
  151.9298  138.0198  154.1018 C   0  0  0  0  0  0  0  0  0  0  0  0
  153.0368  138.8796  154.7323 C   0  0  0  0  0  0  0  0  0  0  0  0
  152.5105  139.6127  155.8336 O   0  0  0  0  0  0  0  0  0  0  0  0
  146.2845  141.4597  153.4244 H   0  0  0  0  0  0  0  0  0  0  0  0
  146.6318  140.1278  152.3285 H   0  0  0  0  0  0  0  0  0  0  0  0
  147.6785  141.5379  152.3464 H   0  0  0  0  0  0  0  0  0  0  0  0
  147.3317  139.4675  154.5710 H   0  0  0  0  0  0  0  0  0  0  0  0
  149.1012  139.7627  152.5717 H   0  0  0  0  0  0  0  0  0  0  0  0
  148.8713  142.0623  154.6472 H   0  0  0  0  0  0  0  0  0  0  0  0
  147.7281  141.4853  155.8242 H   0  0  0  0  0  0  0  0  0  0  0  0
  149.6962  139.6247  156.0248 H   0  0  0  0  0  0  0  0  0  0  0  0
  151.2227  145.4412  157.5556 H   0  0  0  0  0  0  0  0  0  0  0  0
  152.8568  145.6793  159.4315 H   0  0  0  0  0  0  0  0  0  0  0  0
  153.8025  143.6955  160.5516 H   0  0  0  0  0  0  0  0  0  0  0  0
  153.1655  141.3939  159.8501 H   0  0  0  0  0  0  0  0  0  0  0  0
  152.4433  139.7418  158.7907 H   0  0  0  0  0  0  0  0  0  0  0  0
  150.7837  139.2298  158.6225 H   0  0  0  0  0  0  0  0  0  0  0  0
  152.8399  138.1245  157.2130 H   0  0  0  0  0  0  0  0  0  0  0  0
  150.5001  137.2611  157.1566 H   0  0  0  0  0  0  0  0  0  0  0  0
  150.0277  138.5660  156.0902 H   0  0  0  0  0  0  0  0  0  0  0  0
  152.0333  136.3484  155.4648 H   0  0  0  0  0  0  0  0  0  0  0  0
  150.4567  136.5573  154.7328 H   0  0  0  0  0  0  0  0  0  0  0  0
  152.3317  137.4321  153.2758 H   0  0  0  0  0  0  0  0  0  0  0  0
  151.1615  138.6689  153.6802 H   0  0  0  0  0  0  0  0  0  0  0  0
  153.8738  138.2613  155.0602 H   0  0  0  0  0  0  0  0  0  0  0  0
  153.4303  139.5827  153.9981 H   0  0  0  0  0  0  0  0  0  0  0  0
  149.8589  143.3867  156.0446 H   0  0  0  0  0  0  0  0  0  0  0  0
  1  2  1  0  0  0  0
  1 22  1  0  0  0  0
  1 23  1  0  0  0  0
  1 24  1  0  0  0  0
  2  3  1  0  0  0  0
  2  4  1  0  0  0  0
  2 25  1  0  0  0  0
  3 26  1  0  0  0  0
  4  5  1  0  0  0  0
  4 27  1  0  0  0  0
  4 28  1  0  0  0  0
  5  6  1  0  0  0  0
  5 29  1  0  0  0  0
  6 14  1  0  0  0  0
  6  7  2  0  0  0  0
  7  8  1  0  0  0  0
  7 45  1  0  0  0  0
  8 13  2  0  0  0  0
  8  9  1  0  0  0  0
  9 10  2  0  0  0  0
  9 30  1  0  0  0  0
 10 11  1  0  0  0  0
 10 31  1  0  0  0  0
 11 12  2  0  0  0  0
 11 32  1  0  0  0  0
 12 13  1  0  0  0  0
 12 33  1  0  0  0  0
 13 14  1  0  0  0  0
 14 15  1  0  0  0  0
 15 16  1  0  0  0  0
 15 34  1  0  0  0  0
 15 35  1  0  0  0  0
 16 21  1  0  0  0  0
 16 17  1  0  0  0  0
 16 36  1  0  0  0  0
 17 18  1  0  0  0  0
 17 37  1  0  0  0  0
 17 38  1  0  0  0  0
 18 19  1  0  0  0  0
 18 39  1  0  0  0  0
 18 40  1  0  0  0  0
 19 20  1  0  0  0  0
 19 41  1  0  0  0  0
 19 42  1  0  0  0  0
 20 21  1  0  0  0  0
 20 43  1  0  0  0  0
 20 44  1  0  0  0  0
M  CHG  1   7   1
M  END
> <s_m_source_file>
AV-unprocessed.smi

> <i_m_source_file_index>
573

> <i_lp_mmshare_version>
43012

> <i_f3d_flags>
0

> <s_epik_input>
W0NIM11bQ0BIXShbT0hdKVtDSDJdW05IXWMobjEpbihjKGMxMilbY0hdW2NIXVtjSF1bY0hdMilbQ0gyXVtDQEBIXTNbQ0gyXVtDSDJdW0NIMl1bQ0gyXU8z

> <s_epik_cmdline>
J2VwaWtfcHl0aG9uJywgJy1waCcsICc3LjAnLCAnLXRuJywgJzgnLCAnLW1hJywgJzIwMCcsICctbWV0YWxfYmluZGluZycsICctaW1hZScsICc8aW5maWxlLm1hZT4nLCAnLW9tYWUnLCAnPG91dGZpbGUubWFlPic=

> <r_epik_Ionization_Penalty>
0.0692245

> <r_epik_Ionization_Penalty_Charging>
0.0692223

> <r_epik_Ionization_Penalty_Neutral>
2.1869e-06

> <r_epik_State_Penalty>
0.0606215

> <r_epik_Charging_Adjusted_Penalty>
0.129844

> <i_epik_Tot_Q>
1

> <i_epik_Tot_abs_Q>
1

> <r_epik_Metal_State_Penalty>
2.77811

> <b_epik_Metal_Only>
0

> <s_lp_Force_Field>
OPLS_2005

> <r_lp_Energy>
24.0167

> <b_lp_Chiralities_Consistent>
1

> <s_lp_Variant>
AV-unprocessed.smi:573-4

> <Gold.Version>
5.8.1

> <Gold.Id.Protein>
6NUR|6NUR_protein|mol2

> <Gold.PLP.Fitness>
54.8452

> <Gold.PLP.PLP>
-45.6128

> <Gold.PLP.part.hbond>
-2.7704

> <Gold.PLP.part.metal>
0.0000

> <Gold.PLP.part.buried>
-6.5602

> <Gold.PLP.part.nonpolar>
-35.7298

> <Gold.PLP.part.repulsive>
0.1190

> <Gold.PLP.ligand.clash>
0.0000

> <Gold.PLP.ligand.torsion>
0.8607

> <Gold.PLP.Chemscore.Hbond>
3.6443

> <Gold.PLP.Chemscore.CHOScore>
0.0000

> <Gold.PLP.Chemscore.Metal>
0.0000

> <Gold.Chemscore.Hbonds>
donor molecule, donor type, donor heavy atom, donor atom, acceptor molecule, acceptor atom, score
      L1  H     3    26       P1  7957  0.99
      L1  H     7    45       P1  8028  2.00
      P1  H  7997  8010       L1    21  0.65

> <Gold.PLP.Chemscore.Internal.Correction>
0.0209

> <Gold.Rescore>
     Score         DG    S(hbond)    S(metal)    S(lipo)     H(rot)  DE(clash)    DE(int)     intcor
     19.13     -21.22       1.95        0.00     124.02       2.07       0.12       1.97       ----

> <Gold.Chemscore.Fitness>
19.1304

> <Gold.Chemscore.DG>
-21.2157

> <Gold.Chemscore.ZeroCoef>
-5.4800

> <Gold.Chemscore.Hbond>
1.9533

> <Gold.Chemscore.Metal>
0.0000

> <Gold.Chemscore.Lipo>
124.0246

> <Gold.Chemscore.Internal_Hbond>
0.0000

> <Gold.Chemscore.DEClash>
0.1151

> <Gold.Chemscore.DEInternal>
1.9701

> <Gold.Chemscore.Rot>
2.0699

> <Gold.Chemscore.Internal.Correction>
   9.000000E+99

> <Gold.Chemscore.Hbonds>
donor molecule, donor type, donor heavy atom, donor atom, acceptor molecule, acceptor atom, score
      L1  H     3    26       P1  7957  0.92
      L1  H     7    45       P1  8028  0.98
      P1  H  7997  8010       L1    21  0.02

> <Gold.Chemscore.Hbond.Weighted>
-6.5239

> <Gold.Chemscore.Metal.Weighted>
-0.0000

> <Gold.Chemscore.Lipo.Weighted>
-14.5109

> <Gold.Chemscore.Internal_Hbond.Weighted>
0.0000

> <Gold.Chemscore.DEClash.Weighted>
0.1151

> <Gold.Chemscore.DEInternal.Weighted>
1.9701

> <Gold.Chemscore.Rot.Weighted>
5.2991

> <Gold.Chemscore.Internal.Correction.Weighted>
   9.000000E+99

> <Gold.Protein.RotatedTorsions>
[ 6907 6896 6895 6894 ] final -170.18 input  -60.11 | X-H torsion
[ 7974 7965 7964 7962 ] final -152.28 input  175.53 | X-H torsion
[ 8008 7997 7996 7995 ] final   65.30 input   59.86 | X-H torsion
[ 10167 10162 10161 10158 ] final -109.10 input  -65.29 | X-H torsion
[ 10718 10713 10712 10709 ] final -176.59 input   66.30 | X-H torsion
[ 10763 10752 10751 10750 ] final  -11.28 input  -60.55 | X-H torsion
[ 11005 11000 10999 10996 ] final  127.58 input  -57.11 | X-H torsion

> <Gold.Protein.ActiveResidues>
 VAL166  LYS551  ARG553  GLY616  TRP617  ASP618  TYR619  PRO620  LYS621  CYS622 
 ASP623  PHE694  ASN695  SER759  ASP760  ASP761  ALA762  ILE779  LEU786  VAL792 
 PHE793  MET794  SER795  GLU796  ALA797  LYS798  CYS799  TRP800  GLU811  SER814 

> <Gold.Protein.RotatedAtoms>
  151.5036  133.3499  159.2872 H   0  0  0  0  0  0  0  0  0  0  0  0  # atno 6907 bound_to 6896
  150.8757  134.8141  159.7199 H   0  0  0  0  0  0  0  0  0  0  0  0  # atno 6908 bound_to 6896
  152.4729  134.4927  159.9752 H   0  0  0  0  0  0  0  0  0  0  0  0  # atno 6909 bound_to 6896
  144.7803  140.4684  143.5844 H   0  0  0  0  0  0  0  0  0  0  0  0  # atno 7974 bound_to 7965
  155.6596  140.3497  155.4777 H   0  0  0  0  0  0  0  0  0  0  0  0  # atno 8008 bound_to 7997
  155.9780  140.1169  157.0775 H   0  0  0  0  0  0  0  0  0  0  0  0  # atno 8009 bound_to 7997
  154.4184  140.1144  156.5382 H   0  0  0  0  0  0  0  0  0  0  0  0  # atno 8010 bound_to 7997
  140.1590  143.4136  152.1439 H   0  0  0  0  0  0  0  0  0  0  0  0  # atno 10167 bound_to 10162
  156.8169  130.9606  151.3113 H   0  0  0  0  0  0  0  0  0  0  0  0  # atno 10718 bound_to 10713
  153.4814  135.7017  153.5936 H   0  0  0  0  0  0  0  0  0  0  0  0  # atno 10763 bound_to 10752
  153.4147  135.3840  155.2073 H   0  0  0  0  0  0  0  0  0  0  0  0  # atno 10764 bound_to 10752
  154.8721  135.3913  154.4264 H   0  0  0  0  0  0  0  0  0  0  0  0  # atno 10765 bound_to 10752
  139.9515  134.9621  156.8876 H   0  0  0  0  0  0  0  0  0  0  0  0  # atno 11005 bound_to 11000
  145.6069  139.1509  143.3097 LP  0  0  0  0  0  0  0  0  0  0  0  0  # atno 17320 bound_to 7965
  146.2007  140.6188  142.9104 LP  0  0  0  0  0  0  0  0  0  0  0  0  # atno 17321 bound_to 7965
  139.5390  144.7238  151.4797 LP  0  0  0  0  0  0  0  0  0  0  0  0  # atno 17342 bound_to 10162
  140.6655  143.8407  150.6937 LP  0  0  0  0  0  0  0  0  0  0  0  0  # atno 17343 bound_to 10162
  157.6477  130.8858  149.9571 LP  0  0  0  0  0  0  0  0  0  0  0  0  # atno 17370 bound_to 10713
  156.1012  130.3655  150.0216 LP  0  0  0  0  0  0  0  0  0  0  0  0  # atno 17371 bound_to 10713
  140.5708  134.0445  155.7430 LP  0  0  0  0  0  0  0  0  0  0  0  0  # atno 17394 bound_to 11000
  141.1179  133.9510  157.2787 LP  0  0  0  0  0  0  0  0  0  0  0  0  # atno 17395 bound_to 11000

$$$$
