AV-unprocessed.smi:100|AV-procd|sdf|909|dock10
  -GOLD-   2262017403D 1   1.00000     0.00000
 Structure written by MMmdl.
 31 33  0  0  0  0  0  0  0  0  1 V2000
  150.2445  136.2123  155.9519 N   0  0  0  0  0  0  0  0  0  0  0  0
  151.0194  137.3051  155.9188 C   0  0  0  0  0  0  0  0  0  0  0  0
  151.9936  137.3740  154.9819 N   0  0  0  0  0  0  0  0  0  0  0  0
  152.7797  138.4538  154.9294 C   0  0  0  0  0  0  0  0  0  0  0  0
  152.7543  139.5433  155.7012 N   0  0  0  0  0  0  0  0  0  0  0  0
  151.7716  139.4743  156.6465 C   0  0  0  0  0  0  0  0  0  0  0  0
  150.8668  138.3895  156.8193 C   0  0  0  0  0  0  0  0  0  0  0  0
  150.0066  138.6531  157.8758 N   0  0  0  0  0  0  0  0  0  0  0  0
  150.3845  139.8282  158.3010 C   0  0  0  0  0  0  0  0  0  0  0  0
  151.4391  140.3975  157.6201 N   0  0  0  0  0  0  0  0  0  0  0  0
  152.0735  141.7298  157.8945 C   0  0  2  0  0  0  0  0  0  0  0  0
  152.1387  141.9505  159.2740 O   0  0  0  0  0  0  0  0  0  0  0  0
  151.3648  143.0959  159.6214 C   0  0  1  0  0  0  0  0  0  0  0  0
  151.9156  143.7643  160.8903 C   0  0  0  0  0  0  0  0  0  0  0  0
  151.6818  142.9465  162.0172 O   0  0  0  0  0  0  0  0  0  0  0  0
  151.3846  143.9553  158.3551 C   0  0  1  0  0  0  0  0  0  0  0  0
  152.5368  144.6213  158.2481 F   0  0  0  0  0  0  0  0  0  0  0  0
  151.3084  142.9093  157.2584 C   0  0  2  0  0  0  0  0  0  0  0  0
  149.9622  142.6241  156.9201 O   0  0  0  0  0  0  0  0  0  0  0  0
  149.5114  136.1368  156.6424 H   0  0  0  0  0  0  0  0  0  0  0  0
  150.3943  135.4677  155.2866 H   0  0  0  0  0  0  0  0  0  0  0  0
  153.5376  138.4444  154.1601 H   0  0  0  0  0  0  0  0  0  0  0  0
  149.8999  140.3173  159.1335 H   0  0  0  0  0  0  0  0  0  0  0  0
  153.0909  141.6335  157.5126 H   0  0  0  0  0  0  0  0  0  0  0  0
  150.3415  142.7678  159.8055 H   0  0  0  0  0  0  0  0  0  0  0  0
  152.9911  143.9149  160.7936 H   0  0  0  0  0  0  0  0  0  0  0  0
  151.4683  144.7460  161.0490 H   0  0  0  0  0  0  0  0  0  0  0  0
  152.0108  143.3902  162.7840 H   0  0  0  0  0  0  0  0  0  0  0  0
  150.5805  144.6915  158.3188 H   0  0  0  0  0  0  0  0  0  0  0  0
  151.8215  143.2315  156.3515 H   0  0  0  0  0  0  0  0  0  0  0  0
  149.5268  143.4373  156.7135 H   0  0  0  0  0  0  0  0  0  0  0  0
  1  2  1  0  0  0  0
  1 20  1  0  0  0  0
  1 21  1  0  0  0  0
  2  7  1  0  0  0  0
  2  3  2  0  0  0  0
  3  4  1  0  0  0  0
  4  5  2  0  0  0  0
  4 22  1  0  0  0  0
  5  6  1  0  0  0  0
  6 10  1  0  0  0  0
  6  7  2  0  0  0  0
  7  8  1  0  0  0  0
  8  9  2  0  0  0  0
  9 10  1  0  0  0  0
  9 23  1  0  0  0  0
 10 11  1  0  0  0  0
 11 18  1  0  0  0  0
 11 12  1  0  0  0  0
 11 24  1  0  0  0  0
 12 13  1  0  0  0  0
 13 14  1  0  0  0  0
 13 16  1  0  0  0  0
 13 25  1  0  0  0  0
 14 15  1  0  0  0  0
 14 26  1  0  0  0  0
 14 27  1  0  0  0  0
 15 28  1  0  0  0  0
 16 17  1  0  0  0  0
 16 18  1  0  0  0  0
 16 29  1  0  0  0  0
 18 19  1  0  0  0  0
 18 30  1  0  0  0  0
 19 31  1  0  0  0  0
M  END
> <s_m_source_file>
AV-unprocessed.smi

> <i_m_source_file_index>
100

> <i_lp_mmshare_version>
43012

> <i_f3d_flags>
0

> <s_epik_input>
bjFbY0hdbmMoW05IMl0pYyhjMTIpbltjSF1uMltDQEBIXTNPW0NAQEhdKFtDSDJdW09IXSlbQ0BIXShGKVtDQEhdM1tPSF0=

> <s_epik_cmdline>
J2VwaWtfcHl0aG9uJywgJy1waCcsICc3LjAnLCAnLXRuJywgJzgnLCAnLW1hJywgJzIwMCcsICctbWV0YWxfYmluZGluZycsICctaW1hZScsICc8aW5maWxlLm1hZT4nLCAnLW9tYWUnLCAnPG91dGZpbGUubWFlPic=

> <r_lp_tautomer_probability>
1

> <r_epik_Ionization_Penalty>
0.000750324

> <r_epik_Ionization_Penalty_Charging>
0

> <r_epik_Ionization_Penalty_Neutral>
0.000750324

> <r_epik_State_Penalty>
-0

> <r_epik_Charging_Adjusted_Penalty>
0

> <i_epik_Tot_Q>
0

> <i_epik_Tot_abs_Q>
0

> <r_epik_Metal_State_Penalty>
-0

> <b_epik_Metal_Only>
0

> <s_epik_Chemistry_Notes>
This compound contains an acetal/aminal-like group ( X-CH(R)-Y where X, Y are N, S, or O) that may be acid/base labile, releasing an aldehyde.

> <s_lp_Force_Field>
OPLS_2005

> <r_lp_Energy>
35.7638

> <b_lp_Chiralities_Consistent>
1

> <s_lp_Variant>
AV-unprocessed.smi:100-13

> <Gold.Version>
5.8.1

> <Gold.Id.Protein>
6NUR|6NUR_protein|mol2

> <Gold.PLP.Fitness>
43.2979

> <Gold.PLP.PLP>
-33.6352

> <Gold.PLP.part.hbond>
-5.0000

> <Gold.PLP.part.metal>
0.0000

> <Gold.PLP.part.buried>
-7.3351

> <Gold.PLP.part.nonpolar>
-22.4420

> <Gold.PLP.part.repulsive>
0.1521

> <Gold.PLP.ligand.clash>
0.0000

> <Gold.PLP.ligand.torsion>
0.6654

> <Gold.PLP.Chemscore.Hbond>
3.6640

> <Gold.PLP.Chemscore.CHOScore>
0.0000

> <Gold.PLP.Chemscore.Metal>
0.0000

> <Gold.Chemscore.Hbonds>
donor molecule, donor type, donor heavy atom, donor atom, acceptor molecule, acceptor atom, score
      L1  H    19    31       P1  8028  1.00
      P1  H  6933  6945       L1    15  0.80
      P1  H  7997  8008       L1     5  1.00
      P1  H 10752 10764       L1     3  0.84

> <Gold.PLP.Chemscore.Internal.Correction>
0.0016

> <Gold.Rescore>
     Score         DG    S(hbond)    S(metal)    S(lipo)     H(rot)  DE(clash)    DE(int)     intcor
     12.90     -13.69       3.35        0.00      44.47       3.19       0.17       0.62       ----

> <Gold.Chemscore.Fitness>
12.8951

> <Gold.Chemscore.DG>
-13.6900

> <Gold.Chemscore.ZeroCoef>
-5.4800

> <Gold.Chemscore.Hbond>
3.3454

> <Gold.Chemscore.Metal>
0.0000

> <Gold.Chemscore.Lipo>
44.4704

> <Gold.Chemscore.Internal_Hbond>
0.0000

> <Gold.Chemscore.DEClash>
0.1739

> <Gold.Chemscore.DEInternal>
0.6210

> <Gold.Chemscore.Rot>
3.1901

> <Gold.Chemscore.Internal.Correction>
   9.000000E+99

> <Gold.Chemscore.Hbonds>
donor molecule, donor type, donor heavy atom, donor atom, acceptor molecule, acceptor atom, score
      L1  H    19    31       P1  8028  0.98
      P1  H  6933  6945       L1    15  0.71
      P1  H  7997  8008       L1     5  0.78
      P1  H 10752 10764       L1     3  0.63

> <Gold.Chemscore.Hbond.Weighted>
-11.1736

> <Gold.Chemscore.Metal.Weighted>
-0.0000

> <Gold.Chemscore.Lipo.Weighted>
-5.2030

> <Gold.Chemscore.Internal_Hbond.Weighted>
0.0000

> <Gold.Chemscore.DEClash.Weighted>
0.1739

> <Gold.Chemscore.DEInternal.Weighted>
0.6210

> <Gold.Chemscore.Rot.Weighted>
8.1667

> <Gold.Chemscore.Internal.Correction.Weighted>
   9.000000E+99

> <Gold.Protein.RotatedTorsions>
[ 6907 6896 6895 6894 ] final -173.18 input  -60.11 | X-H torsion
[ 7974 7965 7964 7962 ] final   61.06 input  175.53 | X-H torsion
[ 8008 7997 7996 7995 ] final  -19.19 input   59.86 | X-H torsion
[ 10167 10162 10161 10158 ] final   22.14 input  -65.29 | X-H torsion
[ 10718 10713 10712 10709 ] final   89.47 input   66.30 | X-H torsion
[ 10763 10752 10751 10750 ] final  -60.16 input  -60.55 | X-H torsion
[ 11005 11000 10999 10996 ] final  -44.66 input  -57.11 | X-H torsion

> <Gold.Protein.ActiveResidues>
 VAL166  LYS551  ARG553  GLY616  TRP617  ASP618  TYR619  PRO620  LYS621  CYS622 
 ASP623  PHE694  ASN695  SER759  ASP760  ASP761  ALA762  ILE779  LEU786  VAL792 
 PHE793  MET794  SER795  GLU796  ALA797  LYS798  CYS799  TRP800  GLU811  SER814 

> <Gold.Protein.RotatedAtoms>
  151.5520  133.3416  159.2954 H   0  0  0  0  0  0  0  0  0  0  0  0  # atno 6907 bound_to 6896
  150.8473  134.7788  159.6991 H   0  0  0  0  0  0  0  0  0  0  0  0  # atno 6908 bound_to 6896
  152.4527  134.5366  159.9878 H   0  0  0  0  0  0  0  0  0  0  0  0  # atno 6909 bound_to 6896
  145.8890  139.3497  143.0661 H   0  0  0  0  0  0  0  0  0  0  0  0  # atno 7974 bound_to 7965
  154.4853  140.2095  155.9669 H   0  0  0  0  0  0  0  0  0  0  0  0  # atno 8008 bound_to 7997
  156.1227  140.3210  155.8201 H   0  0  0  0  0  0  0  0  0  0  0  0  # atno 8009 bound_to 7997
  155.4439  140.0512  157.2998 H   0  0  0  0  0  0  0  0  0  0  0  0  # atno 8010 bound_to 7997
  140.5372  143.9740  150.6498 H   0  0  0  0  0  0  0  0  0  0  0  0  # atno 10167 bound_to 10162
  157.6955  131.0334  150.3430 H   0  0  0  0  0  0  0  0  0  0  0  0  # atno 10718 bound_to 10713
  154.2649  135.6301  153.5288 H   0  0  0  0  0  0  0  0  0  0  0  0  # atno 10763 bound_to 10752
  152.9889  135.5596  154.5663 H   0  0  0  0  0  0  0  0  0  0  0  0  # atno 10764 bound_to 10752
  154.5221  135.2883  155.1229 H   0  0  0  0  0  0  0  0  0  0  0  0  # atno 10765 bound_to 10752
  141.0465  133.6759  156.2904 H   0  0  0  0  0  0  0  0  0  0  0  0  # atno 11005 bound_to 11000
  145.8931  140.9291  143.0541 LP  0  0  0  0  0  0  0  0  0  0  0  0  # atno 17320 bound_to 7965
  144.6729  140.0933  143.7464 LP  0  0  0  0  0  0  0  0  0  0  0  0  # atno 17321 bound_to 7965
  140.3131  143.3185  152.0859 LP  0  0  0  0  0  0  0  0  0  0  0  0  # atno 17342 bound_to 10162
  139.4975  144.6623  151.6436 LP  0  0  0  0  0  0  0  0  0  0  0  0  # atno 17343 bound_to 10162
  156.3889  130.3894  149.7045 LP  0  0  0  0  0  0  0  0  0  0  0  0  # atno 17370 bound_to 10713
  156.4402  130.7857  151.2878 LP  0  0  0  0  0  0  0  0  0  0  0  0  # atno 17371 bound_to 10713
  140.6136  134.5433  157.5537 LP  0  0  0  0  0  0  0  0  0  0  0  0  # atno 17394 bound_to 11000
  139.9316  134.7953  156.0915 LP  0  0  0  0  0  0  0  0  0  0  0  0  # atno 17395 bound_to 11000

$$$$
