#       Name:                AV-unprocessed.smi:1405
#       Creating user name   scv26
#       Creation time:       Fri Mar 27 05:34:04 2020


#       File generated by GOLD software.
#

@<TRIPOS>MOLECULE
AV-unprocessed.smi:1405
    55    58     1
SMALL
NO_CHARGES


@<TRIPOS>ATOM
      1 ****        -2.2671   2.6864  -0.0380 O.2            1 S1                 0.0000
      2 ****        -2.6733   1.6761  -0.6112 C.2            1 S1                 0.0000
      3 ****        -4.1853   1.5038  -0.8397 C.3            1 S1                 0.0000
      4 ****        -4.5793   0.2145  -1.4322 N.am           1 S1                 0.0000
      5 ****        -4.7879   0.1088  -2.8002 C.2            1 S1                 0.0000
      6 ****        -5.1459  -1.0445  -3.4130 C.2            1 S1                 0.0000
      7 ****        -5.3340  -2.2657  -2.6373 C.2            1 S1                 0.0000
      8 ****        -5.6569  -3.3574  -3.1002 O.2            1 S1                 0.0000
      9 ****        -5.1139  -2.1194  -1.2652 N.am           1 S1                 0.0000
     10 ****        -4.7440  -0.9344  -0.6272 C.2            1 S1                 0.0000
     11 ****        -4.5671  -0.9168   0.5902 O.2            1 S1                 0.0000
     12 ****        -1.8494   0.7075  -1.0463 N.am           1 S1                 0.0000
     13 ****        -0.4009   0.6979  -0.8872 C.3            1 S1                 0.0000
     14 ****        -0.0001   0.1907   0.5138 C.3            1 S1                 0.0000
     15 ****         1.5199   0.1148   0.8085 C.3            1 S1                 0.0000
     16 ****         2.1920   1.5121   0.7199 C.3            1 S1                 0.0000
     17 ****         3.6924   1.4117   1.0718 C.3            1 S1                 0.0000
     18 ****         4.3915   0.4544   0.0834 C.3            1 S1                 0.0000
     19 ****         3.7477  -0.9446   0.1878 C.3            1 S1                 0.0000
     20 ****         3.9095  -1.4829   1.6240 C.3            1 S1                 0.0000
     21 ****         3.2115  -0.5201   2.6061 C.3            1 S1                 0.0000
     22 ****         3.8540   0.8788   2.5101 C.3            1 S1                 0.0000
     23 ****         1.7127  -0.4227   2.2527 C.3            1 S1                 0.0000
     24 ****         2.2474  -0.8506  -0.1664 C.3            1 S1                 0.0000
     25 ****        -5.2312  -2.9391  -0.6873 H              1 S1                 0.0000
     26 ****        -4.7009   1.6560   0.1105 H              1 S1                 0.0000
     27 ****        -4.5229   2.3228  -1.4764 H              1 S1                 0.0000
     28 ****        -4.6565   0.9880  -3.4152 H              1 S1                 0.0000
     29 ****        -5.2931  -1.0638  -4.4832 H              1 S1                 0.0000
     30 ****        -2.2625  -0.0903  -1.5071 H              1 S1                 0.0000
     31 ****         0.0039   0.0474  -1.6615 H              1 S1                 0.0000
     32 ****        -0.0069   1.6962  -1.0784 H              1 S1                 0.0000
     33 ****        -0.4681   0.8301   1.2639 H              1 S1                 0.0000
     34 ****        -0.4375  -0.7984   0.6590 H              1 S1                 0.0000
     35 ****         2.0922   1.9271  -0.2829 H              1 S1                 0.0000
     36 ****         1.6973   2.2143   1.3925 H              1 S1                 0.0000
     37 ****         4.1470   2.4002   0.9996 H              1 S1                 0.0000
     38 ****         4.3072   0.8347  -0.9354 H              1 S1                 0.0000
     39 ****         5.4584   0.3971   0.3033 H              1 S1                 0.0000
     40 ****         4.2411  -1.6227  -0.5092 H              1 S1                 0.0000
     41 ****         3.4802  -2.4825   1.7037 H              1 S1                 0.0000
     42 ****         4.9664  -1.5797   1.8757 H              1 S1                 0.0000
     43 ****         3.3200  -0.8992   3.6228 H              1 S1                 0.0000
     44 ****         4.9098   0.8300   2.7798 H              1 S1                 0.0000
     45 ****         3.3850   1.5604   3.2209 H              1 S1                 0.0000
     46 ****         1.2087   0.2275   2.9693 H              1 S1                 0.0000
     47 ****         1.2475  -1.4042   2.3559 H              1 S1                 0.0000
     48 ****         1.7926  -1.8413  -0.1282 H              1 S1                 0.0000
     49 ****         2.1492  -0.5072  -1.1963 H              1 S1                 0.0000
     50 ****        -2.9166   3.3807   0.2718 LP             1 S1                 0.0000
     51 ****        -1.2875   2.8130   0.1180 LP             1 S1                 0.0000
     52 ****        -5.8124  -3.4576  -4.0829 LP             1 S1                 0.0000
     53 ****        -5.7642  -4.1456  -2.4941 LP             1 S1                 0.0000
     54 ****        -4.2967  -0.0677   1.0439 LP             1 S1                 0.0000
     55 ****        -4.6938  -1.7516   1.1260 LP             1 S1                 0.0000
@<TRIPOS>BOND
    1    1    2 2     
    2    2    3 1     
    3    2   12 am    
    4    3    4 1     
    5    3   26 1     
    6    3   27 1     
    7    4   10 1     
    8    4    5 1     
    9    5    6 2     
   10    5   28 1     
   11    6    7 1     
   12    6   29 1     
   13    7    8 2     
   14    7    9 1     
   15    9   25 1     
   16    9   10 1     
   17   10   11 2     
   18   12   13 1     
   19   12   30 1     
   20   13   14 1     
   21   13   31 1     
   22   13   32 1     
   23   14   15 1     
   24   14   33 1     
   25   14   34 1     
   26   15   23 1     
   27   15   24 1     
   28   15   16 1     
   29   16   17 1     
   30   16   35 1     
   31   16   36 1     
   32   17   22 1     
   33   17   18 1     
   34   17   37 1     
   35   18   19 1     
   36   18   38 1     
   37   18   39 1     
   38   19   20 1     
   39   19   24 1     
   40   19   40 1     
   41   20   21 1     
   42   20   41 1     
   43   20   42 1     
   44   21   22 1     
   45   21   23 1     
   46   21   43 1     
   47   22   44 1     
   48   22   45 1     
   49   23   46 1     
   50   23   47 1     
   51   24   48 1     
   52   24   49 1     
   53    1   50 1     
   54    1   51 1     
   55    8   52 1     
   56    8   53 1     
   57   11   54 1     
   58   11   55 1     
@<TRIPOS>SUBSTRUCTURE
      1 S1             1
@<TRIPOS>SET
LONE_PAIRS      STATIC     ATOMS    <user>   **** ""
6 50 51 52 53 54 55
DONOR_HYDROGENS      STATIC     ATOMS    <user>   **** ""
2 25 30
ATOM$BLUE        STATIC     ATOMS    COLORGROUP SYSTEM
6 50 51 52 53 54 55
ATOM$RED        STATIC     ATOMS    COLORGROUP SYSTEM
2 25 30
