#       Name:                AV-unprocessed.smi:59
#       Creating user name   scv26
#       Creation time:       Thu Mar 26 16:48:35 2020


#       File generated by GOLD software.
#

@<TRIPOS>MOLECULE
AV-unprocessed.smi:59
    38    39     1
SMALL
NO_CHARGES


@<TRIPOS>ATOM
      1 ****        -1.4609   1.6213   1.8588 C.3            1 S1                 0.0000
      2 ****        -1.4723   0.8488   0.6207 N.am           1 S1                 0.0000
      3 ****        -2.0038   1.2344  -0.5480 C.2            1 S1                 0.0000
      4 ****        -2.5521   2.3116  -0.7827 O.2            1 S1                 0.0000
      5 ****        -1.8199   0.1449  -1.5907 C.3            1 S1                 0.0000
      6 ****        -2.9681  -0.0129  -2.4031 O.3            1 S1                 0.0000
      7 ****        -1.5244  -1.0914  -0.7184 C.3            1 S1                 0.0000
      8 ****        -0.7081  -2.1937  -1.4243 C.2            1 S1                 0.0000
      9 ****        -0.3360  -2.0051  -2.6039 O.co2          1 S1                 0.0000
     10 ****        -0.4768  -3.2269  -0.7584 O.co2          1 S1                -1.0000
     11 ****        -0.9263  -0.5078   0.5911 C.3            1 S1                 0.0000
     12 ****         0.5895  -0.5064   0.6549 C.2            1 S1                 0.0000
     13 ****         1.4303  -1.4687   1.2851 C.2            1 S1                 0.0000
     14 ****         2.7178  -1.1868   1.1687 N.2            1 S1                 0.0000
     15 ****         2.7466  -0.0434   0.4551 N.pl3          1 S1                 0.0000
     16 ****         4.0200   0.5602   0.1266 C.3            1 S1                 0.0000
     17 ****         1.4799   0.3912   0.1326 C.2            1 S1                 0.0000
     18 ****        -0.9683   0.4236  -2.2132 H              1 S1                 0.0000
     19 ****        -2.4848  -1.5423  -0.4594 H              1 S1                 0.0000
     20 ****        -1.3357  -1.0593   1.4388 H              1 S1                 0.0000
     21 ****        -1.8190   2.6414   1.7144 H              1 S1                 0.0000
     22 ****        -0.4493   1.6781   2.2614 H              1 S1                 0.0000
     23 ****        -2.0967   1.1430   2.6039 H              1 S1                 0.0000
     24 ****        -3.0765   0.7712  -2.9191 H              1 S1                 0.0000
     25 ****         1.1410  -2.3602   1.8215 H              1 S1                 0.0000
     26 ****         3.8631   1.4954  -0.4117 H              1 S1                 0.0000
     27 ****         4.5975  -0.1182  -0.5020 H              1 S1                 0.0000
     28 ****         4.5786   0.7663   1.0402 H              1 S1                 0.0000
     29 ****         1.3154   1.2928  -0.4387 H              1 S1                 0.0000
     30 ****        -2.6328   2.9992  -0.0612 LP             1 S1                 0.0000
     31 ****        -2.9167   2.4988  -1.6949 LP             1 S1                 0.0000
     32 ****        -3.7734  -0.1526  -1.8269 LP             1 S1                 0.0000
     33 ****        -2.8495  -0.8013  -3.0068 LP             1 S1                 0.0000
     34 ****         0.1872  -2.7106  -3.0820 LP             1 S1                 0.0000
     35 ****        -0.5618  -1.1489  -3.0686 LP             1 S1                 0.0000
     36 ****         0.0410  -3.9790  -1.1661 LP             1 S1                 0.0000
     37 ****        -0.8097  -3.3009   0.1817 LP             1 S1                 0.0000
     38 ****         3.4938  -1.7047   1.5286 LP             1 S1                 0.0000
@<TRIPOS>BOND
    1    1    2 1     
    2    1   21 1     
    3    1   22 1     
    4    1   23 1     
    5    2   11 1     
    6    2    3 am    
    7    3    4 2     
    8    3    5 1     
    9    5   18 1     
   10    5    6 1     
   11    5    7 1     
   12    6   24 1     
   13    7   19 1     
   14    7    8 1     
   15    7   11 1     
   16    8    9 ar    
   17    8   10 ar    
   18   11   20 1     
   19   11   12 1     
   20   12   17 2     
   21   12   13 1     
   22   13   14 2     
   23   13   25 1     
   24   14   15 1     
   25   15   16 1     
   26   15   17 1     
   27   16   26 1     
   28   16   27 1     
   29   16   28 1     
   30   17   29 1     
   31    4   30 1     
   32    4   31 1     
   33    6   32 1     
   34    6   33 1     
   35    9   34 1     
   36    9   35 1     
   37   10   36 1     
   38   10   37 1     
   39   14   38 1     
@<TRIPOS>SUBSTRUCTURE
      1 S1             1
@<TRIPOS>SET
LONE_PAIRS      STATIC     ATOMS    <user>   **** ""
9 30 31 32 33 34 35 36 37 38
DONOR_HYDROGENS      STATIC     ATOMS    <user>   **** ""
1 24
ATOM$BLUE        STATIC     ATOMS    COLORGROUP SYSTEM
9 30 31 32 33 34 35 36 37 38
ATOM$RED        STATIC     ATOMS    COLORGROUP SYSTEM
1 24
