AV-unprocessed.smi:3112|AV-procd|sdf|11844|dock6
  -GOLD-   2272017223D 1   1.00000     0.00000
 Structure written by MMmdl.
 36 36  0  0  0  0  0  0  0  0  1 V2000
  146.3777  142.4054  154.0739 C   0  0  0  0  0  0  0  0  0  0  0  0
  146.9443  141.0322  154.4603 C   0  0  0  0  0  0  0  0  0  0  0  0
  148.4840  141.0053  154.5345 C   0  0  2  0  0  0  0  0  0  0  0  0
  149.0016  141.3222  153.2586 O   0  0  0  0  0  0  0  0  0  0  0  0
  149.0441  139.6288  154.9312 C   0  0  0  0  0  0  0  0  0  0  0  0
  148.9538  139.4128  156.3764 N   0  0  0  0  0  0  0  0  0  0  0  0
  149.5435  140.4740  157.1984 C   0  0  2  0  0  0  0  0  0  0  0  0
  148.4342  141.4865  157.5409 C   0  0  0  0  0  0  0  0  0  0  0  0
  150.7597  141.1461  156.4926 C   0  0  2  0  0  0  0  0  0  0  0  0
  151.9372  140.1951  156.2081 C   0  0  0  0  0  0  0  0  0  0  0  0
  151.2397  142.3076  157.2319 N   0  0  0  0  0  0  0  0  0  0  0  0
  151.0874  143.6424  156.9170 C   0  0  0  0  0  0  0  0  0  0  0  0
  151.6973  144.3670  157.9004 C   0  0  0  0  0  0  0  0  0  0  0  0
  152.2037  143.3753  158.7858 C   0  0  0  0  0  0  0  0  0  0  0  0
  151.9287  142.1451  158.3848 N   0  0  0  0  0  0  0  0  0  0  0  0
  145.2878  142.3846  154.0615 H   0  0  0  0  0  0  0  0  0  0  0  0
  146.7122  142.7117  153.0826 H   0  0  0  0  0  0  0  0  0  0  0  0
  146.6866  143.1725  154.7848 H   0  0  0  0  0  0  0  0  0  0  0  0
  146.5279  140.7572  155.4298 H   0  0  0  0  0  0  0  0  0  0  0  0
  146.5913  140.2778  153.7560 H   0  0  0  0  0  0  0  0  0  0  0  0
  148.8391  141.7585  155.2392 H   0  0  0  0  0  0  0  0  0  0  0  0
  148.9883  140.5407  152.7272 H   0  0  0  0  0  0  0  0  0  0  0  0
  148.4996  138.8456  154.4018 H   0  0  0  0  0  0  0  0  0  0  0  0
  150.0775  139.5545  154.5984 H   0  0  0  0  0  0  0  0  0  0  0  0
  149.3991  138.5291  156.6021 H   0  0  0  0  0  0  0  0  0  0  0  0
  149.8804  140.0511  158.1462 H   0  0  0  0  0  0  0  0  0  0  0  0
  148.7735  142.2364  158.2556 H   0  0  0  0  0  0  0  0  0  0  0  0
  147.5756  140.9881  157.9924 H   0  0  0  0  0  0  0  0  0  0  0  0
  148.0841  142.0088  156.6499 H   0  0  0  0  0  0  0  0  0  0  0  0
  150.4136  141.5215  155.5280 H   0  0  0  0  0  0  0  0  0  0  0  0
  151.6790  139.4602  155.4463 H   0  0  0  0  0  0  0  0  0  0  0  0
  152.2492  139.6618  157.1066 H   0  0  0  0  0  0  0  0  0  0  0  0
  152.8010  140.7438  155.8313 H   0  0  0  0  0  0  0  0  0  0  0  0
  150.5617  143.9622  156.0295 H   0  0  0  0  0  0  0  0  0  0  0  0
  151.7711  145.4417  157.9759 H   0  0  0  0  0  0  0  0  0  0  0  0
  152.7589  143.5118  159.7023 H   0  0  0  0  0  0  0  0  0  0  0  0
  1  2  1  0  0  0  0
  1 16  1  0  0  0  0
  1 17  1  0  0  0  0
  1 18  1  0  0  0  0
  2  3  1  0  0  0  0
  2 19  1  0  0  0  0
  2 20  1  0  0  0  0
  3  4  1  0  0  0  0
  3  5  1  0  0  0  0
  3 21  1  0  0  0  0
  4 22  1  0  0  0  0
  5  6  1  0  0  0  0
  5 23  1  0  0  0  0
  5 24  1  0  0  0  0
  6  7  1  0  0  0  0
  6 25  1  0  0  0  0
  7  8  1  0  0  0  0
  7  9  1  0  0  0  0
  7 26  1  0  0  0  0
  8 27  1  0  0  0  0
  8 28  1  0  0  0  0
  8 29  1  0  0  0  0
  9 10  1  0  0  0  0
  9 11  1  0  0  0  0
  9 30  1  0  0  0  0
 10 31  1  0  0  0  0
 10 32  1  0  0  0  0
 10 33  1  0  0  0  0
 11 15  1  0  0  0  0
 11 12  1  0  0  0  0
 12 13  2  0  0  0  0
 12 34  1  0  0  0  0
 13 14  1  0  0  0  0
 13 35  1  0  0  0  0
 14 15  2  0  0  0  0
 14 36  1  0  0  0  0
M  END
> <s_m_source_file>
AV-unprocessed.smi

> <i_m_source_file_index>
3112

> <i_lp_mmshare_version>
43012

> <i_f3d_flags>
0

> <s_epik_input>
W0NIM11bQ0gyXVtDQEhdKFtPSF0pW0NIMl1bTkhdW0NASF0oW0NIM10pW0NASF0oW0NIM10pbjFbY0hdW2NIXVtjSF1uMQ==

> <s_epik_cmdline>
J2VwaWtfcHl0aG9uJywgJy1waCcsICc3LjAnLCAnLXRuJywgJzgnLCAnLW1hJywgJzIwMCcsICctbWV0YWxfYmluZGluZycsICctaW1hZScsICc8aW5maWxlLm1hZT4nLCAnLW9tYWUnLCAnPG91dGZpbGUubWFlPic=

> <r_lp_tautomer_probability>
1

> <r_epik_Ionization_Penalty>
2.16876

> <r_epik_Ionization_Penalty_Charging>
0

> <r_epik_Ionization_Penalty_Neutral>
2.16876

> <r_epik_State_Penalty>
2.30854

> <r_epik_Charging_Adjusted_Penalty>
2.30854

> <i_epik_Tot_Q>
0

> <i_epik_Tot_abs_Q>
0

> <r_epik_Metal_State_Penalty>
2.3073

> <b_epik_Metal_Only>
0

> <s_lp_Force_Field>
OPLS_2005

> <r_lp_Energy>
16.1769

> <b_lp_Chiralities_Consistent>
1

> <s_lp_Variant>
AV-unprocessed.smi:3112-9

> <Gold.Version>
5.8.1

> <Gold.Id.Protein>
6NUR|6NUR_protein|mol2

> <Gold.PLP.Fitness>
38.5337

> <Gold.PLP.PLP>
-31.4755

> <Gold.PLP.part.hbond>
-2.7704

> <Gold.PLP.part.metal>
0.0000

> <Gold.PLP.part.buried>
-2.4903

> <Gold.PLP.part.nonpolar>
-25.9758

> <Gold.PLP.part.repulsive>
0.0000

> <Gold.PLP.ligand.clash>
0.0000

> <Gold.PLP.ligand.torsion>
0.8055

> <Gold.PLP.Chemscore.Hbond>
1.8400

> <Gold.PLP.Chemscore.CHOScore>
1.0000

> <Gold.PLP.Chemscore.Metal>
0.0000

> <Gold.Chemscore.Hbonds>
donor molecule, donor type, donor heavy atom, donor atom, acceptor molecule, acceptor atom, score
      L1  H     4    22       P1  7957  0.74
      P1  H  8011  8017       L1     4  1.00
      L1  C    12    34       P1  8028  0.57

> <Gold.PLP.Chemscore.Internal.Correction>
0.1493

> <Gold.Rescore>
     Score         DG    S(hbond)    S(metal)    S(lipo)     H(rot)  DE(clash)    DE(int)     intcor
     12.00     -12.80       1.37        0.00      74.05       2.31       0.03       0.78       ----

> <Gold.Chemscore.Fitness>
11.9951

> <Gold.Chemscore.DG>
-12.7987

> <Gold.Chemscore.ZeroCoef>
-5.4800

> <Gold.Chemscore.Hbond>
1.3684

> <Gold.Chemscore.Metal>
0.0000

> <Gold.Chemscore.Lipo>
74.0511

> <Gold.Chemscore.Internal_Hbond>
0.0000

> <Gold.Chemscore.DEClash>
0.0276

> <Gold.Chemscore.DEInternal>
0.7760

> <Gold.Chemscore.Rot>
2.3108

> <Gold.Chemscore.Internal.Correction>
   9.000000E+99

> <Gold.Chemscore.Hbonds>
donor molecule, donor type, donor heavy atom, donor atom, acceptor molecule, acceptor atom, score
      L1  H     4    22       P1  7957  0.74
      P1  H  8011  8017       L1     4  0.42

> <Gold.Chemscore.Hbond.Weighted>
-4.5705

> <Gold.Chemscore.Metal.Weighted>
-0.0000

> <Gold.Chemscore.Lipo.Weighted>
-8.6640

> <Gold.Chemscore.Internal_Hbond.Weighted>
0.0000

> <Gold.Chemscore.DEClash.Weighted>
0.0276

> <Gold.Chemscore.DEInternal.Weighted>
0.7760

> <Gold.Chemscore.Rot.Weighted>
5.9157

> <Gold.Chemscore.Internal.Correction.Weighted>
   9.000000E+99

> <Gold.Protein.RotatedTorsions>
[ 6907 6896 6895 6894 ] final  142.04 input  -60.11 | X-H torsion
[ 7974 7965 7964 7962 ] final  176.99 input  175.53 | X-H torsion
[ 8008 7997 7996 7995 ] final -144.10 input   59.86 | X-H torsion
[ 10167 10162 10161 10158 ] final   72.69 input  -65.29 | X-H torsion
[ 10718 10713 10712 10709 ] final  -59.25 input   66.30 | X-H torsion
[ 10763 10752 10751 10750 ] final   -0.58 input  -60.55 | X-H torsion
[ 11005 11000 10999 10996 ] final   53.15 input  -57.11 | X-H torsion

> <Gold.Protein.ActiveResidues>
 VAL166  LYS551  ARG553  GLY616  TRP617  ASP618  TYR619  PRO620  LYS621  CYS622 
 ASP623  PHE694  ASN695  SER759  ASP760  ASP761  ALA762  ILE779  LEU786  VAL792 
 PHE793  MET794  SER795  GLU796  ALA797  LYS798  CYS799  TRP800  GLU811  SER814 

> <Gold.Protein.RotatedAtoms>
  152.2236  133.5002  159.5175 H   0  0  0  0  0  0  0  0  0  0  0  0  # atno 6907 bound_to 6896
  150.7019  134.1310  159.4078 H   0  0  0  0  0  0  0  0  0  0  0  0  # atno 6908 bound_to 6896
  151.9231  135.0289  160.0574 H   0  0  0  0  0  0  0  0  0  0  0  0  # atno 6909 bound_to 6896
  144.7175  140.0180  143.6440 H   0  0  0  0  0  0  0  0  0  0  0  0  # atno 7974 bound_to 7965
  155.5214  140.0592  157.2906 H   0  0  0  0  0  0  0  0  0  0  0  0  # atno 8008 bound_to 7997
  154.4516  140.1952  156.0448 H   0  0  0  0  0  0  0  0  0  0  0  0  # atno 8009 bound_to 7997
  156.0716  140.3259  155.7586 H   0  0  0  0  0  0  0  0  0  0  0  0  # atno 8010 bound_to 7997
  140.0326  144.5454  150.7495 H   0  0  0  0  0  0  0  0  0  0  0  0  # atno 10167 bound_to 10162
  156.1075  130.4178  150.0689 H   0  0  0  0  0  0  0  0  0  0  0  0  # atno 10718 bound_to 10713
  153.3338  135.6976  153.6925 H   0  0  0  0  0  0  0  0  0  0  0  0  # atno 10763 bound_to 10752
  153.5717  135.3515  155.2841 H   0  0  0  0  0  0  0  0  0  0  0  0  # atno 10764 bound_to 10752
  154.8623  135.4274  154.2533 H   0  0  0  0  0  0  0  0  0  0  0  0  # atno 10765 bound_to 10752
  140.0790  134.5364  155.8966 H   0  0  0  0  0  0  0  0  0  0  0  0  # atno 11005 bound_to 11000
  146.0204  139.3246  143.0816 LP  0  0  0  0  0  0  0  0  0  0  0  0  # atno 17320 bound_to 7965
  145.8575  140.9494  143.0717 LP  0  0  0  0  0  0  0  0  0  0  0  0  # atno 17321 bound_to 7965
  140.7295  143.2673  151.4001 LP  0  0  0  0  0  0  0  0  0  0  0  0  # atno 17342 bound_to 10162
  139.6066  144.1184  152.2255 LP  0  0  0  0  0  0  0  0  0  0  0  0  # atno 17343 bound_to 10162
  156.8661  130.9508  151.3613 LP  0  0  0  0  0  0  0  0  0  0  0  0  # atno 17370 bound_to 10713
  157.6254  130.8687  149.9180 LP  0  0  0  0  0  0  0  0  0  0  0  0  # atno 17371 bound_to 10713
  141.2040  133.6636  156.6095 LP  0  0  0  0  0  0  0  0  0  0  0  0  # atno 17394 bound_to 11000
  140.3515  134.7764  157.4470 LP  0  0  0  0  0  0  0  0  0  0  0  0  # atno 17395 bound_to 11000

$$$$
