AV-unprocessed.smi:1703|AV-procd|sdf|6875|dock6
  -GOLD-   22720 8 73D 1   1.00000     0.00000
 Structure written by MMmdl.
 50 52  0  0  0  0  0  0  0  0  3 V2000
  150.0740  132.9208  155.0854 C   0  0  0  0  0  0  0  0  0  0  0  0
  149.3048  134.2424  154.9831 C   0  0  2  0  0  0  0  0  0  0  0  0
  150.2454  135.4610  154.9991 C   0  0  0  0  0  0  0  0  0  0  0  0
  149.4617  136.7200  154.9920 N   0  3  2  0  0  0  0  0  0  0  0  0
  150.3017  137.9421  154.9169 C   0  0  0  0  0  0  0  0  0  0  0  0
  150.7293  138.4608  156.3080 C   0  0  1  0  0  0  0  0  0  0  0  0
  151.3144  137.4017  157.0377 O   0  0  0  0  0  0  0  0  0  0  0  0
  151.7624  139.6040  156.2519 C   0  0  0  0  0  0  0  0  0  0  0  0
  151.2316  140.8873  156.7422 N   0  0  0  0  0  0  0  0  0  0  0  0
  150.1191  141.5792  156.3578 C   0  0  0  0  0  0  0  0  0  0  0  0
  149.1423  141.1973  155.2948 C   0  0  0  0  0  0  0  0  0  0  0  0
  148.2124  142.2242  155.0295 O   0  0  0  0  0  0  0  0  0  0  0  0
  150.0637  142.7099  157.1157 N   0  3  0  0  0  0  0  0  0  0  0  0
  151.1457  142.7437  157.9951 C   0  0  0  0  0  0  0  0  0  0  0  0
  151.5103  143.6873  158.9505 C   0  0  0  0  0  0  0  0  0  0  0  0
  152.6851  143.4237  159.6842 C   0  0  0  0  0  0  0  0  0  0  0  0
  153.4477  142.2606  159.4547 C   0  0  0  0  0  0  0  0  0  0  0  0
  153.0681  141.3111  158.4830 C   0  0  0  0  0  0  0  0  0  0  0  0
  151.9026  141.5763  157.7622 C   0  0  0  0  0  0  0  0  0  0  0  0
  148.5242  136.7475  156.1395 C   0  0  0  0  0  0  0  0  0  0  0  0
  147.6184  135.5005  156.1473 C   0  0  1  0  0  0  0  0  0  0  0  0
  146.5305  135.5251  155.0587 C   0  0  0  0  0  0  0  0  0  0  0  0
  148.4126  134.3158  156.0922 O   0  0  0  0  0  0  0  0  0  0  0  0
  150.7699  132.8053  154.2541 H   0  0  0  0  0  0  0  0  0  0  0  0
  149.3915  132.0706  155.0673 H   0  0  0  0  0  0  0  0  0  0  0  0
  150.6469  132.8671  156.0115 H   0  0  0  0  0  0  0  0  0  0  0  0
  148.7364  134.2308  154.0531 H   0  0  0  0  0  0  0  0  0  0  0  0
  150.8836  135.4337  155.8839 H   0  0  0  0  0  0  0  0  0  0  0  0
  150.9045  135.4167  154.1328 H   0  0  0  0  0  0  0  0  0  0  0  0
  151.2011  137.7391  154.3334 H   0  0  0  0  0  0  0  0  0  0  0  0
  149.7494  138.7034  154.3651 H   0  0  0  0  0  0  0  0  0  0  0  0
  149.8638  138.8110  156.8678 H   0  0  0  0  0  0  0  0  0  0  0  0
  151.8671  136.8981  156.4600 H   0  0  0  0  0  0  0  0  0  0  0  0
  152.6267  139.3559  156.8694 H   0  0  0  0  0  0  0  0  0  0  0  0
  152.1488  139.7308  155.2412 H   0  0  0  0  0  0  0  0  0  0  0  0
  149.6736  140.9467  154.3767 H   0  0  0  0  0  0  0  0  0  0  0  0
  148.6021  140.3024  155.6052 H   0  0  0  0  0  0  0  0  0  0  0  0
  148.5646  143.0388  155.3555 H   0  0  0  0  0  0  0  0  0  0  0  0
  150.9283  144.5800  159.1274 H   0  0  0  0  0  0  0  0  0  0  0  0
  153.0079  144.1276  160.4378 H   0  0  0  0  0  0  0  0  0  0  0  0
  154.3429  142.0928  160.0359 H   0  0  0  0  0  0  0  0  0  0  0  0
  153.6666  140.4274  158.3197 H   0  0  0  0  0  0  0  0  0  0  0  0
  149.0985  136.7911  157.0666 H   0  0  0  0  0  0  0  0  0  0  0  0
  147.9116  137.6494  156.1049 H   0  0  0  0  0  0  0  0  0  0  0  0
  147.1017  135.4716  157.1073 H   0  0  0  0  0  0  0  0  0  0  0  0
  145.8516  136.3646  155.2107 H   0  0  0  0  0  0  0  0  0  0  0  0
  145.9352  134.6123  155.0838 H   0  0  0  0  0  0  0  0  0  0  0  0
  146.9478  135.6248  154.0570 H   0  0  0  0  0  0  0  0  0  0  0  0
  148.8878  136.7115  154.1609 H   0  0  0  0  0  0  0  0  0  0  0  0
  149.3360  143.4084  157.0329 H   0  0  0  0  0  0  0  0  0  0  0  0
  1  2  1  0  0  0  0
  1 24  1  0  0  0  0
  1 25  1  0  0  0  0
  1 26  1  0  0  0  0
  2 23  1  0  0  0  0
  2  3  1  0  0  0  0
  2 27  1  0  0  0  0
  3  4  1  0  0  0  0
  3 28  1  0  0  0  0
  3 29  1  0  0  0  0
  4  5  1  0  0  0  0
  4 20  1  0  0  0  0
  4 49  1  0  0  0  0
  5  6  1  0  0  0  0
  5 30  1  0  0  0  0
  5 31  1  0  0  0  0
  6  7  1  0  0  0  0
  6  8  1  0  0  0  0
  6 32  1  0  0  0  0
  7 33  1  0  0  0  0
  8  9  1  0  0  0  0
  8 34  1  0  0  0  0
  8 35  1  0  0  0  0
  9 19  1  0  0  0  0
  9 10  1  0  0  0  0
 10 11  1  0  0  0  0
 10 13  2  0  0  0  0
 11 12  1  0  0  0  0
 11 36  1  0  0  0  0
 11 37  1  0  0  0  0
 12 38  1  0  0  0  0
 13 14  1  0  0  0  0
 13 50  1  0  0  0  0
 14 19  2  0  0  0  0
 14 15  1  0  0  0  0
 15 16  2  0  0  0  0
 15 39  1  0  0  0  0
 16 17  1  0  0  0  0
 16 40  1  0  0  0  0
 17 18  2  0  0  0  0
 17 41  1  0  0  0  0
 18 19  1  0  0  0  0
 18 42  1  0  0  0  0
 20 21  1  0  0  0  0
 20 43  1  0  0  0  0
 20 44  1  0  0  0  0
 21 22  1  0  0  0  0
 21 23  1  0  0  0  0
 21 45  1  0  0  0  0
 22 46  1  0  0  0  0
 22 47  1  0  0  0  0
 22 48  1  0  0  0  0
M  CHG  1   4   1
M  CHG  1  13   1
M  END
> <s_m_source_file>
AV-unprocessed.smi

> <i_m_source_file_index>
1703

> <i_lp_mmshare_version>
43012

> <i_f3d_flags>
0

> <s_epik_input>
W0NIM11bQ0BASF0xW0NIMl1OKFtDSDJdW0NASF0oTzEpW0NIM10pW0NIMl1bQ0BIXShbT0hdKVtDSDJdbihjKG4yKVtDSDJdW09IXSljKGMyMylbY0hdW2NIXVtjSF1bY0hdMw==

> <s_epik_cmdline>
J2VwaWtfcHl0aG9uJywgJy1waCcsICc3LjAnLCAnLXRuJywgJzgnLCAnLW1hJywgJzIwMCcsICctbWV0YWxfYmluZGluZycsICctaW1hZScsICc8aW5maWxlLm1hZT4nLCAnLW9tYWUnLCAnPG91dGZpbGUubWFlPic=

> <r_epik_Ionization_Penalty>
2.22579

> <r_epik_Ionization_Penalty_Charging>
2.22492

> <r_epik_Ionization_Penalty_Neutral>
0.000870007

> <r_epik_State_Penalty>
2.3141

> <r_epik_Charging_Adjusted_Penalty>
4.53902

> <i_epik_Tot_Q>
2

> <i_epik_Tot_abs_Q>
2

> <r_epik_Metal_State_Penalty>
6.36517

> <b_epik_Metal_Only>
0

> <s_lp_Force_Field>
OPLS_2005

> <r_lp_Energy>
32.2753

> <b_lp_Chiralities_Consistent>
1

> <s_lp_Variant>
AV-unprocessed.smi:1703-23

> <Gold.Version>
5.8.1

> <Gold.Id.Protein>
6NUR|6NUR_protein|mol2

> <Gold.PLP.Fitness>
55.1002

> <Gold.PLP.PLP>
-41.9382

> <Gold.PLP.part.hbond>
-3.9873

> <Gold.PLP.part.metal>
0.0000

> <Gold.PLP.part.buried>
-4.2196

> <Gold.PLP.part.nonpolar>
-32.9255

> <Gold.PLP.part.repulsive>
0.1298

> <Gold.PLP.ligand.clash>
0.0000

> <Gold.PLP.ligand.torsion>
1.1385

> <Gold.PLP.Chemscore.Hbond>
5.1330

> <Gold.PLP.Chemscore.CHOScore>
0.0000

> <Gold.PLP.Chemscore.Metal>
0.0000

> <Gold.Chemscore.Hbonds>
donor molecule, donor type, donor heavy atom, donor atom, acceptor molecule, acceptor atom, score
      L1  H     4    49       P1  7948  0.38
      L1  H    12    38       P1  8028  1.00
      L1  H    13    50       P1  8028  1.38

> <Gold.PLP.Chemscore.Internal.Correction>
0.0401

> <Gold.Rescore>
     Score         DG    S(hbond)    S(metal)    S(lipo)     H(rot)  DE(clash)    DE(int)     intcor
     17.96     -19.34       2.97        0.00      99.96       3.04       0.01       1.37       ----

> <Gold.Chemscore.Fitness>
17.9556

> <Gold.Chemscore.DG>
-19.3354

> <Gold.Chemscore.ZeroCoef>
-5.4800

> <Gold.Chemscore.Hbond>
2.9749

> <Gold.Chemscore.Metal>
0.0000

> <Gold.Chemscore.Lipo>
99.9640

> <Gold.Chemscore.Internal_Hbond>
0.0000

> <Gold.Chemscore.DEClash>
0.0059

> <Gold.Chemscore.DEInternal>
1.3738

> <Gold.Chemscore.Rot>
3.0378

> <Gold.Chemscore.Internal.Correction>
   9.000000E+99

> <Gold.Chemscore.Hbonds>
donor molecule, donor type, donor heavy atom, donor atom, acceptor molecule, acceptor atom, score
      L1  H     4    49       P1  7948  0.20
      L1  H    12    38       P1  8028  1.00
      L1  H    13    50       P1  8028  0.61

> <Gold.Chemscore.Hbond.Weighted>
-9.9363

> <Gold.Chemscore.Metal.Weighted>
-0.0000

> <Gold.Chemscore.Lipo.Weighted>
-11.6958

> <Gold.Chemscore.Internal_Hbond.Weighted>
0.0000

> <Gold.Chemscore.DEClash.Weighted>
0.0059

> <Gold.Chemscore.DEInternal.Weighted>
1.3738

> <Gold.Chemscore.Rot.Weighted>
7.7767

> <Gold.Chemscore.Internal.Correction.Weighted>
   9.000000E+99

> <Gold.Protein.RotatedTorsions>
[ 6907 6896 6895 6894 ] final  104.21 input  -60.11 | X-H torsion
[ 7974 7965 7964 7962 ] final  -57.44 input  175.53 | X-H torsion
[ 8008 7997 7996 7995 ] final  104.99 input   59.86 | X-H torsion
[ 10167 10162 10161 10158 ] final -119.53 input  -65.29 | X-H torsion
[ 10718 10713 10712 10709 ] final  -16.57 input   66.30 | X-H torsion
[ 10763 10752 10751 10750 ] final   45.09 input  -60.55 | X-H torsion
[ 11005 11000 10999 10996 ] final -127.71 input  -57.11 | X-H torsion

> <Gold.Protein.ActiveResidues>
 VAL166  LYS551  ARG553  GLY616  TRP617  ASP618  TYR619  PRO620  LYS621  CYS622 
 ASP623  PHE694  ASN695  SER759  ASP760  ASP761  ALA762  ILE779  LEU786  VAL792 
 PHE793  MET794  SER795  GLU796  ALA797  LYS798  CYS799  TRP800  GLU811  SER814 

> <Gold.Protein.RotatedAtoms>
  152.5271  133.9711  159.7762 H   0  0  0  0  0  0  0  0  0  0  0  0  # atno 6907 bound_to 6896
  150.9983  133.6073  159.2705 H   0  0  0  0  0  0  0  0  0  0  0  0  # atno 6908 bound_to 6896
  151.3192  135.0820  159.9353 H   0  0  0  0  0  0  0  0  0  0  0  0  # atno 6909 bound_to 6896
  145.8510  140.8352  142.9986 H   0  0  0  0  0  0  0  0  0  0  0  0  # atno 7974 bound_to 7965
  156.1620  140.3138  155.8824 H   0  0  0  0  0  0  0  0  0  0  0  0  # atno 8008 bound_to 7997
  155.3762  140.0485  157.3061 H   0  0  0  0  0  0  0  0  0  0  0  0  # atno 8009 bound_to 7997
  154.5156  140.2180  155.9083 H   0  0  0  0  0  0  0  0  0  0  0  0  # atno 8010 bound_to 7997
  140.0456  143.5110  152.2108 H   0  0  0  0  0  0  0  0  0  0  0  0  # atno 10167 bound_to 10162
  156.5857  130.4786  149.6301 H   0  0  0  0  0  0  0  0  0  0  0  0  # atno 10718 bound_to 10713
  152.9830  135.6050  154.3380 H   0  0  0  0  0  0  0  0  0  0  0  0  # atno 10763 bound_to 10752
  154.3078  135.2771  155.2582 H   0  0  0  0  0  0  0  0  0  0  0  0  # atno 10764 bound_to 10752
  154.4805  135.5918  153.6442 H   0  0  0  0  0  0  0  0  0  0  0  0  # atno 10765 bound_to 10752
  140.9577  134.0979  157.4000 H   0  0  0  0  0  0  0  0  0  0  0  0  # atno 11005 bound_to 11000
  144.6729  140.0953  143.7463 LP  0  0  0  0  0  0  0  0  0  0  0  0  # atno 17320 bound_to 7965
  145.9358  139.2636  143.1298 LP  0  0  0  0  0  0  0  0  0  0  0  0  # atno 17321 bound_to 7965
  139.5985  144.7575  151.3227 LP  0  0  0  0  0  0  0  0  0  0  0  0  # atno 17342 bound_to 10162
  140.7240  143.7056  150.7810 LP  0  0  0  0  0  0  0  0  0  0  0  0  # atno 17343 bound_to 10162
  156.2593  130.6953  151.1716 LP  0  0  0  0  0  0  0  0  0  0  0  0  # atno 17370 bound_to 10713
  157.7316  131.0607  150.5671 LP  0  0  0  0  0  0  0  0  0  0  0  0  # atno 17371 bound_to 10713
  139.8867  135.0084  156.6518 LP  0  0  0  0  0  0  0  0  0  0  0  0  # atno 17394 bound_to 11000
  140.7513  133.8895  155.8349 LP  0  0  0  0  0  0  0  0  0  0  0  0  # atno 17395 bound_to 11000

$$$$
