#       Name:                AV-unprocessed.smi:2831
#       Creating user name   scv26
#       Creation time:       Fri Mar 27 15:35:45 2020


#       File generated by GOLD software.
#

@<TRIPOS>MOLECULE
AV-unprocessed.smi:2831
    36    37     1
SMALL
NO_CHARGES


@<TRIPOS>ATOM
      1 ****        -6.0204   2.3155   0.6740 C.3            1 S1                 0.0000
      2 ****        -4.6822   1.7108   0.4183 C.2            1 S1                 0.0000
      3 ****        -4.5053   0.6761  -0.4121 N.2            1 S1                 0.0000
      4 ****        -3.1750   0.2890  -0.4945 N.2            1 S1                 0.0000
      5 ****        -2.3849   1.0472   0.2781 C.2            1 S1                 0.0000
      6 ****        -0.9796   0.8718   0.3824 N.am           1 S1                 0.0000
      7 ****        -0.2004  -0.0138  -0.2629 C.2            1 S1                 0.0000
      8 ****        -0.5985  -0.8533  -1.0706 O.2            1 S1                 0.0000
      9 ****         1.0883   0.1322   0.0870 N.am           1 S1                 0.0000
     10 ****         2.2394  -0.6232  -0.4204 C.3            1 S1                 0.0000
     11 ****         2.4533  -0.3450  -1.9244 C.3            1 S1                 0.0000
     12 ****         2.1348  -2.1309  -0.1262 C.3            1 S1                 0.0000
     13 ****         3.3306  -2.4419   0.7724 C.3            1 S1                 0.0000
     14 ****         4.2516  -1.4085   0.4761 O.3            1 S1                 0.0000
     15 ****         3.4912  -0.2172   0.3766 C.3            1 S1                 0.0000
     16 ****        -3.2116   2.3059   1.1800 S.3            1 S1                 0.0000
     17 ****        -6.7754   1.5350   0.7711 H              1 S1                 0.0000
     18 ****        -6.2969   2.9712  -0.1519 H              1 S1                 0.0000
     19 ****        -6.0031   2.8997   1.5943 H              1 S1                 0.0000
     20 ****        -0.5110   1.5034   1.0151 H              1 S1                 0.0000
     21 ****         1.3013   0.8496   0.7645 H              1 S1                 0.0000
     22 ****         3.3628  -0.8254  -2.2870 H              1 S1                 0.0000
     23 ****         2.5482   0.7238  -2.1199 H              1 S1                 0.0000
     24 ****         1.6276  -0.7189  -2.5298 H              1 S1                 0.0000
     25 ****         1.2043  -2.4240   0.3610 H              1 S1                 0.0000
     26 ****         2.2059  -2.7085  -1.0489 H              1 S1                 0.0000
     27 ****         3.0493  -2.3862   1.8254 H              1 S1                 0.0000
     28 ****         3.7558  -3.4277   0.5827 H              1 S1                 0.0000
     29 ****         4.0637   0.5812  -0.0970 H              1 S1                 0.0000
     30 ****         3.2359   0.1134   1.3856 H              1 S1                 0.0000
     31 ****        -5.2468   0.2326  -0.9155 LP             1 S1                 0.0000
     32 ****        -2.8455  -0.4654  -1.0623 LP             1 S1                 0.0000
     33 ****        -1.5721  -0.9129  -1.2909 LP             1 S1                 0.0000
     34 ****         0.0518  -1.4757  -1.5063 LP             1 S1                 0.0000
     35 ****         4.7165  -1.5962  -0.3891 LP             1 S1                 0.0000
     36 ****         4.9287  -1.3275   1.2076 LP             1 S1                 0.0000
@<TRIPOS>BOND
    1    1    2 1     
    2    1   17 1     
    3    1   18 1     
    4    1   19 1     
    5    2   16 1     
    6    2    3 2     
    7    3    4 1     
    8    4    5 2     
    9    5    6 1     
   10    5   16 1     
   11    6    7 am    
   12    6   20 1     
   13    7    8 2     
   14    7    9 am    
   15    9   10 1     
   16    9   21 1     
   17   10   15 1     
   18   10   11 1     
   19   10   12 1     
   20   11   22 1     
   21   11   23 1     
   22   11   24 1     
   23   12   13 1     
   24   12   25 1     
   25   12   26 1     
   26   13   14 1     
   27   13   27 1     
   28   13   28 1     
   29   14   15 1     
   30   15   29 1     
   31   15   30 1     
   32    3   31 1     
   33    4   32 1     
   34    8   33 1     
   35    8   34 1     
   36   14   35 1     
   37   14   36 1     
@<TRIPOS>SUBSTRUCTURE
      1 S1             1
@<TRIPOS>SET
LONE_PAIRS      STATIC     ATOMS    <user>   **** ""
6 31 32 33 34 35 36
DONOR_HYDROGENS      STATIC     ATOMS    <user>   **** ""
2 20 21
ATOM$BLUE        STATIC     ATOMS    COLORGROUP SYSTEM
6 31 32 33 34 35 36
ATOM$RED        STATIC     ATOMS    COLORGROUP SYSTEM
2 20 21
