AV-unprocessed.smi:1995|AV-procd|sdf|8077|dock6
  -GOLD-   2272010293D 1   1.00000     0.00000
 Structure written by MMmdl.
 42 43  0  0  0  0  0  0  0  0  1 V2000
  146.1721  140.4692  156.5650 C   0  0  0  0  0  0  0  0  0  0  0  0
  146.3439  140.6829  155.0506 C   0  0  0  0  0  0  0  0  0  0  0  0
  147.2059  139.6053  154.3156 C   0  0  2  0  0  0  0  0  0  0  0  0
  147.1437  139.9399  152.8017 C   0  0  0  0  0  0  0  0  0  0  0  0
  146.5387  138.2046  154.5318 C   0  0  0  0  0  0  0  0  0  0  0  0
  146.8026  137.2274  153.4737 N   0  0  0  0  0  0  0  0  0  0  0  0
  145.9014  136.4032  152.9190 C   0  0  0  0  0  0  0  0  0  0  0  0
  144.7140  136.3752  153.2432 O   0  0  0  0  0  0  0  0  0  0  0  0
  146.4695  135.6222  151.9833 N   0  0  0  0  0  0  0  0  0  0  0  0
  145.8600  134.6089  151.1974 C   0  0  0  0  0  0  0  0  0  0  0  0
  144.6012  134.6577  150.7454 N   0  0  0  0  0  0  0  0  0  0  0  0
  144.2659  133.5223  150.0031 C   0  0  0  0  0  0  0  0  0  0  0  0
  145.2887  132.6129  149.8990 C   0  0  0  0  0  0  0  0  0  0  0  0
  146.7228  133.1499  150.7325 S   0  0  0  0  0  0  0  0  0  0  0  0
  148.6098  139.5973  154.8291 N   0  0  0  0  0  0  0  0  0  0  0  0
  149.2462  140.9182  154.9385 C   0  0  0  0  0  0  0  0  0  0  0  0
  150.6375  140.8451  155.5899 C   0  0  0  0  0  0  0  0  0  0  0  0
  151.4658  139.9594  154.8487 O   0  0  0  0  0  0  0  0  0  0  0  0
  150.9209  138.6485  154.7761 C   0  0  0  0  0  0  0  0  0  0  0  0
  149.5298  138.6970  154.1206 C   0  0  0  0  0  0  0  0  0  0  0  0
  145.5894  141.2805  157.0012 H   0  0  0  0  0  0  0  0  0  0  0  0
  147.1324  140.4439  157.0804 H   0  0  0  0  0  0  0  0  0  0  0  0
  145.6479  139.5401  156.7863 H   0  0  0  0  0  0  0  0  0  0  0  0
  145.3517  140.7457  154.6032 H   0  0  0  0  0  0  0  0  0  0  0  0
  146.7530  141.6782  154.8817 H   0  0  0  0  0  0  0  0  0  0  0  0
  146.1155  140.0031  152.4463 H   0  0  0  0  0  0  0  0  0  0  0  0
  147.6391  139.1826  152.1945 H   0  0  0  0  0  0  0  0  0  0  0  0
  147.6002  140.9013  152.5699 H   0  0  0  0  0  0  0  0  0  0  0  0
  146.8453  137.7684  155.4826 H   0  0  0  0  0  0  0  0  0  0  0  0
  145.4565  138.3168  154.6018 H   0  0  0  0  0  0  0  0  0  0  0  0
  147.7552  137.1738  153.1438 H   0  0  0  0  0  0  0  0  0  0  0  0
  147.4563  135.7599  151.8220 H   0  0  0  0  0  0  0  0  0  0  0  0
  143.2734  133.4428  149.5846 H   0  0  0  0  0  0  0  0  0  0  0  0
  145.2847  131.6632  149.3847 H   0  0  0  0  0  0  0  0  0  0  0  0
  149.3493  141.3723  153.9532 H   0  0  0  0  0  0  0  0  0  0  0  0
  148.6447  141.5960  155.5399 H   0  0  0  0  0  0  0  0  0  0  0  0
  151.0992  141.8323  155.6073 H   0  0  0  0  0  0  0  0  0  0  0  0
  150.5631  140.5079  156.6251 H   0  0  0  0  0  0  0  0  0  0  0  0
  151.5918  138.0168  154.1942 H   0  0  0  0  0  0  0  0  0  0  0  0
  150.8614  138.2157  155.7760 H   0  0  0  0  0  0  0  0  0  0  0  0
  149.1494  137.6780  154.1069 H   0  0  0  0  0  0  0  0  0  0  0  0
  149.6400  139.0104  153.0824 H   0  0  0  0  0  0  0  0  0  0  0  0
  1  2  1  0  0  0  0
  1 21  1  0  0  0  0
  1 22  1  0  0  0  0
  1 23  1  0  0  0  0
  2  3  1  0  0  0  0
  2 24  1  0  0  0  0
  2 25  1  0  0  0  0
  3  4  1  0  0  0  0
  3  5  1  0  0  0  0
  3 15  1  0  0  0  0
  4 26  1  0  0  0  0
  4 27  1  0  0  0  0
  4 28  1  0  0  0  0
  5  6  1  0  0  0  0
  5 29  1  0  0  0  0
  5 30  1  0  0  0  0
  6  7  1  0  0  0  0
  6 31  1  0  0  0  0
  7  8  2  0  0  0  0
  7  9  1  0  0  0  0
  9 10  1  0  0  0  0
  9 32  1  0  0  0  0
 10 14  1  0  0  0  0
 10 11  2  0  0  0  0
 11 12  1  0  0  0  0
 12 13  2  0  0  0  0
 12 33  1  0  0  0  0
 13 14  1  0  0  0  0
 13 34  1  0  0  0  0
 15 20  1  0  0  0  0
 15 16  1  0  0  0  0
 16 17  1  0  0  0  0
 16 35  1  0  0  0  0
 16 36  1  0  0  0  0
 17 18  1  0  0  0  0
 17 37  1  0  0  0  0
 17 38  1  0  0  0  0
 18 19  1  0  0  0  0
 19 20  1  0  0  0  0
 19 39  1  0  0  0  0
 19 40  1  0  0  0  0
 20 41  1  0  0  0  0
 20 42  1  0  0  0  0
M  END
> <s_m_source_file>
AV-unprocessed.smi

> <i_m_source_file_index>
1995

> <i_lp_mmshare_version>
43012

> <i_f3d_flags>
0

> <s_epik_input>
W0NIMl0xW0NIMl1PW0NIMl1bQ0gyXU4xW0NAQF0oW0NIM10pKFtDSDJdW0NIM10pW0NIMl1bTkhdQyg9TylbTkhdYzJuW2NIXVtjSF1zMg==

> <s_epik_cmdline>
J2VwaWtfcHl0aG9uJywgJy1waCcsICc3LjAnLCAnLXRuJywgJzgnLCAnLW1hJywgJzIwMCcsICctbWV0YWxfYmluZGluZycsICctaW1hZScsICc8aW5maWxlLm1hZT4nLCAnLW9tYWUnLCAnPG91dGZpbGUubWFlPic=

> <r_lp_tautomer_probability>
0.999

> <r_epik_Ionization_Penalty>
0.295852

> <r_epik_Ionization_Penalty_Charging>
0

> <r_epik_Ionization_Penalty_Neutral>
0.295852

> <r_epik_State_Penalty>
0.288723

> <r_epik_Charging_Adjusted_Penalty>
0.288723

> <i_epik_Tot_Q>
0

> <i_epik_Tot_abs_Q>
0

> <r_epik_Metal_State_Penalty>
0.29791

> <b_epik_Metal_Only>
0

> <s_lp_Force_Field>
OPLS_2005

> <r_lp_Energy>
41.4857

> <b_lp_Chiralities_Consistent>
1

> <s_lp_Variant>
AV-unprocessed.smi:1995-2

> <Gold.Version>
5.8.1

> <Gold.Id.Protein>
6NUR|6NUR_protein|mol2

> <Gold.PLP.Fitness>
39.4680

> <Gold.PLP.PLP>
-29.5586

> <Gold.PLP.part.hbond>
-3.0000

> <Gold.PLP.part.metal>
0.0000

> <Gold.PLP.part.buried>
-2.4284

> <Gold.PLP.part.nonpolar>
-23.6554

> <Gold.PLP.part.repulsive>
0.4993

> <Gold.PLP.ligand.clash>
0.0000

> <Gold.PLP.ligand.torsion>
0.9013

> <Gold.PLP.Chemscore.Hbond>
2.8800

> <Gold.PLP.Chemscore.CHOScore>
1.0000

> <Gold.PLP.Chemscore.Metal>
0.0000

> <Gold.Chemscore.Hbonds>
donor molecule, donor type, donor heavy atom, donor atom, acceptor molecule, acceptor atom, score
      L1  H     6    31       P1  7948  0.88
      L1  H     9    32       P1  7948  1.00
      P1  H  7989  7998       L1    18  0.95
      L1  C    12    33       P1 10186  1.00

> <Gold.PLP.Chemscore.Internal.Correction>
0.0719

> <Gold.Rescore>
     Score         DG    S(hbond)    S(metal)    S(lipo)     H(rot)  DE(clash)    DE(int)     intcor
     16.92     -18.07       2.80        0.00      65.69       1.74       0.02       1.12       ----

> <Gold.Chemscore.Fitness>
16.9217

> <Gold.Chemscore.DG>
-18.0670

> <Gold.Chemscore.ZeroCoef>
-5.4800

> <Gold.Chemscore.Hbond>
2.8017

> <Gold.Chemscore.Metal>
0.0000

> <Gold.Chemscore.Lipo>
65.6919

> <Gold.Chemscore.Internal_Hbond>
0.0000

> <Gold.Chemscore.DEClash>
0.0228

> <Gold.Chemscore.DEInternal>
1.1225

> <Gold.Chemscore.Rot>
1.7408

> <Gold.Chemscore.Internal.Correction>
   9.000000E+99

> <Gold.Chemscore.Hbonds>
donor molecule, donor type, donor heavy atom, donor atom, acceptor molecule, acceptor atom, score
      L1  H     6    31       P1  7948  0.84
      L1  H     9    32       P1  7948  0.93
      P1  H  7989  7998       L1    18  0.21

> <Gold.Chemscore.Hbond.Weighted>
-9.3576

> <Gold.Chemscore.Metal.Weighted>
-0.0000

> <Gold.Chemscore.Lipo.Weighted>
-7.6860

> <Gold.Chemscore.Internal_Hbond.Weighted>
0.0000

> <Gold.Chemscore.DEClash.Weighted>
0.0228

> <Gold.Chemscore.DEInternal.Weighted>
1.1225

> <Gold.Chemscore.Rot.Weighted>
4.4565

> <Gold.Chemscore.Internal.Correction.Weighted>
   9.000000E+99

> <Gold.Protein.RotatedTorsions>
[ 6907 6896 6895 6894 ] final -144.13 input  -60.11 | X-H torsion
[ 7974 7965 7964 7962 ] final -164.62 input  175.53 | X-H torsion
[ 8008 7997 7996 7995 ] final   24.81 input   59.86 | X-H torsion
[ 10167 10162 10161 10158 ] final  111.40 input  -65.29 | X-H torsion
[ 10718 10713 10712 10709 ] final   -6.36 input   66.30 | X-H torsion
[ 10763 10752 10751 10750 ] final -132.92 input  -60.55 | X-H torsion
[ 11005 11000 10999 10996 ] final  138.46 input  -57.11 | X-H torsion

> <Gold.Protein.ActiveResidues>
 VAL166  LYS551  ARG553  GLY616  TRP617  ASP618  TYR619  PRO620  LYS621  CYS622 
 ASP623  PHE694  ASN695  SER759  ASP760  ASP761  ALA762  ILE779  LEU786  VAL792 
 PHE793  MET794  SER795  GLU796  ALA797  LYS798  CYS799  TRP800  GLU811  SER814 

> <Gold.Protein.RotatedAtoms>
  151.1098  133.5181  159.2605 H   0  0  0  0  0  0  0  0  0  0  0  0  # atno 6907 bound_to 6896
  151.1980  135.0430  159.8870 H   0  0  0  0  0  0  0  0  0  0  0  0  # atno 6908 bound_to 6896
  152.5449  134.0930  159.8338 H   0  0  0  0  0  0  0  0  0  0  0  0  # atno 6909 bound_to 6896
  144.7292  140.2934  143.6217 H   0  0  0  0  0  0  0  0  0  0  0  0  # atno 7974 bound_to 7965
  155.0020  140.3126  155.4864 H   0  0  0  0  0  0  0  0  0  0  0  0  # atno 8008 bound_to 7997
  156.2923  140.2230  156.5071 H   0  0  0  0  0  0  0  0  0  0  0  0  # atno 8009 bound_to 7997
  154.7610  140.0459  157.0961 H   0  0  0  0  0  0  0  0  0  0  0  0  # atno 8010 bound_to 7997
  139.6614  144.7128  151.1857 H   0  0  0  0  0  0  0  0  0  0  0  0  # atno 10167 bound_to 10162
  156.7331  130.5186  149.5841 H   0  0  0  0  0  0  0  0  0  0  0  0  # atno 10718 bound_to 10713
  154.8738  135.3782  154.4487 H   0  0  0  0  0  0  0  0  0  0  0  0  # atno 10763 bound_to 10752
  153.5166  135.7029  153.5758 H   0  0  0  0  0  0  0  0  0  0  0  0  # atno 10764 bound_to 10752
  153.4024  135.3945  155.1962 H   0  0  0  0  0  0  0  0  0  0  0  0  # atno 10765 bound_to 10752
  140.0185  134.9407  157.0426 H   0  0  0  0  0  0  0  0  0  0  0  0  # atno 11005 bound_to 11000
  145.7833  139.1899  143.2145 LP  0  0  0  0  0  0  0  0  0  0  0  0  # atno 17320 bound_to 7965
  146.0816  140.7757  142.9639 LP  0  0  0  0  0  0  0  0  0  0  0  0  # atno 17321 bound_to 7965
  140.7581  143.5988  150.8721 LP  0  0  0  0  0  0  0  0  0  0  0  0  # atno 17342 bound_to 10162
  139.9645  143.6126  152.2992 LP  0  0  0  0  0  0  0  0  0  0  0  0  # atno 17343 bound_to 10162
  156.1515  130.6313  151.0602 LP  0  0  0  0  0  0  0  0  0  0  0  0  # atno 17370 bound_to 10713
  157.6850  131.0827  150.7266 LP  0  0  0  0  0  0  0  0  0  0  0  0  # atno 17371 bound_to 10713
  140.4428  134.1663  155.7175 LP  0  0  0  0  0  0  0  0  0  0  0  0  # atno 17394 bound_to 11000
  141.1758  133.8516  157.1424 LP  0  0  0  0  0  0  0  0  0  0  0  0  # atno 17395 bound_to 11000

$$$$
