#       Name:                AV-unprocessed.smi:835
#       Creating user name   scv26
#       Creation time:       Fri Mar 27 01:34:44 2020


#       File generated by GOLD software.
#

@<TRIPOS>MOLECULE
AV-unprocessed.smi:835
    44    46     1
SMALL
NO_CHARGES


@<TRIPOS>ATOM
      1 ****        -6.6727  -1.4843  -0.6249 C.3            1 S1                 0.0000
      2 ****        -5.4729  -0.5842  -0.5958 C.2            1 S1                 0.0000
      3 ****        -4.1204  -0.9333  -0.3125 C.2            1 S1                 0.0000
      4 ****        -3.4700   0.2647  -0.4278 C.2            1 S1                 0.0000
      5 ****        -2.1503   0.5394  -0.2512 N.am           1 S1                 0.0000
      6 ****        -1.1304  -0.3230  -0.0964 C.2            1 S1                 0.0000
      7 ****        -1.2251  -1.5504  -0.1017 O.2            1 S1                 0.0000
      8 ****         0.0343   0.3229   0.0561 N.am           1 S1                 0.0000
      9 ****         1.3277  -0.3322   0.2196 C.3            1 S1                 0.0000
     10 ****         1.9078  -0.9183  -1.0638 C.3            1 S1                 0.0000
     11 ****         3.3985  -1.0408  -0.7298 C.3            1 S1                 0.0000
     12 ****         3.6998   0.0111   0.2734 N.4            1 S1                 1.0000
     13 ****         4.4768  -0.4820   1.4315 C.3            1 S1                 0.0000
     14 ****         5.3640   0.5687   2.0554 C.3            1 S1                 0.0000
     15 ****         5.9669  -0.5153   1.1883 C.3            1 S1                 0.0000
     16 ****         2.4181   0.6493   0.6472 C.3            1 S1                 0.0000
     17 ****        -4.3872   1.2405  -0.7486 N.pl3          1 S1                 0.0000
     18 ****        -4.1842   2.6592  -0.9693 C.3            1 S1                 0.0000
     19 ****        -5.6248   0.7100  -0.8541 N.2            1 S1                 0.0000
     20 ****        -6.3936  -2.5194  -0.4267 H              1 S1                 0.0000
     21 ****        -7.1632  -1.4544  -1.5980 H              1 S1                 0.0000
     22 ****        -7.4039  -1.1882   0.1276 H              1 S1                 0.0000
     23 ****        -3.7181  -1.9040  -0.0645 H              1 S1                 0.0000
     24 ****        -1.9105   1.5197  -0.2618 H              1 S1                 0.0000
     25 ****         0.0252   1.3325   0.0518 H              1 S1                 0.0000
     26 ****         1.2480  -1.1185   0.9735 H              1 S1                 0.0000
     27 ****         1.4571  -1.8726  -1.3390 H              1 S1                 0.0000
     28 ****         1.7678  -0.2257  -1.8953 H              1 S1                 0.0000
     29 ****         3.5946  -2.0287  -0.3096 H              1 S1                 0.0000
     30 ****         4.0268  -0.9310  -1.6141 H              1 S1                 0.0000
     31 ****         3.9993  -1.2405   2.0496 H              1 S1                 0.0000
     32 ****         5.3308   1.5781   1.6496 H              1 S1                 0.0000
     33 ****         5.5404   0.5043   3.1272 H              1 S1                 0.0000
     34 ****         6.5400  -1.2930   1.6891 H              1 S1                 0.0000
     35 ****         6.3353  -0.2265   0.2055 H              1 S1                 0.0000
     36 ****         2.3332   1.5811   0.0858 H              1 S1                 0.0000
     37 ****         2.3616   0.8988   1.7080 H              1 S1                 0.0000
     38 ****        -3.4150   2.8063  -1.7277 H              1 S1                 0.0000
     39 ****        -3.8646   3.1315  -0.0404 H              1 S1                 0.0000
     40 ****        -5.1074   3.1312  -1.3083 H              1 S1                 0.0000
     41 ****         4.2602   0.7189  -0.1798 H              1 S1                 0.0000
     42 ****        -2.1179  -1.9825  -0.2289 LP             1 S1                 0.0000
     43 ****        -0.4092  -2.1154   0.0213 LP             1 S1                 0.0000
     44 ****        -6.4735   1.1888  -1.0785 LP             1 S1                 0.0000
@<TRIPOS>BOND
    1    1    2 1     
    2    1   20 1     
    3    1   21 1     
    4    1   22 1     
    5    2   19 2     
    6    2    3 1     
    7    3    4 2     
    8    3   23 1     
    9    4    5 1     
   10    4   17 1     
   11    5    6 am    
   12    5   24 1     
   13    6    7 2     
   14    6    8 am    
   15    8    9 1     
   16    8   25 1     
   17    9   16 1     
   18    9   10 1     
   19    9   26 1     
   20   10   11 1     
   21   10   27 1     
   22   10   28 1     
   23   11   12 1     
   24   11   29 1     
   25   11   30 1     
   26   12   13 1     
   27   12   16 1     
   28   12   41 1     
   29   13   15 1     
   30   13   14 1     
   31   13   31 1     
   32   14   15 1     
   33   14   32 1     
   34   14   33 1     
   35   15   34 1     
   36   15   35 1     
   37   16   36 1     
   38   16   37 1     
   39   17   18 1     
   40   17   19 1     
   41   18   38 1     
   42   18   39 1     
   43   18   40 1     
   44    7   42 1     
   45    7   43 1     
   46   19   44 1     
@<TRIPOS>SUBSTRUCTURE
      1 S1             1
@<TRIPOS>SET
LONE_PAIRS      STATIC     ATOMS    <user>   **** ""
3 42 43 44
DONOR_HYDROGENS      STATIC     ATOMS    <user>   **** ""
3 24 25 41
ATOM$BLUE        STATIC     ATOMS    COLORGROUP SYSTEM
3 42 43 44
ATOM$RED        STATIC     ATOMS    COLORGROUP SYSTEM
3 24 25 41
