AV-unprocessed.smi:3158|AV-procd|sdf|12047|dock5
  -GOLD-   2272017473D 1   1.00000     0.00000
 Structure written by MMmdl.
 39 39  0  0  0  0  0  0  0  0  1 V2000
  145.0031  142.9666  154.6784 C   0  0  0  0  0  0  0  0  0  0  0  0
  146.3872  142.8295  154.0269 C   0  0  0  0  0  0  0  0  0  0  0  0
  147.0692  141.4758  154.3008 C   0  0  2  0  0  0  0  0  0  0  0  0
  148.5813  141.5385  154.0330 C   0  0  0  0  0  0  0  0  0  0  0  0
  146.4552  140.4332  153.4831 N   0  0  0  0  0  0  0  0  0  0  0  0
  146.9627  139.2112  153.2548 C   0  0  0  0  0  0  0  0  0  0  0  0
  148.0493  138.8391  153.6996 O   0  0  0  0  0  0  0  0  0  0  0  0
  146.0899  138.2767  152.4049 C   0  0  1  0  0  0  0  0  0  0  0  0
  146.2874  138.5076  150.8924 C   0  0  0  0  0  0  0  0  0  0  0  0
  146.3629  136.8811  152.7783 N   0  0  0  0  0  0  0  0  0  0  0  0
  145.2548  135.9787  152.4927 C   0  0  0  0  0  0  0  0  0  0  0  0
  145.3708  135.4447  151.0546 C   0  0  0  0  0  0  0  0  0  0  0  0
  145.3056  133.9945  150.9946 N   0  0  0  0  0  0  0  0  0  0  0  0
  144.1995  133.1804  151.1197 C   0  0  0  0  0  0  0  0  0  0  0  0
  144.6272  131.8903  150.9870 C   0  0  0  0  0  0  0  0  0  0  0  0
  146.0294  132.0190  150.7829 C   0  0  0  0  0  0  0  0  0  0  0  0
  146.4330  133.2792  150.7907 N   0  0  0  0  0  0  0  0  0  0  0  0
  144.5796  143.9522  154.4851 H   0  0  0  0  0  0  0  0  0  0  0  0
  145.0629  142.8359  155.7591 H   0  0  0  0  0  0  0  0  0  0  0  0
  144.3029  142.2269  154.2903 H   0  0  0  0  0  0  0  0  0  0  0  0
  146.2939  142.9851  152.9512 H   0  0  0  0  0  0  0  0  0  0  0  0
  147.0259  143.6335  154.3948 H   0  0  0  0  0  0  0  0  0  0  0  0
  146.9184  141.2345  155.3549 H   0  0  0  0  0  0  0  0  0  0  0  0
  149.0553  142.3062  154.6449 H   0  0  0  0  0  0  0  0  0  0  0  0
  148.7908  141.7694  152.9881 H   0  0  0  0  0  0  0  0  0  0  0  0
  149.0642  140.5894  154.2679 H   0  0  0  0  0  0  0  0  0  0  0  0
  145.5543  140.6464  153.0793 H   0  0  0  0  0  0  0  0  0  0  0  0
  145.0558  138.5182  152.6575 H   0  0  0  0  0  0  0  0  0  0  0  0
  146.1512  139.5581  150.6316 H   0  0  0  0  0  0  0  0  0  0  0  0
  145.5659  137.9422  150.3031 H   0  0  0  0  0  0  0  0  0  0  0  0
  147.2855  138.2106  150.5675 H   0  0  0  0  0  0  0  0  0  0  0  0
  147.2112  136.5378  152.3510 H   0  0  0  0  0  0  0  0  0  0  0  0
  145.2480  135.1470  153.1987 H   0  0  0  0  0  0  0  0  0  0  0  0
  144.3090  136.5081  152.6069 H   0  0  0  0  0  0  0  0  0  0  0  0
  144.5631  135.8483  150.4425 H   0  0  0  0  0  0  0  0  0  0  0  0
  146.3035  135.7756  150.5955 H   0  0  0  0  0  0  0  0  0  0  0  0
  143.2108  133.5823  151.2854 H   0  0  0  0  0  0  0  0  0  0  0  0
  144.0292  130.9921  151.0268 H   0  0  0  0  0  0  0  0  0  0  0  0
  146.7611  131.2392  150.6310 H   0  0  0  0  0  0  0  0  0  0  0  0
  1  2  1  0  0  0  0
  1 18  1  0  0  0  0
  1 19  1  0  0  0  0
  1 20  1  0  0  0  0
  2  3  1  0  0  0  0
  2 21  1  0  0  0  0
  2 22  1  0  0  0  0
  3  4  1  0  0  0  0
  3  5  1  0  0  0  0
  3 23  1  0  0  0  0
  4 24  1  0  0  0  0
  4 25  1  0  0  0  0
  4 26  1  0  0  0  0
  5  6  1  0  0  0  0
  5 27  1  0  0  0  0
  6  7  2  0  0  0  0
  6  8  1  0  0  0  0
  8  9  1  0  0  0  0
  8 10  1  0  0  0  0
  8 28  1  0  0  0  0
  9 29  1  0  0  0  0
  9 30  1  0  0  0  0
  9 31  1  0  0  0  0
 10 11  1  0  0  0  0
 10 32  1  0  0  0  0
 11 12  1  0  0  0  0
 11 33  1  0  0  0  0
 11 34  1  0  0  0  0
 12 13  1  0  0  0  0
 12 35  1  0  0  0  0
 12 36  1  0  0  0  0
 13 17  1  0  0  0  0
 13 14  1  0  0  0  0
 14 15  2  0  0  0  0
 14 37  1  0  0  0  0
 15 16  1  0  0  0  0
 15 38  1  0  0  0  0
 16 17  2  0  0  0  0
 16 39  1  0  0  0  0
M  END
> <s_m_source_file>
AV-unprocessed.smi

> <i_m_source_file_index>
3158

> <i_lp_mmshare_version>
43012

> <i_f3d_flags>
0

> <s_epik_input>
W0NIM11bQ0gyXVtDQEhdKFtDSDNdKVtOSF1DKD1PKVtDQEhdKFtDSDNdKVtOSF1bQ0gyXVtDSDJdbjFbY0hdW2NIXVtjSF1uMQ==

> <s_epik_cmdline>
J2VwaWtfcHl0aG9uJywgJy1waCcsICc3LjAnLCAnLXRuJywgJzgnLCAnLW1hJywgJzIwMCcsICctbWV0YWxfYmluZGluZycsICctaW1hZScsICc8aW5maWxlLm1hZT4nLCAnLW9tYWUnLCAnPG91dGZpbGUubWFlPic=

> <r_lp_tautomer_probability>
1

> <r_epik_Ionization_Penalty>
0.724013

> <r_epik_Ionization_Penalty_Charging>
0

> <r_epik_Ionization_Penalty_Neutral>
0.724013

> <r_epik_State_Penalty>
0.74758

> <r_epik_Charging_Adjusted_Penalty>
0.74758

> <i_epik_Tot_Q>
0

> <i_epik_Tot_abs_Q>
0

> <r_epik_Metal_State_Penalty>
0.746846

> <b_epik_Metal_Only>
0

> <s_lp_Force_Field>
OPLS_2005

> <r_lp_Energy>
5.95419

> <b_lp_Chiralities_Consistent>
1

> <s_lp_Variant>
AV-unprocessed.smi:3158-7

> <Gold.Version>
5.8.1

> <Gold.Id.Protein>
6NUR|6NUR_protein|mol2

> <Gold.PLP.Fitness>
43.4758

> <Gold.PLP.PLP>
-35.3963

> <Gold.PLP.part.hbond>
-2.0000

> <Gold.PLP.part.metal>
0.0000

> <Gold.PLP.part.buried>
-0.0103

> <Gold.PLP.part.nonpolar>
-34.6967

> <Gold.PLP.part.repulsive>
0.4264

> <Gold.PLP.ligand.clash>
0.0000

> <Gold.PLP.ligand.torsion>
2.0218

> <Gold.PLP.Chemscore.Hbond>
1.9913

> <Gold.PLP.Chemscore.CHOScore>
2.0000

> <Gold.PLP.Chemscore.Metal>
0.0000

> <Gold.Chemscore.Hbonds>
donor molecule, donor type, donor heavy atom, donor atom, acceptor molecule, acceptor atom, score
      L1  H     5    27       P1 10175  1.00
      L1  H    10    32       P1  7948  1.00
      L1  C    14    37       P1 10186  0.02
      L1  C    16    39       P1 10747  1.00

> <Gold.PLP.Chemscore.Internal.Correction>
0.1493

> <Gold.Rescore>
     Score         DG    S(hbond)    S(metal)    S(lipo)     H(rot)  DE(clash)    DE(int)     intcor
     10.89     -16.06       1.92        0.00      81.98       2.12       1.83       3.34       ----

> <Gold.Chemscore.Fitness>
10.8914

> <Gold.Chemscore.DG>
-16.0615

> <Gold.Chemscore.ZeroCoef>
-5.4800

> <Gold.Chemscore.Hbond>
1.9240

> <Gold.Chemscore.Metal>
0.0000

> <Gold.Chemscore.Lipo>
81.9761

> <Gold.Chemscore.Internal_Hbond>
0.0000

> <Gold.Chemscore.DEClash>
1.8276

> <Gold.Chemscore.DEInternal>
3.3425

> <Gold.Chemscore.Rot>
2.1234

> <Gold.Chemscore.Internal.Correction>
   9.000000E+99

> <Gold.Chemscore.Hbonds>
donor molecule, donor type, donor heavy atom, donor atom, acceptor molecule, acceptor atom, score
      L1  H     5    27       P1 10175  0.77
      L1  H    10    32       P1  7948  1.00

> <Gold.Chemscore.Hbond.Weighted>
-6.4262

> <Gold.Chemscore.Metal.Weighted>
-0.0000

> <Gold.Chemscore.Lipo.Weighted>
-9.5912

> <Gold.Chemscore.Internal_Hbond.Weighted>
0.0000

> <Gold.Chemscore.DEClash.Weighted>
1.8276

> <Gold.Chemscore.DEInternal.Weighted>
3.3425

> <Gold.Chemscore.Rot.Weighted>
5.4359

> <Gold.Chemscore.Internal.Correction.Weighted>
   9.000000E+99

> <Gold.Protein.RotatedTorsions>
[ 6907 6896 6895 6894 ] final  -19.41 input  -60.11 | X-H torsion
[ 7974 7965 7964 7962 ] final  -52.64 input  175.53 | X-H torsion
[ 8008 7997 7996 7995 ] final -122.63 input   59.86 | X-H torsion
[ 10167 10162 10161 10158 ] final -166.15 input  -65.29 | X-H torsion
[ 10718 10713 10712 10709 ] final -104.56 input   66.30 | X-H torsion
[ 10763 10752 10751 10750 ] final    0.29 input  -60.55 | X-H torsion
[ 11005 11000 10999 10996 ] final  177.49 input  -57.11 | X-H torsion

> <Gold.Protein.ActiveResidues>
 VAL166  LYS551  ARG553  GLY616  TRP617  ASP618  TYR619  PRO620  LYS621  CYS622 
 ASP623  PHE694  ASN695  SER759  ASP760  ASP761  ALA762  ILE779  LEU786  VAL792 
 PHE793  MET794  SER795  GLU796  ALA797  LYS798  CYS799  TRP800  GLU811  SER814 

> <Gold.Protein.RotatedAtoms>
  151.2635  135.0662  159.9107 H   0  0  0  0  0  0  0  0  0  0  0  0  # atno 6907 bound_to 6896
  152.5362  134.0205  159.7990 H   0  0  0  0  0  0  0  0  0  0  0  0  # atno 6908 bound_to 6896
  151.0432  133.5638  159.2680 H   0  0  0  0  0  0  0  0  0  0  0  0  # atno 6909 bound_to 6896
  145.9057  140.7957  142.9720 H   0  0  0  0  0  0  0  0  0  0  0  0  # atno 7974 bound_to 7965
  155.1673  140.0407  157.2855 H   0  0  0  0  0  0  0  0  0  0  0  0  # atno 8008 bound_to 7997
  154.6294  140.2520  155.7425 H   0  0  0  0  0  0  0  0  0  0  0  0  # atno 8009 bound_to 7997
  156.2476  140.2878  156.0639 H   0  0  0  0  0  0  0  0  0  0  0  0  # atno 8010 bound_to 7997
  139.6134  144.0768  152.1864 H   0  0  0  0  0  0  0  0  0  0  0  0  # atno 10167 bound_to 10162
  156.0309  130.5521  150.7413 H   0  0  0  0  0  0  0  0  0  0  0  0  # atno 10718 bound_to 10713
  153.3226  135.6970  153.7017 H   0  0  0  0  0  0  0  0  0  0  0  0  # atno 10763 bound_to 10752
  153.5851  135.3490  155.2890 H   0  0  0  0  0  0  0  0  0  0  0  0  # atno 10764 bound_to 10752
  154.8601  135.4304  154.2394 H   0  0  0  0  0  0  0  0  0  0  0  0  # atno 10765 bound_to 10752
  140.3847  134.6915  157.4472 H   0  0  0  0  0  0  0  0  0  0  0  0  # atno 11005 bound_to 11000
  144.6739  140.1747  143.7411 LP  0  0  0  0  0  0  0  0  0  0  0  0  # atno 17320 bound_to 7965
  145.8734  139.2284  143.1647 LP  0  0  0  0  0  0  0  0  0  0  0  0  # atno 17321 bound_to 7965
  140.0392  144.6020  150.7424 LP  0  0  0  0  0  0  0  0  0  0  0  0  # atno 17342 bound_to 10162
  140.7335  143.2717  151.3866 LP  0  0  0  0  0  0  0  0  0  0  0  0  # atno 17343 bound_to 10162
  157.4981  131.0916  151.0347 LP  0  0  0  0  0  0  0  0  0  0  0  0  # atno 17370 bound_to 10713
  157.0735  130.5874  149.5407 LP  0  0  0  0  0  0  0  0  0  0  0  0  # atno 17371 bound_to 10713
  140.0452  134.6210  155.8930 LP  0  0  0  0  0  0  0  0  0  0  0  0  # atno 17394 bound_to 11000
  141.1911  133.6571  156.5443 LP  0  0  0  0  0  0  0  0  0  0  0  0  # atno 17395 bound_to 11000

$$$$
