AV-unprocessed.smi:109|AV-procd|sdf|1032|dock8
  -GOLD-   2262018 43D 1   1.00000     0.00000
 Structure written by MMmdl.
 58 61  0  0  0  0  0  0  0  0  1 V2000
  153.8405  138.8933  158.4166 O   0  0  0  0  0  0  0  0  0  0  0  0
  152.4925  139.3005  158.5067 C   0  0  0  0  0  0  0  0  0  0  0  0
  152.0356  139.8954  157.1653 C   0  0  0  0  0  0  0  0  0  0  0  0
  151.1163  141.1214  157.3348 C   0  0  1  0  0  0  0  0  0  0  0  0
  149.9055  140.7515  158.0711 N   0  0  0  0  0  0  0  0  0  0  0  0
  148.6972  140.6402  157.4747 C   0  0  0  0  0  0  0  0  0  0  0  0
  147.5506  140.9856  158.1156 N   0  0  0  0  0  0  0  0  0  0  0  0
  146.3739  140.8693  157.4934 C   0  0  0  0  0  0  0  0  0  0  0  0
  146.1247  140.4383  156.2555 N   0  0  0  0  0  0  0  0  0  0  0  0
  147.2718  140.0853  155.6065 C   0  0  0  0  0  0  0  0  0  0  0  0
  148.5871  140.1567  156.1452 C   0  0  0  0  0  0  0  0  0  0  0  0
  149.5062  139.7185  155.2013 N   0  0  0  0  0  0  0  0  0  0  0  0
  148.7729  139.4101  154.1656 C   0  0  0  0  0  0  0  0  0  0  0  0
  147.4175  139.5979  154.3233 N   0  0  0  0  0  0  0  0  0  0  0  0
  146.3403  139.3394  153.3201 C   0  0  2  0  0  0  0  0  0  0  0  0
  145.5271  138.3178  153.8104 O   0  0  0  0  0  0  0  0  0  0  0  0
  145.1984  137.4192  152.7571 C   0  0  2  0  0  0  0  0  0  0  0  0
  144.8448  136.0435  153.3416 C   0  0  0  0  0  0  0  0  0  0  0  0
  145.9601  135.5059  154.0190 O   0  0  0  0  0  0  0  0  0  0  0  0
  146.4767  137.4163  151.9168 C   0  0  1  0  0  0  0  0  0  0  0  0
  146.2755  136.9437  150.5973 O   0  0  0  0  0  0  0  0  0  0  0  0
  146.9311  138.8730  151.9789 C   0  0  1  0  0  0  0  0  0  0  0  0
  146.4106  139.6425  150.9090 O   0  0  0  0  0  0  0  0  0  0  0  0
  151.8326  142.3239  157.9996 C   0  0  0  0  0  0  0  0  0  0  0  0
  151.8895  142.2474  159.5438 C   0  0  0  0  0  0  0  0  0  0  0  0
  152.6464  143.4448  160.1418 C   0  0  0  0  0  0  0  0  0  0  0  0
  152.0364  144.7780  159.6834 C   0  0  0  0  0  0  0  0  0  0  0  0
  151.9892  144.8649  158.1507 C   0  0  0  0  0  0  0  0  0  0  0  0
  151.2284  143.6724  157.5494 C   0  0  0  0  0  0  0  0  0  0  0  0
  145.7885  140.2785  153.2556 H   0  0  0  0  0  0  0  0  0  0  0  0
  144.3723  137.8306  152.1731 H   0  0  0  0  0  0  0  0  0  0  0  0
  147.2259  136.7847  152.3943 H   0  0  0  0  0  0  0  0  0  0  0  0
  148.0191  138.9566  151.9744 H   0  0  0  0  0  0  0  0  0  0  0  0
  154.0939  138.5116  159.2432 H   0  0  0  0  0  0  0  0  0  0  0  0
  151.8785  138.4407  158.7763 H   0  0  0  0  0  0  0  0  0  0  0  0
  152.3999  140.0323  159.3098 H   0  0  0  0  0  0  0  0  0  0  0  0
  152.9093  140.1579  156.5675 H   0  0  0  0  0  0  0  0  0  0  0  0
  151.5035  139.1231  156.6083 H   0  0  0  0  0  0  0  0  0  0  0  0
  150.8713  141.4439  156.3237 H   0  0  0  0  0  0  0  0  0  0  0  0
  150.0363  140.5871  159.0591 H   0  0  0  0  0  0  0  0  0  0  0  0
  145.5092  141.1654  158.0687 H   0  0  0  0  0  0  0  0  0  0  0  0
  149.2053  139.0324  153.2504 H   0  0  0  0  0  0  0  0  0  0  0  0
  144.0371  136.1409  154.0677 H   0  0  0  0  0  0  0  0  0  0  0  0
  144.5024  135.3573  152.5661 H   0  0  0  0  0  0  0  0  0  0  0  0
  146.3490  134.8402  153.4723 H   0  0  0  0  0  0  0  0  0  0  0  0
  145.6056  137.4699  150.1881 H   0  0  0  0  0  0  0  0  0  0  0  0
  145.6413  139.2084  150.5735 H   0  0  0  0  0  0  0  0  0  0  0  0
  152.8630  142.3126  157.6405 H   0  0  0  0  0  0  0  0  0  0  0  0
  150.8808  142.2204  159.9569 H   0  0  0  0  0  0  0  0  0  0  0  0
  152.3785  141.3270  159.8622 H   0  0  0  0  0  0  0  0  0  0  0  0
  152.6336  143.3859  161.2306 H   0  0  0  0  0  0  0  0  0  0  0  0
  153.6943  143.4010  159.8428 H   0  0  0  0  0  0  0  0  0  0  0  0
  151.0279  144.8776  160.0872 H   0  0  0  0  0  0  0  0  0  0  0  0
  152.6154  145.6097  160.0861 H   0  0  0  0  0  0  0  0  0  0  0  0
  151.5167  145.7990  157.8457 H   0  0  0  0  0  0  0  0  0  0  0  0
  153.0050  144.8884  157.7541 H   0  0  0  0  0  0  0  0  0  0  0  0
  151.2436  143.7432  156.4613 H   0  0  0  0  0  0  0  0  0  0  0  0
  150.1804  143.7319  157.8459 H   0  0  0  0  0  0  0  0  0  0  0  0
  1  2  1  0  0  0  0
  1 34  1  0  0  0  0
  2  3  1  0  0  0  0
  2 35  1  0  0  0  0
  2 36  1  0  0  0  0
  3  4  1  0  0  0  0
  3 37  1  0  0  0  0
  3 38  1  0  0  0  0
  4  5  1  0  0  0  0
  4 24  1  0  0  0  0
  4 39  1  0  0  0  0
  5  6  1  0  0  0  0
  5 40  1  0  0  0  0
  6 11  1  0  0  0  0
  6  7  2  0  0  0  0
  7  8  1  0  0  0  0
  8  9  2  0  0  0  0
  8 41  1  0  0  0  0
  9 10  1  0  0  0  0
 10 14  1  0  0  0  0
 10 11  2  0  0  0  0
 11 12  1  0  0  0  0
 12 13  2  0  0  0  0
 13 14  1  0  0  0  0
 13 42  1  0  0  0  0
 14 15  1  0  0  0  0
 15 30  1  0  0  0  0
 15 22  1  0  0  0  0
 15 16  1  0  0  0  0
 16 17  1  0  0  0  0
 17 31  1  0  0  0  0
 17 18  1  0  0  0  0
 17 20  1  0  0  0  0
 18 19  1  0  0  0  0
 18 43  1  0  0  0  0
 18 44  1  0  0  0  0
 19 45  1  0  0  0  0
 20 32  1  0  0  0  0
 20 21  1  0  0  0  0
 20 22  1  0  0  0  0
 21 46  1  0  0  0  0
 22 33  1  0  0  0  0
 22 23  1  0  0  0  0
 23 47  1  0  0  0  0
 24 29  1  0  0  0  0
 24 25  1  0  0  0  0
 24 48  1  0  0  0  0
 25 26  1  0  0  0  0
 25 49  1  0  0  0  0
 25 50  1  0  0  0  0
 26 27  1  0  0  0  0
 26 51  1  0  0  0  0
 26 52  1  0  0  0  0
 27 28  1  0  0  0  0
 27 53  1  0  0  0  0
 27 54  1  0  0  0  0
 28 29  1  0  0  0  0
 28 55  1  0  0  0  0
 28 56  1  0  0  0  0
 29 57  1  0  0  0  0
 29 58  1  0  0  0  0
M  END
> <s_m_source_file>
AV-unprocessed.smi

> <i_m_source_file_index>
109

> <i_lp_mmshare_version>
43012

> <i_f3d_flags>
0

> <s_epik_input>
W0NIMl0xW0NIMl1bQ0gyXVtDSDJdW0NIMl1bQ0hdMVtDQEhdKFtDSDJdW0NIMl1bT0hdKVtOSF1jKG5bY0hdbjIpYyhjMjMpbltjSF1uM1tDQEBIXTRPW0NASF0oW0NIMl1bT0hdKVtDQEBIXShbT0hdKVtDQEhdNFtPSF0=

> <s_epik_cmdline>
J2VwaWtfcHl0aG9uJywgJy1waCcsICc3LjAnLCAnLXRuJywgJzgnLCAnLW1hJywgJzIwMCcsICctbWV0YWxfYmluZGluZycsICctaW1hZScsICc8aW5maWxlLm1hZT4nLCAnLW9tYWUnLCAnPG91dGZpbGUubWFlPic=

> <r_lp_tautomer_probability>
1

> <r_epik_Ionization_Penalty>
0.000793976

> <r_epik_Ionization_Penalty_Charging>
0

> <r_epik_Ionization_Penalty_Neutral>
0.000793976

> <r_epik_State_Penalty>
-0

> <r_epik_Charging_Adjusted_Penalty>
0

> <i_epik_Tot_Q>
0

> <i_epik_Tot_abs_Q>
0

> <r_epik_Metal_State_Penalty>
-0

> <b_epik_Metal_Only>
0

> <s_epik_Chemistry_Notes>
This compound contains an acetal/aminal-like group ( X-CH(R)-Y where X, Y are N, S, or O) that may be acid/base labile, releasing an aldehyde.

> <s_lp_Force_Field>
OPLS_2005

> <r_lp_Energy>
54.9407

> <b_lp_Chiralities_Consistent>
1

> <s_lp_Variant>
AV-unprocessed.smi:109-2

> <Gold.Version>
5.8.1

> <Gold.Id.Protein>
6NUR|6NUR_protein|mol2

> <Gold.PLP.Fitness>
50.6830

> <Gold.PLP.PLP>
-39.5497

> <Gold.PLP.part.hbond>
-6.9197

> <Gold.PLP.part.metal>
0.0000

> <Gold.PLP.part.buried>
3.6772

> <Gold.PLP.part.nonpolar>
-36.5341

> <Gold.PLP.part.repulsive>
0.3934

> <Gold.PLP.ligand.clash>
0.0000

> <Gold.PLP.ligand.torsion>
1.1700

> <Gold.PLP.Chemscore.Hbond>
3.4380

> <Gold.PLP.Chemscore.CHOScore>
1.0000

> <Gold.PLP.Chemscore.Metal>
0.0000

> <Gold.Chemscore.Hbonds>
donor molecule, donor type, donor heavy atom, donor atom, acceptor molecule, acceptor atom, score
      L1  H    21    46       P1 10171  0.86
      L1  H    23    47       P1 10171  1.00
      P1  H  7954  7966       L1    21  0.32
      P1  H  7997  8010       L1     1  1.00
      L1  C    13    42       P1  7957  1.00

> <Gold.PLP.Chemscore.Internal.Correction>
0.1592

> <Gold.Rescore>
     Score         DG    S(hbond)    S(metal)    S(lipo)     H(rot)  DE(clash)    DE(int)     intcor
     10.64     -13.68       2.85        0.00     108.28       5.47       1.43       1.61       ----

> <Gold.Chemscore.Fitness>
10.6391

> <Gold.Chemscore.DG>
-13.6835

> <Gold.Chemscore.ZeroCoef>
-5.4800

> <Gold.Chemscore.Hbond>
2.8529

> <Gold.Chemscore.Metal>
0.0000

> <Gold.Chemscore.Lipo>
108.2756

> <Gold.Chemscore.Internal_Hbond>
0.0000

> <Gold.Chemscore.DEClash>
1.4340

> <Gold.Chemscore.DEInternal>
1.6105

> <Gold.Chemscore.Rot>
5.4662

> <Gold.Chemscore.Internal.Correction>
   9.000000E+99

> <Gold.Chemscore.Hbonds>
donor molecule, donor type, donor heavy atom, donor atom, acceptor molecule, acceptor atom, score
      L1  H    21    46       P1 10171  0.84
      L1  H    23    47       P1 10171  0.97
      P1  H  7954  7966       L1    21  0.01
      P1  H  7997  8010       L1     1  0.65

> <Gold.Chemscore.Hbond.Weighted>
-9.5288

> <Gold.Chemscore.Metal.Weighted>
-0.0000

> <Gold.Chemscore.Lipo.Weighted>
-12.6682

> <Gold.Chemscore.Internal_Hbond.Weighted>
0.0000

> <Gold.Chemscore.DEClash.Weighted>
1.4340

> <Gold.Chemscore.DEInternal.Weighted>
1.6105

> <Gold.Chemscore.Rot.Weighted>
13.9935

> <Gold.Chemscore.Internal.Correction.Weighted>
   9.000000E+99

> <Gold.Protein.RotatedTorsions>
[ 6907 6896 6895 6894 ] final   90.81 input  -60.11 | X-H torsion
[ 7974 7965 7964 7962 ] final  -54.73 input  175.53 | X-H torsion
[ 8008 7997 7996 7995 ] final   26.93 input   59.86 | X-H torsion
[ 10167 10162 10161 10158 ] final -112.70 input  -65.29 | X-H torsion
[ 10718 10713 10712 10709 ] final  -53.37 input   66.30 | X-H torsion
[ 10763 10752 10751 10750 ] final -147.98 input  -60.55 | X-H torsion
[ 11005 11000 10999 10996 ] final  121.09 input  -57.11 | X-H torsion

> <Gold.Protein.ActiveResidues>
 VAL166  LYS551  ARG553  GLY616  TRP617  ASP618  TYR619  PRO620  LYS621  CYS622 
 ASP623  PHE694  ASN695  SER759  ASP760  ASP761  ALA762  ILE779  LEU786  VAL792 
 PHE793  MET794  SER795  GLU796  ALA797  LYS798  CYS799  TRP800  GLU811  SER814 

> <Gold.Protein.RotatedAtoms>
  152.5447  134.1753  159.8613 H   0  0  0  0  0  0  0  0  0  0  0  0  # atno 6907 bound_to 6896
  151.1760  133.4747  159.2601 H   0  0  0  0  0  0  0  0  0  0  0  0  # atno 6908 bound_to 6896
  151.1226  135.0099  159.8601 H   0  0  0  0  0  0  0  0  0  0  0  0  # atno 6909 bound_to 6896
  145.8822  140.8135  142.9834 H   0  0  0  0  0  0  0  0  0  0  0  0  # atno 7974 bound_to 7965
  155.0350  140.3163  155.4745 H   0  0  0  0  0  0  0  0  0  0  0  0  # atno 8008 bound_to 7997
  156.2866  140.2173  156.5415 H   0  0  0  0  0  0  0  0  0  0  0  0  # atno 8009 bound_to 7997
  154.7338  140.0479  157.0738 H   0  0  0  0  0  0  0  0  0  0  0  0  # atno 8010 bound_to 7997
  140.1199  143.4453  152.1698 H   0  0  0  0  0  0  0  0  0  0  0  0  # atno 10167 bound_to 10162
  156.1541  130.4150  149.9897 H   0  0  0  0  0  0  0  0  0  0  0  0  # atno 10718 bound_to 10713
  154.8257  135.3346  154.6903 H   0  0  0  0  0  0  0  0  0  0  0  0  # atno 10763 bound_to 10752
  153.7529  135.6938  153.4946 H   0  0  0  0  0  0  0  0  0  0  0  0  # atno 10764 bound_to 10752
  153.2164  135.4464  155.0389 H   0  0  0  0  0  0  0  0  0  0  0  0  # atno 10765 bound_to 10752
  139.9212  134.9637  156.7906 H   0  0  0  0  0  0  0  0  0  0  0  0  # atno 11005 bound_to 11000
  144.6727  140.1401  143.7437 LP  0  0  0  0  0  0  0  0  0  0  0  0  # atno 17320 bound_to 7965
  145.9010  139.2430  143.1494 LP  0  0  0  0  0  0  0  0  0  0  0  0  # atno 17321 bound_to 7965
  139.5574  144.7382  151.4253 LP  0  0  0  0  0  0  0  0  0  0  0  0  # atno 17342 bound_to 10162
  140.6878  143.7933  150.7211 LP  0  0  0  0  0  0  0  0  0  0  0  0  # atno 17343 bound_to 10162
  156.7746  130.9199  151.3645 LP  0  0  0  0  0  0  0  0  0  0  0  0  # atno 17370 bound_to 10713
  157.6681  130.9026  149.9977 LP  0  0  0  0  0  0  0  0  0  0  0  0  # atno 17371 bound_to 10713
  140.6470  133.9766  155.7736 LP  0  0  0  0  0  0  0  0  0  0  0  0  # atno 17394 bound_to 11000
  141.0733  134.0172  157.3494 LP  0  0  0  0  0  0  0  0  0  0  0  0  # atno 17395 bound_to 11000

$$$$
