AV-unprocessed.smi:1350|AV-procd|sdf|5521|dock1
  -GOLD-   22720 5113D 1   1.00000     0.00000
 Structure written by MMmdl.
 43 45  0  0  0  0  0  0  0  0  1 V2000
  153.6338  140.7201  159.5781 C   0  0  0  0  0  0  0  0  0  0  0  0
  152.8495  141.5686  158.7531 O   0  0  0  0  0  0  0  0  0  0  0  0
  152.4300  142.7785  159.2680 C   0  0  0  0  0  0  0  0  0  0  0  0
  152.7010  143.2029  160.5943 C   0  0  0  0  0  0  0  0  0  0  0  0
  152.2464  144.4539  161.0530 C   0  0  0  0  0  0  0  0  0  0  0  0
  151.5170  145.2971  160.1961 C   0  0  0  0  0  0  0  0  0  0  0  0
  151.2413  144.8871  158.8793 C   0  0  0  0  0  0  0  0  0  0  0  0
  151.6912  143.6331  158.4147 C   0  0  0  0  0  0  0  0  0  0  0  0
  151.3870  143.2102  156.9886 C   0  0  0  0  0  0  0  0  0  0  0  0
  150.3817  142.2110  156.9485 O   0  0  0  0  0  0  0  0  0  0  0  0
  150.4565  141.3963  155.7906 C   0  0  0  0  0  0  0  0  0  0  0  0
  149.1791  141.5979  154.9607 C   0  0  1  0  0  0  0  0  0  0  0  0
  149.4312  141.1656  153.6381 O   0  0  0  0  0  0  0  0  0  0  0  0
  147.9896  140.8022  155.5318 C   0  0  0  0  0  0  0  0  0  0  0  0
  146.9442  141.6640  156.0550 N   0  0  0  0  0  0  0  0  0  0  0  0
  146.5639  141.7825  157.3416 C   0  0  0  0  0  0  0  0  0  0  0  0
  145.5768  142.6321  157.6106 N   0  0  0  0  0  0  0  0  0  0  0  0
  145.2821  143.1245  156.3508 C   0  0  0  0  0  0  0  0  0  0  0  0
  144.3184  144.0733  155.9402 C   0  0  0  0  0  0  0  0  0  0  0  0
  144.1984  144.4270  154.5801 C   0  0  0  0  0  0  0  0  0  0  0  0
  145.0382  143.8394  153.6116 C   0  0  0  0  0  0  0  0  0  0  0  0
  146.0056  142.8913  153.9966 C   0  0  0  0  0  0  0  0  0  0  0  0
  146.1212  142.5397  155.3545 C   0  0  0  0  0  0  0  0  0  0  0  0
  153.8711  139.8077  159.0311 H   0  0  0  0  0  0  0  0  0  0  0  0
  153.0939  140.4317  160.4811 H   0  0  0  0  0  0  0  0  0  0  0  0
  154.5769  141.1931  159.8547 H   0  0  0  0  0  0  0  0  0  0  0  0
  153.2590  142.5865  161.2822 H   0  0  0  0  0  0  0  0  0  0  0  0
  152.4592  144.7671  162.0645 H   0  0  0  0  0  0  0  0  0  0  0  0
  151.1696  146.2573  160.5482 H   0  0  0  0  0  0  0  0  0  0  0  0
  150.6805  145.5405  158.2272 H   0  0  0  0  0  0  0  0  0  0  0  0
  151.0694  144.0732  156.4013 H   0  0  0  0  0  0  0  0  0  0  0  0
  152.3076  142.8370  156.5368 H   0  0  0  0  0  0  0  0  0  0  0  0
  151.3514  141.6138  155.2046 H   0  0  0  0  0  0  0  0  0  0  0  0
  150.5245  140.3549  156.1097 H   0  0  0  0  0  0  0  0  0  0  0  0
  148.9199  142.6576  154.9432 H   0  0  0  0  0  0  0  0  0  0  0  0
  149.8236  140.3066  153.6757 H   0  0  0  0  0  0  0  0  0  0  0  0
  147.5611  140.1507  154.7691 H   0  0  0  0  0  0  0  0  0  0  0  0
  148.3259  140.1527  156.3411 H   0  0  0  0  0  0  0  0  0  0  0  0
  147.0400  141.2118  158.1254 H   0  0  0  0  0  0  0  0  0  0  0  0
  143.6708  144.5304  156.6735 H   0  0  0  0  0  0  0  0  0  0  0  0
  143.4587  145.1541  154.2784 H   0  0  0  0  0  0  0  0  0  0  0  0
  144.9397  144.1176  152.5724 H   0  0  0  0  0  0  0  0  0  0  0  0
  146.6531  142.4414  153.2587 H   0  0  0  0  0  0  0  0  0  0  0  0
  1  2  1  0  0  0  0
  1 24  1  0  0  0  0
  1 25  1  0  0  0  0
  1 26  1  0  0  0  0
  2  3  1  0  0  0  0
  3  8  1  0  0  0  0
  3  4  2  0  0  0  0
  4  5  1  0  0  0  0
  4 27  1  0  0  0  0
  5  6  2  0  0  0  0
  5 28  1  0  0  0  0
  6  7  1  0  0  0  0
  6 29  1  0  0  0  0
  7  8  2  0  0  0  0
  7 30  1  0  0  0  0
  8  9  1  0  0  0  0
  9 10  1  0  0  0  0
  9 31  1  0  0  0  0
  9 32  1  0  0  0  0
 10 11  1  0  0  0  0
 11 12  1  0  0  0  0
 11 33  1  0  0  0  0
 11 34  1  0  0  0  0
 12 13  1  0  0  0  0
 12 14  1  0  0  0  0
 12 35  1  0  0  0  0
 13 36  1  0  0  0  0
 14 15  1  0  0  0  0
 14 37  1  0  0  0  0
 14 38  1  0  0  0  0
 15 23  1  0  0  0  0
 15 16  1  0  0  0  0
 16 17  2  0  0  0  0
 16 39  1  0  0  0  0
 17 18  1  0  0  0  0
 18 23  2  0  0  0  0
 18 19  1  0  0  0  0
 19 20  2  0  0  0  0
 19 40  1  0  0  0  0
 20 21  1  0  0  0  0
 20 41  1  0  0  0  0
 21 22  2  0  0  0  0
 21 42  1  0  0  0  0
 22 23  1  0  0  0  0
 22 43  1  0  0  0  0
M  END
> <s_m_source_file>
AV-unprocessed.smi

> <i_m_source_file_index>
1350

> <i_lp_mmshare_version>
43012

> <i_f3d_flags>
0

> <s_epik_input>
W0NIM11PYzFbY0hdW2NIXVtjSF1bY0hdYzFbQ0gyXU9bQ0gyXVtDQEhdKFtPSF0pW0NIMl1uKFtjSF1uMiljKGMyMylbY0hdW2NIXVtjSF1bY0hdMw==

> <s_epik_cmdline>
J2VwaWtfcHl0aG9uJywgJy1waCcsICc3LjAnLCAnLXRuJywgJzgnLCAnLW1hJywgJzIwMCcsICctbWV0YWxfYmluZGluZycsICctaW1hZScsICc8aW5maWxlLm1hZT4nLCAnLW9tYWUnLCAnPG91dGZpbGUubWFlPic=

> <r_lp_tautomer_probability>
1

> <r_epik_Ionization_Penalty>
0.0713119

> <r_epik_Ionization_Penalty_Charging>
0

> <r_epik_Ionization_Penalty_Neutral>
0.0713119

> <r_epik_State_Penalty>
0.06259

> <r_epik_Charging_Adjusted_Penalty>
0.06259

> <i_epik_Tot_Q>
0

> <i_epik_Tot_abs_Q>
0

> <r_epik_Metal_State_Penalty>
6.60119e-05

> <b_epik_Metal_Only>
0

> <s_lp_Force_Field>
OPLS_2005

> <r_lp_Energy>
19.121

> <b_lp_Chiralities_Consistent>
1

> <s_lp_Variant>
AV-unprocessed.smi:1350-2

> <Gold.Version>
5.8.1

> <Gold.Id.Protein>
6NUR|6NUR_protein|mol2

> <Gold.PLP.Fitness>
54.0274

> <Gold.PLP.PLP>
-53.5897

> <Gold.PLP.part.hbond>
-3.0000

> <Gold.PLP.part.metal>
0.0000

> <Gold.PLP.part.buried>
-7.4479

> <Gold.PLP.part.nonpolar>
-43.2474

> <Gold.PLP.part.repulsive>
0.3126

> <Gold.PLP.ligand.clash>
0.0000

> <Gold.PLP.ligand.torsion>
1.6252

> <Gold.PLP.Chemscore.Hbond>
0.9920

> <Gold.PLP.Chemscore.CHOScore>
0.0000

> <Gold.PLP.Chemscore.Metal>
0.0000

> <Gold.Chemscore.Hbonds>
donor molecule, donor type, donor heavy atom, donor atom, acceptor molecule, acceptor atom, score
      P1  H  8011  8017       L1    13  0.96

> <Gold.PLP.Chemscore.Internal.Correction>
0.7121

> <Gold.Rescore>
     Score         DG    S(hbond)    S(metal)    S(lipo)     H(rot)  DE(clash)    DE(int)     intcor
     16.40     -18.14       0.86        0.00     141.08       2.63       0.09       1.65       ----

> <Gold.Chemscore.Fitness>
16.4005

> <Gold.Chemscore.DG>
-18.1381

> <Gold.Chemscore.ZeroCoef>
-5.4800

> <Gold.Chemscore.Hbond>
0.8642

> <Gold.Chemscore.Metal>
0.0000

> <Gold.Chemscore.Lipo>
141.0814

> <Gold.Chemscore.Internal_Hbond>
0.0000

> <Gold.Chemscore.DEClash>
0.0914

> <Gold.Chemscore.DEInternal>
1.6462

> <Gold.Chemscore.Rot>
2.6308

> <Gold.Chemscore.Internal.Correction>
   9.000000E+99

> <Gold.Chemscore.Hbonds>
donor molecule, donor type, donor heavy atom, donor atom, acceptor molecule, acceptor atom, score
      P1  H  8011  8017       L1    13  0.89

> <Gold.Chemscore.Hbond.Weighted>
-2.8864

> <Gold.Chemscore.Metal.Weighted>
-0.0000

> <Gold.Chemscore.Lipo.Weighted>
-16.5065

> <Gold.Chemscore.Internal_Hbond.Weighted>
0.0000

> <Gold.Chemscore.DEClash.Weighted>
0.0914

> <Gold.Chemscore.DEInternal.Weighted>
1.6462

> <Gold.Chemscore.Rot.Weighted>
6.7347

> <Gold.Chemscore.Internal.Correction.Weighted>
   9.000000E+99

> <Gold.Protein.RotatedTorsions>
[ 6907 6896 6895 6894 ] final  128.01 input  -60.11 | X-H torsion
[ 7974 7965 7964 7962 ] final  134.09 input  175.53 | X-H torsion
[ 8008 7997 7996 7995 ] final   83.29 input   59.86 | X-H torsion
[ 10167 10162 10161 10158 ] final   49.90 input  -65.29 | X-H torsion
[ 10718 10713 10712 10709 ] final  -24.22 input   66.30 | X-H torsion
[ 10763 10752 10751 10750 ] final   -5.39 input  -60.55 | X-H torsion
[ 11005 11000 10999 10996 ] final   21.11 input  -57.11 | X-H torsion

> <Gold.Protein.ActiveResidues>
 VAL166  LYS551  ARG553  GLY616  TRP617  ASP618  TYR619  PRO620  LYS621  CYS622 
 ASP623  PHE694  ASN695  SER759  ASP760  ASP761  ALA762  ILE779  LEU786  VAL792 
 PHE793  MET794  SER795  GLU796  ALA797  LYS798  CYS799  TRP800  GLU811  SER814 

> <Gold.Protein.RotatedAtoms>
  152.3760  133.6481  159.6123 H   0  0  0  0  0  0  0  0  0  0  0  0  # atno 6907 bound_to 6896
  150.7704  133.9193  159.3402 H   0  0  0  0  0  0  0  0  0  0  0  0  # atno 6908 bound_to 6896
  151.7007  135.0932  160.0301 H   0  0  0  0  0  0  0  0  0  0  0  0  # atno 6909 bound_to 6896
  144.9798  139.4516  143.5392 H   0  0  0  0  0  0  0  0  0  0  0  0  # atno 7974 bound_to 7965
  155.9220  140.3420  155.6180 H   0  0  0  0  0  0  0  0  0  0  0  0  # atno 8008 bound_to 7997
  155.7262  140.0790  157.2327 H   0  0  0  0  0  0  0  0  0  0  0  0  # atno 8009 bound_to 7997
  154.4071  140.1596  156.2445 H   0  0  0  0  0  0  0  0  0  0  0  0  # atno 8010 bound_to 7997
  140.2780  144.3189  150.6272 H   0  0  0  0  0  0  0  0  0  0  0  0  # atno 10167 bound_to 10162
  156.4805  130.4544  149.6814 H   0  0  0  0  0  0  0  0  0  0  0  0  # atno 10718 bound_to 10713
  153.3979  135.7004  153.6447 H   0  0  0  0  0  0  0  0  0  0  0  0  # atno 10763 bound_to 10752
  153.4992  135.3656  155.2532 H   0  0  0  0  0  0  0  0  0  0  0  0  # atno 10764 bound_to 10752
  154.8708  135.4108  154.3309 H   0  0  0  0  0  0  0  0  0  0  0  0  # atno 10765 bound_to 10752
  140.3951  134.1777  155.7663 H   0  0  0  0  0  0  0  0  0  0  0  0  # atno 11005 bound_to 11000
  146.3405  139.9064  142.8787 LP  0  0  0  0  0  0  0  0  0  0  0  0  # atno 17320 bound_to 7965
  145.2437  141.0019  143.3921 LP  0  0  0  0  0  0  0  0  0  0  0  0  # atno 17321 bound_to 7965
  140.5835  143.2171  151.7385 LP  0  0  0  0  0  0  0  0  0  0  0  0  # atno 17342 bound_to 10162
  139.4970  144.4045  152.0146 LP  0  0  0  0  0  0  0  0  0  0  0  0  # atno 17343 bound_to 10162
  156.3526  130.7440  151.2402 LP  0  0  0  0  0  0  0  0  0  0  0  0  # atno 17370 bound_to 10713
  157.7483  131.0373  150.4448 LP  0  0  0  0  0  0  0  0  0  0  0  0  # atno 17371 bound_to 10713
  141.1877  133.8276  157.1023 LP  0  0  0  0  0  0  0  0  0  0  0  0  # atno 17394 bound_to 11000
  140.0377  134.9870  157.0903 LP  0  0  0  0  0  0  0  0  0  0  0  0  # atno 17395 bound_to 11000

$$$$
