AV-unprocessed.smi:1401|AV-procd|sdf|5688|dock7
  -GOLD-   22720 5313D 1   1.00000     0.00000
 Structure written by MMmdl.
 48 50  0  0  0  0  0  0  0  0  1 V2000
  147.4155  138.6423  157.6051 C   0  0  0  0  0  0  0  0  0  0  0  0
  148.6811  138.1024  156.9958 C   0  0  0  0  0  0  0  0  0  0  0  0
  148.7830  136.8168  156.9145 N   0  0  0  0  0  0  0  0  0  0  0  0
  149.8965  136.2157  156.3589 N   0  0  0  0  0  0  0  0  0  0  0  0
  149.8070  134.7471  156.2896 C   0  0  0  0  0  0  0  0  0  0  0  0
  149.2692  134.0812  157.5688 C   0  0  0  0  0  0  0  0  0  0  0  0
  149.8496  133.0963  158.0237 O   0  0  0  0  0  0  0  0  0  0  0  0
  148.1863  134.6239  158.1506 N   0  0  0  0  0  0  0  0  0  0  0  0
  147.5749  134.2070  159.4075 C   0  0  2  0  0  0  0  0  0  0  0  0
  146.3310  133.3458  159.1288 C   0  0  0  0  0  0  0  0  0  0  0  0
  147.2413  135.4710  160.2348 C   0  0  2  0  0  0  0  0  0  0  0  0
  148.4084  136.0190  161.0896 C   0  0  0  0  0  0  0  0  0  0  0  0
  147.7581  136.2249  162.4702 C   0  0  2  0  0  0  0  0  0  0  0  0
  147.5491  134.8524  163.1353 C   0  0  0  0  0  0  0  0  0  0  0  0
  146.3830  134.2584  162.3239 C   0  0  0  0  0  0  0  0  0  0  0  0
  146.1003  135.3545  161.2755 C   0  0  1  0  0  0  0  0  0  0  0  0
  146.3313  136.6162  162.1019 C   0  0  0  0  0  0  0  0  0  0  0  0
  150.9732  136.8885  155.8592 C   0  0  0  0  0  0  0  0  0  0  0  0
  151.9374  136.3133  155.3528 O   0  0  0  0  0  0  0  0  0  0  0  0
  150.8565  138.3446  155.9664 C   0  0  0  0  0  0  0  0  0  0  0  0
  151.9626  139.0879  155.4552 C   0  0  0  0  0  0  0  0  0  0  0  0
  152.8490  139.6939  155.0226 N   0  0  0  0  0  0  0  0  0  0  0  0
  149.7664  138.9456  156.5056 C   0  0  0  0  0  0  0  0  0  0  0  0
  149.5919  140.4529  156.6299 C   0  0  0  0  0  0  0  0  0  0  0  0
  147.6327  139.2063  158.5123 H   0  0  0  0  0  0  0  0  0  0  0  0
  146.7198  137.8452  157.8714 H   0  0  0  0  0  0  0  0  0  0  0  0
  146.9023  139.3047  156.9079 H   0  0  0  0  0  0  0  0  0  0  0  0
  149.1878  134.4334  155.4475 H   0  0  0  0  0  0  0  0  0  0  0  0
  150.7962  134.3335  156.0852 H   0  0  0  0  0  0  0  0  0  0  0  0
  147.7746  135.4284  157.7005 H   0  0  0  0  0  0  0  0  0  0  0  0
  148.3057  133.6052  159.9482 H   0  0  0  0  0  0  0  0  0  0  0  0
  145.8807  132.9907  160.0557 H   0  0  0  0  0  0  0  0  0  0  0  0
  146.5822  132.4659  158.5360 H   0  0  0  0  0  0  0  0  0  0  0  0
  145.5727  133.9083  158.5834 H   0  0  0  0  0  0  0  0  0  0  0  0
  146.9541  136.2538  159.5296 H   0  0  0  0  0  0  0  0  0  0  0  0
  149.2574  135.3362  161.1441 H   0  0  0  0  0  0  0  0  0  0  0  0
  148.7716  136.9623  160.6796 H   0  0  0  0  0  0  0  0  0  0  0  0
  148.2869  136.9403  163.1009 H   0  0  0  0  0  0  0  0  0  0  0  0
  148.4443  134.2309  163.0937 H   0  0  0  0  0  0  0  0  0  0  0  0
  147.2685  134.9652  164.1832 H   0  0  0  0  0  0  0  0  0  0  0  0
  146.6195  133.2886  161.8885 H   0  0  0  0  0  0  0  0  0  0  0  0
  145.5132  134.1172  162.9668 H   0  0  0  0  0  0  0  0  0  0  0  0
  145.1074  135.2860  160.8301 H   0  0  0  0  0  0  0  0  0  0  0  0
  145.6680  136.6974  162.9651 H   0  0  0  0  0  0  0  0  0  0  0  0
  146.2716  137.5368  161.5186 H   0  0  0  0  0  0  0  0  0  0  0  0
  150.4695  141.0000  156.2876 H   0  0  0  0  0  0  0  0  0  0  0  0
  149.4173  140.7357  157.6683 H   0  0  0  0  0  0  0  0  0  0  0  0
  148.7422  140.7883  156.0345 H   0  0  0  0  0  0  0  0  0  0  0  0
  1  2  1  0  0  0  0
  1 25  1  0  0  0  0
  1 26  1  0  0  0  0
  1 27  1  0  0  0  0
  2 23  1  0  0  0  0
  2  3  2  0  0  0  0
  3  4  1  0  0  0  0
  4  5  1  0  0  0  0
  4 18  1  0  0  0  0
  5  6  1  0  0  0  0
  5 28  1  0  0  0  0
  5 29  1  0  0  0  0
  6  7  2  0  0  0  0
  6  8  1  0  0  0  0
  8  9  1  0  0  0  0
  8 30  1  0  0  0  0
  9 10  1  0  0  0  0
  9 11  1  0  0  0  0
  9 31  1  0  0  0  0
 10 32  1  0  0  0  0
 10 33  1  0  0  0  0
 10 34  1  0  0  0  0
 11 16  1  0  0  0  0
 11 12  1  0  0  0  0
 11 35  1  0  0  0  0
 12 13  1  0  0  0  0
 12 36  1  0  0  0  0
 12 37  1  0  0  0  0
 13 17  1  0  0  0  0
 13 14  1  0  0  0  0
 13 38  1  0  0  0  0
 14 15  1  0  0  0  0
 14 39  1  0  0  0  0
 14 40  1  0  0  0  0
 15 16  1  0  0  0  0
 15 41  1  0  0  0  0
 15 42  1  0  0  0  0
 16 17  1  0  0  0  0
 16 43  1  0  0  0  0
 17 44  1  0  0  0  0
 17 45  1  0  0  0  0
 18 19  2  0  0  0  0
 18 20  1  0  0  0  0
 20 21  1  0  0  0  0
 20 23  2  0  0  0  0
 21 22  3  0  0  0  0
 23 24  1  0  0  0  0
 24 46  1  0  0  0  0
 24 47  1  0  0  0  0
 24 48  1  0  0  0  0
M  END
> <s_m_source_file>
AV-unprocessed.smi

> <i_m_source_file_index>
1401

> <i_lp_mmshare_version>
43012

> <i_f3d_flags>
0

> <s_epik_input>
TiNDYyhjMVtDSDNdKWMoPU8pbihuYzFbQ0gzXSlbQ0gyXUMoPU8pW05IXVtDQEhdKFtDSDNdKVtDQEhdKFtDSDJdW0NASF0yMylbQ0BIXShbQ0gyXTMpW0NIMl1bQ0gyXTI=

> <s_epik_cmdline>
J2VwaWtfcHl0aG9uJywgJy1waCcsICc3LjAnLCAnLXRuJywgJzgnLCAnLW1hJywgJzIwMCcsICctbWV0YWxfYmluZGluZycsICctaW1hZScsICc8aW5maWxlLm1hZT4nLCAnLW9tYWUnLCAnPG91dGZpbGUubWFlPic=

> <r_lp_tautomer_probability>
1

> <r_epik_Ionization_Penalty>
2.16501e-08

> <r_epik_Ionization_Penalty_Charging>
2.29436e-11

> <r_epik_Ionization_Penalty_Neutral>
2.16271e-08

> <r_epik_State_Penalty>
-0

> <r_epik_Charging_Adjusted_Penalty>
2.29436e-11

> <i_epik_Tot_Q>
0

> <i_epik_Tot_abs_Q>
0

> <r_epik_Metal_State_Penalty>
-0

> <b_epik_Metal_Only>
0

> <s_lp_Force_Field>
OPLS_2005

> <r_lp_Energy>
65.8104

> <b_lp_Chiralities_Consistent>
1

> <s_lp_Variant>
AV-unprocessed.smi:1401-1

> <Gold.Version>
5.8.1

> <Gold.Id.Protein>
6NUR|6NUR_protein|mol2

> <Gold.PLP.Fitness>
39.4608

> <Gold.PLP.PLP>
-31.5160

> <Gold.PLP.part.hbond>
-3.9688

> <Gold.PLP.part.metal>
0.0000

> <Gold.PLP.part.buried>
-4.9666

> <Gold.PLP.part.nonpolar>
-23.7818

> <Gold.PLP.part.repulsive>
0.1699

> <Gold.PLP.ligand.clash>
0.0000

> <Gold.PLP.ligand.torsion>
1.2211

> <Gold.PLP.Chemscore.Hbond>
3.4576

> <Gold.PLP.Chemscore.CHOScore>
0.0000

> <Gold.PLP.Chemscore.Metal>
0.0000

> <Gold.Chemscore.Hbonds>
donor molecule, donor type, donor heavy atom, donor atom, acceptor molecule, acceptor atom, score
      P1  H  6896  6908       L1     7  1.00
      P1  H  7989  7998       L1    22  0.21
      P1  H  7997  8009       L1    22  1.00
      P1  H 10752 10764       L1    19  0.86

> <Gold.PLP.Chemscore.Internal.Correction>
0.0143

> <Gold.Rescore>
     Score         DG    S(hbond)    S(metal)    S(lipo)     H(rot)  DE(clash)    DE(int)     intcor
     19.06     -20.26       2.99        0.00      76.66       1.63       0.04       1.17       ----

> <Gold.Chemscore.Fitness>
19.0587

> <Gold.Chemscore.DG>
-20.2637

> <Gold.Chemscore.ZeroCoef>
-5.4800

> <Gold.Chemscore.Hbond>
2.9888

> <Gold.Chemscore.Metal>
0.0000

> <Gold.Chemscore.Lipo>
76.6576

> <Gold.Chemscore.Internal_Hbond>
0.0000

> <Gold.Chemscore.DEClash>
0.0398

> <Gold.Chemscore.DEInternal>
1.1652

> <Gold.Chemscore.Rot>
1.6281

> <Gold.Chemscore.Internal.Correction>
   9.000000E+99

> <Gold.Chemscore.Hbonds>
donor molecule, donor type, donor heavy atom, donor atom, acceptor molecule, acceptor atom, score
      P1  H  6896  6908       L1     7  0.65
      P1  H  7989  7998       L1    22  0.04
      P1  H  7997  8009       L1    22  1.00
      P1  H 10752 10764       L1    19  0.81

> <Gold.Chemscore.Hbond.Weighted>
-9.9826

> <Gold.Chemscore.Metal.Weighted>
-0.0000

> <Gold.Chemscore.Lipo.Weighted>
-8.9689

> <Gold.Chemscore.Internal_Hbond.Weighted>
0.0000

> <Gold.Chemscore.DEClash.Weighted>
0.0398

> <Gold.Chemscore.DEInternal.Weighted>
1.1652

> <Gold.Chemscore.Rot.Weighted>
4.1678

> <Gold.Chemscore.Internal.Correction.Weighted>
   9.000000E+99

> <Gold.Protein.RotatedTorsions>
[ 6907 6896 6895 6894 ] final  107.55 input  -60.11 | X-H torsion
[ 7974 7965 7964 7962 ] final   66.95 input  175.53 | X-H torsion
[ 8008 7997 7996 7995 ] final -133.23 input   59.86 | X-H torsion
[ 10167 10162 10161 10158 ] final  -76.41 input  -65.29 | X-H torsion
[ 10718 10713 10712 10709 ] final -115.65 input   66.30 | X-H torsion
[ 10763 10752 10751 10750 ] final  -65.22 input  -60.55 | X-H torsion
[ 11005 11000 10999 10996 ] final  -12.89 input  -57.11 | X-H torsion

> <Gold.Protein.ActiveResidues>
 VAL166  LYS551  ARG553  GLY616  TRP617  ASP618  TYR619  PRO620  LYS621  CYS622 
 ASP623  PHE694  ASN695  SER759  ASP760  ASP761  ALA762  ILE779  LEU786  VAL792 
 PHE793  MET794  SER795  GLU796  ALA797  LYS798  CYS799  TRP800  GLU811  SER814 

> <Gold.Protein.RotatedAtoms>
  152.5149  133.9218  159.7537 H   0  0  0  0  0  0  0  0  0  0  0  0  # atno 6907 bound_to 6896
  150.9588  133.6459  159.2765 H   0  0  0  0  0  0  0  0  0  0  0  0  # atno 6908 bound_to 6896
  151.3712  135.0928  159.9519 H   0  0  0  0  0  0  0  0  0  0  0  0  # atno 6909 bound_to 6896
  145.8205  139.3082  143.1046 H   0  0  0  0  0  0  0  0  0  0  0  0  # atno 7974 bound_to 7965
  155.3420  140.0472  157.3045 H   0  0  0  0  0  0  0  0  0  0  0  0  # atno 8008 bound_to 7997
  154.5272  140.2245  155.8833 H   0  0  0  0  0  0  0  0  0  0  0  0  # atno 8009 bound_to 7997
  156.1752  140.3087  155.9052 H   0  0  0  0  0  0  0  0  0  0  0  0  # atno 8010 bound_to 7997
  140.4859  143.2391  151.7984 H   0  0  0  0  0  0  0  0  0  0  0  0  # atno 10167 bound_to 10162
  156.0910  130.6092  150.8933 H   0  0  0  0  0  0  0  0  0  0  0  0  # atno 10718 bound_to 10713
  154.3417  135.6155  153.5599 H   0  0  0  0  0  0  0  0  0  0  0  0  # atno 10763 bound_to 10752
  152.9804  135.5771  154.4845 H   0  0  0  0  0  0  0  0  0  0  0  0  # atno 10764 bound_to 10752
  154.4550  135.2854  155.1731 H   0  0  0  0  0  0  0  0  0  0  0  0  # atno 10765 bound_to 10752
  140.7704  133.8443  155.9202 H   0  0  0  0  0  0  0  0  0  0  0  0  # atno 11005 bound_to 11000
  145.9680  140.8783  143.0177 LP  0  0  0  0  0  0  0  0  0  0  0  0  # atno 17320 bound_to 7965
  144.6748  140.1906  143.7397 LP  0  0  0  0  0  0  0  0  0  0  0  0  # atno 17321 bound_to 7965
  139.4842  144.4712  151.9422 LP  0  0  0  0  0  0  0  0  0  0  0  0  # atno 17342 bound_to 10162
  140.3798  144.2750  150.5910 LP  0  0  0  0  0  0  0  0  0  0  0  0  # atno 17343 bound_to 10162
  157.6059  131.0939  150.8880 LP  0  0  0  0  0  0  0  0  0  0  0  0  # atno 17370 bound_to 10713
  156.9029  130.5253  149.5282 LP  0  0  0  0  0  0  0  0  0  0  0  0  # atno 17371 bound_to 10713
  140.9579  134.1694  157.4677 LP  0  0  0  0  0  0  0  0  0  0  0  0  # atno 17394 bound_to 11000
  139.8756  134.9934  156.5642 LP  0  0  0  0  0  0  0  0  0  0  0  0  # atno 17395 bound_to 11000

$$$$
