AV-unprocessed.smi:1417|AV-procd|sdf|5771|dock4
  -GOLD-   22720 5413D 1   1.00000     0.00000
 Structure written by MMmdl.
 39 40  0  0  0  0  0  0  0  0  3 V2000
  153.4940  142.3432  161.2671 C   0  0  0  0  0  0  0  0  0  0  0  0
  152.6947  142.7513  160.0774 C   0  0  0  0  0  0  0  0  0  0  0  0
  151.8254  142.0779  159.2665 C   0  0  0  0  0  0  0  0  0  0  0  0
  151.4253  143.0749  158.3295 C   0  0  0  0  0  0  0  0  0  0  0  0
  150.5193  142.9012  157.2514 N   0  0  0  0  0  0  0  0  0  0  0  0
  149.8815  141.7820  156.8695 C   0  0  0  0  0  0  0  0  0  0  0  0
  149.9641  140.6880  157.4274 O   0  0  0  0  0  0  0  0  0  0  0  0
  149.1291  141.9988  155.7805 N   0  0  0  0  0  0  0  0  0  0  0  0
  148.3293  140.9852  155.0982 C   0  0  2  0  0  0  0  0  0  0  0  0
  149.2335  139.9613  154.3874 C   0  0  0  0  0  0  0  0  0  0  0  0
  148.4038  138.9515  153.5782 C   0  0  0  0  0  0  0  0  0  0  0  0
  147.5226  139.6426  152.5988 N   0  3  1  0  0  0  0  0  0  0  0  0
  146.7961  138.7064  151.7056 C   0  0  0  0  0  0  0  0  0  0  0  0
  145.8600  137.8126  152.5260 C   0  0  0  0  0  0  0  0  0  0  0  0
  144.5657  137.9833  152.1965 N   0  5  0  0  0  0  0  0  0  0  0  0
  146.3295  137.0645  153.3812 O   0  0  0  0  0  0  0  0  0  0  0  0
  146.6125  140.6057  153.2684 C   0  0  0  0  0  0  0  0  0  0  0  0
  147.4042  141.6539  154.0689 C   0  0  0  0  0  0  0  0  0  0  0  0
  151.9991  144.2426  158.5535 N   0  0  0  0  0  0  0  0  0  0  0  0
  152.8145  144.0447  159.6738 O   0  0  0  0  0  0  0  0  0  0  0  0
  153.5544  141.2571  161.3409 H   0  0  0  0  0  0  0  0  0  0  0  0
  153.0407  142.7198  162.1839 H   0  0  0  0  0  0  0  0  0  0  0  0
  154.5098  142.7339  161.2057 H   0  0  0  0  0  0  0  0  0  0  0  0
  151.5361  141.0411  159.3463 H   0  0  0  0  0  0  0  0  0  0  0  0
  150.3484  143.7274  156.6974 H   0  0  0  0  0  0  0  0  0  0  0  0
  149.1161  142.9292  155.3890 H   0  0  0  0  0  0  0  0  0  0  0  0
  147.7087  140.4664  155.8314 H   0  0  0  0  0  0  0  0  0  0  0  0
  149.9258  140.4773  153.7204 H   0  0  0  0  0  0  0  0  0  0  0  0
  149.8460  139.4279  155.1151 H   0  0  0  0  0  0  0  0  0  0  0  0
  149.0810  138.2701  153.0626 H   0  0  0  0  0  0  0  0  0  0  0  0
  147.7964  138.3422  154.2494 H   0  0  0  0  0  0  0  0  0  0  0  0
  146.2760  139.2562  150.9179 H   0  0  0  0  0  0  0  0  0  0  0  0
  147.5032  138.0439  151.2043 H   0  0  0  0  0  0  0  0  0  0  0  0
  144.3396  138.3837  151.2779 H   0  0  0  0  0  0  0  0  0  0  0  0
  146.0011  141.1146  152.5220 H   0  0  0  0  0  0  0  0  0  0  0  0
  145.9288  140.0652  153.9249 H   0  0  0  0  0  0  0  0  0  0  0  0
  146.7130  142.3319  154.5710 H   0  0  0  0  0  0  0  0  0  0  0  0
  147.9920  142.2641  153.3812 H   0  0  0  0  0  0  0  0  0  0  0  0
  148.1222  140.1872  151.9952 H   0  0  0  0  0  0  0  0  0  0  0  0
  1  2  1  0  0  0  0
  1 21  1  0  0  0  0
  1 22  1  0  0  0  0
  1 23  1  0  0  0  0
  2 20  1  0  0  0  0
  2  3  2  0  0  0  0
  3  4  1  0  0  0  0
  3 24  1  0  0  0  0
  4  5  1  0  0  0  0
  4 19  2  0  0  0  0
  5  6  1  0  0  0  0
  5 25  1  0  0  0  0
  6  7  2  0  0  0  0
  6  8  1  0  0  0  0
  8  9  1  0  0  0  0
  8 26  1  0  0  0  0
  9 18  1  0  0  0  0
  9 10  1  0  0  0  0
  9 27  1  0  0  0  0
 10 11  1  0  0  0  0
 10 28  1  0  0  0  0
 10 29  1  0  0  0  0
 11 12  1  0  0  0  0
 11 30  1  0  0  0  0
 11 31  1  0  0  0  0
 12 13  1  0  0  0  0
 12 17  1  0  0  0  0
 12 39  1  0  0  0  0
 13 14  1  0  0  0  0
 13 32  1  0  0  0  0
 13 33  1  0  0  0  0
 14 15  1  0  0  0  0
 14 16  2  0  0  0  0
 15 34  1  0  0  0  0
 17 18  1  0  0  0  0
 17 35  1  0  0  0  0
 17 36  1  0  0  0  0
 18 37  1  0  0  0  0
 18 38  1  0  0  0  0
 19 20  1  0  0  0  0
M  CHG  1  12   1
M  CHG  1  15  -1
M  END
> <s_m_source_file>
AV-unprocessed.smi

> <i_m_source_file_index>
1417

> <i_lp_mmshare_version>
43012

> <i_f3d_flags>
0

> <s_epik_input>
W0NIM11jMVtjSF1jKG5vMSlbTkhdQyg9TylbTkhdW0NIXTJbQ0gyXVtDSDJdTihbQ0gyXVtDSDJdMilbQ0gyXUMoPU8pW05IMl0=

> <s_epik_cmdline>
J2VwaWtfcHl0aG9uJywgJy1waCcsICc3LjAnLCAnLXRuJywgJzgnLCAnLW1hJywgJzIwMCcsICctbWV0YWxfYmluZGluZycsICctaW1hZScsICc8aW5maWxlLm1hZT4nLCAnLW9tYWUnLCAnPG91dGZpbGUubWFlPic=

> <r_epik_Ionization_Penalty>
5.73218

> <r_epik_Ionization_Penalty_Charging>
5.73215

> <r_epik_Ionization_Penalty_Neutral>
3.37968e-05

> <r_epik_State_Penalty>
6.58009

> <r_epik_Charging_Adjusted_Penalty>
12.3122

> <i_epik_Tot_Q>
0

> <i_epik_Tot_abs_Q>
2

> <r_epik_Metal_State_Penalty>
2.55295

> <b_epik_Metal_Only>
1

> <s_lp_Force_Field>
OPLS_2005

> <r_lp_Energy>
6.84109

> <b_lp_Chiralities_Consistent>
1

> <s_lp_Variant>
AV-unprocessed.smi:1417-7

> <Gold.Version>
5.8.1

> <Gold.Id.Protein>
6NUR|6NUR_protein|mol2

> <Gold.PLP.Fitness>
46.4868

> <Gold.PLP.PLP>
-35.6616

> <Gold.PLP.part.hbond>
-5.0000

> <Gold.PLP.part.metal>
0.0000

> <Gold.PLP.part.buried>
-1.7992

> <Gold.PLP.part.nonpolar>
-30.3144

> <Gold.PLP.part.repulsive>
0.4271

> <Gold.PLP.ligand.clash>
0.0000

> <Gold.PLP.ligand.torsion>
0.1080

> <Gold.PLP.Chemscore.Hbond>
3.6720

> <Gold.PLP.Chemscore.CHOScore>
0.0000

> <Gold.PLP.Chemscore.Metal>
0.0000

> <Gold.Chemscore.Hbonds>
donor molecule, donor type, donor heavy atom, donor atom, acceptor molecule, acceptor atom, score
      L1  H     5    25       P1  8028  0.87
      L1  H     8    26       P1  8028  0.98
      L1  H    12    39       P1  7957  0.80
      L1  H    15    34       P1 10171  1.00

> <Gold.PLP.Chemscore.Internal.Correction>
0.0252

> <Gold.Rescore>
     Score         DG    S(hbond)    S(metal)    S(lipo)     H(rot)  DE(clash)    DE(int)     intcor
     18.82     -20.75       3.75        0.00      67.48       2.02       0.52       1.41       ----

> <Gold.Chemscore.Fitness>
18.8158

> <Gold.Chemscore.DG>
-20.7476

> <Gold.Chemscore.ZeroCoef>
-5.4800

> <Gold.Chemscore.Hbond>
3.7538

> <Gold.Chemscore.Metal>
0.0000

> <Gold.Chemscore.Lipo>
67.4778

> <Gold.Chemscore.Internal_Hbond>
0.0000

> <Gold.Chemscore.DEClash>
0.5240

> <Gold.Chemscore.DEInternal>
1.4078

> <Gold.Chemscore.Rot>
2.0176

> <Gold.Chemscore.Internal.Correction>
   9.000000E+99

> <Gold.Chemscore.Hbonds>
donor molecule, donor type, donor heavy atom, donor atom, acceptor molecule, acceptor atom, score
      L1  H     5    25       P1  8028  0.80
      L1  H     8    26       P1  8028  0.93
      L1  H    12    39       P1  7957  0.80
      L1  H    15    34       P1 10171  0.94

> <Gold.Chemscore.Hbond.Weighted>
-12.5378

> <Gold.Chemscore.Metal.Weighted>
-0.0000

> <Gold.Chemscore.Lipo.Weighted>
-7.8949

> <Gold.Chemscore.Internal_Hbond.Weighted>
0.0000

> <Gold.Chemscore.DEClash.Weighted>
0.5240

> <Gold.Chemscore.DEInternal.Weighted>
1.4078

> <Gold.Chemscore.Rot.Weighted>
5.1651

> <Gold.Chemscore.Internal.Correction.Weighted>
   9.000000E+99

> <Gold.Protein.RotatedTorsions>
[ 6907 6896 6895 6894 ] final -169.30 input  -60.11 | X-H torsion
[ 7974 7965 7964 7962 ] final  176.58 input  175.53 | X-H torsion
[ 8008 7997 7996 7995 ] final  -69.81 input   59.86 | X-H torsion
[ 10167 10162 10161 10158 ] final -178.95 input  -65.29 | X-H torsion
[ 10718 10713 10712 10709 ] final  -71.59 input   66.30 | X-H torsion
[ 10763 10752 10751 10750 ] final   -9.66 input  -60.55 | X-H torsion
[ 11005 11000 10999 10996 ] final  -67.29 input  -57.11 | X-H torsion

> <Gold.Protein.ActiveResidues>
 VAL166  LYS551  ARG553  GLY616  TRP617  ASP618  TYR619  PRO620  LYS621  CYS622 
 ASP623  PHE694  ASN695  SER759  ASP760  ASP761  ALA762  ILE779  LEU786  VAL792 
 PHE793  MET794  SER795  GLU796  ALA797  LYS798  CYS799  TRP800  GLU811  SER814 

> <Gold.Protein.RotatedAtoms>
  151.4894  133.3528  159.2850 H   0  0  0  0  0  0  0  0  0  0  0  0  # atno 6907 bound_to 6896
  150.8845  134.8243  159.7260 H   0  0  0  0  0  0  0  0  0  0  0  0  # atno 6908 bound_to 6896
  152.4784  134.4795  159.9713 H   0  0  0  0  0  0  0  0  0  0  0  0  # atno 6909 bound_to 6896
  144.7182  140.0118  143.6440 H   0  0  0  0  0  0  0  0  0  0  0  0  # atno 7974 bound_to 7965
  154.4965  140.0846  156.7708 H   0  0  0  0  0  0  0  0  0  0  0  0  # atno 8008 bound_to 7997
  155.4103  140.3441  155.4245 H   0  0  0  0  0  0  0  0  0  0  0  0  # atno 8009 bound_to 7997
  156.1401  140.1527  156.8921 H   0  0  0  0  0  0  0  0  0  0  0  0  # atno 8010 bound_to 7997
  139.5408  144.2367  152.0892 H   0  0  0  0  0  0  0  0  0  0  0  0  # atno 10167 bound_to 10162
  156.0356  130.4354  150.2467 H   0  0  0  0  0  0  0  0  0  0  0  0  # atno 10718 bound_to 10713
  153.4580  135.7016  153.6068 H   0  0  0  0  0  0  0  0  0  0  0  0  # atno 10763 bound_to 10752
  153.4374  135.3788  155.2208 H   0  0  0  0  0  0  0  0  0  0  0  0  # atno 10764 bound_to 10752
  154.8727  135.3965  154.4001 H   0  0  0  0  0  0  0  0  0  0  0  0  # atno 10765 bound_to 10752
  141.1504  133.6716  156.6270 H   0  0  0  0  0  0  0  0  0  0  0  0  # atno 11005 bound_to 11000
  146.0252  139.3286  143.0789 LP  0  0  0  0  0  0  0  0  0  0  0  0  # atno 17320 bound_to 7965
  145.8520  140.9523  143.0744 LP  0  0  0  0  0  0  0  0  0  0  0  0  # atno 17321 bound_to 7965
  140.1845  144.4812  150.6511 LP  0  0  0  0  0  0  0  0  0  0  0  0  # atno 17342 bound_to 10162
  140.6637  143.2261  151.5793 LP  0  0  0  0  0  0  0  0  0  0  0  0  # atno 17343 bound_to 10162
  157.0567  131.0078  151.3236 LP  0  0  0  0  0  0  0  0  0  0  0  0  # atno 17370 bound_to 10713
  157.5101  130.7933  149.7696 LP  0  0  0  0  0  0  0  0  0  0  0  0  # atno 17371 bound_to 10713
  140.3496  134.7780  157.4457 LP  0  0  0  0  0  0  0  0  0  0  0  0  # atno 17394 bound_to 11000
  140.0872  134.5651  155.8481 LP  0  0  0  0  0  0  0  0  0  0  0  0  # atno 17395 bound_to 11000

$$$$
