AV-unprocessed.smi:230|AV-procd|sdf|1763|dock2
  -GOLD-   2262020293D 1   1.00000     0.00000
 Structure written by MMmdl.
 56 59  0  0  0  0  0  0  0  0  1 V2000
  148.3644  131.1221  160.3417 C   0  0  0  0  0  0  0  0  0  0  0  0
  147.6256  132.3182  159.7259 C   0  0  0  0  0  0  0  0  0  0  0  0
  147.8804  133.6652  160.4522 C   0  0  2  0  0  0  0  0  0  0  0  0
  147.5731  133.5410  161.9619 C   0  0  0  0  0  0  0  0  0  0  0  0
  147.7113  134.7941  162.6269 O   0  0  0  0  0  0  0  0  0  0  0  0
  146.8971  135.8490  162.1120 C   0  0  0  0  0  0  0  0  0  0  0  0
  145.3975  135.5807  162.3630 C   0  0  0  0  0  0  0  0  0  0  0  0
  147.3218  137.1099  162.8805 C   0  0  0  0  0  0  0  0  0  0  0  0
  147.2131  136.0188  160.6132 C   0  0  0  0  0  0  0  0  0  0  0  0
  147.0764  134.7582  159.8917 N   0  0  0  0  0  0  0  0  0  0  0  0
  147.1710  134.9760  158.5597 C   0  0  0  0  0  0  0  0  0  0  0  0
  146.0890  134.7968  157.7559 N   0  0  0  0  0  0  0  0  0  0  0  0
  146.1951  135.0041  156.4397 C   0  0  0  0  0  0  0  0  0  0  0  0
  147.2658  135.3814  155.7369 N   0  0  0  0  0  0  0  0  0  0  0  0
  148.3527  135.5540  156.5433 C   0  0  0  0  0  0  0  0  0  0  0  0
  148.3921  135.3688  157.9529 C   0  0  0  0  0  0  0  0  0  0  0  0
  149.6678  135.6306  158.4351 N   0  0  0  0  0  0  0  0  0  0  0  0
  150.3453  135.9596  157.3688 C   0  0  0  0  0  0  0  0  0  0  0  0
  149.6319  135.9472  156.1907 N   0  0  0  0  0  0  0  0  0  0  0  0
  150.1333  136.2735  154.8645 C   0  0  0  0  0  0  0  0  0  0  0  0
  150.5316  137.7605  154.6930 C   0  0  0  0  0  0  0  0  0  0  0  0
  151.0984  137.9072  153.4020 O   0  0  0  0  0  0  0  0  0  0  0  0
  149.2862  138.6652  154.7834 C   0  0  0  0  0  0  0  0  0  0  0  0
  149.6529  140.1603  154.7879 C   0  0  0  0  0  0  0  0  0  0  0  0
  150.5684  140.4337  155.8416 O   0  0  0  0  0  0  0  0  0  0  0  0
  151.8030  139.7441  155.6899 C   0  0  0  0  0  0  0  0  0  0  0  0
  151.5705  138.2234  155.7380 C   0  0  0  0  0  0  0  0  0  0  0  0
  148.2247  130.2297  159.7315 H   0  0  0  0  0  0  0  0  0  0  0  0
  147.9979  130.8898  161.3413 H   0  0  0  0  0  0  0  0  0  0  0  0
  149.4358  131.3133  160.4080 H   0  0  0  0  0  0  0  0  0  0  0  0
  147.9400  132.3827  158.6844 H   0  0  0  0  0  0  0  0  0  0  0  0
  146.5554  132.1094  159.7015 H   0  0  0  0  0  0  0  0  0  0  0  0
  148.9327  133.9322  160.3408 H   0  0  0  0  0  0  0  0  0  0  0  0
  146.5771  133.1305  162.1280 H   0  0  0  0  0  0  0  0  0  0  0  0
  148.2690  132.8491  162.4350 H   0  0  0  0  0  0  0  0  0  0  0  0
  144.7942  136.4401  162.0689 H   0  0  0  0  0  0  0  0  0  0  0  0
  145.2044  135.3890  163.4190 H   0  0  0  0  0  0  0  0  0  0  0  0
  145.0249  134.7267  161.7981 H   0  0  0  0  0  0  0  0  0  0  0  0
  146.7723  137.9876  162.5387 H   0  0  0  0  0  0  0  0  0  0  0  0
  148.3851  137.3141  162.7489 H   0  0  0  0  0  0  0  0  0  0  0  0
  147.1393  137.0001  163.9500 H   0  0  0  0  0  0  0  0  0  0  0  0
  146.5569  136.7759  160.1802 H   0  0  0  0  0  0  0  0  0  0  0  0
  148.2356  136.3806  160.4901 H   0  0  0  0  0  0  0  0  0  0  0  0
  145.2927  134.8447  155.8679 H   0  0  0  0  0  0  0  0  0  0  0  0
  151.3907  136.2289  157.4121 H   0  0  0  0  0  0  0  0  0  0  0  0
  150.9850  135.6254  154.6531 H   0  0  0  0  0  0  0  0  0  0  0  0
  149.3643  136.0070  154.1384 H   0  0  0  0  0  0  0  0  0  0  0  0
  150.9148  137.1260  152.9030 H   0  0  0  0  0  0  0  0  0  0  0  0
  148.5966  138.4511  153.9658 H   0  0  0  0  0  0  0  0  0  0  0  0
  148.7453  138.4422  155.7042 H   0  0  0  0  0  0  0  0  0  0  0  0
  150.0801  140.4647  153.8312 H   0  0  0  0  0  0  0  0  0  0  0  0
  148.7567  140.7627  154.9373 H   0  0  0  0  0  0  0  0  0  0  0  0
  152.2856  140.0391  154.7568 H   0  0  0  0  0  0  0  0  0  0  0  0
  152.4721  140.0431  156.4968 H   0  0  0  0  0  0  0  0  0  0  0  0
  151.2180  137.9588  156.7357 H   0  0  0  0  0  0  0  0  0  0  0  0
  152.5199  137.7046  155.6011 H   0  0  0  0  0  0  0  0  0  0  0  0
  1  2  1  0  0  0  0
  1 28  1  0  0  0  0
  1 29  1  0  0  0  0
  1 30  1  0  0  0  0
  2  3  1  0  0  0  0
  2 31  1  0  0  0  0
  2 32  1  0  0  0  0
  3 10  1  0  0  0  0
  3  4  1  0  0  0  0
  3 33  1  0  0  0  0
  4  5  1  0  0  0  0
  4 34  1  0  0  0  0
  4 35  1  0  0  0  0
  5  6  1  0  0  0  0
  6  7  1  0  0  0  0
  6  8  1  0  0  0  0
  6  9  1  0  0  0  0
  7 36  1  0  0  0  0
  7 37  1  0  0  0  0
  7 38  1  0  0  0  0
  8 39  1  0  0  0  0
  8 40  1  0  0  0  0
  8 41  1  0  0  0  0
  9 10  1  0  0  0  0
  9 42  1  0  0  0  0
  9 43  1  0  0  0  0
 10 11  1  0  0  0  0
 11 16  1  0  0  0  0
 11 12  2  0  0  0  0
 12 13  1  0  0  0  0
 13 14  2  0  0  0  0
 13 44  1  0  0  0  0
 14 15  1  0  0  0  0
 15 19  1  0  0  0  0
 15 16  2  0  0  0  0
 16 17  1  0  0  0  0
 17 18  2  0  0  0  0
 18 19  1  0  0  0  0
 18 45  1  0  0  0  0
 19 20  1  0  0  0  0
 20 21  1  0  0  0  0
 20 46  1  0  0  0  0
 20 47  1  0  0  0  0
 21 27  1  0  0  0  0
 21 22  1  0  0  0  0
 21 23  1  0  0  0  0
 22 48  1  0  0  0  0
 23 24  1  0  0  0  0
 23 49  1  0  0  0  0
 23 50  1  0  0  0  0
 24 25  1  0  0  0  0
 24 51  1  0  0  0  0
 24 52  1  0  0  0  0
 25 26  1  0  0  0  0
 26 27  1  0  0  0  0
 26 53  1  0  0  0  0
 26 54  1  0  0  0  0
 27 55  1  0  0  0  0
 27 56  1  0  0  0  0
M  END
> <s_m_source_file>
AV-unprocessed.smi

> <i_m_source_file_index>
230

> <i_lp_mmshare_version>
43012

> <i_f3d_flags>
0

> <s_epik_input>
W0NIM11DMShbQ0gzXSlPW0NIMl1bQ0BASF0oW0NIMl1bQ0gzXSlOKFtDSDJdMSljKG5bY0hdbjIpYyhjMjMpbltjSF1uM1tDSDJdQzQoW09IXSlbQ0gyXVtDSDJdT1tDSDJdW0NIMl00

> <s_epik_cmdline>
J2VwaWtfcHl0aG9uJywgJy1waCcsICc3LjAnLCAnLXRuJywgJzgnLCAnLW1hJywgJzIwMCcsICctbWV0YWxfYmluZGluZycsICctaW1hZScsICc8aW5maWxlLm1hZT4nLCAnLW9tYWUnLCAnPG91dGZpbGUubWFlPic=

> <r_lp_tautomer_probability>
1

> <r_epik_Ionization_Penalty>
0.000120535

> <r_epik_Ionization_Penalty_Charging>
0

> <r_epik_Ionization_Penalty_Neutral>
0.000120535

> <r_epik_State_Penalty>
-0

> <r_epik_Charging_Adjusted_Penalty>
0

> <i_epik_Tot_Q>
0

> <i_epik_Tot_abs_Q>
0

> <r_epik_Metal_State_Penalty>
-0

> <b_epik_Metal_Only>
0

> <s_lp_Force_Field>
OPLS_2005

> <r_lp_Energy>
33.8878

> <b_lp_Chiralities_Consistent>
1

> <s_lp_Variant>
AV-unprocessed.smi:230-1

> <Gold.Version>
5.8.1

> <Gold.Id.Protein>
6NUR|6NUR_protein|mol2

> <Gold.PLP.Fitness>
39.0600

> <Gold.PLP.PLP>
-33.2194

> <Gold.PLP.part.hbond>
-2.4515

> <Gold.PLP.part.metal>
0.0000

> <Gold.PLP.part.buried>
-1.9057

> <Gold.PLP.part.nonpolar>
-28.1843

> <Gold.PLP.part.repulsive>
0.0658

> <Gold.PLP.ligand.clash>
0.0000

> <Gold.PLP.ligand.torsion>
0.1597

> <Gold.PLP.Chemscore.Hbond>
2.0000

> <Gold.PLP.Chemscore.CHOScore>
0.0000

> <Gold.PLP.Chemscore.Metal>
0.0000

> <Gold.Chemscore.Hbonds>
donor molecule, donor type, donor heavy atom, donor atom, acceptor molecule, acceptor atom, score
      L1  H    22    48       P1  7949  0.90
      P1  H  6896  6908       L1    17  1.00

> <Gold.PLP.Chemscore.Internal.Correction>
0.1601

> <Gold.Rescore>
     Score         DG    S(hbond)    S(metal)    S(lipo)     H(rot)  DE(clash)    DE(int)     intcor
     14.39     -15.24       1.86        0.00      78.81       2.21       0.68       0.17       ----

> <Gold.Chemscore.Fitness>
14.3859

> <Gold.Chemscore.DG>
-15.2414

> <Gold.Chemscore.ZeroCoef>
-5.4800

> <Gold.Chemscore.Hbond>
1.8562

> <Gold.Chemscore.Metal>
0.0000

> <Gold.Chemscore.Lipo>
78.8142

> <Gold.Chemscore.Internal_Hbond>
0.0000

> <Gold.Chemscore.DEClash>
0.6810

> <Gold.Chemscore.DEInternal>
0.1746

> <Gold.Chemscore.Rot>
2.2107

> <Gold.Chemscore.Internal.Correction>
   9.000000E+99

> <Gold.Chemscore.Hbonds>
donor molecule, donor type, donor heavy atom, donor atom, acceptor molecule, acceptor atom, score
      L1  H    22    48       P1  7949  0.17
      P1  H  6896  6908       L1    17  0.74

> <Gold.Chemscore.Hbond.Weighted>
-6.1996

> <Gold.Chemscore.Metal.Weighted>
-0.0000

> <Gold.Chemscore.Lipo.Weighted>
-9.2213

> <Gold.Chemscore.Internal_Hbond.Weighted>
0.0000

> <Gold.Chemscore.DEClash.Weighted>
0.6810

> <Gold.Chemscore.DEInternal.Weighted>
0.1746

> <Gold.Chemscore.Rot.Weighted>
5.6595

> <Gold.Chemscore.Internal.Correction.Weighted>
   9.000000E+99

> <Gold.Protein.RotatedTorsions>
[ 6907 6896 6895 6894 ] final -178.25 input  -60.11 | X-H torsion
[ 7974 7965 7964 7962 ] final -168.75 input  175.53 | X-H torsion
[ 8008 7997 7996 7995 ] final -172.31 input   59.86 | X-H torsion
[ 10167 10162 10161 10158 ] final -178.54 input  -65.29 | X-H torsion
[ 10718 10713 10712 10709 ] final  117.78 input   66.30 | X-H torsion
[ 10763 10752 10751 10750 ] final  -32.98 input  -60.55 | X-H torsion
[ 11005 11000 10999 10996 ] final   87.46 input  -57.11 | X-H torsion

> <Gold.Protein.ActiveResidues>
 VAL166  LYS551  ARG553  GLY616  TRP617  ASP618  TYR619  PRO620  LYS621  CYS622 
 ASP623  PHE694  ASN695  SER759  ASP760  ASP761  ALA762  ILE779  LEU786  VAL792 
 PHE793  MET794  SER795  GLU796  ALA797  LYS798  CYS799  TRP800  GLU811  SER814 

> <Gold.Protein.RotatedAtoms>
  151.6343  133.3330  159.3115 H   0  0  0  0  0  0  0  0  0  0  0  0  # atno 6907 bound_to 6896
  150.8040  134.7157  159.6639 H   0  0  0  0  0  0  0  0  0  0  0  0  # atno 6908 bound_to 6896
  152.4135  134.6087  160.0071 H   0  0  0  0  0  0  0  0  0  0  0  0  # atno 6909 bound_to 6896
  144.7197  140.2324  143.6302 H   0  0  0  0  0  0  0  0  0  0  0  0  # atno 7974 bound_to 7965
  155.9429  140.1112  157.1040 H   0  0  0  0  0  0  0  0  0  0  0  0  # atno 8008 bound_to 7997
  154.4093  140.1215  156.5017 H   0  0  0  0  0  0  0  0  0  0  0  0  # atno 8009 bound_to 7997
  155.6939  140.3472  155.4907 H   0  0  0  0  0  0  0  0  0  0  0  0  # atno 8010 bound_to 7997
  139.5428  144.2318  152.0928 H   0  0  0  0  0  0  0  0  0  0  0  0  # atno 10167 bound_to 10162
  157.6074  131.1041  150.7663 H   0  0  0  0  0  0  0  0  0  0  0  0  # atno 10718 bound_to 10713
  153.8226  135.6873  153.4825 H   0  0  0  0  0  0  0  0  0  0  0  0  # atno 10763 bound_to 10752
  153.1560  135.4599  154.9702 H   0  0  0  0  0  0  0  0  0  0  0  0  # atno 10764 bound_to 10752
  154.7921  135.3305  154.7697 H   0  0  0  0  0  0  0  0  0  0  0  0  # atno 10765 bound_to 10752
  139.8919  134.8424  156.2864 H   0  0  0  0  0  0  0  0  0  0  0  0  # atno 11005 bound_to 11000
  145.8398  139.2124  143.1834 LP  0  0  0  0  0  0  0  0  0  0  0  0  # atno 17320 bound_to 7965
  146.0356  140.8215  142.9854 LP  0  0  0  0  0  0  0  0  0  0  0  0  # atno 17321 bound_to 7965
  140.1799  144.4854  150.6534 LP  0  0  0  0  0  0  0  0  0  0  0  0  # atno 17342 bound_to 10162
  140.6664  143.2269  151.5732 LP  0  0  0  0  0  0  0  0  0  0  0  0  # atno 17343 bound_to 10162
  156.8048  130.4933  149.5364 LP  0  0  0  0  0  0  0  0  0  0  0  0  # atno 17370 bound_to 10713
  156.1165  130.6079  151.0128 LP  0  0  0  0  0  0  0  0  0  0  0  0  # atno 17371 bound_to 10713
  141.0005  133.7154  156.0953 LP  0  0  0  0  0  0  0  0  0  0  0  0  # atno 17394 bound_to 11000
  140.7504  134.4051  157.5542 LP  0  0  0  0  0  0  0  0  0  0  0  0  # atno 17395 bound_to 11000

$$$$
