AV-unprocessed.smi:2008|AV-procd|sdf|8144|dock10
  -GOLD-   2272010383D 1   1.00000     0.00000
 Structure written by MMmdl.
 46 47  0  0  0  0  0  0  0  0  2 V2000
  151.5627  141.4421  157.6954 C   0  0  0  0  0  0  0  0  0  0  0  0
  151.3221  141.2947  156.3003 O   0  0  0  0  0  0  0  0  0  0  0  0
  150.7482  140.1214  155.8552 C   0  0  0  0  0  0  0  0  0  0  0  0
  150.1365  139.2708  156.7969 C   0  0  0  0  0  0  0  0  0  0  0  0
  149.5477  138.0718  156.3515 C   0  0  0  0  0  0  0  0  0  0  0  0
  149.5827  137.7640  154.9701 C   0  0  0  0  0  0  0  0  0  0  0  0
  149.0408  136.5821  154.3952 N   0  0  0  0  0  0  0  0  0  0  0  0
  148.4582  135.5395  155.0113 C   0  0  0  0  0  0  0  0  0  0  0  0
  148.2733  135.4379  156.2239 O   0  0  0  0  0  0  0  0  0  0  0  0
  148.0784  134.6032  154.1298 N   0  0  0  0  0  0  0  0  0  0  0  0
  147.4006  133.3588  154.4768 C   0  0  0  0  0  0  0  0  0  0  0  0
  147.3472  132.3894  153.2780 C   0  0  0  0  0  0  0  0  0  0  0  0
  146.0709  132.4890  152.5133 N   0  3  1  0  0  0  0  0  0  0  0  0
  145.9263  133.8308  151.8763 C   0  0  0  0  0  0  0  0  0  0  0  0
  144.5645  134.0036  151.1904 C   0  0  0  0  0  0  0  0  0  0  0  0
  144.3564  132.9139  150.1399 C   0  0  0  0  0  0  0  0  0  0  0  0
  144.4972  131.5426  150.8036 C   0  0  0  0  0  0  0  0  0  0  0  0
  145.8527  131.3779  151.5278 C   0  0  2  0  0  0  0  0  0  0  0  0
  145.8866  129.9750  152.1725 C   0  0  0  0  0  0  0  0  0  0  0  0
  150.2318  138.6760  154.1123 C   0  0  0  0  0  0  0  0  0  0  0  0
  150.7974  139.8269  154.5326 N   0  0  0  0  0  0  0  0  0  0  0  0
  152.0139  142.4164  157.8826 H   0  0  0  0  0  0  0  0  0  0  0  0
  152.2530  140.6817  158.0635 H   0  0  0  0  0  0  0  0  0  0  0  0
  150.6354  141.3917  158.2677 H   0  0  0  0  0  0  0  0  0  0  0  0
  150.1226  139.5313  157.8450 H   0  0  0  0  0  0  0  0  0  0  0  0
  149.0975  137.4135  157.0777 H   0  0  0  0  0  0  0  0  0  0  0  0
  149.0505  136.5521  153.3860 H   0  0  0  0  0  0  0  0  0  0  0  0
  148.2620  134.7674  153.1505 H   0  0  0  0  0  0  0  0  0  0  0  0
  147.8996  132.8892  155.3264 H   0  0  0  0  0  0  0  0  0  0  0  0
  146.4005  133.6273  154.8135 H   0  0  0  0  0  0  0  0  0  0  0  0
  148.1922  132.5559  152.6081 H   0  0  0  0  0  0  0  0  0  0  0  0
  147.4793  131.3893  153.6802 H   0  0  0  0  0  0  0  0  0  0  0  0
  146.0316  134.6220  152.6166 H   0  0  0  0  0  0  0  0  0  0  0  0
  146.7273  133.9759  151.1494 H   0  0  0  0  0  0  0  0  0  0  0  0
  143.7669  133.9613  151.9336 H   0  0  0  0  0  0  0  0  0  0  0  0
  144.5030  134.9872  150.7235 H   0  0  0  0  0  0  0  0  0  0  0  0
  143.3723  133.0128  149.6809 H   0  0  0  0  0  0  0  0  0  0  0  0
  145.0903  133.0191  149.3396 H   0  0  0  0  0  0  0  0  0  0  0  0
  143.6810  131.4006  151.5138 H   0  0  0  0  0  0  0  0  0  0  0  0
  144.3808  130.7662  150.0463 H   0  0  0  0  0  0  0  0  0  0  0  0
  146.6470  131.4299  150.7812 H   0  0  0  0  0  0  0  0  0  0  0  0
  145.5337  129.2164  151.4730 H   0  0  0  0  0  0  0  0  0  0  0  0
  145.2485  129.9258  153.0555 H   0  0  0  0  0  0  0  0  0  0  0  0
  146.8916  129.6671  152.4579 H   0  0  0  0  0  0  0  0  0  0  0  0
  150.2972  138.4797  153.0519 H   0  0  0  0  0  0  0  0  0  0  0  0
  145.3268  132.4052  153.1912 H   0  0  0  0  0  0  0  0  0  0  0  0
  1  2  1  0  0  0  0
  1 22  1  0  0  0  0
  1 23  1  0  0  0  0
  1 24  1  0  0  0  0
  2  3  1  0  0  0  0
  3 21  1  0  0  0  0
  3  4  2  0  0  0  0
  4  5  1  0  0  0  0
  4 25  1  0  0  0  0
  5  6  2  0  0  0  0
  5 26  1  0  0  0  0
  6  7  1  0  0  0  0
  6 20  1  0  0  0  0
  7  8  1  0  0  0  0
  7 27  1  0  0  0  0
  8  9  2  0  0  0  0
  8 10  1  0  0  0  0
 10 11  1  0  0  0  0
 10 28  1  0  0  0  0
 11 12  1  0  0  0  0
 11 29  1  0  0  0  0
 11 30  1  0  0  0  0
 12 13  1  0  0  0  0
 12 31  1  0  0  0  0
 12 32  1  0  0  0  0
 13 18  1  0  0  0  0
 13 14  1  0  0  0  0
 13 46  1  0  0  0  0
 14 15  1  0  0  0  0
 14 33  1  0  0  0  0
 14 34  1  0  0  0  0
 15 16  1  0  0  0  0
 15 35  1  0  0  0  0
 15 36  1  0  0  0  0
 16 17  1  0  0  0  0
 16 37  1  0  0  0  0
 16 38  1  0  0  0  0
 17 18  1  0  0  0  0
 17 39  1  0  0  0  0
 17 40  1  0  0  0  0
 18 19  1  0  0  0  0
 18 41  1  0  0  0  0
 19 42  1  0  0  0  0
 19 43  1  0  0  0  0
 19 44  1  0  0  0  0
 20 21  2  0  0  0  0
 20 45  1  0  0  0  0
M  CHG  1  13   1
M  END
> <s_m_source_file>
AV-unprocessed.smi

> <i_m_source_file_index>
2008

> <i_lp_mmshare_version>
43012

> <i_f3d_flags>
0

> <s_epik_input>
W0NIM11PYzFbY0hdW2NIXWMoW2NIXW4xKVtOSF1DKD1PKVtOSF1bQ0gyXVtDSDJdTjJbQ0gyXVtDSDJdW0NIMl1bQ0gyXVtDQEhdMltDSDNd

> <s_epik_cmdline>
J2VwaWtfcHl0aG9uJywgJy1waCcsICc3LjAnLCAnLXRuJywgJzgnLCAnLW1hJywgJzIwMCcsICctbWV0YWxfYmluZGluZycsICctaW1hZScsICc8aW5maWxlLm1hZT4nLCAnLW9tYWUnLCAnPG91dGZpbGUubWFlPic=

> <r_lp_tautomer_probability>
1

> <r_epik_Ionization_Penalty>
0.00219526

> <r_epik_Ionization_Penalty_Charging>
0.00211816

> <r_epik_Ionization_Penalty_Neutral>
7.71003e-05

> <r_epik_State_Penalty>
0.00145254

> <r_epik_Charging_Adjusted_Penalty>
0.0035707

> <i_epik_Tot_Q>
1

> <i_epik_Tot_abs_Q>
1

> <r_epik_Metal_State_Penalty>
-0

> <b_epik_Metal_Only>
0

> <s_lp_Force_Field>
OPLS_2005

> <r_lp_Energy>
23.0726

> <b_lp_Chiralities_Consistent>
1

> <s_lp_Variant>
AV-unprocessed.smi:2008-4

> <Gold.Version>
5.8.1

> <Gold.Id.Protein>
6NUR|6NUR_protein|mol2

> <Gold.PLP.Fitness>
42.7439

> <Gold.PLP.PLP>
-31.5756

> <Gold.PLP.part.hbond>
-2.9982

> <Gold.PLP.part.metal>
0.0000

> <Gold.PLP.part.buried>
-5.7312

> <Gold.PLP.part.nonpolar>
-23.3792

> <Gold.PLP.part.repulsive>
0.1555

> <Gold.PLP.ligand.clash>
0.0430

> <Gold.PLP.ligand.torsion>
0.5331

> <Gold.PLP.Chemscore.Hbond>
2.8480

> <Gold.PLP.Chemscore.CHOScore>
1.2362

> <Gold.PLP.Chemscore.Metal>
0.0000

> <Gold.Chemscore.Hbonds>
donor molecule, donor type, donor heavy atom, donor atom, acceptor molecule, acceptor atom, score
      L1  H     7    27       P1  7948  1.00
      L1  H    10    28       P1  7948  0.84
      P1  H  7989  7998       L1    21  1.00
      L1  C    20    45       P1  7948  0.22
      L1  C    20    45       P1  7957  0.96

> <Gold.PLP.Chemscore.Internal.Correction>
0.0250

> <Gold.Rescore>
     Score         DG    S(hbond)    S(metal)    S(lipo)     H(rot)  DE(clash)    DE(int)     intcor
     17.85     -19.48       2.66        0.00      81.08       1.71       0.02       1.62       ----

> <Gold.Chemscore.Fitness>
17.8473

> <Gold.Chemscore.DG>
-19.4808

> <Gold.Chemscore.ZeroCoef>
-5.4800

> <Gold.Chemscore.Hbond>
2.6630

> <Gold.Chemscore.Metal>
0.0000

> <Gold.Chemscore.Lipo>
81.0759

> <Gold.Chemscore.Internal_Hbond>
0.0000

> <Gold.Chemscore.DEClash>
0.0154

> <Gold.Chemscore.DEInternal>
1.6181

> <Gold.Chemscore.Rot>
1.7107

> <Gold.Chemscore.Internal.Correction>
   9.000000E+99

> <Gold.Chemscore.Hbonds>
donor molecule, donor type, donor heavy atom, donor atom, acceptor molecule, acceptor atom, score
      L1  H     7    27       P1  7948  0.94
      L1  H    10    28       P1  7948  0.57
      P1  H  7989  7998       L1    21  0.96

> <Gold.Chemscore.Hbond.Weighted>
-8.8944

> <Gold.Chemscore.Metal.Weighted>
-0.0000

> <Gold.Chemscore.Lipo.Weighted>
-9.4859

> <Gold.Chemscore.Internal_Hbond.Weighted>
0.0000

> <Gold.Chemscore.DEClash.Weighted>
0.0154

> <Gold.Chemscore.DEInternal.Weighted>
1.6181

> <Gold.Chemscore.Rot.Weighted>
4.3794

> <Gold.Chemscore.Internal.Correction.Weighted>
   9.000000E+99

> <Gold.Protein.RotatedTorsions>
[ 6907 6896 6895 6894 ] final  -72.88 input  -60.11 | X-H torsion
[ 7974 7965 7964 7962 ] final -172.06 input  175.53 | X-H torsion
[ 8008 7997 7996 7995 ] final  -30.33 input   59.86 | X-H torsion
[ 10167 10162 10161 10158 ] final  -54.52 input  -65.29 | X-H torsion
[ 10718 10713 10712 10709 ] final -149.12 input   66.30 | X-H torsion
[ 10763 10752 10751 10750 ] final  -87.42 input  -60.55 | X-H torsion
[ 11005 11000 10999 10996 ] final   29.04 input  -57.11 | X-H torsion

> <Gold.Protein.ActiveResidues>
 VAL166  LYS551  ARG553  GLY616  TRP617  ASP618  TYR619  PRO620  LYS621  CYS622 
 ASP623  PHE694  ASN695  SER759  ASP760  ASP761  ALA762  ILE779  LEU786  VAL792 
 PHE793  MET794  SER795  GLU796  ALA797  LYS798  CYS799  TRP800  GLU811  SER814 

> <Gold.Protein.RotatedAtoms>
  150.7152  134.5099  159.5601 H   0  0  0  0  0  0  0  0  0  0  0  0  # atno 6907 bound_to 6896
  152.2677  134.7963  160.0428 H   0  0  0  0  0  0  0  0  0  0  0  0  # atno 6908 bound_to 6896
  151.8654  133.3430  159.3754 H   0  0  0  0  0  0  0  0  0  0  0  0  # atno 6909 bound_to 6896
  144.7150  140.1829  143.6356 H   0  0  0  0  0  0  0  0  0  0  0  0  # atno 7974 bound_to 7965
  154.4255  140.1794  156.1389 H   0  0  0  0  0  0  0  0  0  0  0  0  # atno 8008 bound_to 7997
  156.0007  140.3360  155.6818 H   0  0  0  0  0  0  0  0  0  0  0  0  # atno 8009 bound_to 7997
  155.6246  140.0663  157.2658 H   0  0  0  0  0  0  0  0  0  0  0  0  # atno 8010 bound_to 7997
  140.6426  143.2516  151.4947 H   0  0  0  0  0  0  0  0  0  0  0  0  # atno 10167 bound_to 10162
  156.4290  130.8066  151.2292 H   0  0  0  0  0  0  0  0  0  0  0  0  # atno 10718 bound_to 10713
  154.6334  135.5414  153.7706 H   0  0  0  0  0  0  0  0  0  0  0  0  # atno 10763 bound_to 10752
  153.0296  135.6441  154.1268 H   0  0  0  0  0  0  0  0  0  0  0  0  # atno 10764 bound_to 10752
  154.1196  135.2921  155.3191 H   0  0  0  0  0  0  0  0  0  0  0  0  # atno 10765 bound_to 10752
  140.3092  134.2669  155.7738 H   0  0  0  0  0  0  0  0  0  0  0  0  # atno 11005 bound_to 11000
  145.8840  139.2338  143.1588 LP  0  0  0  0  0  0  0  0  0  0  0  0  # atno 17320 bound_to 7965
  145.9967  140.8555  143.0039 LP  0  0  0  0  0  0  0  0  0  0  0  0  # atno 17321 bound_to 7965
  139.5635  144.2097  152.1729 LP  0  0  0  0  0  0  0  0  0  0  0  0  # atno 17342 bound_to 10162
  140.1372  144.5234  150.6766 LP  0  0  0  0  0  0  0  0  0  0  0  0  # atno 17343 bound_to 10162
  157.7508  131.0204  150.3707 LP  0  0  0  0  0  0  0  0  0  0  0  0  # atno 17370 bound_to 10713
  156.4040  130.3921  149.6939 LP  0  0  0  0  0  0  0  0  0  0  0  0  # atno 17371 bound_to 10713
  141.2112  133.7697  156.9882 LP  0  0  0  0  0  0  0  0  0  0  0  0  # atno 17394 bound_to 11000
  140.1040  134.9518  157.1966 LP  0  0  0  0  0  0  0  0  0  0  0  0  # atno 17395 bound_to 11000

$$$$
