AV-unprocessed.smi:967|AV-procd|sdf|4285|dock4
  -GOLD-   22720 2193D 1   1.00000     0.00000
 Structure written by MMmdl.
 43 44  0  0  0  0  0  0  0  0  2 V2000
  145.4893  128.7728  152.2093 C   0  0  0  0  0  0  0  0  0  0  0  0
  146.8676  128.8454  152.6704 N   0  0  0  0  0  0  0  0  0  0  0  0
  147.8319  128.0458  151.9304 C   0  0  0  0  0  0  0  0  0  0  0  0
  147.3032  130.1596  152.8888 C   0  0  0  0  0  0  0  0  0  0  0  0
  146.6563  131.2551  152.2810 C   0  0  0  0  0  0  0  0  0  0  0  0
  147.1277  132.5605  152.5289 C   0  0  0  0  0  0  0  0  0  0  0  0
  148.2309  132.7569  153.3876 C   0  0  0  0  0  0  0  0  0  0  0  0
  148.6764  134.0900  153.5963 N   0  0  0  0  0  0  0  0  0  0  0  0
  149.2363  134.6241  154.6954 C   0  0  0  0  0  0  0  0  0  0  0  0
  149.4446  134.0233  155.7491 O   0  0  0  0  0  0  0  0  0  0  0  0
  149.5259  135.9196  154.5058 N   0  0  0  0  0  0  0  0  0  0  0  0
  150.1145  136.8218  155.4922 C   0  0  2  0  0  0  0  0  0  0  0  0
  150.7115  138.0491  154.7769 C   0  0  0  0  0  0  0  0  0  0  0  0
  151.4325  138.9831  155.7621 C   0  0  0  0  0  0  0  0  0  0  0  0
  152.5119  138.2257  156.5543 C   0  0  1  0  0  0  0  0  0  0  0  0
  153.1064  139.0964  157.4930 O   0  0  0  0  0  0  0  0  0  0  0  0
  151.9112  137.0126  157.2849 C   0  0  0  0  0  0  0  0  0  0  0  0
  151.1923  136.0746  156.3016 C   0  0  0  0  0  0  0  0  0  0  0  0
  148.8484  131.6184  153.9616 C   0  0  0  0  0  0  0  0  0  0  0  0
  148.3668  130.3844  153.6962 N   0  3  0  0  0  0  0  0  0  0  0  0
  144.8376  129.3835  152.8355 H   0  0  0  0  0  0  0  0  0  0  0  0
  145.1308  127.7441  152.2538 H   0  0  0  0  0  0  0  0  0  0  0  0
  145.4026  129.1201  151.1790 H   0  0  0  0  0  0  0  0  0  0  0  0
  148.8334  128.1604  152.3470 H   0  0  0  0  0  0  0  0  0  0  0  0
  147.8594  128.3396  150.8805 H   0  0  0  0  0  0  0  0  0  0  0  0
  147.5648  126.9900  151.9826 H   0  0  0  0  0  0  0  0  0  0  0  0
  145.8078  131.0994  151.6305 H   0  0  0  0  0  0  0  0  0  0  0  0
  146.6381  133.4043  152.0647 H   0  0  0  0  0  0  0  0  0  0  0  0
  148.5008  134.7298  152.8352 H   0  0  0  0  0  0  0  0  0  0  0  0
  149.3117  136.3220  153.6050 H   0  0  0  0  0  0  0  0  0  0  0  0
  149.3525  137.1734  156.1905 H   0  0  0  0  0  0  0  0  0  0  0  0
  151.4165  137.7233  154.0106 H   0  0  0  0  0  0  0  0  0  0  0  0
  149.9248  138.5991  154.2589 H   0  0  0  0  0  0  0  0  0  0  0  0
  151.8805  139.8161  155.2186 H   0  0  0  0  0  0  0  0  0  0  0  0
  150.7032  139.4166  156.4481 H   0  0  0  0  0  0  0  0  0  0  0  0
  153.2916  137.8869  155.8707 H   0  0  0  0  0  0  0  0  0  0  0  0
  153.0735  138.6876  158.3444 H   0  0  0  0  0  0  0  0  0  0  0  0
  152.6945  136.4654  157.8106 H   0  0  0  0  0  0  0  0  0  0  0  0
  151.2045  137.3493  158.0451 H   0  0  0  0  0  0  0  0  0  0  0  0
  150.7416  135.2456  156.8488 H   0  0  0  0  0  0  0  0  0  0  0  0
  151.9257  135.6348  155.6240 H   0  0  0  0  0  0  0  0  0  0  0  0
  149.7113  131.6378  154.6101 H   0  0  0  0  0  0  0  0  0  0  0  0
  148.8297  129.5828  154.1248 H   0  0  0  0  0  0  0  0  0  0  0  0
  1  2  1  0  0  0  0
  1 21  1  0  0  0  0
  1 22  1  0  0  0  0
  1 23  1  0  0  0  0
  2  3  1  0  0  0  0
  2  4  1  0  0  0  0
  3 24  1  0  0  0  0
  3 25  1  0  0  0  0
  3 26  1  0  0  0  0
  4 20  1  0  0  0  0
  4  5  2  0  0  0  0
  5  6  1  0  0  0  0
  5 27  1  0  0  0  0
  6  7  2  0  0  0  0
  6 28  1  0  0  0  0
  7  8  1  0  0  0  0
  7 19  1  0  0  0  0
  8  9  1  0  0  0  0
  8 29  1  0  0  0  0
  9 10  2  0  0  0  0
  9 11  1  0  0  0  0
 11 12  1  0  0  0  0
 11 30  1  0  0  0  0
 12 18  1  0  0  0  0
 12 13  1  0  0  0  0
 12 31  1  0  0  0  0
 13 14  1  0  0  0  0
 13 32  1  0  0  0  0
 13 33  1  0  0  0  0
 14 15  1  0  0  0  0
 14 34  1  0  0  0  0
 14 35  1  0  0  0  0
 15 16  1  0  0  0  0
 15 17  1  0  0  0  0
 15 36  1  0  0  0  0
 16 37  1  0  0  0  0
 17 18  1  0  0  0  0
 17 38  1  0  0  0  0
 17 39  1  0  0  0  0
 18 40  1  0  0  0  0
 18 41  1  0  0  0  0
 19 20  2  0  0  0  0
 19 42  1  0  0  0  0
 20 43  1  0  0  0  0
M  CHG  1  20   1
M  END
> <s_m_source_file>
AV-unprocessed.smi

> <i_m_source_file_index>
967

> <i_lp_mmshare_version>
43012

> <i_f3d_flags>
0

> <s_epik_input>
W0NIM11OKFtDSDNdKWMxW2NIXVtjSF1jKFtjSF1uMSlbTkhdQyg9TylbTkhdW0NAQEhdMltDSDJdW0NIMl1bQ0BASF0oW09IXSlbQ0gyXVtDSDJdMg==

> <s_epik_cmdline>
J2VwaWtfcHl0aG9uJywgJy1waCcsICc3LjAnLCAnLXRuJywgJzgnLCAnLW1hJywgJzIwMCcsICctbWV0YWxfYmluZGluZycsICctaW1hZScsICc8aW5maWxlLm1hZT4nLCAnLW9tYWUnLCAnPG91dGZpbGUubWFlPic=

> <r_lp_tautomer_probability>
0.999994

> <r_epik_Ionization_Penalty>
0.251848

> <r_epik_Ionization_Penalty_Charging>
0.251826

> <r_epik_Ionization_Penalty_Neutral>
2.16844e-05

> <r_epik_State_Penalty>
0.243201

> <r_epik_Charging_Adjusted_Penalty>
0.495027

> <i_epik_Tot_Q>
1

> <i_epik_Tot_abs_Q>
1

> <r_epik_Metal_State_Penalty>
0.534113

> <b_epik_Metal_Only>
0

> <s_lp_Force_Field>
OPLS_2005

> <r_lp_Energy>
22.3095

> <b_lp_Chiralities_Consistent>
1

> <s_lp_Variant>
AV-unprocessed.smi:967-1

> <Gold.Version>
5.8.1

> <Gold.Id.Protein>
6NUR|6NUR_protein|mol2

> <Gold.PLP.Fitness>
38.4163

> <Gold.PLP.PLP>
-31.1039

> <Gold.PLP.part.hbond>
-3.0000

> <Gold.PLP.part.metal>
0.0000

> <Gold.PLP.part.buried>
-0.9221

> <Gold.PLP.part.nonpolar>
-26.7950

> <Gold.PLP.part.repulsive>
0.1717

> <Gold.PLP.ligand.clash>
0.2218

> <Gold.PLP.ligand.torsion>
0.8334

> <Gold.PLP.Chemscore.Hbond>
3.0000

> <Gold.PLP.Chemscore.CHOScore>
0.0000

> <Gold.PLP.Chemscore.Metal>
0.0000

> <Gold.Chemscore.Hbonds>
donor molecule, donor type, donor heavy atom, donor atom, acceptor molecule, acceptor atom, score
      L1  H     8    29       P1  7948  1.00
      L1  H    11    30       P1  7948  1.00
      P1  H  7997  8010       L1    16  1.00

> <Gold.PLP.Chemscore.Internal.Correction>
0.2012

> <Gold.Rescore>
     Score         DG    S(hbond)    S(metal)    S(lipo)     H(rot)  DE(clash)    DE(int)     intcor
     14.69     -17.88       2.47        0.00      73.44       1.73       0.03       3.16       ----

> <Gold.Chemscore.Fitness>
14.6943

> <Gold.Chemscore.DG>
-17.8831

> <Gold.Chemscore.ZeroCoef>
-5.4800

> <Gold.Chemscore.Hbond>
2.4668

> <Gold.Chemscore.Metal>
0.0000

> <Gold.Chemscore.Lipo>
73.4398

> <Gold.Chemscore.Internal_Hbond>
0.0000

> <Gold.Chemscore.DEClash>
0.0283

> <Gold.Chemscore.DEInternal>
3.1604

> <Gold.Chemscore.Rot>
1.7299

> <Gold.Chemscore.Internal.Correction>
   9.000000E+99

> <Gold.Chemscore.Hbonds>
donor molecule, donor type, donor heavy atom, donor atom, acceptor molecule, acceptor atom, score
      L1  H     8    29       P1  7948  0.33
      L1  H    11    30       P1  7948  0.83
      P1  H  7997  8010       L1    16  0.74

> <Gold.Chemscore.Hbond.Weighted>
-8.2391

> <Gold.Chemscore.Metal.Weighted>
-0.0000

> <Gold.Chemscore.Lipo.Weighted>
-8.5925

> <Gold.Chemscore.Internal_Hbond.Weighted>
0.0000

> <Gold.Chemscore.DEClash.Weighted>
0.0283

> <Gold.Chemscore.DEInternal.Weighted>
3.1604

> <Gold.Chemscore.Rot.Weighted>
4.4285

> <Gold.Chemscore.Internal.Correction.Weighted>
   9.000000E+99

> <Gold.Protein.RotatedTorsions>
[ 6907 6896 6895 6894 ] final  -57.69 input  -60.11 | X-H torsion
[ 7974 7965 7964 7962 ] final  -14.08 input  175.53 | X-H torsion
[ 8008 7997 7996 7995 ] final   56.33 input   59.86 | X-H torsion
[ 10167 10162 10161 10158 ] final  117.22 input  -65.29 | X-H torsion
[ 10718 10713 10712 10709 ] final  109.31 input   66.30 | X-H torsion
[ 10763 10752 10751 10750 ] final -121.85 input  -60.55 | X-H torsion
[ 11005 11000 10999 10996 ] final   91.28 input  -57.11 | X-H torsion

> <Gold.Protein.ActiveResidues>
 VAL166  LYS551  ARG553  GLY616  TRP617  ASP618  TYR619  PRO620  LYS621  CYS622 
 ASP623  PHE694  ASN695  SER759  ASP760  ASP761  ALA762  ILE779  LEU786  VAL792 
 PHE793  MET794  SER795  GLU796  ALA797  LYS798  CYS799  TRP800  GLU811  SER814 

> <Gold.Protein.RotatedAtoms>
  150.8066  134.7195  159.6649 H   0  0  0  0  0  0  0  0  0  0  0  0  # atno 6907 bound_to 6896
  152.4185  134.5994  160.0006 H   0  0  0  0  0  0  0  0  0  0  0  0  # atno 6908 bound_to 6896
  151.6216  133.3301  159.3125 H   0  0  0  0  0  0  0  0  0  0  0  0  # atno 6909 bound_to 6896
  146.2088  140.3297  142.8398 H   0  0  0  0  0  0  0  0  0  0  0  0  # atno 7974 bound_to 7965
  155.5156  140.3478  155.4397 H   0  0  0  0  0  0  0  0  0  0  0  0  # atno 8008 bound_to 7997
  156.0819  140.1389  156.9728 H   0  0  0  0  0  0  0  0  0  0  0  0  # atno 8009 bound_to 7997
  154.4585  140.0944  156.6801 H   0  0  0  0  0  0  0  0  0  0  0  0  # atno 8010 bound_to 7997
  139.6194  144.7098  151.2668 H   0  0  0  0  0  0  0  0  0  0  0  0  # atno 10167 bound_to 10162
  157.6547  131.0911  150.6434 H   0  0  0  0  0  0  0  0  0  0  0  0  # atno 10718 bound_to 10713
  154.8677  135.4153  154.2687 H   0  0  0  0  0  0  0  0  0  0  0  0  # atno 10763 bound_to 10752
  153.3601  135.7003  153.6725 H   0  0  0  0  0  0  0  0  0  0  0  0  # atno 10764 bound_to 10752
  153.5629  135.3606  155.2779 H   0  0  0  0  0  0  0  0  0  0  0  0  # atno 10765 bound_to 10752
  139.8841  134.8664  156.3405 H   0  0  0  0  0  0  0  0  0  0  0  0  # atno 11005 bound_to 11000
  144.8861  140.7464  143.5956 LP  0  0  0  0  0  0  0  0  0  0  0  0  # atno 17320 bound_to 7965
  145.3218  139.1786  143.4584 LP  0  0  0  0  0  0  0  0  0  0  0  0  # atno 17321 bound_to 7965
  140.7372  143.6685  150.8102 LP  0  0  0  0  0  0  0  0  0  0  0  0  # atno 17342 bound_to 10162
  140.0293  143.5460  152.2767 LP  0  0  0  0  0  0  0  0  0  0  0  0  # atno 17343 bound_to 10162
  156.6742  130.4548  149.5648 LP  0  0  0  0  0  0  0  0  0  0  0  0  # atno 17370 bound_to 10713
  156.1976  130.6599  151.1131 LP  0  0  0  0  0  0  0  0  0  0  0  0  # atno 17371 bound_to 10713
  140.9662  133.7356  156.0470 LP  0  0  0  0  0  0  0  0  0  0  0  0  # atno 17394 bound_to 11000
  140.7928  134.3598  157.5460 LP  0  0  0  0  0  0  0  0  0  0  0  0  # atno 17395 bound_to 11000

$$$$
