AV-unprocessed.smi:1602|AV-procd|sdf|6439|dock7
  -GOLD-   22720 7 83D 1   1.00000     0.00000
 Structure written by MMmdl.
 36 37  0  0  0  0  0  0  0  0  1 V2000
  151.2406  132.7559  155.9972 C   0  0  0  0  0  0  0  0  0  0  0  0
  149.9907  133.3545  155.3400 C   0  0  2  0  0  0  0  0  0  0  0  0
  149.7775  132.8388  153.9039 C   0  0  0  0  0  0  0  0  0  0  0  0
  148.5086  133.2723  153.3460 N   0  0  0  0  0  0  0  0  0  0  0  0
  147.9666  132.9717  152.1141 C   0  0  0  0  0  0  0  0  0  0  0  0
  146.7703  133.6238  152.0264 C   0  0  0  0  0  0  0  0  0  0  0  0
  146.6647  134.3038  153.2720 C   0  0  0  0  0  0  0  0  0  0  0  0
  147.7050  134.0887  154.0611 N   0  0  0  0  0  0  0  0  0  0  0  0
  150.0987  134.8156  155.3351 N   0  0  0  0  0  0  0  0  0  0  0  0
  150.8436  135.6048  156.6743 S   0  0  0  0  0  0  0  0  0  0  0  0
  149.9920  135.4313  157.8610 O   0  0  0  0  0  0  0  0  0  0  0  0
  152.2625  135.2174  156.6960 O   0  0  0  0  0  0  0  0  0  0  0  0
  150.7154  137.2467  156.1430 N   0  0  0  0  0  0  0  0  0  0  0  0
  151.9719  137.9925  155.9446 C   0  0  0  0  0  0  0  0  0  0  0  0
  151.6994  139.4824  155.6829 C   0  0  0  0  0  0  0  0  0  0  0  0
  150.7941  139.6307  154.6003 O   0  0  0  0  0  0  0  0  0  0  0  0
  149.5371  139.0410  154.8935 C   0  0  0  0  0  0  0  0  0  0  0  0
  149.7006  137.5284  155.1144 C   0  0  0  0  0  0  0  0  0  0  0  0
  151.1743  131.6687  156.0451 H   0  0  0  0  0  0  0  0  0  0  0  0
  151.3620  133.1231  157.0170 H   0  0  0  0  0  0  0  0  0  0  0  0
  152.1432  133.0099  155.4404 H   0  0  0  0  0  0  0  0  0  0  0  0
  149.1273  133.0692  155.9433 H   0  0  0  0  0  0  0  0  0  0  0  0
  150.5816  133.1791  153.2500 H   0  0  0  0  0  0  0  0  0  0  0  0
  149.8025  131.7482  153.8874 H   0  0  0  0  0  0  0  0  0  0  0  0
  148.4755  132.3323  151.4080 H   0  0  0  0  0  0  0  0  0  0  0  0
  146.0776  133.6185  151.1981 H   0  0  0  0  0  0  0  0  0  0  0  0
  145.8686  134.9433  153.6235 H   0  0  0  0  0  0  0  0  0  0  0  0
  150.4196  135.1865  154.4412 H   0  0  0  0  0  0  0  0  0  0  0  0
  152.6138  137.8865  156.8184 H   0  0  0  0  0  0  0  0  0  0  0  0
  152.5096  137.5582  155.1009 H   0  0  0  0  0  0  0  0  0  0  0  0
  151.2998  139.9659  156.5761 H   0  0  0  0  0  0  0  0  0  0  0  0
  152.6298  139.9942  155.4369 H   0  0  0  0  0  0  0  0  0  0  0  0
  149.0950  139.5155  155.7712 H   0  0  0  0  0  0  0  0  0  0  0  0
  148.8585  139.2249  154.0602 H   0  0  0  0  0  0  0  0  0  0  0  0
  149.9992  137.0436  154.1841 H   0  0  0  0  0  0  0  0  0  0  0  0
  148.7456  137.0937  155.4102 H   0  0  0  0  0  0  0  0  0  0  0  0
  1  2  1  0  0  0  0
  1 19  1  0  0  0  0
  1 20  1  0  0  0  0
  1 21  1  0  0  0  0
  2  3  1  0  0  0  0
  2  9  1  0  0  0  0
  2 22  1  0  0  0  0
  3  4  1  0  0  0  0
  3 23  1  0  0  0  0
  3 24  1  0  0  0  0
  4  8  1  0  0  0  0
  4  5  1  0  0  0  0
  5  6  2  0  0  0  0
  5 25  1  0  0  0  0
  6  7  1  0  0  0  0
  6 26  1  0  0  0  0
  7  8  2  0  0  0  0
  7 27  1  0  0  0  0
  9 10  1  0  0  0  0
  9 28  1  0  0  0  0
 10 11  2  0  0  0  0
 10 12  2  0  0  0  0
 10 13  1  0  0  0  0
 13 18  1  0  0  0  0
 13 14  1  0  0  0  0
 14 15  1  0  0  0  0
 14 29  1  0  0  0  0
 14 30  1  0  0  0  0
 15 16  1  0  0  0  0
 15 31  1  0  0  0  0
 15 32  1  0  0  0  0
 16 17  1  0  0  0  0
 17 18  1  0  0  0  0
 17 33  1  0  0  0  0
 17 34  1  0  0  0  0
 18 35  1  0  0  0  0
 18 36  1  0  0  0  0
M  END
> <s_m_source_file>
AV-unprocessed.smi

> <i_m_source_file_index>
1602

> <i_lp_mmshare_version>
43012

> <i_f3d_flags>
0

> <s_epik_input>
bjFbY0hdW2NIXVtjSF1uMVtDSDJdW0NAQEhdKFtDSDNdKVtOSF1TKD1PKSg9TylOMltDSDJdW0NIMl1PW0NIMl1bQ0gyXTI=

> <s_epik_cmdline>
J2VwaWtfcHl0aG9uJywgJy1waCcsICc3LjAnLCAnLXRuJywgJzgnLCAnLW1hJywgJzIwMCcsICctbWV0YWxfYmluZGluZycsICctaW1hZScsICc8aW5maWxlLm1hZT4nLCAnLW9tYWUnLCAnPG91dGZpbGUubWFlPic=

> <r_lp_tautomer_probability>
1

> <r_epik_Ionization_Penalty>
0.114248

> <r_epik_Ionization_Penalty_Charging>
0

> <r_epik_Ionization_Penalty_Neutral>
0.114248

> <r_epik_State_Penalty>
0.103909

> <r_epik_Charging_Adjusted_Penalty>
0.103909

> <i_epik_Tot_Q>
0

> <i_epik_Tot_abs_Q>
0

> <r_epik_Metal_State_Penalty>
0.436178

> <b_epik_Metal_Only>
0

> <s_lp_Force_Field>
OPLS_2005

> <r_lp_Energy>
7.48288

> <b_lp_Chiralities_Consistent>
1

> <s_lp_Variant>
AV-unprocessed.smi:1602-1

> <Gold.Version>
5.8.1

> <Gold.Id.Protein>
6NUR|6NUR_protein|mol2

> <Gold.PLP.Fitness>
38.6464

> <Gold.PLP.PLP>
-27.7562

> <Gold.PLP.part.hbond>
-3.0029

> <Gold.PLP.part.metal>
0.0000

> <Gold.PLP.part.buried>
-3.3889

> <Gold.PLP.part.nonpolar>
-21.8609

> <Gold.PLP.part.repulsive>
0.2399

> <Gold.PLP.ligand.clash>
0.0000

> <Gold.PLP.ligand.torsion>
0.7461

> <Gold.PLP.Chemscore.Hbond>
2.8800

> <Gold.PLP.Chemscore.CHOScore>
1.0000

> <Gold.PLP.Chemscore.Metal>
0.0000

> <Gold.Chemscore.Hbonds>
donor molecule, donor type, donor heavy atom, donor atom, acceptor molecule, acceptor atom, score
      P1  H  6896  6909       L1    11  0.83
      P1  H  7989  7998       L1    16  1.00
      P1  H 10752 10765       L1    12  1.00
      L1  C     5    25       P1 10747  0.70

> <Gold.PLP.Chemscore.Internal.Correction>
0.7424

> <Gold.Rescore>
     Score         DG    S(hbond)    S(metal)    S(lipo)     H(rot)  DE(clash)    DE(int)     intcor
     13.84     -15.90       2.78        0.00      52.77       1.97       0.00       2.06       ----

> <Gold.Chemscore.Fitness>
13.8370

> <Gold.Chemscore.DG>
-15.8976

> <Gold.Chemscore.ZeroCoef>
-5.4800

> <Gold.Chemscore.Hbond>
2.7769

> <Gold.Chemscore.Metal>
0.0000

> <Gold.Chemscore.Lipo>
52.7706

> <Gold.Chemscore.Internal_Hbond>
0.0000

> <Gold.Chemscore.DEClash>
0.0004

> <Gold.Chemscore.DEInternal>
2.0602

> <Gold.Chemscore.Rot>
1.9654

> <Gold.Chemscore.Internal.Correction>
   9.000000E+99

> <Gold.Chemscore.Hbonds>
donor molecule, donor type, donor heavy atom, donor atom, acceptor molecule, acceptor atom, score
      P1  H  6896  6909       L1    11  0.79
      P1  H  7989  7998       L1    16  0.45
      P1  H 10752 10765       L1    12  0.99

> <Gold.Chemscore.Hbond.Weighted>
-9.2749

> <Gold.Chemscore.Metal.Weighted>
-0.0000

> <Gold.Chemscore.Lipo.Weighted>
-6.1742

> <Gold.Chemscore.Internal_Hbond.Weighted>
0.0000

> <Gold.Chemscore.DEClash.Weighted>
0.0004

> <Gold.Chemscore.DEInternal.Weighted>
2.0602

> <Gold.Chemscore.Rot.Weighted>
5.0315

> <Gold.Chemscore.Internal.Correction.Weighted>
   9.000000E+99

> <Gold.Protein.RotatedTorsions>
[ 6907 6896 6895 6894 ] final   52.75 input  -60.11 | X-H torsion
[ 7974 7965 7964 7962 ] final -121.97 input  175.53 | X-H torsion
[ 8008 7997 7996 7995 ] final   -6.03 input   59.86 | X-H torsion
[ 10167 10162 10161 10158 ] final  135.26 input  -65.29 | X-H torsion
[ 10718 10713 10712 10709 ] final   99.02 input   66.30 | X-H torsion
[ 10763 10752 10751 10750 ] final -133.06 input  -60.55 | X-H torsion
[ 11005 11000 10999 10996 ] final  138.28 input  -57.11 | X-H torsion

> <Gold.Protein.ActiveResidues>
 VAL166  LYS551  ARG553  GLY616  TRP617  ASP618  TYR619  PRO620  LYS621  CYS622 
 ASP623  PHE694  ASN695  SER759  ASP760  ASP761  ALA762  ILE779  LEU786  VAL792 
 PHE793  MET794  SER795  GLU796  ALA797  LYS798  CYS799  TRP800  GLU811  SER814 

> <Gold.Protein.RotatedAtoms>
  152.3266  134.7313  160.0300 H   0  0  0  0  0  0  0  0  0  0  0  0  # atno 6907 bound_to 6896
  151.7744  133.3338  159.3461 H   0  0  0  0  0  0  0  0  0  0  0  0  # atno 6908 bound_to 6896
  150.7399  134.5920  159.6037 H   0  0  0  0  0  0  0  0  0  0  0  0  # atno 6909 bound_to 6896
  145.0345  140.8094  143.4303 H   0  0  0  0  0  0  0  0  0  0  0  0  # atno 7974 bound_to 7965
  154.5979  140.2443  155.7832 H   0  0  0  0  0  0  0  0  0  0  0  0  # atno 8008 bound_to 7997
  156.2291  140.2972  156.0095 H   0  0  0  0  0  0  0  0  0  0  0  0  # atno 8009 bound_to 7997
  155.2262  140.0402  157.2946 H   0  0  0  0  0  0  0  0  0  0  0  0  # atno 8010 bound_to 7997
  139.5224  144.6526  151.5258 H   0  0  0  0  0  0  0  0  0  0  0  0  # atno 10167 bound_to 10162
  157.6884  131.0657  150.4884 H   0  0  0  0  0  0  0  0  0  0  0  0  # atno 10718 bound_to 10713
  154.8737  135.3778  154.4512 H   0  0  0  0  0  0  0  0  0  0  0  0  # atno 10763 bound_to 10752
  153.5188  135.7029  153.5747 H   0  0  0  0  0  0  0  0  0  0  0  0  # atno 10764 bound_to 10752
  153.4004  135.3950  155.1949 H   0  0  0  0  0  0  0  0  0  0  0  0  # atno 10765 bound_to 10752
  140.0172  134.9413  157.0401 H   0  0  0  0  0  0  0  0  0  0  0  0  # atno 11005 bound_to 11000
  145.1727  139.2395  143.5333 LP  0  0  0  0  0  0  0  0  0  0  0  0  # atno 17320 bound_to 7965
  146.3502  140.1482  142.8593 LP  0  0  0  0  0  0  0  0  0  0  0  0  # atno 17321 bound_to 7965
  140.6337  143.9026  150.6628 LP  0  0  0  0  0  0  0  0  0  0  0  0  # atno 17342 bound_to 10162
  140.2338  143.3715  152.1543 LP  0  0  0  0  0  0  0  0  0  0  0  0  # atno 17343 bound_to 10162
  156.5212  130.4162  149.6250 LP  0  0  0  0  0  0  0  0  0  0  0  0  # atno 17370 bound_to 10713
  156.3153  130.7251  151.2152 LP  0  0  0  0  0  0  0  0  0  0  0  0  # atno 17371 bound_to 10713
  140.4449  134.1642  155.7176 LP  0  0  0  0  0  0  0  0  0  0  0  0  # atno 17394 bound_to 11000
  141.1751  133.8531  157.1448 LP  0  0  0  0  0  0  0  0  0  0  0  0  # atno 17395 bound_to 11000

$$$$
