#       Name:                AV-unprocessed.smi:3057
#       Creating user name   scv26
#       Creation time:       Fri Mar 27 17:06:52 2020


#       File generated by GOLD software.
#

@<TRIPOS>MOLECULE
AV-unprocessed.smi:3057
    45    47     1
SMALL
NO_CHARGES


@<TRIPOS>ATOM
      1 ****        -4.0426   0.5715   1.0282 C.3            1 S1                 0.0000
      2 ****        -2.7293   1.3650   0.8655 C.3            1 S1                 0.0000
      3 ****        -2.8289   2.7503   1.5234 C.3            1 S1                 0.0000
      4 ****        -2.3204   2.5180   2.9550 C.3            1 S1                 0.0000
      5 ****        -1.4459   1.2822   2.7980 C.2            1 S1                 0.0000
      6 ****        -0.6394   0.9141   3.6507 O.2            1 S1                 0.0000
      7 ****        -1.6465   0.7279   1.5920 N.am           1 S1                 0.0000
      8 ****        -0.8156  -0.2263   0.8416 C.3            1 S1                 0.0000
      9 ****         0.6911   0.0959   0.8653 C.2            1 S1                 0.0000
     10 ****         1.0863   1.2624   0.8445 O.2            1 S1                 0.0000
     11 ****         1.5200  -0.9591   0.8674 N.am           1 S1                 0.0000
     12 ****         2.9787  -0.8903   0.8572 C.3            1 S1                 0.0000
     13 ****         3.5623  -0.3792  -0.4774 C.3            1 S1                 0.0000
     14 ****         2.9767  -1.0563  -1.7054 C.ar           1 S1                 0.0000
     15 ****         2.0445  -0.3810  -2.5227 C.ar           1 S1                 0.0000
     16 ****         1.5186  -1.0556  -3.6408 C.ar           1 S1                 0.0000
     17 ****         1.9454  -2.3722  -3.8997 C.ar           1 S1                 0.0000
     18 ****         2.8840  -2.9569  -3.0259 C.ar           1 S1                 0.0000
     19 ****         3.3937  -2.3191  -1.9498 N.ar           1 S1                 0.0000
     20 ****        -1.3704  -0.2530  -0.5995 C.3            1 S1                 0.0000
     21 ****        -2.1656   1.3572  -0.8490 S.3            1 S1                 0.0000
     22 ****        -4.3549   0.5226   2.0719 H              1 S1                 0.0000
     23 ****        -3.9471  -0.4539   0.6713 H              1 S1                 0.0000
     24 ****        -4.8512   1.0388   0.4658 H              1 S1                 0.0000
     25 ****        -2.1761   3.4628   1.0163 H              1 S1                 0.0000
     26 ****        -3.8403   3.1576   1.5002 H              1 S1                 0.0000
     27 ****        -1.7575   3.3696   3.3378 H              1 S1                 0.0000
     28 ****        -3.1391   2.2968   3.6404 H              1 S1                 0.0000
     29 ****        -0.9554  -1.2101   1.2925 H              1 S1                 0.0000
     30 ****         1.1103  -1.8821   0.8724 H              1 S1                 0.0000
     31 ****         3.3318  -0.2766   1.6872 H              1 S1                 0.0000
     32 ****         3.3452  -1.8999   1.0447 H              1 S1                 0.0000
     33 ****         3.3995   0.6960  -0.5594 H              1 S1                 0.0000
     34 ****         4.6445  -0.5146  -0.4795 H              1 S1                 0.0000
     35 ****         1.7310   0.6270  -2.2930 H              1 S1                 0.0000
     36 ****         0.7995  -0.5724  -4.2858 H              1 S1                 0.0000
     37 ****         1.5630  -2.9207  -4.7476 H              1 S1                 0.0000
     38 ****         3.2336  -3.9646  -3.1954 H              1 S1                 0.0000
     39 ****        -0.6104  -0.4355  -1.3595 H              1 S1                 0.0000
     40 ****        -2.1233  -1.0346  -0.7003 H              1 S1                 0.0000
     41 ****        -0.5343   1.4353   4.4976 LP             1 S1                 0.0000
     42 ****        -0.0888   0.0936   3.4970 LP             1 S1                 0.0000
     43 ****         0.4267   2.0132   0.8119 LP             1 S1                 0.0000
     44 ****         2.0668   1.4585   0.8603 LP             1 S1                 0.0000
     45 ****         4.0589  -2.7670  -1.3523 LP             1 S1                 0.0000
@<TRIPOS>BOND
    1    1    2 1     
    2    1   22 1     
    3    1   23 1     
    4    1   24 1     
    5    2    7 1     
    6    2   21 1     
    7    2    3 1     
    8    3    4 1     
    9    3   25 1     
   10    3   26 1     
   11    4    5 1     
   12    4   27 1     
   13    4   28 1     
   14    5    6 2     
   15    5    7 am    
   16    7    8 1     
   17    8    9 1     
   18    8   20 1     
   19    8   29 1     
   20    9   10 2     
   21    9   11 am    
   22   11   12 1     
   23   11   30 1     
   24   12   13 1     
   25   12   31 1     
   26   12   32 1     
   27   13   14 1     
   28   13   33 1     
   29   13   34 1     
   30   14   19 ar    
   31   14   15 ar    
   32   15   16 ar    
   33   15   35 1     
   34   16   17 ar    
   35   16   36 1     
   36   17   18 ar    
   37   17   37 1     
   38   18   19 ar    
   39   18   38 1     
   40   20   21 1     
   41   20   39 1     
   42   20   40 1     
   43    6   41 1     
   44    6   42 1     
   45   10   43 1     
   46   10   44 1     
   47   19   45 1     
@<TRIPOS>SUBSTRUCTURE
      1 S1             1
@<TRIPOS>SET
LONE_PAIRS      STATIC     ATOMS    <user>   **** ""
5 41 42 43 44 45
DONOR_HYDROGENS      STATIC     ATOMS    <user>   **** ""
1 30
ATOM$BLUE        STATIC     ATOMS    COLORGROUP SYSTEM
5 41 42 43 44 45
ATOM$RED        STATIC     ATOMS    COLORGROUP SYSTEM
1 30
