AV-unprocessed.smi:2658|AV-procd|sdf|10309|dock7
  -GOLD-   2272014323D 1   1.00000     0.00000
 Structure written by MMmdl.
 46 48  0  0  0  0  0  0  0  0  1 V2000
  153.9950  141.5565  161.6654 C   0  0  0  0  0  0  0  0  0  0  0  0
  153.2744  141.3084  160.3519 C   0  0  0  0  0  0  0  0  0  0  0  0
  152.5988  142.3803  159.7265 C   0  0  0  0  0  0  0  0  0  0  0  0
  151.9214  142.1937  158.5020 C   0  0  0  0  0  0  0  0  0  0  0  0
  151.2083  143.0900  157.7245 N   0  0  0  0  0  0  0  0  0  0  0  0
  150.8266  142.3192  156.7103 C   0  0  0  0  0  0  0  0  0  0  0  0
  151.2081  141.0278  156.7392 N   0  0  0  0  0  0  0  0  0  0  0  0
  150.9197  140.0066  155.7481 C   0  0  0  0  0  0  0  0  0  0  0  0
  149.8387  140.4448  154.7407 C   0  0  1  0  0  0  0  0  0  0  0  0
  149.6964  139.4651  153.7309 O   0  0  0  0  0  0  0  0  0  0  0  0
  148.4724  140.6554  155.4092 C   0  0  0  0  0  0  0  0  0  0  0  0
  147.5576  141.1716  154.4464 O   0  0  0  0  0  0  0  0  0  0  0  0
  146.5916  142.0614  154.8687 C   0  0  0  0  0  0  0  0  0  0  0  0
  146.0479  142.9678  153.9389 C   0  0  0  0  0  0  0  0  0  0  0  0
  145.0688  143.8697  154.3962 C   0  0  0  0  0  0  0  0  0  0  0  0
  144.4369  144.8743  153.4510 C   0  0  0  0  0  0  0  0  0  0  0  0
  144.7102  143.7936  155.7607 C   0  0  0  0  0  0  0  0  0  0  0  0
  143.6708  144.7192  156.3657 C   0  0  0  0  0  0  0  0  0  0  0  0
  145.2678  142.8968  156.6070 N   0  0  0  0  0  0  0  0  0  0  0  0
  146.1956  142.0403  156.1678 N   0  0  0  0  0  0  0  0  0  0  0  0
  151.9386  140.8947  157.9146 C   0  0  0  0  0  0  0  0  0  0  0  0
  152.6036  139.8188  158.5289 C   0  0  0  0  0  0  0  0  0  0  0  0
  153.2753  140.0228  159.7529 C   0  0  0  0  0  0  0  0  0  0  0  0
  153.9911  138.8557  160.4095 C   0  0  0  0  0  0  0  0  0  0  0  0
  153.8976  142.5949  161.9833 H   0  0  0  0  0  0  0  0  0  0  0  0
  155.0581  141.3371  161.5651 H   0  0  0  0  0  0  0  0  0  0  0  0
  153.5832  140.9254  162.4532 H   0  0  0  0  0  0  0  0  0  0  0  0
  152.5971  143.3594  160.1824 H   0  0  0  0  0  0  0  0  0  0  0  0
  150.2350  142.7164  155.8985 H   0  0  0  0  0  0  0  0  0  0  0  0
  151.8456  139.7550  155.2287 H   0  0  0  0  0  0  0  0  0  0  0  0
  150.6034  139.1046  156.2732 H   0  0  0  0  0  0  0  0  0  0  0  0
  150.1450  141.3721  154.2548 H   0  0  0  0  0  0  0  0  0  0  0  0
  149.7120  139.8959  152.8901 H   0  0  0  0  0  0  0  0  0  0  0  0
  148.0930  139.7041  155.7872 H   0  0  0  0  0  0  0  0  0  0  0  0
  148.5764  141.3348  156.2577 H   0  0  0  0  0  0  0  0  0  0  0  0
  146.3746  142.9667  152.9093 H   0  0  0  0  0  0  0  0  0  0  0  0
  143.3544  144.7456  153.4253 H   0  0  0  0  0  0  0  0  0  0  0  0
  144.8150  144.7518  152.4356 H   0  0  0  0  0  0  0  0  0  0  0  0
  144.6570  145.8921  153.7742 H   0  0  0  0  0  0  0  0  0  0  0  0
  143.9639  145.7604  156.2316 H   0  0  0  0  0  0  0  0  0  0  0  0
  143.5498  144.5399  157.4349 H   0  0  0  0  0  0  0  0  0  0  0  0
  142.7031  144.5675  155.8871 H   0  0  0  0  0  0  0  0  0  0  0  0
  152.5967  138.8457  158.0603 H   0  0  0  0  0  0  0  0  0  0  0  0
  153.9035  137.9475  159.8125 H   0  0  0  0  0  0  0  0  0  0  0  0
  153.5665  138.6525  161.3929 H   0  0  0  0  0  0  0  0  0  0  0  0
  155.0521  139.0762  160.5287 H   0  0  0  0  0  0  0  0  0  0  0  0
  1  2  1  0  0  0  0
  1 25  1  0  0  0  0
  1 26  1  0  0  0  0
  1 27  1  0  0  0  0
  2 23  1  0  0  0  0
  2  3  2  0  0  0  0
  3  4  1  0  0  0  0
  3 28  1  0  0  0  0
  4 21  2  0  0  0  0
  4  5  1  0  0  0  0
  5  6  2  0  0  0  0
  6  7  1  0  0  0  0
  6 29  1  0  0  0  0
  7  8  1  0  0  0  0
  7 21  1  0  0  0  0
  8  9  1  0  0  0  0
  8 30  1  0  0  0  0
  8 31  1  0  0  0  0
  9 10  1  0  0  0  0
  9 11  1  0  0  0  0
  9 32  1  0  0  0  0
 10 33  1  0  0  0  0
 11 12  1  0  0  0  0
 11 34  1  0  0  0  0
 11 35  1  0  0  0  0
 12 13  1  0  0  0  0
 13 20  1  0  0  0  0
 13 14  2  0  0  0  0
 14 15  1  0  0  0  0
 14 36  1  0  0  0  0
 15 16  1  0  0  0  0
 15 17  2  0  0  0  0
 16 37  1  0  0  0  0
 16 38  1  0  0  0  0
 16 39  1  0  0  0  0
 17 18  1  0  0  0  0
 17 19  1  0  0  0  0
 18 40  1  0  0  0  0
 18 41  1  0  0  0  0
 18 42  1  0  0  0  0
 19 20  2  0  0  0  0
 21 22  1  0  0  0  0
 22 23  2  0  0  0  0
 22 43  1  0  0  0  0
 23 24  1  0  0  0  0
 24 44  1  0  0  0  0
 24 45  1  0  0  0  0
 24 46  1  0  0  0  0
M  END
> <s_m_source_file>
AV-unprocessed.smi

> <i_m_source_file_index>
2658

> <i_lp_mmshare_version>
43012

> <i_f3d_flags>
0

> <s_epik_input>
W0NIM11jKFtjSF0xKWMoW0NIM10pW2NIXWMoYzEyKW4oW2NIXW4yKVtDSDJdW0NASF0oW09IXSlbQ0gyXU9jM1tjSF1jKFtDSDNdKWMoW0NIM10pbm4z

> <s_epik_cmdline>
J2VwaWtfcHl0aG9uJywgJy1waCcsICc3LjAnLCAnLXRuJywgJzgnLCAnLW1hJywgJzIwMCcsICctbWV0YWxfYmluZGluZycsICctaW1hZScsICc8aW5maWxlLm1hZT4nLCAnLW9tYWUnLCAnPG91dGZpbGUubWFlPic=

> <r_lp_tautomer_probability>
1

> <r_epik_Ionization_Penalty>
0.110663

> <r_epik_Ionization_Penalty_Charging>
0

> <r_epik_Ionization_Penalty_Neutral>
0.110663

> <r_epik_State_Penalty>
0.100267

> <r_epik_Charging_Adjusted_Penalty>
0.100267

> <i_epik_Tot_Q>
0

> <i_epik_Tot_abs_Q>
0

> <r_epik_Metal_State_Penalty>
0.0843924

> <b_epik_Metal_Only>
0

> <s_lp_Force_Field>
OPLS_2005

> <r_lp_Energy>
13.1317

> <b_lp_Chiralities_Consistent>
1

> <s_lp_Variant>
AV-unprocessed.smi:2658-2

> <Gold.Version>
5.8.1

> <Gold.Id.Protein>
6NUR|6NUR_protein|mol2

> <Gold.PLP.Fitness>
53.4507

> <Gold.PLP.PLP>
-48.8398

> <Gold.PLP.part.hbond>
-1.5111

> <Gold.PLP.part.metal>
0.0000

> <Gold.PLP.part.buried>
-6.3217

> <Gold.PLP.part.nonpolar>
-41.1727

> <Gold.PLP.part.repulsive>
0.4969

> <Gold.PLP.ligand.clash>
0.0000

> <Gold.PLP.ligand.torsion>
0.7370

> <Gold.PLP.Chemscore.Hbond>
1.0000

> <Gold.PLP.Chemscore.CHOScore>
1.0000

> <Gold.PLP.Chemscore.Metal>
0.0000

> <Gold.Chemscore.Hbonds>
donor molecule, donor type, donor heavy atom, donor atom, acceptor molecule, acceptor atom, score
      L1  H    10    33       P1  7957  1.00
      L1  C     6    29       P1  8028  1.00

> <Gold.PLP.Chemscore.Internal.Correction>
0.0849

> <Gold.Rescore>
     Score         DG    S(hbond)    S(metal)    S(lipo)     H(rot)  DE(clash)    DE(int)     intcor
     15.31     -16.14       1.00        0.00     115.05       2.40       0.17       0.66       ----

> <Gold.Chemscore.Fitness>
15.3084

> <Gold.Chemscore.DG>
-16.1389

> <Gold.Chemscore.ZeroCoef>
-5.4800

> <Gold.Chemscore.Hbond>
0.9994

> <Gold.Chemscore.Metal>
0.0000

> <Gold.Chemscore.Lipo>
115.0462

> <Gold.Chemscore.Internal_Hbond>
0.0000

> <Gold.Chemscore.DEClash>
0.1660

> <Gold.Chemscore.DEInternal>
0.6645

> <Gold.Chemscore.Rot>
2.3983

> <Gold.Chemscore.Internal.Correction>
   9.000000E+99

> <Gold.Chemscore.Hbonds>
donor molecule, donor type, donor heavy atom, donor atom, acceptor molecule, acceptor atom, score
      L1  H    10    33       P1  7957  0.99

> <Gold.Chemscore.Hbond.Weighted>
-3.3381

> <Gold.Chemscore.Metal.Weighted>
-0.0000

> <Gold.Chemscore.Lipo.Weighted>
-13.4604

> <Gold.Chemscore.Internal_Hbond.Weighted>
0.0000

> <Gold.Chemscore.DEClash.Weighted>
0.1660

> <Gold.Chemscore.DEInternal.Weighted>
0.6645

> <Gold.Chemscore.Rot.Weighted>
6.1397

> <Gold.Chemscore.Internal.Correction.Weighted>
   9.000000E+99

> <Gold.Protein.RotatedTorsions>
[ 6907 6896 6895 6894 ] final  -11.25 input  -60.11 | X-H torsion
[ 7974 7965 7964 7962 ] final   11.13 input  175.53 | X-H torsion
[ 8008 7997 7996 7995 ] final  -57.32 input   59.86 | X-H torsion
[ 10167 10162 10161 10158 ] final   -1.31 input  -65.29 | X-H torsion
[ 10718 10713 10712 10709 ] final  -66.58 input   66.30 | X-H torsion
[ 10763 10752 10751 10750 ] final   31.90 input  -60.55 | X-H torsion
[ 11005 11000 10999 10996 ] final  128.94 input  -57.11 | X-H torsion

> <Gold.Protein.ActiveResidues>
 VAL166  LYS551  ARG553  GLY616  TRP617  ASP618  TYR619  PRO620  LYS621  CYS622 
 ASP623  PHE694  ASN695  SER759  ASP760  ASP761  ALA762  ILE779  LEU786  VAL792 
 PHE793  MET794  SER795  GLU796  ALA797  LYS798  CYS799  TRP800  GLU811  SER814 

> <Gold.Protein.RotatedAtoms>
  151.3892  135.0953  159.9520 H   0  0  0  0  0  0  0  0  0  0  0  0  # atno 6907 bound_to 6896
  152.5085  133.8997  159.7445 H   0  0  0  0  0  0  0  0  0  0  0  0  # atno 6908 bound_to 6896
  150.9446  133.6561  159.2812 H   0  0  0  0  0  0  0  0  0  0  0  0  # atno 6909 bound_to 6896
  146.2376  139.9532  142.8468 H   0  0  0  0  0  0  0  0  0  0  0  0  # atno 7974 bound_to 7965
  154.4263  140.1109  156.5779 H   0  0  0  0  0  0  0  0  0  0  0  0  # atno 8008 bound_to 7997
  155.6143  140.3494  155.4613 H   0  0  0  0  0  0  0  0  0  0  0  0  # atno 8009 bound_to 7997
  156.0074  140.1212  157.0477 H   0  0  0  0  0  0  0  0  0  0  0  0  # atno 8010 bound_to 7997
  140.6805  143.6791  150.8121 H   0  0  0  0  0  0  0  0  0  0  0  0  # atno 10167 bound_to 10162
  156.0605  130.4264  150.1729 H   0  0  0  0  0  0  0  0  0  0  0  0  # atno 10718 bound_to 10713
  153.0291  135.6427  154.1271 H   0  0  0  0  0  0  0  0  0  0  0  0  # atno 10763 bound_to 10752
  154.0996  135.2860  155.3256 H   0  0  0  0  0  0  0  0  0  0  0  0  # atno 10764 bound_to 10752
  154.6408  135.5460  153.7850 H   0  0  0  0  0  0  0  0  0  0  0  0  # atno 10765 bound_to 10752
  139.9588  134.9607  156.9076 H   0  0  0  0  0  0  0  0  0  0  0  0  # atno 11005 bound_to 11000
  145.1842  140.9781  143.4248 LP  0  0  0  0  0  0  0  0  0  0  0  0  # atno 17320 bound_to 7965
  144.9915  139.3685  143.6212 LP  0  0  0  0  0  0  0  0  0  0  0  0  # atno 17321 bound_to 7965
  140.0490  143.5269  152.2682 LP  0  0  0  0  0  0  0  0  0  0  0  0  # atno 17342 bound_to 10162
  139.6124  144.7612  151.2922 LP  0  0  0  0  0  0  0  0  0  0  0  0  # atno 17343 bound_to 10162
  156.9798  130.9860  151.3440 LP  0  0  0  0  0  0  0  0  0  0  0  0  # atno 17370 bound_to 10713
  157.5609  130.8245  149.8265 LP  0  0  0  0  0  0  0  0  0  0  0  0  # atno 17371 bound_to 10713
  140.5547  134.0592  155.7380 LP  0  0  0  0  0  0  0  0  0  0  0  0  # atno 17394 bound_to 11000
  141.1263  133.9378  157.2628 LP  0  0  0  0  0  0  0  0  0  0  0  0  # atno 17395 bound_to 11000

$$$$
