AV-unprocessed.smi:2005|AV-procd|sdf|8127|dock3
  -GOLD-   2272010363D 1   1.00000     0.00000
 Structure written by MMmdl.
 38 39  0  0  0  0  0  0  0  0  2 V2000
  152.6698  130.1506  156.6890 C   0  0  0  0  0  0  0  0  0  0  0  0
  151.5509  129.9281  155.6610 C   0  0  0  0  0  0  0  0  0  0  0  0
  152.0044  129.1107  154.4426 C   0  0  0  0  0  0  0  0  0  0  0  0
  150.8864  131.2101  155.2669 C   0  0  0  0  0  0  0  0  0  0  0  0
  151.2175  132.3953  155.7887 N   0  0  0  0  0  0  0  0  0  0  0  0
  150.4535  133.4294  155.2684 N   0  0  0  0  0  0  0  0  0  0  0  0
  149.5491  133.0146  154.3703 C   0  0  0  0  0  0  0  0  0  0  0  0
  148.7078  133.8597  153.7520 N   0  5  0  0  0  0  0  0  0  0  0  0
  147.6773  133.3727  153.0231 C   0  0  0  0  0  0  0  0  0  0  0  0
  147.1825  132.2472  153.1198 O   0  0  0  0  0  0  0  0  0  0  0  0
  147.1898  134.2445  152.1281 N   0  0  0  0  0  0  0  0  0  0  0  0
  146.0808  134.0052  151.2081 C   0  0  2  0  0  0  0  0  0  0  0  0
  144.7809  133.8020  152.0099 C   0  0  0  0  0  0  0  0  0  0  0  0
  143.5937  133.4830  151.0867 C   0  0  0  0  0  0  0  0  0  0  0  0
  143.8912  132.2563  150.2075 C   0  0  1  0  0  0  0  0  0  0  0  0
  142.8096  132.0321  149.3277 O   0  0  0  0  0  0  0  0  0  0  0  0
  145.1809  132.4602  149.3947 C   0  0  0  0  0  0  0  0  0  0  0  0
  146.3703  132.7807  150.3142 C   0  0  0  0  0  0  0  0  0  0  0  0
  149.5967  131.2770  154.0764 S   0  0  0  0  0  0  0  0  0  0  0  0
  152.2901  130.6568  157.5773 H   0  0  0  0  0  0  0  0  0  0  0  0
  153.4731  130.7611  156.2753 H   0  0  0  0  0  0  0  0  0  0  0  0
  153.1036  129.2029  157.0088 H   0  0  0  0  0  0  0  0  0  0  0  0
  150.7894  129.3301  156.1632 H   0  0  0  0  0  0  0  0  0  0  0  0
  151.1663  128.9014  153.7771 H   0  0  0  0  0  0  0  0  0  0  0  0
  152.4305  128.1547  154.7477 H   0  0  0  0  0  0  0  0  0  0  0  0
  152.7624  129.6432  153.8671 H   0  0  0  0  0  0  0  0  0  0  0  0
  147.6275  135.1530  152.0854 H   0  0  0  0  0  0  0  0  0  0  0  0
  145.9503  134.8838  150.5732 H   0  0  0  0  0  0  0  0  0  0  0  0
  144.9106  132.9879  152.7244 H   0  0  0  0  0  0  0  0  0  0  0  0
  144.5603  134.6950  152.5958 H   0  0  0  0  0  0  0  0  0  0  0  0
  142.6982  133.3087  151.6842 H   0  0  0  0  0  0  0  0  0  0  0  0
  143.3832  134.3490  150.4572 H   0  0  0  0  0  0  0  0  0  0  0  0
  143.9977  131.3747  150.8408 H   0  0  0  0  0  0  0  0  0  0  0  0
  142.2203  132.7689  149.3843 H   0  0  0  0  0  0  0  0  0  0  0  0
  145.4002  131.5679  148.8072 H   0  0  0  0  0  0  0  0  0  0  0  0
  145.0463  133.2758  148.6826 H   0  0  0  0  0  0  0  0  0  0  0  0
  147.2601  132.9572  149.7090 H   0  0  0  0  0  0  0  0  0  0  0  0
  146.5895  131.9126  150.9376 H   0  0  0  0  0  0  0  0  0  0  0  0
  1  2  1  0  0  0  0
  1 20  1  0  0  0  0
  1 21  1  0  0  0  0
  1 22  1  0  0  0  0
  2  3  1  0  0  0  0
  2  4  1  0  0  0  0
  2 23  1  0  0  0  0
  3 24  1  0  0  0  0
  3 25  1  0  0  0  0
  3 26  1  0  0  0  0
  4 19  1  0  0  0  0
  4  5  2  0  0  0  0
  5  6  1  0  0  0  0
  6  7  2  0  0  0  0
  7  8  1  0  0  0  0
  7 19  1  0  0  0  0
  8  9  1  0  0  0  0
  9 10  2  0  0  0  0
  9 11  1  0  0  0  0
 11 12  1  0  0  0  0
 11 27  1  0  0  0  0
 12 18  1  0  0  0  0
 12 13  1  0  0  0  0
 12 28  1  0  0  0  0
 13 14  1  0  0  0  0
 13 29  1  0  0  0  0
 13 30  1  0  0  0  0
 14 15  1  0  0  0  0
 14 31  1  0  0  0  0
 14 32  1  0  0  0  0
 15 16  1  0  0  0  0
 15 17  1  0  0  0  0
 15 33  1  0  0  0  0
 16 34  1  0  0  0  0
 17 18  1  0  0  0  0
 17 35  1  0  0  0  0
 17 36  1  0  0  0  0
 18 37  1  0  0  0  0
 18 38  1  0  0  0  0
M  CHG  1   8  -1
M  END
> <s_m_source_file>
AV-unprocessed.smi

> <i_m_source_file_index>
2005

> <i_lp_mmshare_version>
43012

> <i_f3d_flags>
0

> <s_epik_input>
W0NIM11bQ0hdKFtDSDNdKWMxbm5jKHMxKVtOSF1DKD1PKVtOSF1bQ0BASF0yW0NIMl1bQ0gyXVtDQEBIXShbT0hdKVtDSDJdW0NIMl0y

> <s_epik_cmdline>
J2VwaWtfcHl0aG9uJywgJy1waCcsICc3LjAnLCAnLXRuJywgJzgnLCAnLW1hJywgJzIwMCcsICctbWV0YWxfYmluZGluZycsICctaW1hZScsICc8aW5maWxlLm1hZT4nLCAnLW9tYWUnLCAnPG91dGZpbGUubWFlPic=

> <r_lp_tautomer_probability>
1

> <r_epik_Ionization_Penalty>
4.58298

> <r_epik_Ionization_Penalty_Charging>
4.41114

> <r_epik_Ionization_Penalty_Neutral>
0.171842

> <r_epik_State_Penalty>
4.41079

> <r_epik_Charging_Adjusted_Penalty>
8.82193

> <i_epik_Tot_Q>
-1

> <i_epik_Tot_abs_Q>
1

> <r_epik_Metal_State_Penalty>
0.7766

> <b_epik_Metal_Only>
1

> <s_lp_Force_Field>
OPLS_2005

> <r_lp_Energy>
-0.643196

> <b_lp_Chiralities_Consistent>
1

> <s_lp_Variant>
AV-unprocessed.smi:2005-3

> <Gold.Version>
5.8.1

> <Gold.Id.Protein>
6NUR|6NUR_protein|mol2

> <Gold.PLP.Fitness>
42.4910

> <Gold.PLP.PLP>
-33.8851

> <Gold.PLP.part.hbond>
-4.0000

> <Gold.PLP.part.metal>
0.0000

> <Gold.PLP.part.buried>
-2.3802

> <Gold.PLP.part.nonpolar>
-27.6233

> <Gold.PLP.part.repulsive>
0.9730

> <Gold.PLP.ligand.clash>
0.0000

> <Gold.PLP.ligand.torsion>
0.2360

> <Gold.PLP.Chemscore.Hbond>
2.9913

> <Gold.PLP.Chemscore.CHOScore>
0.0000

> <Gold.PLP.Chemscore.Metal>
0.0000

> <Gold.Chemscore.Hbonds>
donor molecule, donor type, donor heavy atom, donor atom, acceptor molecule, acceptor atom, score
      L1  H    11    27       P1  7948  1.00
      L1  H    16    34       P1 10186  0.96
      P1  H 10785 10796       L1    16  1.00

> <Gold.PLP.Chemscore.Internal.Correction>
0.1041

> <Gold.Rescore>
     Score         DG    S(hbond)    S(metal)    S(lipo)     H(rot)  DE(clash)    DE(int)     intcor
     13.87     -16.84       2.23        0.00      70.53       1.70       0.00       2.97       ----

> <Gold.Chemscore.Fitness>
13.8682

> <Gold.Chemscore.DG>
-16.8387

> <Gold.Chemscore.ZeroCoef>
-5.4800

> <Gold.Chemscore.Hbond>
2.2309

> <Gold.Chemscore.Metal>
0.0000

> <Gold.Chemscore.Lipo>
70.5256

> <Gold.Chemscore.Internal_Hbond>
0.0000

> <Gold.Chemscore.DEClash>
0.0021

> <Gold.Chemscore.DEInternal>
2.9684

> <Gold.Chemscore.Rot>
1.6968

> <Gold.Chemscore.Internal.Correction>
   9.000000E+99

> <Gold.Chemscore.Hbonds>
donor molecule, donor type, donor heavy atom, donor atom, acceptor molecule, acceptor atom, score
      L1  H    11    27       P1  7948  0.93
      L1  H    16    34       P1 10186  0.91
      P1  H 10785 10796       L1    16  0.28

> <Gold.Chemscore.Hbond.Weighted>
-7.4511

> <Gold.Chemscore.Metal.Weighted>
-0.0000

> <Gold.Chemscore.Lipo.Weighted>
-8.2515

> <Gold.Chemscore.Internal_Hbond.Weighted>
0.0000

> <Gold.Chemscore.DEClash.Weighted>
0.0021

> <Gold.Chemscore.DEInternal.Weighted>
2.9684

> <Gold.Chemscore.Rot.Weighted>
4.3439

> <Gold.Chemscore.Internal.Correction.Weighted>
   9.000000E+99

> <Gold.Protein.RotatedTorsions>
[ 6907 6896 6895 6894 ] final   86.38 input  -60.11 | X-H torsion
[ 7974 7965 7964 7962 ] final -101.71 input  175.53 | X-H torsion
[ 8008 7997 7996 7995 ] final  155.15 input   59.86 | X-H torsion
[ 10167 10162 10161 10158 ] final -101.25 input  -65.29 | X-H torsion
[ 10718 10713 10712 10709 ] final  -11.39 input   66.30 | X-H torsion
[ 10763 10752 10751 10750 ] final   56.92 input  -60.55 | X-H torsion
[ 11005 11000 10999 10996 ] final  100.89 input  -57.11 | X-H torsion

> <Gold.Protein.ActiveResidues>
 VAL166  LYS551  ARG553  GLY616  TRP617  ASP618  TYR619  PRO620  LYS621  CYS622 
 ASP623  PHE694  ASN695  SER759  ASP760  ASP761  ALA762  ILE779  LEU786  VAL792 
 PHE793  MET794  SER795  GLU796  ALA797  LYS798  CYS799  TRP800  GLU811  SER814 

> <Gold.Protein.RotatedAtoms>
  152.5393  134.2440  159.8872 H   0  0  0  0  0  0  0  0  0  0  0  0  # atno 6907 bound_to 6896
  151.2406  133.4395  159.2615 H   0  0  0  0  0  0  0  0  0  0  0  0  # atno 6908 bound_to 6896
  151.0630  134.9763  159.8326 H   0  0  0  0  0  0  0  0  0  0  0  0  # atno 6909 bound_to 6896
  145.2781  140.9318  143.2948 H   0  0  0  0  0  0  0  0  0  0  0  0  # atno 7974 bound_to 7965
  156.2493  140.1947  156.6757 H   0  0  0  0  0  0  0  0  0  0  0  0  # atno 8008 bound_to 7997
  154.6360  140.0589  156.9814 H   0  0  0  0  0  0  0  0  0  0  0  0  # atno 8009 bound_to 7997
  155.1637  140.3262  155.4409 H   0  0  0  0  0  0  0  0  0  0  0  0  # atno 8010 bound_to 7997
  140.2433  143.3523  152.0782 H   0  0  0  0  0  0  0  0  0  0  0  0  # atno 10167 bound_to 10162
  156.6598  130.4978  149.6034 H   0  0  0  0  0  0  0  0  0  0  0  0  # atno 10718 bound_to 10713
  152.9840  135.5660  154.5306 H   0  0  0  0  0  0  0  0  0  0  0  0  # atno 10763 bound_to 10752
  154.4778  135.2787  155.1595 H   0  0  0  0  0  0  0  0  0  0  0  0  # atno 10764 bound_to 10752
  154.3117  135.6287  153.5521 H   0  0  0  0  0  0  0  0  0  0  0  0  # atno 10765 bound_to 10752
  139.8772  134.9159  156.4823 H   0  0  0  0  0  0  0  0  0  0  0  0  # atno 11005 bound_to 11000
  144.9277  139.4335  143.6510 LP  0  0  0  0  0  0  0  0  0  0  0  0  # atno 17320 bound_to 7965
  146.3225  139.8171  142.8934 LP  0  0  0  0  0  0  0  0  0  0  0  0  # atno 17321 bound_to 7965
  139.5070  144.6824  151.5975 LP  0  0  0  0  0  0  0  0  0  0  0  0  # atno 17342 bound_to 10162
  140.6097  143.9459  150.6444 LP  0  0  0  0  0  0  0  0  0  0  0  0  # atno 17343 bound_to 10162
  156.2020  130.6625  151.1177 LP  0  0  0  0  0  0  0  0  0  0  0  0  # atno 17370 bound_to 10713
  157.7113  131.0732  150.6489 LP  0  0  0  0  0  0  0  0  0  0  0  0  # atno 17371 bound_to 10713
  140.8718  133.7983  155.9372 LP  0  0  0  0  0  0  0  0  0  0  0  0  # atno 17394 bound_to 11000
  140.8945  134.2455  157.5076 LP  0  0  0  0  0  0  0  0  0  0  0  0  # atno 17395 bound_to 11000

$$$$
