#       Name:                AV-unprocessed.smi:1245
#       Creating user name   scv26
#       Creation time:       Fri Mar 27 04:34:55 2020


#       File generated by GOLD software.
#

@<TRIPOS>MOLECULE
AV-unprocessed.smi:1245
    46    47     1
SMALL
NO_CHARGES


@<TRIPOS>ATOM
      1 ****        -0.6869   1.2478   1.4869 O.2            1 S1                 0.0000
      2 ****         0.0147   0.2446   1.6217 C.2            1 S1                 0.0000
      3 ****         1.5416   0.3530   1.6647 C.3            1 S1                 0.0000
      4 ****         2.0764   1.6534   1.0382 C.3            1 S1                 0.0000
      5 ****         3.9286   1.7069   1.0347 S.o2           1 S1                 0.0000
      6 ****         4.3368   3.0188   1.5597 O.2            1 S1                 0.0000
      7 ****         4.4373   0.4761   1.6600 O.2            1 S1                 0.0000
      8 ****         4.3664   1.6613  -0.7676 C.3            1 S1                 0.0000
      9 ****         3.7681   2.8390  -1.5605 C.3            1 S1                 0.0000
     10 ****         2.8749   2.2184  -2.6402 C.3            1 S1                 0.0000
     11 ****         3.4346   0.8129  -2.8517 C.3            1 S1                 0.0000
     12 ****         3.8911   0.3739  -1.4608 C.3            1 S1                 0.0000
     13 ****        -0.4904  -0.9929   1.7390 N.am           1 S1                 0.0000
     14 ****        -1.9106  -1.3247   1.7322 C.3            1 S1                 0.0000
     15 ****        -2.4885  -1.3289   0.3066 C.3            1 S1                 0.0000
     16 ****        -3.9538  -1.7187   0.2811 C.ar           1 S1                 0.0000
     17 ****        -4.9863  -0.7572   0.2250 C.ar           1 S1                 0.0000
     18 ****        -6.3294  -1.1886   0.2092 C.ar           1 S1                 0.0000
     19 ****        -6.6114  -2.5698   0.2509 C.ar           1 S1                 0.0000
     20 ****        -5.5418  -3.4863   0.3087 C.ar           1 S1                 0.0000
     21 ****        -4.2685  -3.0339   0.3227 N.pl3          1 S1                 1.0000
     22 ****         1.8633   0.2827   2.7044 H              1 S1                 0.0000
     23 ****         1.9653  -0.5072   1.1453 H              1 S1                 0.0000
     24 ****         1.7121   1.7736   0.0199 H              1 S1                 0.0000
     25 ****         1.7269   2.5173   1.6045 H              1 S1                 0.0000
     26 ****         5.4540   1.7180  -0.8276 H              1 S1                 0.0000
     27 ****         3.2121   3.5373  -0.9342 H              1 S1                 0.0000
     28 ****         4.5734   3.4053  -2.0299 H              1 S1                 0.0000
     29 ****         1.8476   2.1526  -2.2810 H              1 S1                 0.0000
     30 ****         2.8630   2.8053  -3.5590 H              1 S1                 0.0000
     31 ****         2.7040   0.1312  -3.2881 H              1 S1                 0.0000
     32 ****         4.2930   0.8564  -3.5235 H              1 S1                 0.0000
     33 ****         4.6705  -0.3876  -1.5008 H              1 S1                 0.0000
     34 ****         3.0438  -0.0599  -0.9319 H              1 S1                 0.0000
     35 ****         0.1577  -1.7594   1.8511 H              1 S1                 0.0000
     36 ****        -2.0259  -2.3099   2.1847 H              1 S1                 0.0000
     37 ****        -2.4601  -0.6262   2.3658 H              1 S1                 0.0000
     38 ****        -2.3783  -0.3446  -0.1503 H              1 S1                 0.0000
     39 ****        -1.9278  -2.0229  -0.3213 H              1 S1                 0.0000
     40 ****        -4.7550   0.2978   0.1957 H              1 S1                 0.0000
     41 ****        -7.1334  -0.4684   0.1662 H              1 S1                 0.0000
     42 ****        -7.6332  -2.9204   0.2397 H              1 S1                 0.0000
     43 ****        -5.6648  -4.5590   0.3439 H              1 S1                 0.0000
     44 ****        -3.5103  -3.7153   0.3647 H              1 S1                 0.0000
     45 ****        -0.2607   2.1485   1.4038 LP             1 S1                 0.0000
     46 ****        -1.6828   1.1615   1.4606 LP             1 S1                 0.0000
@<TRIPOS>BOND
    1    1    2 2     
    2    2    3 1     
    3    2   13 am    
    4    3    4 1     
    5    3   22 1     
    6    3   23 1     
    7    4    5 1     
    8    4   24 1     
    9    4   25 1     
   10    5    6 2     
   11    5    7 2     
   12    5    8 1     
   13    8   12 1     
   14    8    9 1     
   15    8   26 1     
   16    9   10 1     
   17    9   27 1     
   18    9   28 1     
   19   10   11 1     
   20   10   29 1     
   21   10   30 1     
   22   11   12 1     
   23   11   31 1     
   24   11   32 1     
   25   12   33 1     
   26   12   34 1     
   27   13   14 1     
   28   13   35 1     
   29   14   15 1     
   30   14   36 1     
   31   14   37 1     
   32   15   16 1     
   33   15   38 1     
   34   15   39 1     
   35   16   21 ar    
   36   16   17 ar    
   37   17   18 ar    
   38   17   40 1     
   39   18   19 ar    
   40   18   41 1     
   41   19   20 ar    
   42   19   42 1     
   43   20   21 ar    
   44   20   43 1     
   45   21   44 1     
   46    1   45 1     
   47    1   46 1     
@<TRIPOS>SUBSTRUCTURE
      1 S1             1
@<TRIPOS>SET
LONE_PAIRS      STATIC     ATOMS    <user>   **** ""
4 45 46 6 7
DONOR_HYDROGENS      STATIC     ATOMS    <user>   **** ""
2 35 44
ATOM$BLUE        STATIC     ATOMS    COLORGROUP SYSTEM
4 45 46 6 7
ATOM$RED        STATIC     ATOMS    COLORGROUP SYSTEM
2 35 44
