#       Name:                AV-unprocessed.smi:2224
#       Creating user name   scv26
#       Creation time:       Fri Mar 27 12:20:35 2020


#       File generated by GOLD software.
#

@<TRIPOS>MOLECULE
AV-unprocessed.smi:2224
    49    51     1
SMALL
NO_CHARGES


@<TRIPOS>ATOM
      1 ****        -5.1051   3.0507  -0.4513 C.3            1 S1                 0.0000
      2 ****        -4.4334   1.7028  -0.2931 C.ar           1 S1                 0.0000
      3 ****        -5.1833   0.5117  -0.3315 C.ar           1 S1                 0.0000
      4 ****        -4.4982  -0.7098  -0.1789 C.ar           1 S1                 0.0000
      5 ****        -5.2415  -2.0286  -0.2102 C.3            1 S1                 0.0000
      6 ****        -3.1621  -0.7884  -0.0008 N.ar           1 S1                 0.0000
      7 ****        -2.4299   0.3525   0.0374 C.ar           1 S1                 0.0000
      8 ****        -1.0226   0.3800   0.2240 N.am           1 S1                 0.0000
      9 ****        -0.1780  -0.6597   0.3387 C.2            1 S1                 0.0000
     10 ****        -0.4958  -1.8479   0.2807 O.2            1 S1                 0.0000
     11 ****         1.0817  -0.2394   0.5143 N.am           1 S1                 0.0000
     12 ****         2.2496  -1.1144   0.6313 C.3            1 S1                 0.0000
     13 ****         3.4339  -0.4413   1.3609 C.3            1 S1                 0.0000
     14 ****         3.3035   0.8662   2.1035 C.3            1 S1                 0.0000
     15 ****         3.7950   1.8901   1.0761 C.3            1 S1                 0.0000
     16 ****         3.6623   1.2355  -0.1841 O.3            1 S1                 0.0000
     17 ****         4.0219  -0.1330  -0.0063 C.3            1 S1                 0.0000
     18 ****         3.0982  -1.1781  -0.6672 C.3            1 S1                 0.0000
     19 ****         3.7631  -2.5358  -0.9126 C.3            1 S1                 0.0000
     20 ****         2.4510  -0.7699  -1.9978 C.3            1 S1                 0.0000
     21 ****        -3.0391   1.6194  -0.1054 C.ar           1 S1                 0.0000
     22 ****        -6.1904   2.9517  -0.4885 H              1 S1                 0.0000
     23 ****        -4.7740   3.5308  -1.3724 H              1 S1                 0.0000
     24 ****        -4.8514   3.7009   0.3862 H              1 S1                 0.0000
     25 ****        -6.2539   0.5330  -0.4744 H              1 S1                 0.0000
     26 ****        -6.3208  -1.8740  -0.2091 H              1 S1                 0.0000
     27 ****        -4.9851  -2.6326   0.6607 H              1 S1                 0.0000
     28 ****        -4.9776  -2.5886  -1.1075 H              1 S1                 0.0000
     29 ****        -0.6096   1.2993   0.2723 H              1 S1                 0.0000
     30 ****         1.2559   0.7544   0.5416 H              1 S1                 0.0000
     31 ****         2.0225  -2.0988   1.0450 H              1 S1                 0.0000
     32 ****         4.0365  -1.1842   1.8857 H              1 S1                 0.0000
     33 ****         2.2759   1.0676   2.4053 H              1 S1                 0.0000
     34 ****         3.9162   0.8913   3.0050 H              1 S1                 0.0000
     35 ****         3.2280   2.8208   1.1058 H              1 S1                 0.0000
     36 ****         4.8471   2.1250   1.2437 H              1 S1                 0.0000
     37 ****         5.0945  -0.3177  -0.0832 H              1 S1                 0.0000
     38 ****         4.5211  -2.4767  -1.6942 H              1 S1                 0.0000
     39 ****         3.0344  -3.2884  -1.2152 H              1 S1                 0.0000
     40 ****         4.2567  -2.9102  -0.0154 H              1 S1                 0.0000
     41 ****         3.1770  -0.7635  -2.8113 H              1 S1                 0.0000
     42 ****         2.0189   0.2302  -1.9567 H              1 S1                 0.0000
     43 ****         1.6503  -1.4552  -2.2770 H              1 S1                 0.0000
     44 ****        -2.4446   2.5212  -0.0738 H              1 S1                 0.0000
     45 ****        -2.7173  -1.6781   0.1018 LP             1 S1                 0.0000
     46 ****        -1.4519  -2.1033   0.1374 LP             1 S1                 0.0000
     47 ****         0.2023  -2.5574   0.3769 LP             1 S1                 0.0000
     48 ****         4.2695   1.6622  -0.8544 LP             1 S1                 0.0000
     49 ****         2.7166   1.2998  -0.5026 LP             1 S1                 0.0000
@<TRIPOS>BOND
    1    1    2 1     
    2    1   22 1     
    3    1   23 1     
    4    1   24 1     
    5    2   21 ar    
    6    2    3 ar    
    7    3    4 ar    
    8    3   25 1     
    9    4    5 1     
   10    4    6 ar    
   11    5   26 1     
   12    5   27 1     
   13    5   28 1     
   14    6    7 ar    
   15    7    8 1     
   16    7   21 ar    
   17    8    9 am    
   18    8   29 1     
   19    9   10 2     
   20    9   11 am    
   21   11   12 1     
   22   11   30 1     
   23   12   18 1     
   24   12   13 1     
   25   12   31 1     
   26   13   17 1     
   27   13   14 1     
   28   13   32 1     
   29   14   15 1     
   30   14   33 1     
   31   14   34 1     
   32   15   16 1     
   33   15   35 1     
   34   15   36 1     
   35   16   17 1     
   36   17   18 1     
   37   17   37 1     
   38   18   19 1     
   39   18   20 1     
   40   19   38 1     
   41   19   39 1     
   42   19   40 1     
   43   20   41 1     
   44   20   42 1     
   45   20   43 1     
   46   21   44 1     
   47    6   45 1     
   48   10   46 1     
   49   10   47 1     
   50   16   48 1     
   51   16   49 1     
@<TRIPOS>SUBSTRUCTURE
      1 S1             1
@<TRIPOS>SET
LONE_PAIRS      STATIC     ATOMS    <user>   **** ""
5 45 46 47 48 49
DONOR_HYDROGENS      STATIC     ATOMS    <user>   **** ""
2 29 30
ATOM$BLUE        STATIC     ATOMS    COLORGROUP SYSTEM
5 45 46 47 48 49
ATOM$RED        STATIC     ATOMS    COLORGROUP SYSTEM
2 29 30
