AV-unprocessed.smi:1936|AV-procd|sdf|7831|dock9
  -GOLD-   22720 9573D 1   1.00000     0.00000
 Structure written by MMmdl.
 39 40  0  0  0  0  0  0  0  0  2 V2000
  149.9892  133.1122  155.3434 C   0  0  0  0  0  0  0  0  0  0  0  0
  149.5719  134.1234  154.2669 C   0  0  2  0  0  0  0  0  0  0  0  0
  148.9224  135.3765  154.8962 C   0  0  0  0  0  0  0  0  0  0  0  0
  149.4797  136.6480  154.3691 N   0  3  0  0  0  0  0  0  0  0  0  0
  148.6957  137.8377  154.7745 C   0  0  0  0  0  0  0  0  0  0  0  0
  149.2830  139.1060  154.1318 C   0  0  0  0  0  0  0  0  0  0  0  0
  150.6518  139.2380  154.4956 O   0  0  0  0  0  0  0  0  0  0  0  0
  151.4325  138.1381  154.0431 C   0  0  0  0  0  0  0  0  0  0  0  0
  150.9155  136.8409  154.6869 C   0  0  0  0  0  0  0  0  0  0  0  0
  148.6640  133.4669  153.3260 N   0  0  0  0  0  0  0  0  0  0  0  0
  147.5101  132.8520  153.6361 C   0  0  0  0  0  0  0  0  0  0  0  0
  147.1066  132.7156  154.7906 O   0  0  0  0  0  0  0  0  0  0  0  0
  146.6953  132.2817  152.4714 C   0  0  0  0  0  0  0  0  0  0  0  0
  145.8547  133.2909  151.8491 N   0  0  0  0  0  0  0  0  0  0  0  0
  146.2291  134.5020  151.3045 C   0  0  0  0  0  0  0  0  0  0  0  0
  145.0959  135.1083  150.8436 C   0  0  0  0  0  0  0  0  0  0  0  0
  144.0647  134.1778  151.1527 C   0  0  0  0  0  0  0  0  0  0  0  0
  144.5221  133.0906  151.7527 N   0  0  0  0  0  0  0  0  0  0  0  0
  150.7011  133.5543  156.0411 H   0  0  0  0  0  0  0  0  0  0  0  0
  150.4662  132.2383  154.8982 H   0  0  0  0  0  0  0  0  0  0  0  0
  149.1308  132.7658  155.9202 H   0  0  0  0  0  0  0  0  0  0  0  0
  150.4822  134.4154  153.7414 H   0  0  0  0  0  0  0  0  0  0  0  0
  147.8515  135.3416  154.6885 H   0  0  0  0  0  0  0  0  0  0  0  0
  149.0196  135.3579  155.9829 H   0  0  0  0  0  0  0  0  0  0  0  0
  147.6562  137.7200  154.4661 H   0  0  0  0  0  0  0  0  0  0  0  0
  148.7019  137.9284  155.8621 H   0  0  0  0  0  0  0  0  0  0  0  0
  149.1845  139.0735  153.0453 H   0  0  0  0  0  0  0  0  0  0  0  0
  148.7399  139.9870  154.4743 H   0  0  0  0  0  0  0  0  0  0  0  0
  151.3981  138.0732  152.9543 H   0  0  0  0  0  0  0  0  0  0  0  0
  152.4735  138.3061  154.3198 H   0  0  0  0  0  0  0  0  0  0  0  0
  151.0508  136.8826  155.7688 H   0  0  0  0  0  0  0  0  0  0  0  0
  151.5025  135.9976  154.3241 H   0  0  0  0  0  0  0  0  0  0  0  0
  148.9119  133.5248  152.3486 H   0  0  0  0  0  0  0  0  0  0  0  0
  147.3717  131.8703  151.7214 H   0  0  0  0  0  0  0  0  0  0  0  0
  146.0645  131.4616  152.8183 H   0  0  0  0  0  0  0  0  0  0  0  0
  147.2588  134.8288  151.2916 H   0  0  0  0  0  0  0  0  0  0  0  0
  145.0148  136.0699  150.3588 H   0  0  0  0  0  0  0  0  0  0  0  0
  143.0047  134.2590  150.9606 H   0  0  0  0  0  0  0  0  0  0  0  0
  149.4077  136.5928  153.3627 H   0  0  0  0  0  0  0  0  0  0  0  0
  1  2  1  0  0  0  0
  1 19  1  0  0  0  0
  1 20  1  0  0  0  0
  1 21  1  0  0  0  0
  2  3  1  0  0  0  0
  2 10  1  0  0  0  0
  2 22  1  0  0  0  0
  3  4  1  0  0  0  0
  3 23  1  0  0  0  0
  3 24  1  0  0  0  0
  4  9  1  0  0  0  0
  4  5  1  0  0  0  0
  4 39  1  0  0  0  0
  5  6  1  0  0  0  0
  5 25  1  0  0  0  0
  5 26  1  0  0  0  0
  6  7  1  0  0  0  0
  6 27  1  0  0  0  0
  6 28  1  0  0  0  0
  7  8  1  0  0  0  0
  8  9  1  0  0  0  0
  8 29  1  0  0  0  0
  8 30  1  0  0  0  0
  9 31  1  0  0  0  0
  9 32  1  0  0  0  0
 10 11  1  0  0  0  0
 10 33  1  0  0  0  0
 11 12  2  0  0  0  0
 11 13  1  0  0  0  0
 13 14  1  0  0  0  0
 13 34  1  0  0  0  0
 13 35  1  0  0  0  0
 14 18  1  0  0  0  0
 14 15  1  0  0  0  0
 15 16  2  0  0  0  0
 15 36  1  0  0  0  0
 16 17  1  0  0  0  0
 16 37  1  0  0  0  0
 17 18  2  0  0  0  0
 17 38  1  0  0  0  0
M  CHG  1   4   1
M  END
> <s_m_source_file>
AV-unprocessed.smi

> <i_m_source_file_index>
1936

> <i_lp_mmshare_version>
43012

> <i_f3d_flags>
0

> <s_epik_input>
W0NIMl0xW0NIMl1PW0NIMl1bQ0gyXU4xW0NIMl1bQ0BASF0oW0NIM10pW05IXUMoPU8pW0NIMl1uMltjSF1bY0hdW2NIXW4y

> <s_epik_cmdline>
J2VwaWtfcHl0aG9uJywgJy1waCcsICc3LjAnLCAnLXRuJywgJzgnLCAnLW1hJywgJzIwMCcsICctbWV0YWxfYmluZGluZycsICctaW1hZScsICc8aW5maWxlLm1hZT4nLCAnLW9tYWUnLCAnPG91dGZpbGUubWFlPic=

> <r_lp_tautomer_probability>
1

> <r_epik_Ionization_Penalty>
0.748405

> <r_epik_Ionization_Penalty_Charging>
0.748396

> <r_epik_Ionization_Penalty_Neutral>
9.02181e-06

> <r_epik_State_Penalty>
0.775162

> <r_epik_Charging_Adjusted_Penalty>
1.52356

> <i_epik_Tot_Q>
1

> <i_epik_Tot_abs_Q>
1

> <r_epik_Metal_State_Penalty>
0.775167

> <b_epik_Metal_Only>
0

> <s_lp_Force_Field>
OPLS_2005

> <r_lp_Energy>
23.0503

> <b_lp_Chiralities_Consistent>
1

> <s_lp_Variant>
AV-unprocessed.smi:1936-3

> <Gold.Version>
5.8.1

> <Gold.Id.Protein>
6NUR|6NUR_protein|mol2

> <Gold.PLP.Fitness>
39.9770

> <Gold.PLP.PLP>
-27.7904

> <Gold.PLP.part.hbond>
-2.3157

> <Gold.PLP.part.metal>
0.0000

> <Gold.PLP.part.buried>
-3.0562

> <Gold.PLP.part.nonpolar>
-22.3921

> <Gold.PLP.part.repulsive>
0.2942

> <Gold.PLP.ligand.clash>
0.0000

> <Gold.PLP.ligand.torsion>
1.0805

> <Gold.PLP.Chemscore.Hbond>
2.7638

> <Gold.PLP.Chemscore.CHOScore>
2.0000

> <Gold.PLP.Chemscore.Metal>
0.0000

> <Gold.Chemscore.Hbonds>
donor molecule, donor type, donor heavy atom, donor atom, acceptor molecule, acceptor atom, score
      L1  H     4    39       P1  7948  2.00
      P1  H  7989  7998       L1     7  0.71
      L1  C    15    36       P1  7948  1.00
      L1  C    17    38       P1 10186  1.00

> <Gold.PLP.Chemscore.Internal.Correction>
0.0563

> <Gold.Rescore>
     Score         DG    S(hbond)    S(metal)    S(lipo)     H(rot)  DE(clash)    DE(int)     intcor
      9.45     -11.19       0.99        0.00      62.81       1.93       0.05       1.68       ----

> <Gold.Chemscore.Fitness>
9.4541

> <Gold.Chemscore.DG>
-11.1861

> <Gold.Chemscore.ZeroCoef>
-5.4800

> <Gold.Chemscore.Hbond>
0.9906

> <Gold.Chemscore.Metal>
0.0000

> <Gold.Chemscore.Lipo>
62.8078

> <Gold.Chemscore.Internal_Hbond>
0.0000

> <Gold.Chemscore.DEClash>
0.0541

> <Gold.Chemscore.DEInternal>
1.6779

> <Gold.Chemscore.Rot>
1.9340

> <Gold.Chemscore.Internal.Correction>
   9.000000E+99

> <Gold.Chemscore.Hbonds>
donor molecule, donor type, donor heavy atom, donor atom, acceptor molecule, acceptor atom, score
      L1  H     4    39       P1  7948  0.80
      P1  H  7989  7998       L1     7  0.15

> <Gold.Chemscore.Hbond.Weighted>
-3.3087

> <Gold.Chemscore.Metal.Weighted>
-0.0000

> <Gold.Chemscore.Lipo.Weighted>
-7.3485

> <Gold.Chemscore.Internal_Hbond.Weighted>
0.0000

> <Gold.Chemscore.DEClash.Weighted>
0.0541

> <Gold.Chemscore.DEInternal.Weighted>
1.6779

> <Gold.Chemscore.Rot.Weighted>
4.9510

> <Gold.Chemscore.Internal.Correction.Weighted>
   9.000000E+99

> <Gold.Protein.RotatedTorsions>
[ 6907 6896 6895 6894 ] final  163.69 input  -60.11 | X-H torsion
[ 7974 7965 7964 7962 ] final   66.35 input  175.53 | X-H torsion
[ 8008 7997 7996 7995 ] final -116.59 input   59.86 | X-H torsion
[ 10167 10162 10161 10158 ] final   46.73 input  -65.29 | X-H torsion
[ 10718 10713 10712 10709 ] final  105.77 input   66.30 | X-H torsion
[ 10763 10752 10751 10750 ] final  -90.78 input  -60.55 | X-H torsion
[ 11005 11000 10999 10996 ] final -132.14 input  -57.11 | X-H torsion

> <Gold.Protein.ActiveResidues>
 VAL166  LYS551  ARG553  GLY616  TRP617  ASP618  TYR619  PRO620  LYS621  CYS622 
 ASP623  PHE694  ASN695  SER759  ASP760  ASP761  ALA762  ILE779  LEU786  VAL792 
 PHE793  MET794  SER795  GLU796  ALA797  LYS798  CYS799  TRP800  GLU811  SER814 

> <Gold.Protein.RotatedAtoms>
  151.9213  133.3586  159.3897 H   0  0  0  0  0  0  0  0  0  0  0  0  # atno 6907 bound_to 6896
  150.7036  134.4632  159.5400 H   0  0  0  0  0  0  0  0  0  0  0  0  # atno 6908 bound_to 6896
  152.2256  134.8371  160.0531 H   0  0  0  0  0  0  0  0  0  0  0  0  # atno 6909 bound_to 6896
  145.8277  139.3121  143.1006 H   0  0  0  0  0  0  0  0  0  0  0  0  # atno 7974 bound_to 7965
  155.0702  140.0393  157.2606 H   0  0  0  0  0  0  0  0  0  0  0  0  # atno 8008 bound_to 7997
  154.6989  140.2669  155.6714 H   0  0  0  0  0  0  0  0  0  0  0  0  # atno 8009 bound_to 7997
  156.2754  140.2744  156.1593 H   0  0  0  0  0  0  0  0  0  0  0  0  # atno 8010 bound_to 7997
  140.3109  144.2821  150.6200 H   0  0  0  0  0  0  0  0  0  0  0  0  # atno 10167 bound_to 10162
  157.6693  131.0835  150.5907 H   0  0  0  0  0  0  0  0  0  0  0  0  # atno 10718 bound_to 10713
  154.6694  135.5292  153.8118 H   0  0  0  0  0  0  0  0  0  0  0  0  # atno 10763 bound_to 10752
  153.0491  135.6525  154.0749 H   0  0  0  0  0  0  0  0  0  0  0  0  # atno 10764 bound_to 10752
  154.0649  135.2959  155.3298 H   0  0  0  0  0  0  0  0  0  0  0  0  # atno 10765 bound_to 10752
  140.9196  134.1461  157.4324 H   0  0  0  0  0  0  0  0  0  0  0  0  # atno 11005 bound_to 11000
  145.9606  140.8838  143.0213 LP  0  0  0  0  0  0  0  0  0  0  0  0  # atno 17320 bound_to 7965
  144.6742  140.1807  143.7406 LP  0  0  0  0  0  0  0  0  0  0  0  0  # atno 17321 bound_to 7965
  140.5569  143.2198  151.7832 LP  0  0  0  0  0  0  0  0  0  0  0  0  # atno 17342 bound_to 10162
  139.4894  144.4402  151.9773 LP  0  0  0  0  0  0  0  0  0  0  0  0  # atno 17343 bound_to 10162
  156.6207  130.4405  149.5823 LP  0  0  0  0  0  0  0  0  0  0  0  0  # atno 17370 bound_to 10713
  156.2357  130.6821  151.1507 LP  0  0  0  0  0  0  0  0  0  0  0  0  # atno 17371 bound_to 10713
  139.8773  134.9966  156.5806 LP  0  0  0  0  0  0  0  0  0  0  0  0  # atno 17394 bound_to 11000
  140.8004  133.8509  155.8722 LP  0  0  0  0  0  0  0  0  0  0  0  0  # atno 17395 bound_to 11000

$$$$
