AV-unprocessed.smi:1475|AV-procd|sdf|5977|dock3
  -GOLD-   22720 6 63D 1   1.00000     0.00000
 Structure written by MMmdl.
 50 51  0  0  0  0  0  0  0  0  2 V2000
  147.3873  136.8078  162.7470 C   0  0  0  0  0  0  0  0  0  0  0  0
  147.3701  135.4944  162.0222 C   0  0  0  0  0  0  0  0  0  0  0  0
  146.8800  134.2406  162.4823 C   0  0  0  0  0  0  0  0  0  0  0  0
  147.1014  133.3871  161.4384 C   0  0  0  0  0  0  0  0  0  0  0  0
  146.8010  131.9298  161.3065 C   0  0  0  0  0  0  0  0  0  0  0  0
  147.6944  134.1299  160.4322 N   0  0  0  0  0  0  0  0  0  0  0  0
  148.1226  133.7068  159.1085 C   0  0  0  0  0  0  0  0  0  0  0  0
  147.2412  134.3279  158.0243 C   0  0  0  0  0  0  0  0  0  0  0  0
  147.3852  135.5101  157.7135 O   0  0  0  0  0  0  0  0  0  0  0  0
  146.3358  133.5192  157.4521 N   0  0  0  0  0  0  0  0  0  0  0  0
  145.4342  133.9036  156.3730 C   0  0  0  0  0  0  0  0  0  0  0  0
  145.9064  133.3558  155.0111 C   0  0  0  0  0  0  0  0  0  0  0  0
  144.8999  133.5491  153.9374 N   0  3  1  0  0  0  0  0  0  0  0  0
  144.5393  134.9808  153.7645 C   0  0  0  0  0  0  0  0  0  0  0  0
  143.3886  135.1640  152.7557 C   0  0  2  0  0  0  0  0  0  0  0  0
  142.0357  134.7059  153.3278 C   0  0  0  0  0  0  0  0  0  0  0  0
  143.7329  134.4905  151.4144 C   0  0  0  0  0  0  0  0  0  0  0  0
  144.1585  133.0237  151.6062 C   0  0  1  0  0  0  0  0  0  0  0  0
  144.5638  132.3804  150.2722 C   0  0  0  0  0  0  0  0  0  0  0  0
  145.2933  132.9276  152.6444 C   0  0  0  0  0  0  0  0  0  0  0  0
  147.8561  135.4218  160.7939 N   0  0  0  0  0  0  0  0  0  0  0  0
  146.9916  136.7049  163.7577 H   0  0  0  0  0  0  0  0  0  0  0  0
  146.7814  137.5507  162.2278 H   0  0  0  0  0  0  0  0  0  0  0  0
  148.4015  137.1997  162.8265 H   0  0  0  0  0  0  0  0  0  0  0  0
  146.4316  134.0035  163.4358 H   0  0  0  0  0  0  0  0  0  0  0  0
  146.2973  131.5539  162.1972 H   0  0  0  0  0  0  0  0  0  0  0  0
  147.7172  131.3545  161.1729 H   0  0  0  0  0  0  0  0  0  0  0  0
  146.1517  131.7402  160.4519 H   0  0  0  0  0  0  0  0  0  0  0  0
  149.1657  133.9898  158.9570 H   0  0  0  0  0  0  0  0  0  0  0  0
  148.0792  132.6189  159.0465 H   0  0  0  0  0  0  0  0  0  0  0  0
  146.2950  132.5595  157.7653 H   0  0  0  0  0  0  0  0  0  0  0  0
  144.4296  133.5609  156.6214 H   0  0  0  0  0  0  0  0  0  0  0  0
  145.3917  134.9927  156.3409 H   0  0  0  0  0  0  0  0  0  0  0  0
  146.8248  133.8790  154.7406 H   0  0  0  0  0  0  0  0  0  0  0  0
  146.1646  132.2978  155.0767 H   0  0  0  0  0  0  0  0  0  0  0  0
  144.2521  135.4138  154.7237 H   0  0  0  0  0  0  0  0  0  0  0  0
  145.4198  135.5297  153.4267 H   0  0  0  0  0  0  0  0  0  0  0  0
  143.2910  136.2334  152.5637 H   0  0  0  0  0  0  0  0  0  0  0  0
  142.0401  133.6480  153.5899 H   0  0  0  0  0  0  0  0  0  0  0  0
  141.2315  134.8670  152.6092 H   0  0  0  0  0  0  0  0  0  0  0  0
  141.7841  135.2660  154.2291 H   0  0  0  0  0  0  0  0  0  0  0  0
  142.8847  134.5551  150.7320 H   0  0  0  0  0  0  0  0  0  0  0  0
  144.5465  135.0410  150.9396 H   0  0  0  0  0  0  0  0  0  0  0  0
  143.3034  132.4635  151.9868 H   0  0  0  0  0  0  0  0  0  0  0  0
  145.4221  132.8879  149.8307 H   0  0  0  0  0  0  0  0  0  0  0  0
  143.7460  132.4221  149.5520 H   0  0  0  0  0  0  0  0  0  0  0  0
  144.8303  131.3315  150.4062 H   0  0  0  0  0  0  0  0  0  0  0  0
  146.1952  133.4132  152.2678 H   0  0  0  0  0  0  0  0  0  0  0  0
  145.5432  131.8778  152.7913 H   0  0  0  0  0  0  0  0  0  0  0  0
  144.0592  133.0822  154.2462 H   0  0  0  0  0  0  0  0  0  0  0  0
  1  2  1  0  0  0  0
  1 22  1  0  0  0  0
  1 23  1  0  0  0  0
  1 24  1  0  0  0  0
  2 21  2  0  0  0  0
  2  3  1  0  0  0  0
  3  4  2  0  0  0  0
  3 25  1  0  0  0  0
  4  5  1  0  0  0  0
  4  6  1  0  0  0  0
  5 26  1  0  0  0  0
  5 27  1  0  0  0  0
  5 28  1  0  0  0  0
  6  7  1  0  0  0  0
  6 21  1  0  0  0  0
  7  8  1  0  0  0  0
  7 29  1  0  0  0  0
  7 30  1  0  0  0  0
  8  9  2  0  0  0  0
  8 10  1  0  0  0  0
 10 11  1  0  0  0  0
 10 31  1  0  0  0  0
 11 12  1  0  0  0  0
 11 32  1  0  0  0  0
 11 33  1  0  0  0  0
 12 13  1  0  0  0  0
 12 34  1  0  0  0  0
 12 35  1  0  0  0  0
 13 20  1  0  0  0  0
 13 14  1  0  0  0  0
 13 50  1  0  0  0  0
 14 15  1  0  0  0  0
 14 36  1  0  0  0  0
 14 37  1  0  0  0  0
 15 16  1  0  0  0  0
 15 17  1  0  0  0  0
 15 38  1  0  0  0  0
 16 39  1  0  0  0  0
 16 40  1  0  0  0  0
 16 41  1  0  0  0  0
 17 18  1  0  0  0  0
 17 42  1  0  0  0  0
 17 43  1  0  0  0  0
 18 19  1  0  0  0  0
 18 20  1  0  0  0  0
 18 44  1  0  0  0  0
 19 45  1  0  0  0  0
 19 46  1  0  0  0  0
 19 47  1  0  0  0  0
 20 48  1  0  0  0  0
 20 49  1  0  0  0  0
M  CHG  1  13   1
M  END
> <s_m_source_file>
AV-unprocessed.smi

> <i_m_source_file_index>
1475

> <i_lp_mmshare_version>
43012

> <i_f3d_flags>
0

> <s_epik_input>
W0NIM11jMVtjSF1jKFtDSDNdKW4objEpW0NIMl1DKD1PKVtOSF1bQ0gyXVtDSDJdTjJbQ0gyXVtDQEBIXShbQ0gzXSlbQ0gyXVtDQEBIXShbQ0gzXSlbQ0gyXTI=

> <s_epik_cmdline>
J2VwaWtfcHl0aG9uJywgJy1waCcsICc3LjAnLCAnLXRuJywgJzgnLCAnLW1hJywgJzIwMCcsICctbWV0YWxfYmluZGluZycsICctaW1hZScsICc8aW5maWxlLm1hZT4nLCAnLW9tYWUnLCAnPG91dGZpbGUubWFlPic=

> <r_lp_tautomer_probability>
1

> <r_epik_Ionization_Penalty>
0.00206431

> <r_epik_Ionization_Penalty_Charging>
0.00187095

> <r_epik_Ionization_Penalty_Neutral>
0.000193364

> <r_epik_State_Penalty>
-0

> <r_epik_Charging_Adjusted_Penalty>
0.00187095

> <i_epik_Tot_Q>
1

> <i_epik_Tot_abs_Q>
1

> <r_epik_Metal_State_Penalty>
-0

> <b_epik_Metal_Only>
0

> <s_lp_Force_Field>
OPLS_2005

> <r_lp_Energy>
16.4698

> <b_lp_Chiralities_Consistent>
1

> <s_lp_Variant>
AV-unprocessed.smi:1475-2

> <Gold.Version>
5.8.1

> <Gold.Id.Protein>
6NUR|6NUR_protein|mol2

> <Gold.PLP.Fitness>
40.4057

> <Gold.PLP.PLP>
-35.1740

> <Gold.PLP.part.hbond>
-1.0000

> <Gold.PLP.part.metal>
0.0000

> <Gold.PLP.part.buried>
-5.1763

> <Gold.PLP.part.nonpolar>
-28.2384

> <Gold.PLP.part.repulsive>
0.0000

> <Gold.PLP.ligand.clash>
0.0000

> <Gold.PLP.ligand.torsion>
0.4152

> <Gold.PLP.Chemscore.Hbond>
2.0000

> <Gold.PLP.Chemscore.CHOScore>
0.0000

> <Gold.PLP.Chemscore.Metal>
0.0000

> <Gold.Chemscore.Hbonds>
donor molecule, donor type, donor heavy atom, donor atom, acceptor molecule, acceptor atom, score
      L1  H    13    50       P1 10957  2.00

> <Gold.PLP.Chemscore.Internal.Correction>
0.0622

> <Gold.Rescore>
     Score         DG    S(hbond)    S(metal)    S(lipo)     H(rot)  DE(clash)    DE(int)     intcor
     14.16     -14.65       1.00        0.00      85.77       1.64       0.06       0.42       ----

> <Gold.Chemscore.Fitness>
14.1632

> <Gold.Chemscore.DG>
-14.6500

> <Gold.Chemscore.ZeroCoef>
-5.4800

> <Gold.Chemscore.Hbond>
0.9978

> <Gold.Chemscore.Metal>
0.0000

> <Gold.Chemscore.Lipo>
85.7724

> <Gold.Chemscore.Internal_Hbond>
0.0000

> <Gold.Chemscore.DEClash>
0.0618

> <Gold.Chemscore.DEInternal>
0.4250

> <Gold.Chemscore.Rot>
1.6399

> <Gold.Chemscore.Internal.Correction>
   9.000000E+99

> <Gold.Chemscore.Hbonds>
donor molecule, donor type, donor heavy atom, donor atom, acceptor molecule, acceptor atom, score
      L1  H    13    50       P1 10957  0.96

> <Gold.Chemscore.Hbond.Weighted>
-3.3327

> <Gold.Chemscore.Metal.Weighted>
-0.0000

> <Gold.Chemscore.Lipo.Weighted>
-10.0354

> <Gold.Chemscore.Internal_Hbond.Weighted>
0.0000

> <Gold.Chemscore.DEClash.Weighted>
0.0618

> <Gold.Chemscore.DEInternal.Weighted>
0.4250

> <Gold.Chemscore.Rot.Weighted>
4.1982

> <Gold.Chemscore.Internal.Correction.Weighted>
   9.000000E+99

> <Gold.Protein.RotatedTorsions>
[ 6907 6896 6895 6894 ] final  -75.33 input  -60.11 | X-H torsion
[ 7974 7965 7964 7962 ] final  150.95 input  175.53 | X-H torsion
[ 8008 7997 7996 7995 ] final   87.68 input   59.86 | X-H torsion
[ 10167 10162 10161 10158 ] final   47.90 input  -65.29 | X-H torsion
[ 10718 10713 10712 10709 ] final   35.41 input   66.30 | X-H torsion
[ 10763 10752 10751 10750 ] final  110.43 input  -60.55 | X-H torsion
[ 11005 11000 10999 10996 ] final   13.54 input  -57.11 | X-H torsion

> <Gold.Protein.ActiveResidues>
 VAL166  LYS551  ARG553  GLY616  TRP617  ASP618  TYR619  PRO620  LYS621  CYS622 
 ASP623  PHE694  ASN695  SER759  ASP760  ASP761  ALA762  ILE779  LEU786  VAL792 
 PHE793  MET794  SER795  GLU796  ALA797  LYS798  CYS799  TRP800  GLU811  SER814 

> <Gold.Protein.RotatedAtoms>
  150.7062  134.4736  159.5436 H   0  0  0  0  0  0  0  0  0  0  0  0  # atno 6907 bound_to 6896
  152.2387  134.8247  160.0472 H   0  0  0  0  0  0  0  0  0  0  0  0  # atno 6908 bound_to 6896
  151.9036  133.3509  159.3876 H   0  0  0  0  0  0  0  0  0  0  0  0  # atno 6909 bound_to 6896
  144.8327  139.6475  143.6052 H   0  0  0  0  0  0  0  0  0  0  0  0  # atno 7974 bound_to 7965
  155.9783  140.3379  155.6639 H   0  0  0  0  0  0  0  0  0  0  0  0  # atno 8008 bound_to 7997
  155.6582  140.0713  157.2581 H   0  0  0  0  0  0  0  0  0  0  0  0  # atno 8009 bound_to 7997
  154.4185  140.1713  156.1736 H   0  0  0  0  0  0  0  0  0  0  0  0  # atno 8010 bound_to 7997
  140.2988  144.2958  150.6223 H   0  0  0  0  0  0  0  0  0  0  0  0  # atno 10167 bound_to 10162
  157.3223  130.7454  149.6793 H   0  0  0  0  0  0  0  0  0  0  0  0  # atno 10718 bound_to 10713
  153.4488  135.3749  155.2271 H   0  0  0  0  0  0  0  0  0  0  0  0  # atno 10763 bound_to 10752
  154.8756  135.3880  154.4063 H   0  0  0  0  0  0  0  0  0  0  0  0  # atno 10764 bound_to 10752
  153.4620  135.7087  153.6108 H   0  0  0  0  0  0  0  0  0  0  0  0  # atno 10765 bound_to 10752
  140.4796  134.0949  155.7748 H   0  0  0  0  0  0  0  0  0  0  0  0  # atno 11005 bound_to 11000
  146.2628  139.6451  142.9350 LP  0  0  0  0  0  0  0  0  0  0  0  0  # atno 17320 bound_to 7965
  145.4861  141.0438  143.2619 LP  0  0  0  0  0  0  0  0  0  0  0  0  # atno 17321 bound_to 7965
  140.5669  143.2185  151.7668 LP  0  0  0  0  0  0  0  0  0  0  0  0  # atno 17342 bound_to 10162
  139.4920  144.4271  151.9913 LP  0  0  0  0  0  0  0  0  0  0  0  0  # atno 17343 bound_to 10162
  155.9687  130.4219  150.4493 LP  0  0  0  0  0  0  0  0  0  0  0  0  # atno 17370 bound_to 10713
  157.2510  131.0546  151.2379 LP  0  0  0  0  0  0  0  0  0  0  0  0  # atno 17371 bound_to 10713
  141.1538  133.8921  157.2031 LP  0  0  0  0  0  0  0  0  0  0  0  0  # atno 17394 bound_to 11000
  139.9835  135.0090  156.9806 LP  0  0  0  0  0  0  0  0  0  0  0  0  # atno 17395 bound_to 11000

$$$$
