AV-unprocessed.smi:1715|AV-procd|sdf|6911|dock7
  -GOLD-   22720 8113D 1   1.00000     0.00000
 Structure written by MMmdl.
 40 41  0  0  0  0  0  0  0  0  1 V2000
  151.9977  139.7262  156.8318 C   0  0  0  0  0  0  0  0  0  0  0  0
  151.8613  139.3619  155.3436 C   0  0  1  0  0  0  0  0  0  0  0  0
  151.7031  137.8483  155.0956 C   0  0  0  0  0  0  0  0  0  0  0  0
  150.3841  137.3470  155.4680 N   0  0  0  0  0  0  0  0  0  0  0  0
  150.2816  135.9117  155.2097 C   0  0  0  0  0  0  0  0  0  0  0  0
  148.8739  135.3157  155.3982 C   0  0  0  0  0  0  0  0  0  0  0  0
  148.1044  135.3724  154.1612 N   0  0  0  0  0  0  0  0  0  0  0  0
  146.8922  134.8290  153.9824 C   0  0  0  0  0  0  0  0  0  0  0  0
  146.2868  134.2103  154.8580 O   0  0  0  0  0  0  0  0  0  0  0  0
  146.4385  135.0481  152.7372 N   0  0  0  0  0  0  0  0  0  0  0  0
  145.2040  134.6249  152.1831 C   0  0  0  0  0  0  0  0  0  0  0  0
  144.2531  133.8097  152.8551 C   0  0  0  0  0  0  0  0  0  0  0  0
  143.1934  133.5754  152.0943 N   0  0  0  0  0  0  0  0  0  0  0  0
  143.4592  134.2323  150.9428 N   0  0  0  0  0  0  0  0  0  0  0  0
  144.6721  134.8853  150.9513 C   0  0  0  0  0  0  0  0  0  0  0  0
  149.3666  138.1201  154.7620 C   0  0  0  0  0  0  0  0  0  0  0  0
  149.4839  139.6278  155.0524 C   0  0  2  0  0  0  0  0  0  0  0  0
  148.4773  140.4512  154.2423 C   0  0  0  0  0  0  0  0  0  0  0  0
  150.7954  140.0773  154.7173 O   0  0  0  0  0  0  0  0  0  0  0  0
  142.8103  134.2254  150.1685 H   0  0  0  0  0  0  0  0  0  0  0  0
  152.8841  139.2617  157.2646 H   0  0  0  0  0  0  0  0  0  0  0  0
  151.1397  139.3947  157.4163 H   0  0  0  0  0  0  0  0  0  0  0  0
  152.0936  140.8045  156.9606 H   0  0  0  0  0  0  0  0  0  0  0  0
  152.7782  139.6876  154.8517 H   0  0  0  0  0  0  0  0  0  0  0  0
  151.8796  137.6469  154.0377 H   0  0  0  0  0  0  0  0  0  0  0  0
  152.4765  137.3079  155.6426 H   0  0  0  0  0  0  0  0  0  0  0  0
  150.6399  135.6927  154.2027 H   0  0  0  0  0  0  0  0  0  0  0  0
  150.9581  135.3888  155.8872 H   0  0  0  0  0  0  0  0  0  0  0  0
  148.9387  134.2859  155.7539 H   0  0  0  0  0  0  0  0  0  0  0  0
  148.3145  135.8713  156.1499 H   0  0  0  0  0  0  0  0  0  0  0  0
  148.5262  135.8620  153.3857 H   0  0  0  0  0  0  0  0  0  0  0  0
  147.0401  135.5725  152.1190 H   0  0  0  0  0  0  0  0  0  0  0  0
  144.2957  133.3893  153.8492 H   0  0  0  0  0  0  0  0  0  0  0  0
  145.0283  135.4550  150.1058 H   0  0  0  0  0  0  0  0  0  0  0  0
  149.4510  137.9468  153.6879 H   0  0  0  0  0  0  0  0  0  0  0  0
  148.3704  137.7901  155.0545 H   0  0  0  0  0  0  0  0  0  0  0  0
  149.2996  139.8094  156.1117 H   0  0  0  0  0  0  0  0  0  0  0  0
  147.4529  140.1611  154.4773 H   0  0  0  0  0  0  0  0  0  0  0  0
  148.6272  140.3151  153.1709 H   0  0  0  0  0  0  0  0  0  0  0  0
  148.5793  141.5145  154.4604 H   0  0  0  0  0  0  0  0  0  0  0  0
  1  2  1  0  0  0  0
  1 21  1  0  0  0  0
  1 22  1  0  0  0  0
  1 23  1  0  0  0  0
  2 19  1  0  0  0  0
  2  3  1  0  0  0  0
  2 24  1  0  0  0  0
  3  4  1  0  0  0  0
  3 25  1  0  0  0  0
  3 26  1  0  0  0  0
  4  5  1  0  0  0  0
  4 16  1  0  0  0  0
  5  6  1  0  0  0  0
  5 27  1  0  0  0  0
  5 28  1  0  0  0  0
  6  7  1  0  0  0  0
  6 29  1  0  0  0  0
  6 30  1  0  0  0  0
  7  8  1  0  0  0  0
  7 31  1  0  0  0  0
  8  9  2  0  0  0  0
  8 10  1  0  0  0  0
 10 11  1  0  0  0  0
 10 32  1  0  0  0  0
 11 15  2  0  0  0  0
 11 12  1  0  0  0  0
 12 13  2  0  0  0  0
 12 33  1  0  0  0  0
 13 14  1  0  0  0  0
 14 20  1  0  0  0  0
 14 15  1  0  0  0  0
 15 34  1  0  0  0  0
 16 17  1  0  0  0  0
 16 35  1  0  0  0  0
 16 36  1  0  0  0  0
 17 18  1  0  0  0  0
 17 19  1  0  0  0  0
 17 37  1  0  0  0  0
 18 38  1  0  0  0  0
 18 39  1  0  0  0  0
 18 40  1  0  0  0  0
M  END
> <s_m_source_file>
AV-unprocessed.smi

> <i_m_source_file_index>
1715

> <i_lp_mmshare_version>
43012

> <i_f3d_flags>
0

> <s_epik_input>
W0NIM11bQ0BASF0xW0NIMl1OKFtDSDJdW0NASF0oTzEpW0NIM10pW0NIMl1bQ0gyXVtOSF1DKD1PKVtOSF1jMltjSF1uW25IXVtjSF0y

> <s_epik_cmdline>
J2VwaWtfcHl0aG9uJywgJy1waCcsICc3LjAnLCAnLXRuJywgJzgnLCAnLW1hJywgJzIwMCcsICctbWV0YWxfYmluZGluZycsICctaW1hZScsICc8aW5maWxlLm1hZT4nLCAnLW9tYWUnLCAnPG91dGZpbGUubWFlPic=

> <r_lp_tautomer_probability>
0.5

> <r_epik_Ionization_Penalty>
0.242771

> <r_epik_Ionization_Penalty_Charging>
0

> <r_epik_Ionization_Penalty_Neutral>
0.242771

> <r_epik_State_Penalty>
0.233765

> <r_epik_Charging_Adjusted_Penalty>
0.233765

> <i_epik_Tot_Q>
0

> <i_epik_Tot_abs_Q>
0

> <r_epik_Metal_State_Penalty>
0.233764

> <b_epik_Metal_Only>
0

> <s_lp_Force_Field>
OPLS_2005

> <r_lp_Energy>
25.0708

> <b_lp_Chiralities_Consistent>
1

> <s_lp_Variant>
AV-unprocessed.smi:1715-3

> <Gold.Version>
5.8.1

> <Gold.Id.Protein>
6NUR|6NUR_protein|mol2

> <Gold.PLP.Fitness>
42.0544

> <Gold.PLP.PLP>
-26.0824

> <Gold.PLP.part.hbond>
-3.9809

> <Gold.PLP.part.metal>
0.0000

> <Gold.PLP.part.buried>
-4.3441

> <Gold.PLP.part.nonpolar>
-19.8631

> <Gold.PLP.part.repulsive>
0.4443

> <Gold.PLP.ligand.clash>
0.0000

> <Gold.PLP.ligand.torsion>
0.2434

> <Gold.PLP.Chemscore.Hbond>
3.6480

> <Gold.PLP.Chemscore.CHOScore>
1.8350

> <Gold.PLP.Chemscore.Metal>
0.0000

> <Gold.Chemscore.Hbonds>
donor molecule, donor type, donor heavy atom, donor atom, acceptor molecule, acceptor atom, score
      L1  H     7    31       P1  7948  1.00
      L1  H    10    32       P1  7948  0.88
      L1  H    14    20       P1 10186  0.96
      P1  H  7989  7998       L1    19  1.00
      L1  C    12    33       P1 10957  0.90
      L1  C    15    34       P1  7921  0.38

> <Gold.PLP.Chemscore.Internal.Correction>
0.0099

> <Gold.Rescore>
     Score         DG    S(hbond)    S(metal)    S(lipo)     H(rot)  DE(clash)    DE(int)     intcor
     19.10     -20.64       3.70        0.00      59.65       1.63       0.03       1.51       ----

> <Gold.Chemscore.Fitness>
19.1011

> <Gold.Chemscore.DG>
-20.6367

> <Gold.Chemscore.ZeroCoef>
-5.4800

> <Gold.Chemscore.Hbond>
3.6966

> <Gold.Chemscore.Metal>
0.0000

> <Gold.Chemscore.Lipo>
59.6548

> <Gold.Chemscore.Internal_Hbond>
0.0000

> <Gold.Chemscore.DEClash>
0.0260

> <Gold.Chemscore.DEInternal>
1.5096

> <Gold.Chemscore.Rot>
1.6287

> <Gold.Chemscore.Internal.Correction>
   9.000000E+99

> <Gold.Chemscore.Hbonds>
donor molecule, donor type, donor heavy atom, donor atom, acceptor molecule, acceptor atom, score
      L1  H     7    31       P1  7948  0.98
      L1  H    10    32       P1  7948  0.82
      L1  H    14    20       P1 10186  0.85
      P1  H  7989  7998       L1    19  0.30

> <Gold.Chemscore.Hbond.Weighted>
-12.3466

> <Gold.Chemscore.Metal.Weighted>
-0.0000

> <Gold.Chemscore.Lipo.Weighted>
-6.9796

> <Gold.Chemscore.Internal_Hbond.Weighted>
0.0000

> <Gold.Chemscore.DEClash.Weighted>
0.0260

> <Gold.Chemscore.DEInternal.Weighted>
1.5096

> <Gold.Chemscore.Rot.Weighted>
4.1695

> <Gold.Chemscore.Internal.Correction.Weighted>
   9.000000E+99

> <Gold.Protein.RotatedTorsions>
[ 6907 6896 6895 6894 ] final   64.91 input  -60.11 | X-H torsion
[ 7974 7965 7964 7962 ] final   20.27 input  175.53 | X-H torsion
[ 8008 7997 7996 7995 ] final   58.63 input   59.86 | X-H torsion
[ 10167 10162 10161 10158 ] final  148.73 input  -65.29 | X-H torsion
[ 10718 10713 10712 10709 ] final  -86.20 input   66.30 | X-H torsion
[ 10763 10752 10751 10750 ] final -147.27 input  -60.55 | X-H torsion
[ 11005 11000 10999 10996 ] final  -78.05 input  -57.11 | X-H torsion

> <Gold.Protein.ActiveResidues>
 VAL166  LYS551  ARG553  GLY616  TRP617  ASP618  TYR619  PRO620  LYS621  CYS622 
 ASP623  PHE694  ASN695  SER759  ASP760  ASP761  ALA762  ILE779  LEU786  VAL792 
 PHE793  MET794  SER795  GLU796  ALA797  LYS798  CYS799  TRP800  GLU811  SER814 

> <Gold.Protein.RotatedAtoms>
  152.4368  134.5671  159.9910 H   0  0  0  0  0  0  0  0  0  0  0  0  # atno 6907 bound_to 6896
  151.5779  133.3376  159.3010 H   0  0  0  0  0  0  0  0  0  0  0  0  # atno 6908 bound_to 6896
  150.8267  134.7536  159.6883 H   0  0  0  0  0  0  0  0  0  0  0  0  # atno 6909 bound_to 6896
  146.2118  139.8193  142.8683 H   0  0  0  0  0  0  0  0  0  0  0  0  # atno 7974 bound_to 7965
  155.5531  140.3487  155.4473 H   0  0  0  0  0  0  0  0  0  0  0  0  # atno 8008 bound_to 7997
  156.0568  140.1331  157.0013 H   0  0  0  0  0  0  0  0  0  0  0  0  # atno 8009 bound_to 7997
  154.4460  140.0993  156.6443 H   0  0  0  0  0  0  0  0  0  0  0  0  # atno 8010 bound_to 7997
  139.4871  144.5657  151.7150 H   0  0  0  0  0  0  0  0  0  0  0  0  # atno 10167 bound_to 10162
  155.9991  130.4757  150.4678 H   0  0  0  0  0  0  0  0  0  0  0  0  # atno 10718 bound_to 10713
  154.8294  135.3364  154.6791 H   0  0  0  0  0  0  0  0  0  0  0  0  # atno 10763 bound_to 10752
  153.7413  135.6945  153.4971 H   0  0  0  0  0  0  0  0  0  0  0  0  # atno 10764 bound_to 10752
  153.2242  135.4438  155.0474 H   0  0  0  0  0  0  0  0  0  0  0  0  # atno 10765 bound_to 10752
  141.1663  133.7047  156.7912 H   0  0  0  0  0  0  0  0  0  0  0  0  # atno 11005 bound_to 11000
  145.3113  141.0220  143.3553 LP  0  0  0  0  0  0  0  0  0  0  0  0  # atno 17320 bound_to 7965
  144.8934  139.4744  143.6667 LP  0  0  0  0  0  0  0  0  0  0  0  0  # atno 17321 bound_to 7965
  140.5234  144.0843  150.6030 LP  0  0  0  0  0  0  0  0  0  0  0  0  # atno 17342 bound_to 10162
  140.3809  143.2803  152.0172 LP  0  0  0  0  0  0  0  0  0  0  0  0  # atno 17343 bound_to 10162
  157.2696  131.0584  151.2268 LP  0  0  0  0  0  0  0  0  0  0  0  0  # atno 17370 bound_to 10713
  157.3353  130.7006  149.6349 LP  0  0  0  0  0  0  0  0  0  0  0  0  # atno 17371 bound_to 10713
  140.2323  134.8676  157.3490 LP  0  0  0  0  0  0  0  0  0  0  0  0  # atno 17394 bound_to 11000
  140.1878  134.4409  155.7733 LP  0  0  0  0  0  0  0  0  0  0  0  0  # atno 17395 bound_to 11000

$$$$
