AV-unprocessed.smi:362|AV-procd|sdf|2421|dock8
  -GOLD-   2262022363D 1   1.00000     0.00000
 Structure written by MMmdl.
 36 38  0  0  0  0  0  0  0  0  1 V2000
  150.0187  141.0989  157.6807 O   0  0  0  0  0  0  0  0  0  0  0  0
  151.1779  141.1780  157.2721 C   0  0  0  0  0  0  0  0  0  0  0  0
  151.5529  140.6636  155.8750 C   0  0  0  0  0  0  0  0  0  0  0  0
  150.3925  140.1885  155.1071 N   0  0  0  0  0  0  0  0  0  0  0  0
  149.2956  141.0156  154.9104 C   0  0  0  0  0  0  0  0  0  0  0  0
  148.1916  140.6387  154.2229 C   0  0  0  0  0  0  0  0  0  0  0  0
  148.1038  139.3037  153.6409 C   0  0  0  0  0  0  0  0  0  0  0  0
  147.1484  138.8703  153.0009 O   0  0  0  0  0  0  0  0  0  0  0  0
  149.2258  138.5010  153.8625 N   0  0  0  0  0  0  0  0  0  0  0  0
  150.3661  138.8826  154.5710 C   0  0  0  0  0  0  0  0  0  0  0  0
  151.2999  138.0937  154.7112 O   0  0  0  0  0  0  0  0  0  0  0  0
  152.1756  141.7231  157.9850 N   0  0  0  0  0  0  0  0  0  0  0  0
  152.0598  142.2784  159.3292 C   0  0  0  0  0  0  0  0  0  0  0  0
  152.4466  143.7472  159.3870 C   0  0  0  0  0  0  0  0  0  0  0  0
  151.5818  144.7602  160.1001 C   0  0  0  0  0  0  0  0  0  0  0  0
  151.6970  144.7915  158.5934 C   0  0  0  0  0  0  0  0  0  0  0  0
  152.8723  141.4782  160.3311 C   0  0  0  0  0  0  0  0  0  0  0  0
  154.3763  141.6007  160.3878 C   0  0  0  0  0  0  0  0  0  0  0  0
  153.7394  140.3189  159.8999 C   0  0  0  0  0  0  0  0  0  0  0  0
  149.2095  137.5665  153.4805 H   0  0  0  0  0  0  0  0  0  0  0  0
  152.0553  141.4718  155.3417 H   0  0  0  0  0  0  0  0  0  0  0  0
  152.2965  139.8683  155.9588 H   0  0  0  0  0  0  0  0  0  0  0  0
  149.3144  142.0124  155.3279 H   0  0  0  0  0  0  0  0  0  0  0  0
  147.3684  141.3282  154.1041 H   0  0  0  0  0  0  0  0  0  0  0  0
  153.0929  141.7498  157.5638 H   0  0  0  0  0  0  0  0  0  0  0  0
  151.0157  142.2023  159.6401 H   0  0  0  0  0  0  0  0  0  0  0  0
  153.5197  143.9063  159.4768 H   0  0  0  0  0  0  0  0  0  0  0  0
  150.6359  144.4227  160.5183 H   0  0  0  0  0  0  0  0  0  0  0  0
  152.0866  145.5439  160.6610 H   0  0  0  0  0  0  0  0  0  0  0  0
  152.2790  145.5957  158.1483 H   0  0  0  0  0  0  0  0  0  0  0  0
  150.8296  144.4711  158.0198 H   0  0  0  0  0  0  0  0  0  0  0  0
  152.3751  141.3581  161.2920 H   0  0  0  0  0  0  0  0  0  0  0  0
  154.8619  142.2335  159.6473 H   0  0  0  0  0  0  0  0  0  0  0  0
  154.8440  141.5891  161.3701 H   0  0  0  0  0  0  0  0  0  0  0  0
  153.7824  139.4531  160.5574 H   0  0  0  0  0  0  0  0  0  0  0  0
  153.8113  140.1007  158.8363 H   0  0  0  0  0  0  0  0  0  0  0  0
  1  2  2  0  0  0  0
  2  3  1  0  0  0  0
  2 12  1  0  0  0  0
  3  4  1  0  0  0  0
  3 21  1  0  0  0  0
  3 22  1  0  0  0  0
  4 10  1  0  0  0  0
  4  5  1  0  0  0  0
  5  6  2  0  0  0  0
  5 23  1  0  0  0  0
  6  7  1  0  0  0  0
  6 24  1  0  0  0  0
  7  8  2  0  0  0  0
  7  9  1  0  0  0  0
  9 20  1  0  0  0  0
  9 10  1  0  0  0  0
 10 11  2  0  0  0  0
 12 13  1  0  0  0  0
 12 25  1  0  0  0  0
 13 14  1  0  0  0  0
 13 17  1  0  0  0  0
 13 26  1  0  0  0  0
 14 16  1  0  0  0  0
 14 15  1  0  0  0  0
 14 27  1  0  0  0  0
 15 16  1  0  0  0  0
 15 28  1  0  0  0  0
 15 29  1  0  0  0  0
 16 30  1  0  0  0  0
 16 31  1  0  0  0  0
 17 19  1  0  0  0  0
 17 18  1  0  0  0  0
 17 32  1  0  0  0  0
 18 19  1  0  0  0  0
 18 33  1  0  0  0  0
 18 34  1  0  0  0  0
 19 35  1  0  0  0  0
 19 36  1  0  0  0  0
M  END
> <s_m_source_file>
AV-unprocessed.smi

> <i_m_source_file_index>
362

> <i_lp_mmshare_version>
43012

> <i_f3d_flags>
0

> <s_epik_input>
W0NIMl0xW0NIMl1bQ0hdMVtDSF0oW0NIXTJbQ0gyXVtDSDJdMilbTkhdQyg9TylbQ0gyXW4zW2NIXVtjSF1jKD1PKVtuSF1jMz1P

> <s_epik_cmdline>
J2VwaWtfcHl0aG9uJywgJy1waCcsICc3LjAnLCAnLXRuJywgJzgnLCAnLW1hJywgJzIwMCcsICctbWV0YWxfYmluZGluZycsICctaW1hZScsICc8aW5maWxlLm1hZT4nLCAnLW9tYWUnLCAnPG91dGZpbGUubWFlPic=

> <r_lp_tautomer_probability>
0.999537

> <r_epik_Ionization_Penalty>
0.00315598

> <r_epik_Ionization_Penalty_Charging>
0.00315596

> <r_epik_Ionization_Penalty_Neutral>
2.04126e-08

> <r_epik_State_Penalty>
0.00222351

> <r_epik_Charging_Adjusted_Penalty>
0.00537947

> <i_epik_Tot_Q>
0

> <i_epik_Tot_abs_Q>
0

> <r_epik_Metal_State_Penalty>
0.363464

> <b_epik_Metal_Only>
0

> <s_lp_Force_Field>
OPLS_2005

> <r_lp_Energy>
23.1626

> <b_lp_Chiralities_Consistent>
1

> <s_lp_Variant>
AV-unprocessed.smi:362-1

> <Gold.Version>
5.8.1

> <Gold.Id.Protein>
6NUR|6NUR_protein|mol2

> <Gold.PLP.Fitness>
45.6891

> <Gold.PLP.PLP>
-41.5881

> <Gold.PLP.part.hbond>
-1.6500

> <Gold.PLP.part.metal>
0.0000

> <Gold.PLP.part.buried>
-0.7317

> <Gold.PLP.part.nonpolar>
-39.2104

> <Gold.PLP.part.repulsive>
0.6051

> <Gold.PLP.ligand.clash>
0.0000

> <Gold.PLP.ligand.torsion>
1.5290

> <Gold.PLP.Chemscore.Hbond>
0.6825

> <Gold.PLP.Chemscore.CHOScore>
0.9985

> <Gold.PLP.Chemscore.Metal>
0.0000

> <Gold.Chemscore.Hbonds>
donor molecule, donor type, donor heavy atom, donor atom, acceptor molecule, acceptor atom, score
      L1  H     9    20       P1  7948  0.84
      L1  C     5    23       P1  8028  0.44

> <Gold.PLP.Chemscore.Internal.Correction>
2.1160

> <Gold.Rescore>
     Score         DG    S(hbond)    S(metal)    S(lipo)     H(rot)  DE(clash)    DE(int)     intcor
     10.61     -13.60       0.82        0.00      93.14       2.15       0.11       2.88       ----

> <Gold.Chemscore.Fitness>
10.6078

> <Gold.Chemscore.DG>
-13.6026

> <Gold.Chemscore.ZeroCoef>
-5.4800

> <Gold.Chemscore.Hbond>
0.8172

> <Gold.Chemscore.Metal>
0.0000

> <Gold.Chemscore.Lipo>
93.1376

> <Gold.Chemscore.Internal_Hbond>
0.0000

> <Gold.Chemscore.DEClash>
0.1104

> <Gold.Chemscore.DEInternal>
2.8844

> <Gold.Chemscore.Rot>
2.1500

> <Gold.Chemscore.Internal.Correction>
   9.000000E+99

> <Gold.Chemscore.Hbonds>
donor molecule, donor type, donor heavy atom, donor atom, acceptor molecule, acceptor atom, score
      L1  H     9    20       P1  7948  0.80

> <Gold.Chemscore.Hbond.Weighted>
-2.7295

> <Gold.Chemscore.Metal.Weighted>
-0.0000

> <Gold.Chemscore.Lipo.Weighted>
-10.8971

> <Gold.Chemscore.Internal_Hbond.Weighted>
0.0000

> <Gold.Chemscore.DEClash.Weighted>
0.1104

> <Gold.Chemscore.DEInternal.Weighted>
2.8844

> <Gold.Chemscore.Rot.Weighted>
5.5040

> <Gold.Chemscore.Internal.Correction.Weighted>
   9.000000E+99

> <Gold.Protein.RotatedTorsions>
[ 6907 6896 6895 6894 ] final  -70.37 input  -60.11 | X-H torsion
[ 7974 7965 7964 7962 ] final  150.20 input  175.53 | X-H torsion
[ 8008 7997 7996 7995 ] final  117.17 input   59.86 | X-H torsion
[ 10167 10162 10161 10158 ] final  -46.39 input  -65.29 | X-H torsion
[ 10718 10713 10712 10709 ] final   41.01 input   66.30 | X-H torsion
[ 10763 10752 10751 10750 ] final   62.09 input  -60.55 | X-H torsion
[ 11005 11000 10999 10996 ] final  -12.96 input  -57.11 | X-H torsion

> <Gold.Protein.ActiveResidues>
 VAL166  LYS551  ARG553  GLY616  TRP617  ASP618  TYR619  PRO620  LYS621  CYS622 
 ASP623  PHE694  ASN695  SER759  ASP760  ASP761  ALA762  ILE779  LEU786  VAL792 
 PHE793  MET794  SER795  GLU796  ALA797  LYS798  CYS799  TRP800  GLU811  SER814 

> <Gold.Protein.RotatedAtoms>
  150.7261  134.5462  159.5771 H   0  0  0  0  0  0  0  0  0  0  0  0  # atno 6907 bound_to 6896
  152.2961  134.7663  160.0377 H   0  0  0  0  0  0  0  0  0  0  0  0  # atno 6908 bound_to 6896
  151.8259  133.3366  159.3635 H   0  0  0  0  0  0  0  0  0  0  0  0  # atno 6909 bound_to 6896
  144.8382  139.6377  143.6028 H   0  0  0  0  0  0  0  0  0  0  0  0  # atno 7974 bound_to 7965
  156.2479  140.2902  156.0636 H   0  0  0  0  0  0  0  0  0  0  0  0  # atno 8008 bound_to 7997
  155.1748  140.0402  157.2887 H   0  0  0  0  0  0  0  0  0  0  0  0  # atno 8009 bound_to 7997
  154.6301  140.2497  155.7451 H   0  0  0  0  0  0  0  0  0  0  0  0  # atno 8010 bound_to 7997
  140.6819  143.2833  151.3776 H   0  0  0  0  0  0  0  0  0  0  0  0  # atno 10167 bound_to 10162
  157.3887  130.7794  149.7251 H   0  0  0  0  0  0  0  0  0  0  0  0  # atno 10718 bound_to 10713
  152.9971  135.5477  154.6138 H   0  0  0  0  0  0  0  0  0  0  0  0  # atno 10763 bound_to 10752
  154.5453  135.2822  155.1061 H   0  0  0  0  0  0  0  0  0  0  0  0  # atno 10764 bound_to 10752
  154.2322  135.6431  153.5232 H   0  0  0  0  0  0  0  0  0  0  0  0  # atno 10765 bound_to 10752
  140.7712  133.8437  155.9209 H   0  0  0  0  0  0  0  0  0  0  0  0  # atno 11005 bound_to 11000
  146.2678  139.6562  142.9317 LP  0  0  0  0  0  0  0  0  0  0  0  0  # atno 17320 bound_to 7965
  145.4750  141.0437  143.2677 LP  0  0  0  0  0  0  0  0  0  0  0  0  # atno 17321 bound_to 7965
  139.6148  144.1025  152.2334 LP  0  0  0  0  0  0  0  0  0  0  0  0  # atno 17342 bound_to 10162
  140.0451  144.5977  150.7380 LP  0  0  0  0  0  0  0  0  0  0  0  0  # atno 17343 bound_to 10162
  155.9793  130.4042  150.3596 LP  0  0  0  0  0  0  0  0  0  0  0  0  # atno 17370 bound_to 10713
  157.1709  131.0368  151.2795 LP  0  0  0  0  0  0  0  0  0  0  0  0  # atno 17371 bound_to 10713
  140.9572  134.1703  157.4682 LP  0  0  0  0  0  0  0  0  0  0  0  0  # atno 17394 bound_to 11000
  139.8755  134.9931  156.5629 LP  0  0  0  0  0  0  0  0  0  0  0  0  # atno 17395 bound_to 11000

$$$$
