AV-unprocessed.smi:1887|AV-procd|sdf|7655|dock3
  -GOLD-   22720 9393D 1   1.00000     0.00000
 Structure written by MMmdl.
 44 46  0  0  0  0  0  0  0  0  1 V2000
  154.3410  137.1645  157.6839 C   0  0  0  0  0  0  0  0  0  0  0  0
  153.3390  136.6966  156.7998 O   0  0  0  0  0  0  0  0  0  0  0  0
  152.1556  137.4757  156.8509 C   0  0  0  0  0  0  0  0  0  0  0  0
  152.4933  138.9424  156.5501 C   0  0  0  0  0  0  0  0  0  0  0  0
  151.2947  139.7487  156.3358 N   0  0  0  0  0  0  0  0  0  0  0  0
  150.8782  140.8427  157.0253 C   0  0  0  0  0  0  0  0  0  0  0  0
  151.6214  141.3632  158.1053 N   0  0  0  0  0  0  0  0  0  0  0  0
  152.5028  140.5794  158.7600 N   0  0  0  0  0  0  0  0  0  0  0  0
  153.0075  141.3526  159.7062 C   0  0  0  0  0  0  0  0  0  0  0  0
  154.0519  140.7878  160.6254 C   0  0  0  0  0  0  0  0  0  0  0  0
  152.4442  142.6622  159.6966 C   0  0  0  0  0  0  0  0  0  0  0  0
  152.7632  143.8028  160.6240 C   0  0  0  0  0  0  0  0  0  0  0  0
  151.5560  142.6306  158.6555 C   0  0  0  0  0  0  0  0  0  0  0  0
  150.6438  143.6937  158.1292 C   0  0  0  0  0  0  0  0  0  0  0  0
  149.7448  141.3924  156.5804 N   0  0  0  0  0  0  0  0  0  0  0  0
  149.4055  140.5725  155.5138 C   0  0  0  0  0  0  0  0  0  0  0  0
  150.3247  139.5872  155.3473 C   0  0  0  0  0  0  0  0  0  0  0  0
  150.2287  138.5904  154.2740 C   0  0  0  0  0  0  0  0  0  0  0  0
  151.0563  137.6980  154.1023 O   0  0  0  0  0  0  0  0  0  0  0  0
  149.1381  138.7607  153.4878 N   0  0  0  0  0  0  0  0  0  0  0  0
  148.1756  139.7266  153.5990 C   0  0  0  0  0  0  0  0  0  0  0  0
  147.2401  139.7572  152.7997 O   0  0  0  0  0  0  0  0  0  0  0  0
  148.3011  140.6380  154.6165 N   0  0  0  0  0  0  0  0  0  0  0  0
  147.3011  141.6947  154.7802 C   0  0  0  0  0  0  0  0  0  0  0  0
  149.0243  138.1021  152.7312 H   0  0  0  0  0  0  0  0  0  0  0  0
  155.2252  136.5325  157.5998 H   0  0  0  0  0  0  0  0  0  0  0  0
  154.0000  137.1304  158.7194 H   0  0  0  0  0  0  0  0  0  0  0  0
  154.6332  138.1874  157.4434 H   0  0  0  0  0  0  0  0  0  0  0  0
  151.4302  137.1014  156.1270 H   0  0  0  0  0  0  0  0  0  0  0  0
  151.7007  137.3971  157.8393 H   0  0  0  0  0  0  0  0  0  0  0  0
  153.0718  139.3762  157.3649 H   0  0  0  0  0  0  0  0  0  0  0  0
  153.1377  138.9996  155.6746 H   0  0  0  0  0  0  0  0  0  0  0  0
  154.3368  141.5038  161.3959 H   0  0  0  0  0  0  0  0  0  0  0  0
  154.9537  140.5205  160.0742 H   0  0  0  0  0  0  0  0  0  0  0  0
  153.6893  139.8904  161.1273 H   0  0  0  0  0  0  0  0  0  0  0  0
  152.0252  144.6024  160.5617 H   0  0  0  0  0  0  0  0  0  0  0  0
  153.7343  144.2432  160.3977 H   0  0  0  0  0  0  0  0  0  0  0  0
  152.7907  143.4801  161.6649 H   0  0  0  0  0  0  0  0  0  0  0  0
  151.0605  144.6860  158.3015 H   0  0  0  0  0  0  0  0  0  0  0  0
  149.6724  143.6442  158.6212 H   0  0  0  0  0  0  0  0  0  0  0  0
  150.4833  143.5897  157.0560 H   0  0  0  0  0  0  0  0  0  0  0  0
  146.2998  141.2690  154.8637 H   0  0  0  0  0  0  0  0  0  0  0  0
  147.3154  142.3667  153.9211 H   0  0  0  0  0  0  0  0  0  0  0  0
  147.4707  142.2979  155.6721 H   0  0  0  0  0  0  0  0  0  0  0  0
  1  2  1  0  0  0  0
  1 26  1  0  0  0  0
  1 27  1  0  0  0  0
  1 28  1  0  0  0  0
  2  3  1  0  0  0  0
  3  4  1  0  0  0  0
  3 29  1  0  0  0  0
  3 30  1  0  0  0  0
  4  5  1  0  0  0  0
  4 31  1  0  0  0  0
  4 32  1  0  0  0  0
  5 17  1  0  0  0  0
  5  6  1  0  0  0  0
  6  7  1  0  0  0  0
  6 15  2  0  0  0  0
  7 13  1  0  0  0  0
  7  8  1  0  0  0  0
  8  9  2  0  0  0  0
  9 10  1  0  0  0  0
  9 11  1  0  0  0  0
 10 33  1  0  0  0  0
 10 34  1  0  0  0  0
 10 35  1  0  0  0  0
 11 12  1  0  0  0  0
 11 13  2  0  0  0  0
 12 36  1  0  0  0  0
 12 37  1  0  0  0  0
 12 38  1  0  0  0  0
 13 14  1  0  0  0  0
 14 39  1  0  0  0  0
 14 40  1  0  0  0  0
 14 41  1  0  0  0  0
 15 16  1  0  0  0  0
 16 23  1  0  0  0  0
 16 17  2  0  0  0  0
 17 18  1  0  0  0  0
 18 19  2  0  0  0  0
 18 20  1  0  0  0  0
 20 25  1  0  0  0  0
 20 21  1  0  0  0  0
 21 22  2  0  0  0  0
 21 23  1  0  0  0  0
 23 24  1  0  0  0  0
 24 42  1  0  0  0  0
 24 43  1  0  0  0  0
 24 44  1  0  0  0  0
M  END
> <s_m_source_file>
AV-unprocessed.smi

> <i_m_source_file_index>
1887

> <i_lp_mmshare_version>
43012

> <i_f3d_flags>
0

> <s_epik_input>
W0NIM11uMWMoPU8pW25IXWMoPU8pYyhjMTIpbihbQ0gyXVtDSDJdT1tDSDNdKWMobjIpLW4zbmMoW0NIM10pYyhbQ0gzXSljM1tDSDNd

> <s_epik_cmdline>
J2VwaWtfcHl0aG9uJywgJy1waCcsICc3LjAnLCAnLXRuJywgJzgnLCAnLW1hJywgJzIwMCcsICctbWV0YWxfYmluZGluZycsICctaW1hZScsICc8aW5maWxlLm1hZT4nLCAnLW9tYWUnLCAnPG91dGZpbGUubWFlPic=

> <r_lp_tautomer_probability>
1

> <r_epik_Ionization_Penalty>
0.00244877

> <r_epik_Ionization_Penalty_Charging>
0.000731299

> <r_epik_Ionization_Penalty_Neutral>
0.00171747

> <r_epik_State_Penalty>
-0

> <r_epik_Charging_Adjusted_Penalty>
0.000731299

> <i_epik_Tot_Q>
0

> <i_epik_Tot_abs_Q>
0

> <r_epik_Metal_State_Penalty>
0.260296

> <b_epik_Metal_Only>
0

> <s_lp_Force_Field>
OPLS_2005

> <r_lp_Energy>
24.2445

> <b_lp_Chiralities_Consistent>
1

> <s_lp_Variant>
AV-unprocessed.smi:1887-1

> <Gold.Version>
5.8.1

> <Gold.Id.Protein>
6NUR|6NUR_protein|mol2

> <Gold.PLP.Fitness>
43.8760

> <Gold.PLP.PLP>
-37.9969

> <Gold.PLP.part.hbond>
-3.0000

> <Gold.PLP.part.metal>
0.0000

> <Gold.PLP.part.buried>
-4.7753

> <Gold.PLP.part.nonpolar>
-32.7361

> <Gold.PLP.part.repulsive>
2.2339

> <Gold.PLP.ligand.clash>
0.0000

> <Gold.PLP.ligand.torsion>
0.2080

> <Gold.PLP.Chemscore.Hbond>
1.9760

> <Gold.PLP.Chemscore.CHOScore>
0.0000

> <Gold.PLP.Chemscore.Metal>
0.0000

> <Gold.Chemscore.Hbonds>
donor molecule, donor type, donor heavy atom, donor atom, acceptor molecule, acceptor atom, score
      L1  H    20    25       P1  7948  1.00
      P1  H 10752 10765       L1     2  0.98

> <Gold.PLP.Chemscore.Internal.Correction>
0.3672

> <Gold.Rescore>
     Score         DG    S(hbond)    S(metal)    S(lipo)     H(rot)  DE(clash)    DE(int)     intcor
     14.81     -17.91       1.87        0.00      85.57       1.50       0.11       2.99       ----

> <Gold.Chemscore.Fitness>
14.8066

> <Gold.Chemscore.DG>
-17.9097

> <Gold.Chemscore.ZeroCoef>
-5.4800

> <Gold.Chemscore.Hbond>
1.8749

> <Gold.Chemscore.Metal>
0.0000

> <Gold.Chemscore.Lipo>
85.5664

> <Gold.Chemscore.Internal_Hbond>
0.0000

> <Gold.Chemscore.DEClash>
0.1088

> <Gold.Chemscore.DEInternal>
2.9942

> <Gold.Chemscore.Rot>
1.5014

> <Gold.Chemscore.Internal.Correction>
   9.000000E+99

> <Gold.Chemscore.Hbonds>
donor molecule, donor type, donor heavy atom, donor atom, acceptor molecule, acceptor atom, score
      L1  H    20    25       P1  7948  0.91
      P1  H 10752 10765       L1     2  0.90

> <Gold.Chemscore.Hbond.Weighted>
-6.2621

> <Gold.Chemscore.Metal.Weighted>
-0.0000

> <Gold.Chemscore.Lipo.Weighted>
-10.0113

> <Gold.Chemscore.Internal_Hbond.Weighted>
0.0000

> <Gold.Chemscore.DEClash.Weighted>
0.1088

> <Gold.Chemscore.DEInternal.Weighted>
2.9942

> <Gold.Chemscore.Rot.Weighted>
3.8437

> <Gold.Chemscore.Internal.Correction.Weighted>
   9.000000E+99

> <Gold.Protein.RotatedTorsions>
[ 6907 6896 6895 6894 ] final  -55.19 input  -60.11 | X-H torsion
[ 7974 7965 7964 7962 ] final   79.35 input  175.53 | X-H torsion
[ 8008 7997 7996 7995 ] final  175.30 input   59.86 | X-H torsion
[ 10167 10162 10161 10158 ] final  -21.82 input  -65.29 | X-H torsion
[ 10718 10713 10712 10709 ] final    7.91 input   66.30 | X-H torsion
[ 10763 10752 10751 10750 ] final -116.11 input  -60.55 | X-H torsion
[ 11005 11000 10999 10996 ] final  -49.94 input  -57.11 | X-H torsion

> <Gold.Protein.ActiveResidues>
 VAL166  LYS551  ARG553  GLY616  TRP617  ASP618  TYR619  PRO620  LYS621  CYS622 
 ASP623  PHE694  ASN695  SER759  ASP760  ASP761  ALA762  ILE779  LEU786  VAL792 
 PHE793  MET794  SER795  GLU796  ALA797  LYS798  CYS799  TRP800  GLU811  SER814 

> <Gold.Protein.RotatedAtoms>
  150.8272  134.7509  159.6822 H   0  0  0  0  0  0  0  0  0  0  0  0  # atno 6907 bound_to 6896
  152.4382  134.5641  159.9912 H   0  0  0  0  0  0  0  0  0  0  0  0  # atno 6908 bound_to 6896
  151.5811  133.3340  159.3044 H   0  0  0  0  0  0  0  0  0  0  0  0  # atno 6909 bound_to 6896
  145.6654  139.2482  143.1899 H   0  0  0  0  0  0  0  0  0  0  0  0  # atno 7974 bound_to 7965
  156.0884  140.1412  156.9623 H   0  0  0  0  0  0  0  0  0  0  0  0  # atno 8008 bound_to 7997
  154.4627  140.0937  156.6984 H   0  0  0  0  0  0  0  0  0  0  0  0  # atno 8009 bound_to 7997
  155.4960  140.3449  155.4365 H   0  0  0  0  0  0  0  0  0  0  0  0  # atno 8010 bound_to 7997
  140.7283  143.4592  151.0404 H   0  0  0  0  0  0  0  0  0  0  0  0  # atno 10167 bound_to 10162
  156.9439  130.5871  149.5653 H   0  0  0  0  0  0  0  0  0  0  0  0  # atno 10718 bound_to 10713
  154.8507  135.4357  154.1768 H   0  0  0  0  0  0  0  0  0  0  0  0  # atno 10763 bound_to 10752
  153.2868  135.6958  153.7337 H   0  0  0  0  0  0  0  0  0  0  0  0  # atno 10764 bound_to 10752
  153.6520  135.3450  155.3077 H   0  0  0  0  0  0  0  0  0  0  0  0  # atno 10765 bound_to 10752
  141.0788  133.6659  156.3658 H   0  0  0  0  0  0  0  0  0  0  0  0  # atno 11005 bound_to 11000
  146.1091  140.7451  142.9512 LP  0  0  0  0  0  0  0  0  0  0  0  0  # atno 17320 bound_to 7965
  144.7075  140.3909  143.7107 LP  0  0  0  0  0  0  0  0  0  0  0  0  # atno 17321 bound_to 7965
  139.8275  143.7736  152.3179 LP  0  0  0  0  0  0  0  0  0  0  0  0  # atno 17342 bound_to 10162
  139.7840  144.7434  151.0048 LP  0  0  0  0  0  0  0  0  0  0  0  0  # atno 17343 bound_to 10162
  156.0392  130.5477  150.8730 LP  0  0  0  0  0  0  0  0  0  0  0  0  # atno 17370 bound_to 10713
  157.5767  131.0946  150.9335 LP  0  0  0  0  0  0  0  0  0  0  0  0  # atno 17371 bound_to 10713
  140.5515  134.6023  157.5409 LP  0  0  0  0  0  0  0  0  0  0  0  0  # atno 17394 bound_to 11000
  139.9600  134.7468  156.0257 LP  0  0  0  0  0  0  0  0  0  0  0  0  # atno 17395 bound_to 11000

$$$$
