AV-unprocessed.smi:1209|AV-procd|sdf|5071|dock8
  -GOLD-   22720 4113D 1   1.00000     0.00000
 Structure written by MMmdl.
 49 51  0  0  0  0  0  0  0  0  2 V2000
  148.7410  130.8447  153.6631 C   0  0  0  0  0  0  0  0  0  0  0  0
  149.1183  132.2019  154.1494 C   0  0  0  0  0  0  0  0  0  0  0  0
  150.1417  132.6604  154.9289 C   0  0  0  0  0  0  0  0  0  0  0  0
  149.9079  134.0617  155.0014 C   0  0  0  0  0  0  0  0  0  0  0  0
  150.7108  135.1098  155.7263 C   0  0  0  0  0  0  0  0  0  0  0  0
  150.2913  136.4808  155.4267 N   0  0  0  0  0  0  0  0  0  0  0  0
  149.0061  136.7840  156.0572 C   0  0  0  0  0  0  0  0  0  0  0  0
  151.3317  137.4299  155.8328 C   0  0  0  0  0  0  0  0  0  0  0  0
  150.9788  138.9230  155.6748 C   0  0  2  0  0  0  0  0  0  0  0  0
  150.9063  139.2188  154.2940 O   0  0  0  0  0  0  0  0  0  0  0  0
  152.0394  139.8215  156.3413 C   0  0  0  0  0  0  0  0  0  0  0  0
  151.4997  141.1084  156.8044 N   0  0  0  0  0  0  0  0  0  0  0  0
  150.6413  141.9632  156.1852 C   0  0  0  0  0  0  0  0  0  0  0  0
  150.4323  143.0155  157.0238 N   0  3  0  0  0  0  0  0  0  0  0  0
  151.1704  142.8319  158.1950 C   0  0  0  0  0  0  0  0  0  0  0  0
  151.2834  143.6226  159.3324 C   0  0  0  0  0  0  0  0  0  0  0  0
  152.1295  143.1535  160.3624 C   0  0  0  0  0  0  0  0  0  0  0  0
  152.2768  143.9939  161.6195 C   0  0  0  0  0  0  0  0  0  0  0  0
  152.8302  141.9266  160.2294 C   0  0  0  0  0  0  0  0  0  0  0  0
  153.7429  141.4345  161.3397 C   0  0  0  0  0  0  0  0  0  0  0  0
  152.6993  141.1359  159.0655 C   0  0  0  0  0  0  0  0  0  0  0  0
  151.8600  141.6113  158.0607 C   0  0  0  0  0  0  0  0  0  0  0  0
  148.8281  134.4139  154.3226 N   0  0  0  0  0  0  0  0  0  0  0  0
  148.3169  133.2321  153.7747 O   0  0  0  0  0  0  0  0  0  0  0  0
  149.5975  130.1711  153.6885 H   0  0  0  0  0  0  0  0  0  0  0  0
  148.3753  130.8864  152.6368 H   0  0  0  0  0  0  0  0  0  0  0  0
  147.9555  130.4168  154.2862 H   0  0  0  0  0  0  0  0  0  0  0  0
  150.9380  132.0848  155.3769 H   0  0  0  0  0  0  0  0  0  0  0  0
  150.6720  134.9412  156.8040 H   0  0  0  0  0  0  0  0  0  0  0  0
  151.7569  134.9835  155.4455 H   0  0  0  0  0  0  0  0  0  0  0  0
  148.6412  137.7685  155.7690 H   0  0  0  0  0  0  0  0  0  0  0  0
  149.0840  136.7527  157.1448 H   0  0  0  0  0  0  0  0  0  0  0  0
  148.2394  136.0702  155.7555 H   0  0  0  0  0  0  0  0  0  0  0  0
  151.6043  137.2342  156.8711 H   0  0  0  0  0  0  0  0  0  0  0  0
  152.2368  137.2433  155.2524 H   0  0  0  0  0  0  0  0  0  0  0  0
  150.0123  139.1448  156.1254 H   0  0  0  0  0  0  0  0  0  0  0  0
  150.3785  138.5544  153.8766 H   0  0  0  0  0  0  0  0  0  0  0  0
  152.4503  139.3169  157.2167 H   0  0  0  0  0  0  0  0  0  0  0  0
  152.8821  140.0046  155.6741 H   0  0  0  0  0  0  0  0  0  0  0  0
  150.2017  141.8295  155.2074 H   0  0  0  0  0  0  0  0  0  0  0  0
  150.7486  144.5567  159.4251 H   0  0  0  0  0  0  0  0  0  0  0  0
  151.9698  143.4264  162.4985 H   0  0  0  0  0  0  0  0  0  0  0  0
  151.6617  144.8931  161.5735 H   0  0  0  0  0  0  0  0  0  0  0  0
  153.3133  144.3049  161.7520 H   0  0  0  0  0  0  0  0  0  0  0  0
  154.1934  140.4734  161.0888 H   0  0  0  0  0  0  0  0  0  0  0  0
  153.1851  141.3082  162.2676 H   0  0  0  0  0  0  0  0  0  0  0  0
  154.5510  142.1455  161.5136 H   0  0  0  0  0  0  0  0  0  0  0  0
  153.2381  140.2057  158.9623 H   0  0  0  0  0  0  0  0  0  0  0  0
  149.8297  143.7998  156.8103 H   0  0  0  0  0  0  0  0  0  0  0  0
  1  2  1  0  0  0  0
  1 25  1  0  0  0  0
  1 26  1  0  0  0  0
  1 27  1  0  0  0  0
  2 24  1  0  0  0  0
  2  3  2  0  0  0  0
  3  4  1  0  0  0  0
  3 28  1  0  0  0  0
  4  5  1  0  0  0  0
  4 23  2  0  0  0  0
  5  6  1  0  0  0  0
  5 29  1  0  0  0  0
  5 30  1  0  0  0  0
  6  7  1  0  0  0  0
  6  8  1  0  0  0  0
  7 31  1  0  0  0  0
  7 32  1  0  0  0  0
  7 33  1  0  0  0  0
  8  9  1  0  0  0  0
  8 34  1  0  0  0  0
  8 35  1  0  0  0  0
  9 10  1  0  0  0  0
  9 11  1  0  0  0  0
  9 36  1  0  0  0  0
 10 37  1  0  0  0  0
 11 12  1  0  0  0  0
 11 38  1  0  0  0  0
 11 39  1  0  0  0  0
 12 22  1  0  0  0  0
 12 13  1  0  0  0  0
 13 14  2  0  0  0  0
 13 40  1  0  0  0  0
 14 15  1  0  0  0  0
 14 49  1  0  0  0  0
 15 22  2  0  0  0  0
 15 16  1  0  0  0  0
 16 17  2  0  0  0  0
 16 41  1  0  0  0  0
 17 18  1  0  0  0  0
 17 19  1  0  0  0  0
 18 42  1  0  0  0  0
 18 43  1  0  0  0  0
 18 44  1  0  0  0  0
 19 20  1  0  0  0  0
 19 21  2  0  0  0  0
 20 45  1  0  0  0  0
 20 46  1  0  0  0  0
 20 47  1  0  0  0  0
 21 22  1  0  0  0  0
 21 48  1  0  0  0  0
 23 24  1  0  0  0  0
M  CHG  1  14   1
M  END
> <s_m_source_file>
AV-unprocessed.smi

> <i_m_source_file_index>
1209

> <i_lp_mmshare_version>
43012

> <i_f3d_flags>
0

> <s_epik_input>
W0NIM11jMVtjSF1jKG5vMSlbQ0gyXU4oW0NIM10pW0NIMl1bQ0BIXShbT0hdKVtDSDJdbihbY0hdbjIpYyhjMjMpW2NIXWMoW0NIM10pYyhbY0hdMylbQ0gzXQ==

> <s_epik_cmdline>
J2VwaWtfcHl0aG9uJywgJy1waCcsICc3LjAnLCAnLXRuJywgJzgnLCAnLW1hJywgJzIwMCcsICctbWV0YWxfYmluZGluZycsICctaW1hZScsICc8aW5maWxlLm1hZT4nLCAnLW9tYWUnLCAnPG91dGZpbGUubWFlPic=

> <r_epik_Ionization_Penalty>
1.23608

> <r_epik_Ionization_Penalty_Charging>
1.21624

> <r_epik_Ionization_Penalty_Neutral>
0.0198409

> <r_epik_State_Penalty>
1.27749

> <r_epik_Charging_Adjusted_Penalty>
2.49372

> <i_epik_Tot_Q>
1

> <i_epik_Tot_abs_Q>
1

> <r_epik_Metal_State_Penalty>
1.34809

> <b_epik_Metal_Only>
0

> <s_lp_Force_Field>
OPLS_2005

> <r_lp_Energy>
23.9348

> <b_lp_Chiralities_Consistent>
1

> <s_lp_Variant>
AV-unprocessed.smi:1209-3

> <Gold.Version>
5.8.1

> <Gold.Id.Protein>
6NUR|6NUR_protein|mol2

> <Gold.PLP.Fitness>
54.5148

> <Gold.PLP.PLP>
-47.0346

> <Gold.PLP.part.hbond>
-2.0000

> <Gold.PLP.part.metal>
0.0000

> <Gold.PLP.part.buried>
-7.2575

> <Gold.PLP.part.nonpolar>
-39.0020

> <Gold.PLP.part.repulsive>
1.0360

> <Gold.PLP.ligand.clash>
0.0000

> <Gold.PLP.ligand.torsion>
0.7934

> <Gold.PLP.Chemscore.Hbond>
3.0000

> <Gold.PLP.Chemscore.CHOScore>
0.0000

> <Gold.PLP.Chemscore.Metal>
0.0000

> <Gold.Chemscore.Hbonds>
donor molecule, donor type, donor heavy atom, donor atom, acceptor molecule, acceptor atom, score
      L1  H    14    49       P1  8028  2.00
      P1  H  7989  7998       L1    10  1.00

> <Gold.PLP.Chemscore.Internal.Correction>
0.0669

> <Gold.Rescore>
     Score         DG    S(hbond)    S(metal)    S(lipo)     H(rot)  DE(clash)    DE(int)     intcor
     18.03     -20.53       1.94        0.00     128.50       2.53       0.57       1.93       ----

> <Gold.Chemscore.Fitness>
18.0309

> <Gold.Chemscore.DG>
-20.5316

> <Gold.Chemscore.ZeroCoef>
-5.4800

> <Gold.Chemscore.Hbond>
1.9415

> <Gold.Chemscore.Metal>
0.0000

> <Gold.Chemscore.Lipo>
128.5008

> <Gold.Chemscore.Internal_Hbond>
0.0000

> <Gold.Chemscore.DEClash>
0.5716

> <Gold.Chemscore.DEInternal>
1.9290

> <Gold.Chemscore.Rot>
2.5265

> <Gold.Chemscore.Internal.Correction>
   9.000000E+99

> <Gold.Chemscore.Hbonds>
donor molecule, donor type, donor heavy atom, donor atom, acceptor molecule, acceptor atom, score
      L1  H    14    49       P1  8028  0.94
      P1  H  7989  7998       L1    10  0.98

> <Gold.Chemscore.Hbond.Weighted>
-6.4847

> <Gold.Chemscore.Metal.Weighted>
-0.0000

> <Gold.Chemscore.Lipo.Weighted>
-15.0346

> <Gold.Chemscore.Internal_Hbond.Weighted>
0.0000

> <Gold.Chemscore.DEClash.Weighted>
0.5716

> <Gold.Chemscore.DEInternal.Weighted>
1.9290

> <Gold.Chemscore.Rot.Weighted>
6.4677

> <Gold.Chemscore.Internal.Correction.Weighted>
   9.000000E+99

> <Gold.Protein.RotatedTorsions>
[ 6907 6896 6895 6894 ] final  -42.77 input  -60.11 | X-H torsion
[ 7974 7965 7964 7962 ] final -141.09 input  175.53 | X-H torsion
[ 8008 7997 7996 7995 ] final -100.89 input   59.86 | X-H torsion
[ 10167 10162 10161 10158 ] final -132.27 input  -65.29 | X-H torsion
[ 10718 10713 10712 10709 ] final  126.90 input   66.30 | X-H torsion
[ 10763 10752 10751 10750 ] final   -1.94 input  -60.55 | X-H torsion
[ 11005 11000 10999 10996 ] final  -17.99 input  -57.11 | X-H torsion

> <Gold.Protein.ActiveResidues>
 VAL166  LYS551  ARG553  GLY616  TRP617  ASP618  TYR619  PRO620  LYS621  CYS622 
 ASP623  PHE694  ASN695  SER759  ASP760  ASP761  ALA762  ILE779  LEU786  VAL792 
 PHE793  MET794  SER795  GLU796  ALA797  LYS798  CYS799  TRP800  GLU811  SER814 

> <Gold.Protein.RotatedAtoms>
  150.9515  134.8914  159.7674 H   0  0  0  0  0  0  0  0  0  0  0  0  # atno 6907 bound_to 6896
  152.5121  134.3800  159.9358 H   0  0  0  0  0  0  0  0  0  0  0  0  # atno 6908 bound_to 6896
  151.3816  133.3779  159.2745 H   0  0  0  0  0  0  0  0  0  0  0  0  # atno 6909 bound_to 6896
  144.8547  140.6122  143.5367 H   0  0  0  0  0  0  0  0  0  0  0  0  # atno 7974 bound_to 7965
  154.8348  140.0438  157.1502 H   0  0  0  0  0  0  0  0  0  0  0  0  # atno 8008 bound_to 7997
  154.9112  140.3014  155.5245 H   0  0  0  0  0  0  0  0  0  0  0  0  # atno 8009 bound_to 7997
  156.2989  140.2358  156.4151 H   0  0  0  0  0  0  0  0  0  0  0  0  # atno 8010 bound_to 7997
  139.9103  143.6502  152.2577 H   0  0  0  0  0  0  0  0  0  0  0  0  # atno 10167 bound_to 10162
  157.5379  131.1097  150.8906 H   0  0  0  0  0  0  0  0  0  0  0  0  # atno 10718 bound_to 10713
  153.3514  135.6986  153.6785 H   0  0  0  0  0  0  0  0  0  0  0  0  # atno 10763 bound_to 10752
  153.5511  135.3553  155.2760 H   0  0  0  0  0  0  0  0  0  0  0  0  # atno 10764 bound_to 10752
  154.8654  135.4226  154.2750 H   0  0  0  0  0  0  0  0  0  0  0  0  # atno 10765 bound_to 10752
  140.8223  133.8059  155.9672 H   0  0  0  0  0  0  0  0  0  0  0  0  # atno 11005 bound_to 11000
  145.4431  139.1533  143.3959 LP  0  0  0  0  0  0  0  0  0  0  0  0  # atno 17320 bound_to 7965
  146.2813  140.4553  142.8775 LP  0  0  0  0  0  0  0  0  0  0  0  0  # atno 17321 bound_to 7965
  139.6948  144.7642  151.1375 LP  0  0  0  0  0  0  0  0  0  0  0  0  # atno 17342 bound_to 10162
  140.7687  143.5538  150.9174 LP  0  0  0  0  0  0  0  0  0  0  0  0  # atno 17343 bound_to 10162
  156.9467  130.5405  149.5281 LP  0  0  0  0  0  0  0  0  0  0  0  0  # atno 17370 bound_to 10713
  156.0473  130.5548  150.8910 LP  0  0  0  0  0  0  0  0  0  0  0  0  # atno 17371 bound_to 10713
  140.9086  134.2289  157.4999 LP  0  0  0  0  0  0  0  0  0  0  0  0  # atno 17394 bound_to 11000
  139.8708  134.9739  156.4828 LP  0  0  0  0  0  0  0  0  0  0  0  0  # atno 17395 bound_to 11000

$$$$
