AV-unprocessed.smi:2675|AV-procd|sdf|10360|dock2
  -GOLD-   2272014383D 1   1.00000     0.00000
 Structure written by MMmdl.
 37 38  0  0  0  0  0  0  0  0  2 V2000
  151.6501  145.3502  158.9815 C   0  0  0  0  0  0  0  0  0  0  0  0
  151.4585  143.8974  158.7003 C   0  0  0  0  0  0  0  0  0  0  0  0
  150.6752  143.4621  157.6643 N   0  3  0  0  0  0  0  0  0  0  0  0
  150.6578  142.1297  157.6163 C   0  0  0  0  0  0  0  0  0  0  0  0
  151.4276  141.6965  158.6209 N   0  0  0  0  0  0  0  0  0  0  0  0
  151.6207  140.2628  158.8814 C   0  0  0  0  0  0  0  0  0  0  0  0
  152.2018  139.5642  157.6528 C   0  0  0  0  0  0  0  0  0  0  0  0
  153.3876  139.2388  157.6410 O   0  0  0  0  0  0  0  0  0  0  0  0
  151.3400  139.3115  156.6527 N   0  0  0  0  0  0  0  0  0  0  0  0
  151.5792  138.5732  155.4059 C   0  0  1  0  0  0  0  0  0  0  0  0
  152.9032  139.1119  154.8398 C   0  0  0  0  0  0  0  0  0  0  0  0
  151.7485  137.1263  155.6462 C   0  0  0  0  0  0  0  0  0  0  0  0
  151.8835  135.9922  155.8327 N   0  0  0  0  0  0  0  0  0  0  0  0
  150.4924  138.7419  154.3413 C   0  0  0  0  0  0  0  0  0  0  0  0
  149.7055  140.0248  154.1867 C   0  0  0  0  0  0  0  0  0  0  0  0
  149.0081  138.7604  154.6369 C   0  0  0  0  0  0  0  0  0  0  0  0
  151.9445  142.7668  159.3181 C   0  0  0  0  0  0  0  0  0  0  0  0
  152.8434  142.6082  160.5022 C   0  0  0  0  0  0  0  0  0  0  0  0
  152.2749  145.4968  159.8621 H   0  0  0  0  0  0  0  0  0  0  0  0
  150.6871  145.8293  159.1596 H   0  0  0  0  0  0  0  0  0  0  0  0
  152.1303  145.8373  158.1325 H   0  0  0  0  0  0  0  0  0  0  0  0
  150.1206  141.5234  156.9087 H   0  0  0  0  0  0  0  0  0  0  0  0
  152.2800  140.1483  159.7434 H   0  0  0  0  0  0  0  0  0  0  0  0
  150.6617  139.8191  159.1500 H   0  0  0  0  0  0  0  0  0  0  0  0
  150.3949  139.6435  156.7787 H   0  0  0  0  0  0  0  0  0  0  0  0
  153.1772  138.5996  153.9166 H   0  0  0  0  0  0  0  0  0  0  0  0
  153.7235  138.9703  155.5449 H   0  0  0  0  0  0  0  0  0  0  0  0
  152.8380  140.1777  154.6166 H   0  0  0  0  0  0  0  0  0  0  0  0
  150.7514  138.2454  153.4074 H   0  0  0  0  0  0  0  0  0  0  0  0
  149.8433  140.8095  154.9275 H   0  0  0  0  0  0  0  0  0  0  0  0
  149.5117  140.3731  153.1743 H   0  0  0  0  0  0  0  0  0  0  0  0
  148.3524  138.2694  153.9208 H   0  0  0  0  0  0  0  0  0  0  0  0
  148.6689  138.7229  155.6680 H   0  0  0  0  0  0  0  0  0  0  0  0
  153.1667  143.5790  160.8763 H   0  0  0  0  0  0  0  0  0  0  0  0
  153.7305  142.0359  160.2314 H   0  0  0  0  0  0  0  0  0  0  0  0
  152.3223  142.0885  161.3064 H   0  0  0  0  0  0  0  0  0  0  0  0
  150.1757  144.0660  157.0236 H   0  0  0  0  0  0  0  0  0  0  0  0
  1  2  1  0  0  0  0
  1 19  1  0  0  0  0
  1 20  1  0  0  0  0
  1 21  1  0  0  0  0
  2 17  2  0  0  0  0
  2  3  1  0  0  0  0
  3  4  2  0  0  0  0
  3 37  1  0  0  0  0
  4  5  1  0  0  0  0
  4 22  1  0  0  0  0
  5  6  1  0  0  0  0
  5 17  1  0  0  0  0
  6  7  1  0  0  0  0
  6 23  1  0  0  0  0
  6 24  1  0  0  0  0
  7  8  2  0  0  0  0
  7  9  1  0  0  0  0
  9 10  1  0  0  0  0
  9 25  1  0  0  0  0
 10 11  1  0  0  0  0
 10 12  1  0  0  0  0
 10 14  1  0  0  0  0
 11 26  1  0  0  0  0
 11 27  1  0  0  0  0
 11 28  1  0  0  0  0
 12 13  3  0  0  0  0
 14 16  1  0  0  0  0
 14 15  1  0  0  0  0
 14 29  1  0  0  0  0
 15 16  1  0  0  0  0
 15 30  1  0  0  0  0
 15 31  1  0  0  0  0
 16 32  1  0  0  0  0
 16 33  1  0  0  0  0
 17 18  1  0  0  0  0
 18 34  1  0  0  0  0
 18 35  1  0  0  0  0
 18 36  1  0  0  0  0
M  CHG  1   3   1
M  END
> <s_m_source_file>
AV-unprocessed.smi

> <i_m_source_file_index>
2675

> <i_lp_mmshare_version>
43012

> <i_f3d_flags>
0

> <s_epik_input>
W0NIM11jMW5bY0hdbihjMVtDSDNdKVtDSDJdQyg9TylbTkhdW0NAQF0oW0NIM10pKEMjTilbQ0hdMltDSDJdW0NIMl0y

> <s_epik_cmdline>
J2VwaWtfcHl0aG9uJywgJy1waCcsICc3LjAnLCAnLXRuJywgJzgnLCAnLW1hJywgJzIwMCcsICctbWV0YWxfYmluZGluZycsICctaW1hZScsICc8aW5maWxlLm1hZT4nLCAnLW9tYWUnLCAnPG91dGZpbGUubWFlPic=

> <r_lp_tautomer_probability>
1

> <r_epik_Ionization_Penalty>
0.153253

> <r_epik_Ionization_Penalty_Charging>
0

> <r_epik_Ionization_Penalty_Neutral>
0.153253

> <r_epik_State_Penalty>
0.14254

> <r_epik_Charging_Adjusted_Penalty>
0.14254

> <i_epik_Tot_Q>
1

> <i_epik_Tot_abs_Q>
1

> <r_epik_Metal_State_Penalty>
0.466899

> <b_epik_Metal_Only>
0

> <s_lp_Force_Field>
OPLS_2005

> <r_lp_Energy>
18.2007

> <b_lp_Chiralities_Consistent>
1

> <s_lp_Variant>
AV-unprocessed.smi:2675-1

> <Gold.Version>
5.8.1

> <Gold.Id.Protein>
6NUR|6NUR_protein|mol2

> <Gold.PLP.Fitness>
49.3850

> <Gold.PLP.PLP>
-38.1766

> <Gold.PLP.part.hbond>
-3.0000

> <Gold.PLP.part.metal>
0.0000

> <Gold.PLP.part.buried>
-4.2824

> <Gold.PLP.part.nonpolar>
-31.8072

> <Gold.PLP.part.repulsive>
0.1166

> <Gold.PLP.ligand.clash>
0.0000

> <Gold.PLP.ligand.torsion>
1.1654

> <Gold.PLP.Chemscore.Hbond>
4.0000

> <Gold.PLP.Chemscore.CHOScore>
0.0000

> <Gold.PLP.Chemscore.Metal>
0.0000

> <Gold.Chemscore.Hbonds>
donor molecule, donor type, donor heavy atom, donor atom, acceptor molecule, acceptor atom, score
      L1  H     3    37       P1  8028  2.00
      P1  H  7997  8008       L1     8  1.00
      P1  H 10752 10764       L1    13  1.00

> <Gold.PLP.Chemscore.Internal.Correction>
1.5392

> <Gold.Rescore>
     Score         DG    S(hbond)    S(metal)    S(lipo)     H(rot)  DE(clash)    DE(int)     intcor
     16.15     -19.81       2.76        0.00      83.10       1.80       0.28       3.38       ----

> <Gold.Chemscore.Fitness>
16.1523

> <Gold.Chemscore.DG>
-19.8106

> <Gold.Chemscore.ZeroCoef>
-5.4800

> <Gold.Chemscore.Hbond>
2.7560

> <Gold.Chemscore.Metal>
0.0000

> <Gold.Chemscore.Lipo>
83.0954

> <Gold.Chemscore.Internal_Hbond>
0.0000

> <Gold.Chemscore.DEClash>
0.2782

> <Gold.Chemscore.DEInternal>
3.3801

> <Gold.Chemscore.Rot>
1.7955

> <Gold.Chemscore.Internal.Correction>
   9.000000E+99

> <Gold.Chemscore.Hbonds>
donor molecule, donor type, donor heavy atom, donor atom, acceptor molecule, acceptor atom, score
      L1  H     3    37       P1  8028  0.93
      P1  H  7997  8008       L1     8  0.97
      P1  H 10752 10764       L1    13  0.44

> <Gold.Chemscore.Hbond.Weighted>
-9.2050

> <Gold.Chemscore.Metal.Weighted>
-0.0000

> <Gold.Chemscore.Lipo.Weighted>
-9.7222

> <Gold.Chemscore.Internal_Hbond.Weighted>
0.0000

> <Gold.Chemscore.DEClash.Weighted>
0.2782

> <Gold.Chemscore.DEInternal.Weighted>
3.3801

> <Gold.Chemscore.Rot.Weighted>
4.5965

> <Gold.Chemscore.Internal.Correction.Weighted>
   9.000000E+99

> <Gold.Protein.RotatedTorsions>
[ 6907 6896 6895 6894 ] final   72.72 input  -60.11 | X-H torsion
[ 7974 7965 7964 7962 ] final  -58.84 input  175.53 | X-H torsion
[ 8008 7997 7996 7995 ] final  -85.92 input   59.86 | X-H torsion
[ 10167 10162 10161 10158 ] final    7.60 input  -65.29 | X-H torsion
[ 10718 10713 10712 10709 ] final -157.81 input   66.30 | X-H torsion
[ 10763 10752 10751 10750 ] final  -51.49 input  -60.55 | X-H torsion
[ 11005 11000 10999 10996 ] final  -14.17 input  -57.11 | X-H torsion

> <Gold.Protein.ActiveResidues>
 VAL166  LYS551  ARG553  GLY616  TRP617  ASP618  TYR619  PRO620  LYS621  CYS622 
 ASP623  PHE694  ASN695  SER759  ASP760  ASP761  ALA762  ILE779  LEU786  VAL792 
 PHE793  MET794  SER795  GLU796  ALA797  LYS798  CYS799  TRP800  GLU811  SER814 

> <Gold.Protein.RotatedAtoms>
  152.4884  134.4528  159.9579 H   0  0  0  0  0  0  0  0  0  0  0  0  # atno 6907 bound_to 6896
  151.4520  133.3609  159.2804 H   0  0  0  0  0  0  0  0  0  0  0  0  # atno 6908 bound_to 6896
  150.9015  134.8451  159.7423 H   0  0  0  0  0  0  0  0  0  0  0  0  # atno 6909 bound_to 6896
  145.8345  140.8458  143.0066 H   0  0  0  0  0  0  0  0  0  0  0  0  # atno 7974 bound_to 7965
  154.6461  140.0585  156.9902 H   0  0  0  0  0  0  0  0  0  0  0  0  # atno 8008 bound_to 7997
  155.1443  140.3268  155.4426 H   0  0  0  0  0  0  0  0  0  0  0  0  # atno 8009 bound_to 7997
  156.2554  140.1958  156.6557 H   0  0  0  0  0  0  0  0  0  0  0  0  # atno 8010 bound_to 7997
  140.6362  143.7880  150.7363 H   0  0  0  0  0  0  0  0  0  0  0  0  # atno 10167 bound_to 10162
  156.5454  130.8582  151.2762 H   0  0  0  0  0  0  0  0  0  0  0  0  # atno 10718 bound_to 10713
  154.1274  135.6525  153.4915 H   0  0  0  0  0  0  0  0  0  0  0  0  # atno 10763 bound_to 10752
  153.0206  135.5284  154.7036 H   0  0  0  0  0  0  0  0  0  0  0  0  # atno 10764 bound_to 10752
  154.6260  135.2970  155.0241 H   0  0  0  0  0  0  0  0  0  0  0  0  # atno 10765 bound_to 10752
  140.7837  133.8342  155.9315 H   0  0  0  0  0  0  0  0  0  0  0  0  # atno 11005 bound_to 11000
  144.6737  140.0721  143.7472 LP  0  0  0  0  0  0  0  0  0  0  0  0  # atno 17320 bound_to 7965
  145.9534  139.2749  143.1199 LP  0  0  0  0  0  0  0  0  0  0  0  0  # atno 17321 bound_to 7965
  140.1502  143.4364  152.2136 LP  0  0  0  0  0  0  0  0  0  0  0  0  # atno 17342 bound_to 10162
  139.5573  144.7381  151.4258 LP  0  0  0  0  0  0  0  0  0  0  0  0  # atno 17343 bound_to 10162
  157.7397  130.9837  150.2333 LP  0  0  0  0  0  0  0  0  0  0  0  0  # atno 17370 bound_to 10713
  156.2933  130.3748  149.7820 LP  0  0  0  0  0  0  0  0  0  0  0  0  # atno 17371 bound_to 10713
  140.9457  134.1843  157.4765 LP  0  0  0  0  0  0  0  0  0  0  0  0  # atno 17394 bound_to 11000
  139.8739  134.9889  156.5435 LP  0  0  0  0  0  0  0  0  0  0  0  0  # atno 17395 bound_to 11000

$$$$
