AV-unprocessed.smi:2063|AV-procd|sdf|8408|dock5
  -GOLD-   2272011 93D 1   1.00000     0.00000
 Structure written by MMmdl.
 39 40  0  0  0  0  0  0  0  0  1 V2000
  151.8466  140.0530  157.2537 C   0  0  0  0  0  0  0  0  0  0  0  0
  150.9848  141.0282  156.4385 C   0  0  0  0  0  0  0  0  0  0  0  0
  150.4163  142.1798  157.2805 C   0  0  0  0  0  0  0  0  0  0  0  0
  149.9209  140.3226  155.6565 C   0  0  0  0  0  0  0  0  0  0  0  0
  148.6469  140.7363  155.6197 N   0  0  0  0  0  0  0  0  0  0  0  0
  147.8504  139.9240  154.8254 N   0  0  0  0  0  0  0  0  0  0  0  0
  148.5474  138.9156  154.2846 C   0  0  0  0  0  0  0  0  0  0  0  0
  147.9812  137.9373  153.4248 N   0  0  0  0  0  0  0  0  0  0  0  0
  146.6916  137.7785  153.0788 C   0  0  0  0  0  0  0  0  0  0  0  0
  145.7566  138.4699  153.4830 O   0  0  0  0  0  0  0  0  0  0  0  0
  146.5436  136.7582  152.2203 N   0  0  0  0  0  0  0  0  0  0  0  0
  145.2808  136.3029  151.6399 C   0  0  2  0  0  0  0  0  0  0  0  0
  144.2456  136.1592  152.7653 C   0  0  0  0  0  0  0  0  0  0  0  0
  145.4816  134.9782  150.8740 C   0  0  2  0  0  0  0  0  0  0  0  0
  144.2009  134.3371  150.3363 C   0  0  0  0  0  0  0  0  0  0  0  0
  144.6240  132.8949  150.1821 C   0  0  0  0  0  0  0  0  0  0  0  0
  145.5140  132.6962  151.4057 C   0  0  0  0  0  0  0  0  0  0  0  0
  146.0386  133.9821  151.7288 O   0  0  0  0  0  0  0  0  0  0  0  0
  150.2505  138.8769  154.7066 S   0  0  0  0  0  0  0  0  0  0  0  0
  152.3017  139.2998  156.6098 H   0  0  0  0  0  0  0  0  0  0  0  0
  151.2537  139.5332  158.0071 H   0  0  0  0  0  0  0  0  0  0  0  0
  152.6520  140.5773  157.7688 H   0  0  0  0  0  0  0  0  0  0  0  0
  151.6510  141.4855  155.7059 H   0  0  0  0  0  0  0  0  0  0  0  0
  149.8808  142.8950  156.6553 H   0  0  0  0  0  0  0  0  0  0  0  0
  151.2115  142.7209  157.7940 H   0  0  0  0  0  0  0  0  0  0  0  0
  149.7222  141.8132  158.0373 H   0  0  0  0  0  0  0  0  0  0  0  0
  148.6370  137.2867  153.0186 H   0  0  0  0  0  0  0  0  0  0  0  0
  147.3716  136.2513  151.9440 H   0  0  0  0  0  0  0  0  0  0  0  0
  144.9035  137.0524  150.9418 H   0  0  0  0  0  0  0  0  0  0  0  0
  143.2734  135.8625  152.3711 H   0  0  0  0  0  0  0  0  0  0  0  0
  144.1083  137.1024  153.2951 H   0  0  0  0  0  0  0  0  0  0  0  0
  144.5515  135.4082  153.4946 H   0  0  0  0  0  0  0  0  0  0  0  0
  146.1757  135.1272  150.0447 H   0  0  0  0  0  0  0  0  0  0  0  0
  143.3953  134.4122  151.0683 H   0  0  0  0  0  0  0  0  0  0  0  0
  143.8586  134.7834  149.4023 H   0  0  0  0  0  0  0  0  0  0  0  0
  143.7839  132.2006  150.1476 H   0  0  0  0  0  0  0  0  0  0  0  0
  145.2073  132.7732  149.2683 H   0  0  0  0  0  0  0  0  0  0  0  0
  144.9266  132.3402  152.2526 H   0  0  0  0  0  0  0  0  0  0  0  0
  146.3119  131.9767  151.2212 H   0  0  0  0  0  0  0  0  0  0  0  0
  1  2  1  0  0  0  0
  1 20  1  0  0  0  0
  1 21  1  0  0  0  0
  1 22  1  0  0  0  0
  2  3  1  0  0  0  0
  2  4  1  0  0  0  0
  2 23  1  0  0  0  0
  3 24  1  0  0  0  0
  3 25  1  0  0  0  0
  3 26  1  0  0  0  0
  4 19  1  0  0  0  0
  4  5  2  0  0  0  0
  5  6  1  0  0  0  0
  6  7  2  0  0  0  0
  7  8  1  0  0  0  0
  7 19  1  0  0  0  0
  8  9  1  0  0  0  0
  8 27  1  0  0  0  0
  9 10  2  0  0  0  0
  9 11  1  0  0  0  0
 11 12  1  0  0  0  0
 11 28  1  0  0  0  0
 12 13  1  0  0  0  0
 12 14  1  0  0  0  0
 12 29  1  0  0  0  0
 13 30  1  0  0  0  0
 13 31  1  0  0  0  0
 13 32  1  0  0  0  0
 14 18  1  0  0  0  0
 14 15  1  0  0  0  0
 14 33  1  0  0  0  0
 15 16  1  0  0  0  0
 15 34  1  0  0  0  0
 15 35  1  0  0  0  0
 16 17  1  0  0  0  0
 16 36  1  0  0  0  0
 16 37  1  0  0  0  0
 17 18  1  0  0  0  0
 17 38  1  0  0  0  0
 17 39  1  0  0  0  0
M  END
> <s_m_source_file>
AV-unprocessed.smi

> <i_m_source_file_index>
2063

> <i_lp_mmshare_version>
43012

> <i_f3d_flags>
0

> <s_epik_input>
W0NIM11bQ0hdKFtDSDNdKWMxbm5jKHMxKVtOSF1DKD1PKVtOSF1bQ0BIXShbQ0gzXSlbQ0BASF0yW0NIMl1bQ0gyXVtDSDJdTzI=

> <s_epik_cmdline>
J2VwaWtfcHl0aG9uJywgJy1waCcsICc3LjAnLCAnLXRuJywgJzgnLCAnLW1hJywgJzIwMCcsICctbWV0YWxfYmluZGluZycsICctaW1hZScsICc8aW5maWxlLm1hZT4nLCAnLW9tYWUnLCAnPG91dGZpbGUubWFlPic=

> <r_lp_tautomer_probability>
1

> <r_epik_Ionization_Penalty>
0.00050567

> <r_epik_Ionization_Penalty_Charging>
0

> <r_epik_Ionization_Penalty_Neutral>
0.00050567

> <r_epik_State_Penalty>
-0

> <r_epik_Charging_Adjusted_Penalty>
0

> <i_epik_Tot_Q>
0

> <i_epik_Tot_abs_Q>
0

> <r_epik_Metal_State_Penalty>
0.219912

> <b_epik_Metal_Only>
0

> <s_lp_Force_Field>
OPLS_2005

> <r_lp_Energy>
10.8376

> <b_lp_Chiralities_Consistent>
1

> <s_lp_Variant>
AV-unprocessed.smi:2063-1

> <Gold.Version>
5.8.1

> <Gold.Id.Protein>
6NUR|6NUR_protein|mol2

> <Gold.PLP.Fitness>
34.3423

> <Gold.PLP.PLP>
-28.9350

> <Gold.PLP.part.hbond>
-1.9763

> <Gold.PLP.part.metal>
0.0000

> <Gold.PLP.part.buried>
-2.9691

> <Gold.PLP.part.nonpolar>
-25.4693

> <Gold.PLP.part.repulsive>
0.6226

> <Gold.PLP.ligand.clash>
0.0000

> <Gold.PLP.ligand.torsion>
0.3278

> <Gold.PLP.Chemscore.Hbond>
1.9920

> <Gold.PLP.Chemscore.CHOScore>
0.0000

> <Gold.PLP.Chemscore.Metal>
0.0000

> <Gold.Chemscore.Hbonds>
donor molecule, donor type, donor heavy atom, donor atom, acceptor molecule, acceptor atom, score
      L1  H     8    27       P1  7948  0.98
      L1  H    11    28       P1  7948  0.96

> <Gold.PLP.Chemscore.Internal.Correction>
0.0869

> <Gold.Rescore>
     Score         DG    S(hbond)    S(metal)    S(lipo)     H(rot)  DE(clash)    DE(int)     intcor
     13.82     -16.60       1.92        0.00      71.34       1.42       0.01       2.77       ----

> <Gold.Chemscore.Fitness>
13.8169

> <Gold.Chemscore.DG>
-16.6011

> <Gold.Chemscore.ZeroCoef>
-5.4800

> <Gold.Chemscore.Hbond>
1.9155

> <Gold.Chemscore.Metal>
0.0000

> <Gold.Chemscore.Lipo>
71.3357

> <Gold.Chemscore.Internal_Hbond>
0.0000

> <Gold.Chemscore.DEClash>
0.0106

> <Gold.Chemscore.DEInternal>
2.7736

> <Gold.Chemscore.Rot>
1.4152

> <Gold.Chemscore.Internal.Correction>
   9.000000E+99

> <Gold.Chemscore.Hbonds>
donor molecule, donor type, donor heavy atom, donor atom, acceptor molecule, acceptor atom, score
      L1  H     8    27       P1  7948  0.90
      L1  H    11    28       P1  7948  0.89

> <Gold.Chemscore.Hbond.Weighted>
-6.3978

> <Gold.Chemscore.Metal.Weighted>
-0.0000

> <Gold.Chemscore.Lipo.Weighted>
-8.3463

> <Gold.Chemscore.Internal_Hbond.Weighted>
0.0000

> <Gold.Chemscore.DEClash.Weighted>
0.0106

> <Gold.Chemscore.DEInternal.Weighted>
2.7736

> <Gold.Chemscore.Rot.Weighted>
3.6229

> <Gold.Chemscore.Internal.Correction.Weighted>
   9.000000E+99

> <Gold.Protein.RotatedTorsions>
[ 6907 6896 6895 6894 ] final -176.89 input  -60.11 | X-H torsion
[ 7974 7965 7964 7962 ] final  109.27 input  175.53 | X-H torsion
[ 8008 7997 7996 7995 ] final   33.38 input   59.86 | X-H torsion
[ 10167 10162 10161 10158 ] final   96.93 input  -65.29 | X-H torsion
[ 10718 10713 10712 10709 ] final  -16.75 input   66.30 | X-H torsion
[ 10763 10752 10751 10750 ] final -132.44 input  -60.55 | X-H torsion
[ 11005 11000 10999 10996 ] final -169.46 input  -57.11 | X-H torsion

> <Gold.Protein.ActiveResidues>
 VAL166  LYS551  ARG553  GLY616  TRP617  ASP618  TYR619  PRO620  LYS621  CYS622 
 ASP623  PHE694  ASN695  SER759  ASP760  ASP761  ALA762  ILE779  LEU786  VAL792 
 PHE793  MET794  SER795  GLU796  ALA797  LYS798  CYS799  TRP800  GLU811  SER814 

> <Gold.Protein.RotatedAtoms>
  151.6121  133.3346  159.3069 H   0  0  0  0  0  0  0  0  0  0  0  0  # atno 6907 bound_to 6896
  150.8151  134.7331  159.6734 H   0  0  0  0  0  0  0  0  0  0  0  0  # atno 6908 bound_to 6896
  152.4247  134.5896  160.0022 H   0  0  0  0  0  0  0  0  0  0  0  0  # atno 6909 bound_to 6896
  145.2700  139.2670  143.3971 H   0  0  0  0  0  0  0  0  0  0  0  0  # atno 7974 bound_to 7965
  155.1377  140.3263  155.4459 H   0  0  0  0  0  0  0  0  0  0  0  0  # atno 8008 bound_to 7997
  156.2614  140.1999  156.6443 H   0  0  0  0  0  0  0  0  0  0  0  0  # atno 8009 bound_to 7997
  154.6565  140.0552  157.0001 H   0  0  0  0  0  0  0  0  0  0  0  0  # atno 8010 bound_to 7997
  139.7849  144.6874  150.9972 H   0  0  0  0  0  0  0  0  0  0  0  0  # atno 10167 bound_to 10162
  156.5832  130.4779  149.6311 H   0  0  0  0  0  0  0  0  0  0  0  0  # atno 10718 bound_to 10713
  154.8743  135.3798  154.4410 H   0  0  0  0  0  0  0  0  0  0  0  0  # atno 10763 bound_to 10752
  153.5095  135.7030  153.5793 H   0  0  0  0  0  0  0  0  0  0  0  0  # atno 10764 bound_to 10752
  153.4089  135.3929  155.2003 H   0  0  0  0  0  0  0  0  0  0  0  0  # atno 10765 bound_to 10752
  140.5305  134.5621  157.5073 H   0  0  0  0  0  0  0  0  0  0  0  0  # atno 11005 bound_to 11000
  146.3249  140.3140  142.8628 LP  0  0  0  0  0  0  0  0  0  0  0  0  # atno 17320 bound_to 7965
  144.9343  140.8009  143.5670 LP  0  0  0  0  0  0  0  0  0  0  0  0  # atno 17321 bound_to 7965
  140.7819  143.4443  151.0505 LP  0  0  0  0  0  0  0  0  0  0  0  0  # atno 17342 bound_to 10162
  139.8122  143.7935  152.3172 LP  0  0  0  0  0  0  0  0  0  0  0  0  # atno 17343 bound_to 10162
  156.2613  130.6964  151.1733 LP  0  0  0  0  0  0  0  0  0  0  0  0  # atno 17370 bound_to 10713
  157.7321  131.0602  150.5643 LP  0  0  0  0  0  0  0  0  0  0  0  0  # atno 17371 bound_to 10713
  139.9557  134.7540  156.0348 LP  0  0  0  0  0  0  0  0  0  0  0  0  # atno 17394 bound_to 11000
  141.1284  133.6593  156.3398 LP  0  0  0  0  0  0  0  0  0  0  0  0  # atno 17395 bound_to 11000

$$$$
