AV-unprocessed.smi:703|AV-procd|sdf|3432|dock3
  -GOLD-   22720 0423D 1   1.00000     0.00000
 Structure written by MMmdl.
 38 39  0  0  0  0  0  0  0  0  2 V2000
  145.3983  135.9365  151.5201 C   0  0  0  0  0  0  0  0  0  0  0  0
  145.7057  136.4228  152.9427 C   0  0  0  0  0  0  0  0  0  0  0  0
  146.9305  137.2553  152.9922 N   0  3  1  0  0  0  0  0  0  0  0  0
  146.7356  138.6848  152.6442 C   0  0  0  0  0  0  0  0  0  0  0  0
  147.3469  139.5082  153.7852 C   0  0  2  0  0  0  0  0  0  0  0  0
  147.8918  140.8860  153.3733 C   0  0  0  0  0  0  0  0  0  0  0  0
  148.3361  138.5480  154.4555 C   0  0  2  0  0  0  0  0  0  0  0  0
  149.6453  138.5457  153.7892 N   0  0  0  0  0  0  0  0  0  0  0  0
  151.0701  138.5056  154.7618 S   0  0  0  0  0  0  0  0  0  0  0  0
  152.0016  137.5399  154.1589 O   0  0  0  0  0  0  0  0  0  0  0  0
  151.4909  139.8980  154.9794 O   0  0  0  0  0  0  0  0  0  0  0  0
  150.4508  137.8059  156.3490 C   0  0  0  0  0  0  0  0  0  0  0  0
  150.6710  136.3204  156.3587 C   0  0  0  0  0  0  0  0  0  0  0  0
  150.2488  135.3579  155.4002 C   0  0  0  0  0  0  0  0  0  0  0  0
  150.7108  134.1783  155.9091 C   0  0  0  0  0  0  0  0  0  0  0  0
  151.3667  134.3898  157.0781 O   0  0  0  0  0  0  0  0  0  0  0  0
  151.3376  135.7611  157.3560 N   0  0  0  0  0  0  0  0  0  0  0  0
  147.6522  137.1909  154.2839 C   0  0  0  0  0  0  0  0  0  0  0  0
  144.5184  135.2929  151.5149 H   0  0  0  0  0  0  0  0  0  0  0  0
  146.2302  135.3617  151.1119 H   0  0  0  0  0  0  0  0  0  0  0  0
  145.1997  136.7670  150.8424 H   0  0  0  0  0  0  0  0  0  0  0  0
  144.8602  136.9786  153.3506 H   0  0  0  0  0  0  0  0  0  0  0  0
  145.8473  135.5513  153.5834 H   0  0  0  0  0  0  0  0  0  0  0  0
  147.2570  138.8750  151.7054 H   0  0  0  0  0  0  0  0  0  0  0  0
  145.6868  138.9454  152.4953 H   0  0  0  0  0  0  0  0  0  0  0  0
  146.5489  139.6836  154.5086 H   0  0  0  0  0  0  0  0  0  0  0  0
  148.6876  140.8052  152.6323 H   0  0  0  0  0  0  0  0  0  0  0  0
  148.2902  141.4218  154.2349 H   0  0  0  0  0  0  0  0  0  0  0  0
  147.1023  141.5004  152.9402 H   0  0  0  0  0  0  0  0  0  0  0  0
  148.4679  138.7819  155.5129 H   0  0  0  0  0  0  0  0  0  0  0  0
  149.6871  137.8395  153.0549 H   0  0  0  0  0  0  0  0  0  0  0  0
  150.9804  138.2864  157.1714 H   0  0  0  0  0  0  0  0  0  0  0  0
  149.3926  138.0525  156.4432 H   0  0  0  0  0  0  0  0  0  0  0  0
  149.6909  135.5083  154.4878 H   0  0  0  0  0  0  0  0  0  0  0  0
  150.6568  133.1533  155.5734 H   0  0  0  0  0  0  0  0  0  0  0  0
  146.9334  137.0537  155.0938 H   0  0  0  0  0  0  0  0  0  0  0  0
  148.3464  136.3501  154.3168 H   0  0  0  0  0  0  0  0  0  0  0  0
  147.5663  136.8840  152.3008 H   0  0  0  0  0  0  0  0  0  0  0  0
  1  2  1  0  0  0  0
  1 19  1  0  0  0  0
  1 20  1  0  0  0  0
  1 21  1  0  0  0  0
  2  3  1  0  0  0  0
  2 22  1  0  0  0  0
  2 23  1  0  0  0  0
  3 18  1  0  0  0  0
  3  4  1  0  0  0  0
  3 38  1  0  0  0  0
  4  5  1  0  0  0  0
  4 24  1  0  0  0  0
  4 25  1  0  0  0  0
  5  6  1  0  0  0  0
  5  7  1  0  0  0  0
  5 26  1  0  0  0  0
  6 27  1  0  0  0  0
  6 28  1  0  0  0  0
  6 29  1  0  0  0  0
  7  8  1  0  0  0  0
  7 18  1  0  0  0  0
  7 30  1  0  0  0  0
  8  9  1  0  0  0  0
  8 31  1  0  0  0  0
  9 10  2  0  0  0  0
  9 11  2  0  0  0  0
  9 12  1  0  0  0  0
 12 13  1  0  0  0  0
 12 32  1  0  0  0  0
 12 33  1  0  0  0  0
 13 17  2  0  0  0  0
 13 14  1  0  0  0  0
 14 15  2  0  0  0  0
 14 34  1  0  0  0  0
 15 16  1  0  0  0  0
 15 35  1  0  0  0  0
 16 17  1  0  0  0  0
 18 36  1  0  0  0  0
 18 37  1  0  0  0  0
M  CHG  1   3   1
M  END
> <s_m_source_file>
AV-unprocessed.smi

> <i_m_source_file_index>
703

> <i_lp_mmshare_version>
43012

> <i_f3d_flags>
0

> <s_epik_input>
W0NIM11bQ0gyXU4xW0NIMl1bQ0BASF0oW0NIM10pW0NASF0oW0NIMl0xKVtOSF1TKD1PKSg9TylbQ0gyXWMyW2NIXVtjSF1vbjI=

> <s_epik_cmdline>
J2VwaWtfcHl0aG9uJywgJy1waCcsICc3LjAnLCAnLXRuJywgJzgnLCAnLW1hJywgJzIwMCcsICctbWV0YWxfYmluZGluZycsICctaW1hZScsICc8aW5maWxlLm1hZT4nLCAnLW9tYWUnLCAnPG91dGZpbGUubWFlPic=

> <r_epik_Ionization_Penalty>
0.00324529

> <r_epik_Ionization_Penalty_Charging>
0.0019384

> <r_epik_Ionization_Penalty_Neutral>
0.00130689

> <r_epik_State_Penalty>
0.00218682

> <r_epik_Charging_Adjusted_Penalty>
0.00412522

> <i_epik_Tot_Q>
1

> <i_epik_Tot_abs_Q>
1

> <r_epik_Metal_State_Penalty>
0.310831

> <b_epik_Metal_Only>
0

> <s_lp_Force_Field>
OPLS_2005

> <r_lp_Energy>
21.5385

> <b_lp_Chiralities_Consistent>
1

> <s_lp_Variant>
AV-unprocessed.smi:703-7

> <Gold.Version>
5.8.1

> <Gold.Id.Protein>
6NUR|6NUR_protein|mol2

> <Gold.PLP.Fitness>
37.0165

> <Gold.PLP.PLP>
-25.7911

> <Gold.PLP.part.hbond>
-6.9361

> <Gold.PLP.part.metal>
0.0000

> <Gold.PLP.part.buried>
-2.8367

> <Gold.PLP.part.nonpolar>
-18.1064

> <Gold.PLP.part.repulsive>
0.5213

> <Gold.PLP.ligand.clash>
0.0000

> <Gold.PLP.ligand.torsion>
1.8994

> <Gold.PLP.Chemscore.Hbond>
4.9353

> <Gold.PLP.Chemscore.CHOScore>
0.0000

> <Gold.PLP.Chemscore.Metal>
0.0000

> <Gold.Chemscore.Hbonds>
donor molecule, donor type, donor heavy atom, donor atom, acceptor molecule, acceptor atom, score
      L1  H     3    38       P1  7948  2.00
      L1  H     8    31       P1  7948  0.84
      P1  H  7989  7998       L1    11  1.00
      P1  H 10752 10765       L1    10  0.76

> <Gold.PLP.Chemscore.Internal.Correction>
0.2183

> <Gold.Rescore>
     Score         DG    S(hbond)    S(metal)    S(lipo)     H(rot)  DE(clash)    DE(int)     intcor
     16.49     -18.37       3.79        0.00      44.53       1.94       0.07       1.81       ----

> <Gold.Chemscore.Fitness>
16.4854

> <Gold.Chemscore.DG>
-18.3692

> <Gold.Chemscore.ZeroCoef>
-5.4800

> <Gold.Chemscore.Hbond>
3.7863

> <Gold.Chemscore.Metal>
0.0000

> <Gold.Chemscore.Lipo>
44.5263

> <Gold.Chemscore.Internal_Hbond>
0.0000

> <Gold.Chemscore.DEClash>
0.0726

> <Gold.Chemscore.DEInternal>
1.8112

> <Gold.Chemscore.Rot>
1.9400

> <Gold.Chemscore.Internal.Correction>
   9.000000E+99

> <Gold.Chemscore.Hbonds>
donor molecule, donor type, donor heavy atom, donor atom, acceptor molecule, acceptor atom, score
      L1  H     3    38       P1  7948  0.95
      L1  H     8    31       P1  7948  0.58
      P1  H  7989  7998       L1    11  0.90
      P1  H 10752 10765       L1    10  0.72

> <Gold.Chemscore.Hbond.Weighted>
-12.6461

> <Gold.Chemscore.Metal.Weighted>
-0.0000

> <Gold.Chemscore.Lipo.Weighted>
-5.2096

> <Gold.Chemscore.Internal_Hbond.Weighted>
0.0000

> <Gold.Chemscore.DEClash.Weighted>
0.0726

> <Gold.Chemscore.DEInternal.Weighted>
1.8112

> <Gold.Chemscore.Rot.Weighted>
4.9665

> <Gold.Chemscore.Internal.Correction.Weighted>
   9.000000E+99

> <Gold.Protein.RotatedTorsions>
[ 6907 6896 6895 6894 ] final  -59.38 input  -60.11 | X-H torsion
[ 7974 7965 7964 7962 ] final   16.19 input  175.53 | X-H torsion
[ 8008 7997 7996 7995 ] final   95.25 input   59.86 | X-H torsion
[ 10167 10162 10161 10158 ] final  -58.55 input  -65.29 | X-H torsion
[ 10718 10713 10712 10709 ] final   19.44 input   66.30 | X-H torsion
[ 10763 10752 10751 10750 ] final  145.92 input  -60.55 | X-H torsion
[ 11005 11000 10999 10996 ] final    2.76 input  -57.11 | X-H torsion

> <Gold.Protein.ActiveResidues>
 VAL166  LYS551  ARG553  GLY616  TRP617  ASP618  TYR619  PRO620  LYS621  CYS622 
 ASP623  PHE694  ASN695  SER759  ASP760  ASP761  ALA762  ILE779  LEU786  VAL792 
 PHE793  MET794  SER795  GLU796  ALA797  LYS798  CYS799  TRP800  GLU811  SER814 

> <Gold.Protein.RotatedAtoms>
  150.7935  134.6976  159.6531 H   0  0  0  0  0  0  0  0  0  0  0  0  # atno 6907 bound_to 6896
  152.4044  134.6229  160.0065 H   0  0  0  0  0  0  0  0  0  0  0  0  # atno 6908 bound_to 6896
  151.6490  133.3285  159.3184 H   0  0  0  0  0  0  0  0  0  0  0  0  # atno 6909 bound_to 6896
  146.2257  139.8784  142.8575 H   0  0  0  0  0  0  0  0  0  0  0  0  # atno 7974 bound_to 7965
  156.0669  140.3289  155.7528 H   0  0  0  0  0  0  0  0  0  0  0  0  # atno 8008 bound_to 7997
  155.5368  140.0598  157.2895 H   0  0  0  0  0  0  0  0  0  0  0  0  # atno 8009 bound_to 7997
  154.4509  140.1918  156.0539 H   0  0  0  0  0  0  0  0  0  0  0  0  # atno 8010 bound_to 7997
  140.6190  143.2413  151.5526 H   0  0  0  0  0  0  0  0  0  0  0  0  # atno 10167 bound_to 10162
  157.1105  130.6506  149.5896 H   0  0  0  0  0  0  0  0  0  0  0  0  # atno 10718 bound_to 10713
  154.0133  135.2912  155.3390 H   0  0  0  0  0  0  0  0  0  0  0  0  # atno 10763 bound_to 10752
  154.7090  135.5157  153.8641 H   0  0  0  0  0  0  0  0  0  0  0  0  # atno 10764 bound_to 10752
  153.0713  135.6649  154.0362 H   0  0  0  0  0  0  0  0  0  0  0  0  # atno 10765 bound_to 10752
  140.6006  133.9839  155.8130 H   0  0  0  0  0  0  0  0  0  0  0  0  # atno 11005 bound_to 11000
  145.2538  141.0053  143.3866 LP  0  0  0  0  0  0  0  0  0  0  0  0  # atno 17320 bound_to 7965
  144.9353  139.4251  143.6475 LP  0  0  0  0  0  0  0  0  0  0  0  0  # atno 17321 bound_to 7965
  139.5423  144.2615  152.1374 LP  0  0  0  0  0  0  0  0  0  0  0  0  # atno 17342 bound_to 10162
  140.1831  144.4825  150.6518 LP  0  0  0  0  0  0  0  0  0  0  0  0  # atno 17343 bound_to 10162
  155.9851  130.4880  150.7018 LP  0  0  0  0  0  0  0  0  0  0  0  0  # atno 17370 bound_to 10713
  157.4563  131.0878  151.0793 LP  0  0  0  0  0  0  0  0  0  0  0  0  # atno 17371 bound_to 10713
  141.0874  133.9969  157.3291 LP  0  0  0  0  0  0  0  0  0  0  0  0  # atno 17394 bound_to 11000
  139.9234  135.0201  156.8146 LP  0  0  0  0  0  0  0  0  0  0  0  0  # atno 17395 bound_to 11000

$$$$
