#       Name:                AV-unprocessed.smi:2617
#       Creating user name   scv26
#       Creation time:       Fri Mar 27 14:22:22 2020


#       File generated by GOLD software.
#

@<TRIPOS>MOLECULE
AV-unprocessed.smi:2617
    41    41     1
SMALL
NO_CHARGES


@<TRIPOS>ATOM
      1 ****        -2.8703   3.4933  -1.4501 C.3            1 S1                 0.0000
      2 ****        -2.3168   2.0830  -1.2251 C.3            1 S1                 0.0000
      3 ****        -2.4682   1.6212   0.2340 C.3            1 S1                 0.0000
      4 ****        -1.9262   0.2960   0.4594 N.am           1 S1                 0.0000
      5 ****        -0.6041   0.0540   0.8427 C.2            1 S1                 0.0000
      6 ****         0.2440   1.1409   0.9947 N.pl3          1 S1                 0.0000
      7 ****        -0.1255  -1.2082   1.0385 C.2            1 S1                 0.0000
      8 ****         1.1907  -1.4374   1.4272 N.pl3          1 S1                 0.0000
      9 ****         2.2075  -0.4248   1.6725 C.3            1 S1                 0.0000
     10 ****         2.7888  -0.5567   3.0841 C.3            1 S1                 0.0000
     11 ****         1.8004  -0.1793   4.0288 O.3            1 S1                 0.0000
     12 ****         2.2584  -0.2830   5.3652 C.3            1 S1                 0.0000
     13 ****        -1.0107  -2.3697   0.8683 C.2            1 S1                 0.0000
     14 ****        -0.7092  -3.5464   1.0654 O.2            1 S1                 0.0000
     15 ****        -2.3058  -2.0653   0.4552 N.am           1 S1                 0.0000
     16 ****        -2.8046  -0.7882   0.2263 C.2            1 S1                 0.0000
     17 ****        -3.9664  -0.6529  -0.1594 O.2            1 S1                 0.0000
     18 ****        -2.9367  -2.8399   0.3098 H              1 S1                 0.0000
     19 ****        -2.7496   3.7968  -2.4902 H              1 S1                 0.0000
     20 ****        -2.3519   4.2232  -0.8278 H              1 S1                 0.0000
     21 ****        -3.9329   3.5410  -1.2103 H              1 S1                 0.0000
     22 ****        -2.8304   1.3876  -1.8898 H              1 S1                 0.0000
     23 ****        -1.2643   2.0607  -1.5099 H              1 S1                 0.0000
     24 ****        -1.9579   2.2947   0.9220 H              1 S1                 0.0000
     25 ****        -3.5101   1.6220   0.5596 H              1 S1                 0.0000
     26 ****        -0.0783   2.0842   0.8344 H              1 S1                 0.0000
     27 ****         1.1325   1.0504   1.4657 H              1 S1                 0.0000
     28 ****         1.3090  -2.2472   2.0183 H              1 S1                 0.0000
     29 ****         2.9971  -0.5530   0.9318 H              1 S1                 0.0000
     30 ****         1.8060   0.5802   1.5397 H              1 S1                 0.0000
     31 ****         3.1289  -1.5778   3.2646 H              1 S1                 0.0000
     32 ****         3.6549   0.0990   3.1846 H              1 S1                 0.0000
     33 ****         1.4650   0.0190   6.0487 H              1 S1                 0.0000
     34 ****         3.1182   0.3652   5.5390 H              1 S1                 0.0000
     35 ****         2.5383  -1.3092   5.6072 H              1 S1                 0.0000
     36 ****         1.0049  -0.7745   3.9155 LP             1 S1                 0.0000
     37 ****         1.5350   0.7688   3.8537 LP             1 S1                 0.0000
     38 ****         0.2135  -3.7818   1.3708 LP             1 S1                 0.0000
     39 ****        -1.3869  -4.2673   0.9202 LP             1 S1                 0.0000
     40 ****        -4.3350   0.2618  -0.3248 LP             1 S1                 0.0000
     41 ****        -4.5411  -1.4578  -0.3072 LP             1 S1                 0.0000
@<TRIPOS>BOND
    1    1    2 1     
    2    1   19 1     
    3    1   20 1     
    4    1   21 1     
    5    2    3 1     
    6    2   22 1     
    7    2   23 1     
    8    3    4 1     
    9    3   24 1     
   10    3   25 1     
   11    4   16 1     
   12    4    5 1     
   13    5    6 1     
   14    5    7 2     
   15    6   26 1     
   16    6   27 1     
   17    7    8 1     
   18    7   13 1     
   19    8    9 1     
   20    8   28 1     
   21    9   10 1     
   22    9   29 1     
   23    9   30 1     
   24   10   11 1     
   25   10   31 1     
   26   10   32 1     
   27   11   12 1     
   28   12   33 1     
   29   12   34 1     
   30   12   35 1     
   31   13   14 2     
   32   13   15 1     
   33   15   18 1     
   34   15   16 1     
   35   16   17 2     
   36   11   36 1     
   37   11   37 1     
   38   14   38 1     
   39   14   39 1     
   40   17   40 1     
   41   17   41 1     
@<TRIPOS>SUBSTRUCTURE
      1 S1             1
@<TRIPOS>SET
LONE_PAIRS      STATIC     ATOMS    <user>   **** ""
6 36 37 38 39 40 41
DONOR_HYDROGENS      STATIC     ATOMS    <user>   **** ""
4 26 27 28 18
ATOM$BLUE        STATIC     ATOMS    COLORGROUP SYSTEM
6 36 37 38 39 40 41
ATOM$RED        STATIC     ATOMS    COLORGROUP SYSTEM
4 26 27 28 18
