#       Name:                AV-unprocessed.smi:1961
#       Creating user name   scv26
#       Creation time:       Fri Mar 27 10:08:37 2020


#       File generated by GOLD software.
#

@<TRIPOS>MOLECULE
AV-unprocessed.smi:1961
    42    43     1
SMALL
NO_CHARGES


@<TRIPOS>ATOM
      1 ****        -5.9190  -0.8986   0.1533 C.3            1 S1                 0.0000
      2 ****        -5.1833  -0.9365  -1.1940 C.3            1 S1                 0.0000
      3 ****        -5.5690  -2.1471  -2.0566 C.3            1 S1                 0.0000
      4 ****        -3.7002  -0.8077  -1.0330 C.2            1 S1                 0.0000
      5 ****        -2.9534  -1.7172  -0.3922 N.2            1 S1                 0.0000
      6 ****        -1.6072  -1.3805  -0.3774 N.2            1 S1                 0.0000
      7 ****        -1.3745  -0.2235  -1.0118 C.2            1 S1                 0.0000
      8 ****        -0.0848   0.3531  -1.1558 N.am           1 S1                 0.0000
      9 ****         1.0920  -0.1108  -0.6996 C.2            1 S1                 0.0000
     10 ****         1.2438  -1.1369  -0.0363 O.2            1 S1                 0.0000
     11 ****         2.1011   0.6969  -1.0563 N.am           1 S1                 0.0000
     12 ****         3.5081   0.4921  -0.7263 C.3            1 S1                 0.0000
     13 ****         3.9277   1.3004   0.5132 C.3            1 S1                 0.0000
     14 ****         3.2900   0.8507   1.8280 C.3            1 S1                 0.0000
     15 ****         4.2914   1.3591   2.8391 C.3            1 S1                 0.0000
     16 ****         5.6142   1.1008   2.1237 C.3            1 S1                 0.0000
     17 ****         5.3314   1.1802   0.7283 O.3            1 S1                 0.0000
     18 ****        -2.7968   0.5575  -1.6810 S.3            1 S1                 0.0000
     19 ****        -5.6883   0.0159   0.7007 H              1 S1                 0.0000
     20 ****        -5.6392  -1.7439   0.7828 H              1 S1                 0.0000
     21 ****        -6.9993  -0.9346   0.0106 H              1 S1                 0.0000
     22 ****        -5.5097  -0.0530  -1.7442 H              1 S1                 0.0000
     23 ****        -5.0963  -2.0960  -3.0379 H              1 S1                 0.0000
     24 ****        -6.6473  -2.1912  -2.2118 H              1 S1                 0.0000
     25 ****        -5.2631  -3.0825  -1.5868 H              1 S1                 0.0000
     26 ****        -0.0536   1.2170  -1.6765 H              1 S1                 0.0000
     27 ****         1.8813   1.5186  -1.5998 H              1 S1                 0.0000
     28 ****         3.7320  -0.5670  -0.5875 H              1 S1                 0.0000
     29 ****         4.0969   0.8161  -1.5846 H              1 S1                 0.0000
     30 ****         3.7148   2.3592   0.3559 H              1 S1                 0.0000
     31 ****         2.2878   1.2538   1.9769 H              1 S1                 0.0000
     32 ****         3.2324  -0.2378   1.8759 H              1 S1                 0.0000
     33 ****         4.1516   2.4292   2.9981 H              1 S1                 0.0000
     34 ****         4.2220   0.8569   3.8044 H              1 S1                 0.0000
     35 ****         6.3881   1.8117   2.4145 H              1 S1                 0.0000
     36 ****         5.9771   0.0965   2.3449 H              1 S1                 0.0000
     37 ****        -3.3243  -2.5453   0.0280 LP             1 S1                 0.0000
     38 ****        -0.8960  -1.9350   0.0549 LP             1 S1                 0.0000
     39 ****         0.4522  -1.6989   0.2036 LP             1 S1                 0.0000
     40 ****         2.1587  -1.4083   0.2625 LP             1 S1                 0.0000
     41 ****         5.7936   1.9789   0.3431 LP             1 S1                 0.0000
     42 ****         5.6645   0.3524   0.2767 LP             1 S1                 0.0000
@<TRIPOS>BOND
    1    1    2 1     
    2    1   19 1     
    3    1   20 1     
    4    1   21 1     
    5    2    3 1     
    6    2    4 1     
    7    2   22 1     
    8    3   23 1     
    9    3   24 1     
   10    3   25 1     
   11    4   18 1     
   12    4    5 2     
   13    5    6 1     
   14    6    7 2     
   15    7    8 1     
   16    7   18 1     
   17    8    9 am    
   18    8   26 1     
   19    9   10 2     
   20    9   11 am    
   21   11   12 1     
   22   11   27 1     
   23   12   13 1     
   24   12   28 1     
   25   12   29 1     
   26   13   17 1     
   27   13   14 1     
   28   13   30 1     
   29   14   15 1     
   30   14   31 1     
   31   14   32 1     
   32   15   16 1     
   33   15   33 1     
   34   15   34 1     
   35   16   17 1     
   36   16   35 1     
   37   16   36 1     
   38    5   37 1     
   39    6   38 1     
   40   10   39 1     
   41   10   40 1     
   42   17   41 1     
   43   17   42 1     
@<TRIPOS>SUBSTRUCTURE
      1 S1             1
@<TRIPOS>SET
LONE_PAIRS      STATIC     ATOMS    <user>   **** ""
6 37 38 39 40 41 42
DONOR_HYDROGENS      STATIC     ATOMS    <user>   **** ""
2 26 27
ATOM$BLUE        STATIC     ATOMS    COLORGROUP SYSTEM
6 37 38 39 40 41 42
ATOM$RED        STATIC     ATOMS    COLORGROUP SYSTEM
2 26 27
