AV-unprocessed.smi:3246|AV-procd|sdf|12410|dock1
  -GOLD-   2272018293D 1   1.00000     0.00000
 Structure written by MMmdl.
 35 36  0  0  0  0  0  0  0  0  1 V2000
  149.9515  140.1234  154.6046 O   0  0  0  0  0  0  0  0  0  0  0  0
  149.2983  141.1283  154.8831 C   0  0  0  0  0  0  0  0  0  0  0  0
  148.0288  141.4379  154.0726 C   0  0  0  0  0  0  0  0  0  0  0  0
  147.2323  140.2668  153.6964 N   0  0  0  0  0  0  0  0  0  0  0  0
  146.7789  140.0879  152.3267 C   0  0  0  0  0  0  0  0  0  0  0  0
  146.1966  138.6680  152.2825 C   0  0  0  0  0  0  0  0  0  0  0  0
  146.0264  138.2420  153.7446 C   0  0  0  0  0  0  0  0  0  0  0  0
  146.8286  139.2816  154.5085 C   0  0  0  0  0  0  0  0  0  0  0  0
  147.0640  139.1923  155.7122 O   0  0  0  0  0  0  0  0  0  0  0  0
  149.6464  141.9682  155.8730 N   0  0  0  0  0  0  0  0  0  0  0  0
  150.8141  141.8179  156.7319 C   0  0  0  0  0  0  0  0  0  0  0  0
  150.9784  143.0188  157.6767 C   0  0  0  0  0  0  0  0  0  0  0  0
  151.8688  142.6942  158.8596 C   0  0  0  0  0  0  0  0  0  0  0  0
  152.5214  141.4478  158.9568 C   0  0  0  0  0  0  0  0  0  0  0  0
  153.3332  141.1936  160.0790 C   0  0  0  0  0  0  0  0  0  0  0  0
  153.4579  142.1991  161.0585 C   0  0  0  0  0  0  0  0  0  0  0  0
  152.8372  143.3958  160.9761 N   0  0  0  0  0  0  0  0  0  0  0  0
  152.0605  143.6317  159.8967 C   0  0  0  0  0  0  0  0  0  0  0  0
  147.4099  142.1300  154.6460 H   0  0  0  0  0  0  0  0  0  0  0  0
  148.3228  141.9731  153.1689 H   0  0  0  0  0  0  0  0  0  0  0  0
  146.0135  140.8317  152.1012 H   0  0  0  0  0  0  0  0  0  0  0  0
  147.5976  140.2124  151.6168 H   0  0  0  0  0  0  0  0  0  0  0  0
  145.2544  138.6350  151.7344 H   0  0  0  0  0  0  0  0  0  0  0  0
  146.8917  137.9941  151.7798 H   0  0  0  0  0  0  0  0  0  0  0  0
  144.9824  138.2901  154.0556 H   0  0  0  0  0  0  0  0  0  0  0  0
  146.4013  137.2346  153.9273 H   0  0  0  0  0  0  0  0  0  0  0  0
  149.0606  142.7743  156.0369 H   0  0  0  0  0  0  0  0  0  0  0  0
  150.7433  140.8885  157.2997 H   0  0  0  0  0  0  0  0  0  0  0  0
  151.6924  141.7251  156.0925 H   0  0  0  0  0  0  0  0  0  0  0  0
  151.3980  143.8675  157.1346 H   0  0  0  0  0  0  0  0  0  0  0  0
  150.0062  143.3433  158.0505 H   0  0  0  0  0  0  0  0  0  0  0  0
  152.4021  140.6988  158.1879 H   0  0  0  0  0  0  0  0  0  0  0  0
  153.8482  140.2504  160.1870 H   0  0  0  0  0  0  0  0  0  0  0  0
  154.0728  142.0376  161.9316 H   0  0  0  0  0  0  0  0  0  0  0  0
  151.5755  144.5964  159.8612 H   0  0  0  0  0  0  0  0  0  0  0  0
  1  2  2  0  0  0  0
  2  3  1  0  0  0  0
  2 10  1  0  0  0  0
  3  4  1  0  0  0  0
  3 19  1  0  0  0  0
  3 20  1  0  0  0  0
  4  8  1  0  0  0  0
  4  5  1  0  0  0  0
  5  6  1  0  0  0  0
  5 21  1  0  0  0  0
  5 22  1  0  0  0  0
  6  7  1  0  0  0  0
  6 23  1  0  0  0  0
  6 24  1  0  0  0  0
  7  8  1  0  0  0  0
  7 25  1  0  0  0  0
  7 26  1  0  0  0  0
  8  9  2  0  0  0  0
 10 11  1  0  0  0  0
 10 27  1  0  0  0  0
 11 12  1  0  0  0  0
 11 28  1  0  0  0  0
 11 29  1  0  0  0  0
 12 13  1  0  0  0  0
 12 30  1  0  0  0  0
 12 31  1  0  0  0  0
 13 18  1  0  0  0  0
 13 14  2  0  0  0  0
 14 15  1  0  0  0  0
 14 32  1  0  0  0  0
 15 16  2  0  0  0  0
 15 33  1  0  0  0  0
 16 17  1  0  0  0  0
 16 34  1  0  0  0  0
 17 18  2  0  0  0  0
 18 35  1  0  0  0  0
M  END
> <s_m_source_file>
AV-unprocessed.smi

> <i_m_source_file_index>
3246

> <i_lp_mmshare_version>
43012

> <i_f3d_flags>
0

> <s_epik_input>
Tz1DMVtDSDJdW0NIMl1bQ0gyXU4xW0NIMl1DKD1PKVtOSF1bQ0gyXVtDSDJdYzJbY0hdW2NIXVtjSF1uW2NIXTI=

> <s_epik_cmdline>
J2VwaWtfcHl0aG9uJywgJy1waCcsICc3LjAnLCAnLXRuJywgJzgnLCAnLW1hJywgJzIwMCcsICctbWV0YWxfYmluZGluZycsICctaW1hZScsICc8aW5maWxlLm1hZT4nLCAnLW9tYWUnLCAnPG91dGZpbGUubWFlPic=

> <r_epik_Ionization_Penalty>
0.0129263

> <r_epik_Ionization_Penalty_Charging>
0

> <r_epik_Ionization_Penalty_Neutral>
0.0129263

> <r_epik_State_Penalty>
0.0100328

> <r_epik_Charging_Adjusted_Penalty>
0.0100328

> <i_epik_Tot_Q>
0

> <i_epik_Tot_abs_Q>
0

> <r_epik_Metal_State_Penalty>
0.00981748

> <b_epik_Metal_Only>
0

> <s_lp_Force_Field>
OPLS_2005

> <r_lp_Energy>
11.4517

> <b_lp_Chiralities_Consistent>
1

> <s_lp_Variant>
AV-unprocessed.smi:3246-1

> <Gold.Version>
5.8.1

> <Gold.Id.Protein>
6NUR|6NUR_protein|mol2

> <Gold.PLP.Fitness>
43.9679

> <Gold.PLP.PLP>
-38.9868

> <Gold.PLP.part.hbond>
-2.0000

> <Gold.PLP.part.metal>
0.0000

> <Gold.PLP.part.buried>
1.4351

> <Gold.PLP.part.nonpolar>
-37.2502

> <Gold.PLP.part.repulsive>
0.3134

> <Gold.PLP.ligand.clash>
0.0000

> <Gold.PLP.ligand.torsion>
0.5445

> <Gold.PLP.Chemscore.Hbond>
2.0000

> <Gold.PLP.Chemscore.CHOScore>
0.0000

> <Gold.PLP.Chemscore.Metal>
0.0000

> <Gold.Chemscore.Hbonds>
donor molecule, donor type, donor heavy atom, donor atom, acceptor molecule, acceptor atom, score
      L1  H    10    27       P1  8028  0.86
      P1  H  7989  7998       L1     1  0.73

> <Gold.PLP.Chemscore.Internal.Correction>
0.0702

> <Gold.Rescore>
     Score         DG    S(hbond)    S(metal)    S(lipo)     H(rot)  DE(clash)    DE(int)     intcor
     16.50     -16.91       1.53        0.00      94.52       1.85       0.18       0.23       ----

> <Gold.Chemscore.Fitness>
16.4969

> <Gold.Chemscore.DG>
-16.9087

> <Gold.Chemscore.ZeroCoef>
-5.4800

> <Gold.Chemscore.Hbond>
1.5283

> <Gold.Chemscore.Metal>
0.0000

> <Gold.Chemscore.Lipo>
94.5181

> <Gold.Chemscore.Internal_Hbond>
0.0000

> <Gold.Chemscore.DEClash>
0.1847

> <Gold.Chemscore.DEInternal>
0.2271

> <Gold.Chemscore.Rot>
1.8494

> <Gold.Chemscore.Internal.Correction>
   9.000000E+99

> <Gold.Chemscore.Hbonds>
donor molecule, donor type, donor heavy atom, donor atom, acceptor molecule, acceptor atom, score
      L1  H    10    27       P1  8028  0.84
      P1  H  7989  7998       L1     1  0.31

> <Gold.Chemscore.Hbond.Weighted>
-5.1044

> <Gold.Chemscore.Metal.Weighted>
-0.0000

> <Gold.Chemscore.Lipo.Weighted>
-11.0586

> <Gold.Chemscore.Internal_Hbond.Weighted>
0.0000

> <Gold.Chemscore.DEClash.Weighted>
0.1847

> <Gold.Chemscore.DEInternal.Weighted>
0.2271

> <Gold.Chemscore.Rot.Weighted>
4.7344

> <Gold.Chemscore.Internal.Correction.Weighted>
   9.000000E+99

> <Gold.Protein.RotatedTorsions>
[ 6907 6896 6895 6894 ] final -147.85 input  -60.11 | X-H torsion
[ 7974 7965 7964 7962 ] final -107.47 input  175.53 | X-H torsion
[ 8008 7997 7996 7995 ] final  176.52 input   59.86 | X-H torsion
[ 10167 10162 10161 10158 ] final    6.06 input  -65.29 | X-H torsion
[ 10718 10713 10712 10709 ] final   25.47 input   66.30 | X-H torsion
[ 10763 10752 10751 10750 ] final  -37.38 input  -60.55 | X-H torsion
[ 11005 11000 10999 10996 ] final  -63.33 input  -57.11 | X-H torsion

> <Gold.Protein.ActiveResidues>
 VAL166  LYS551  ARG553  GLY616  TRP617  ASP618  TYR619  PRO620  LYS621  CYS622 
 ASP623  PHE694  ASN695  SER759  ASP760  ASP761  ALA762  ILE779  LEU786  VAL792 
 PHE793  MET794  SER795  GLU796  ALA797  LYS798  CYS799  TRP800  GLU811  SER814 

> <Gold.Protein.RotatedAtoms>
  151.1615  133.4842  159.2594 H   0  0  0  0  0  0  0  0  0  0  0  0  # atno 6907 bound_to 6896
  151.1449  135.0198  159.8652 H   0  0  0  0  0  0  0  0  0  0  0  0  # atno 6908 bound_to 6896
  152.5463  134.1505  159.8569 H   0  0  0  0  0  0  0  0  0  0  0  0  # atno 6909 bound_to 6896
  145.2049  140.9072  143.3348 H   0  0  0  0  0  0  0  0  0  0  0  0  # atno 7974 bound_to 7965
  156.0755  140.1381  156.9776 H   0  0  0  0  0  0  0  0  0  0  0  0  # atno 8008 bound_to 7997
  154.4555  140.0963  156.6796 H   0  0  0  0  0  0  0  0  0  0  0  0  # atno 8009 bound_to 7997
  155.5159  140.3455  155.4399 H   0  0  0  0  0  0  0  0  0  0  0  0  # atno 8010 bound_to 7997
  140.6448  143.7688  150.7482 H   0  0  0  0  0  0  0  0  0  0  0  0  # atno 10167 bound_to 10162
  157.1938  130.6858  149.6160 H   0  0  0  0  0  0  0  0  0  0  0  0  # atno 10718 bound_to 10713
  153.8954  135.6808  153.4758 H   0  0  0  0  0  0  0  0  0  0  0  0  # atno 10763 bound_to 10752
  153.1158  135.4762  154.9110 H   0  0  0  0  0  0  0  0  0  0  0  0  # atno 10764 bound_to 10752
  154.7602  135.3208  154.8347 H   0  0  0  0  0  0  0  0  0  0  0  0  # atno 10765 bound_to 10752
  141.1389  133.6650  156.5663 H   0  0  0  0  0  0  0  0  0  0  0  0  # atno 11005 bound_to 11000
  144.9912  139.3688  143.6214 LP  0  0  0  0  0  0  0  0  0  0  0  0  # atno 17320 bound_to 7965
  146.3410  139.9095  142.8782 LP  0  0  0  0  0  0  0  0  0  0  0  0  # atno 17321 bound_to 7965
  140.1327  143.4511  152.2244 LP  0  0  0  0  0  0  0  0  0  0  0  0  # atno 17342 bound_to 10162
  139.5658  144.7434  151.4026 LP  0  0  0  0  0  0  0  0  0  0  0  0  # atno 17343 bound_to 10162
  155.9708  130.4605  150.6077 LP  0  0  0  0  0  0  0  0  0  0  0  0  # atno 17370 bound_to 10713
  157.3834  131.0784  151.1457 LP  0  0  0  0  0  0  0  0  0  0  0  0  # atno 17371 bound_to 10713
  140.3948  134.7409  157.4744 LP  0  0  0  0  0  0  0  0  0  0  0  0  # atno 17394 bound_to 11000
  140.0539  134.6091  155.8828 LP  0  0  0  0  0  0  0  0  0  0  0  0  # atno 17395 bound_to 11000

$$$$
