AV-unprocessed.smi:653|AV-procd|sdf|3210|dock8
  -GOLD-   22720 0143D 1   1.00000     0.00000
 Structure written by MMmdl.
 45 46  0  0  0  0  0  0  0  0  2 V2000
  144.5047  131.6531  150.4901 C   0  0  0  0  0  0  0  0  0  0  0  0
  144.2843  133.0006  151.1448 C   0  0  0  0  0  0  0  0  0  0  0  0
  143.4485  133.1612  152.2708 C   0  0  0  0  0  0  0  0  0  0  0  0
  143.2933  134.4439  152.8362 C   0  0  0  0  0  0  0  0  0  0  0  0
  143.9761  135.5406  152.2652 C   0  0  0  0  0  0  0  0  0  0  0  0
  143.8349  136.9343  152.8552 C   0  0  0  0  0  0  0  0  0  0  0  0
  145.1955  137.5327  153.2301 C   0  0  0  0  0  0  0  0  0  0  0  0
  145.8223  137.1120  154.2036 O   0  0  0  0  0  0  0  0  0  0  0  0
  145.6434  138.5190  152.4388 N   0  0  0  0  0  0  0  0  0  0  0  0
  146.9066  139.2281  152.6158 C   0  0  0  0  0  0  0  0  0  0  0  0
  147.0203  139.8876  154.0134 C   0  0  2  0  0  0  0  0  0  0  0  0
  146.4136  141.2840  154.0497 C   0  0  0  0  0  0  0  0  0  0  0  0
  147.5697  142.1881  153.6137 C   0  0  0  0  0  0  0  0  0  0  0  0
  148.7503  141.3973  153.7168 O   0  0  0  0  0  0  0  0  0  0  0  0
  148.4590  140.2146  154.4495 C   0  0  2  0  0  0  0  0  0  0  0  0
  149.5350  139.1270  154.2295 C   0  0  0  0  0  0  0  0  0  0  0  0
  149.1534  137.8030  154.9139 C   0  0  0  0  0  0  0  0  0  0  0  0
  150.9083  139.6008  154.7318 C   0  0  0  0  0  0  0  0  0  0  0  0
  144.7971  135.3195  151.1379 C   0  0  0  0  0  0  0  0  0  0  0  0
  144.9214  134.0750  150.6274 N   0  3  0  0  0  0  0  0  0  0  0  0
  143.6620  130.9876  150.6801 H   0  0  0  0  0  0  0  0  0  0  0  0
  145.4070  131.1856  150.8848 H   0  0  0  0  0  0  0  0  0  0  0  0
  144.6150  131.7589  149.4104 H   0  0  0  0  0  0  0  0  0  0  0  0
  142.9342  132.3130  152.6992 H   0  0  0  0  0  0  0  0  0  0  0  0
  142.6602  134.5817  153.7008 H   0  0  0  0  0  0  0  0  0  0  0  0
  143.3432  137.5916  152.1372 H   0  0  0  0  0  0  0  0  0  0  0  0
  143.1913  136.8886  153.7352 H   0  0  0  0  0  0  0  0  0  0  0  0
  145.0695  138.8009  151.6572 H   0  0  0  0  0  0  0  0  0  0  0  0
  147.7254  138.5290  152.4444 H   0  0  0  0  0  0  0  0  0  0  0  0
  146.9833  139.9831  151.8329 H   0  0  0  0  0  0  0  0  0  0  0  0
  146.5409  139.2445  154.7525 H   0  0  0  0  0  0  0  0  0  0  0  0
  145.5269  141.4026  153.4268 H   0  0  0  0  0  0  0  0  0  0  0  0
  146.1265  141.5294  155.0731 H   0  0  0  0  0  0  0  0  0  0  0  0
  147.4510  142.5164  152.5809 H   0  0  0  0  0  0  0  0  0  0  0  0
  147.6417  143.0737  154.2457 H   0  0  0  0  0  0  0  0  0  0  0  0
  148.4467  140.4836  155.5082 H   0  0  0  0  0  0  0  0  0  0  0  0
  149.6357  138.9409  153.1602 H   0  0  0  0  0  0  0  0  0  0  0  0
  149.0468  137.9327  155.9914 H   0  0  0  0  0  0  0  0  0  0  0  0
  149.9146  137.0408  154.7452 H   0  0  0  0  0  0  0  0  0  0  0  0
  148.2115  137.4072  154.5344 H   0  0  0  0  0  0  0  0  0  0  0  0
  150.8860  139.8263  155.7983 H   0  0  0  0  0  0  0  0  0  0  0  0
  151.2332  140.5002  154.2082 H   0  0  0  0  0  0  0  0  0  0  0  0
  151.6707  138.8384  154.5692 H   0  0  0  0  0  0  0  0  0  0  0  0
  145.3601  136.0935  150.6365 H   0  0  0  0  0  0  0  0  0  0  0  0
  145.5250  133.9397  149.8161 H   0  0  0  0  0  0  0  0  0  0  0  0
  1  2  1  0  0  0  0
  1 21  1  0  0  0  0
  1 22  1  0  0  0  0
  1 23  1  0  0  0  0
  2 20  1  0  0  0  0
  2  3  2  0  0  0  0
  3  4  1  0  0  0  0
  3 24  1  0  0  0  0
  4  5  2  0  0  0  0
  4 25  1  0  0  0  0
  5  6  1  0  0  0  0
  5 19  1  0  0  0  0
  6  7  1  0  0  0  0
  6 26  1  0  0  0  0
  6 27  1  0  0  0  0
  7  8  2  0  0  0  0
  7  9  1  0  0  0  0
  9 10  1  0  0  0  0
  9 28  1  0  0  0  0
 10 11  1  0  0  0  0
 10 29  1  0  0  0  0
 10 30  1  0  0  0  0
 11 15  1  0  0  0  0
 11 12  1  0  0  0  0
 11 31  1  0  0  0  0
 12 13  1  0  0  0  0
 12 32  1  0  0  0  0
 12 33  1  0  0  0  0
 13 14  1  0  0  0  0
 13 34  1  0  0  0  0
 13 35  1  0  0  0  0
 14 15  1  0  0  0  0
 15 16  1  0  0  0  0
 15 36  1  0  0  0  0
 16 17  1  0  0  0  0
 16 18  1  0  0  0  0
 16 37  1  0  0  0  0
 17 38  1  0  0  0  0
 17 39  1  0  0  0  0
 17 40  1  0  0  0  0
 18 41  1  0  0  0  0
 18 42  1  0  0  0  0
 18 43  1  0  0  0  0
 19 20  2  0  0  0  0
 19 44  1  0  0  0  0
 20 45  1  0  0  0  0
M  CHG  1  20   1
M  END
> <s_m_source_file>
AV-unprocessed.smi

> <i_m_source_file_index>
653

> <i_lp_mmshare_version>
43012

> <i_f3d_flags>
0

> <s_epik_input>
W0NIM11jMVtjSF1bY0hdYyhbY0hdbjEpW0NIMl1DKD1PKVtOSF1bQ0gyXVtDQEBIXTJbQ0gyXVtDSDJdT1tDQEhdMltDSF0oW0NIM10pW0NIM10=

> <s_epik_cmdline>
J2VwaWtfcHl0aG9uJywgJy1waCcsICc3LjAnLCAnLXRuJywgJzgnLCAnLW1hJywgJzIwMCcsICctbWV0YWxfYmluZGluZycsICctaW1hZScsICc8aW5maWxlLm1hZT4nLCAnLW9tYWUnLCAnPG91dGZpbGUubWFlPic=

> <r_epik_Ionization_Penalty>
2.12486

> <r_epik_Ionization_Penalty_Charging>
2.12486

> <r_epik_Ionization_Penalty_Neutral>
9.0873e-08

> <r_epik_State_Penalty>
2.26279

> <r_epik_Charging_Adjusted_Penalty>
4.38765

> <i_epik_Tot_Q>
1

> <i_epik_Tot_abs_Q>
1

> <r_epik_Metal_State_Penalty>
2.27914

> <b_epik_Metal_Only>
0

> <s_lp_Force_Field>
OPLS_2005

> <r_lp_Energy>
28.354

> <b_lp_Chiralities_Consistent>
1

> <s_lp_Variant>
AV-unprocessed.smi:653-7

> <Gold.Version>
5.8.1

> <Gold.Id.Protein>
6NUR|6NUR_protein|mol2

> <Gold.PLP.Fitness>
43.6332

> <Gold.PLP.PLP>
-37.0522

> <Gold.PLP.part.hbond>
-4.0000

> <Gold.PLP.part.metal>
0.0000

> <Gold.PLP.part.buried>
0.6840

> <Gold.PLP.part.nonpolar>
-33.6817

> <Gold.PLP.part.repulsive>
0.3790

> <Gold.PLP.ligand.clash>
0.0000

> <Gold.PLP.ligand.torsion>
0.4261

> <Gold.PLP.Chemscore.Hbond>
2.4583

> <Gold.PLP.Chemscore.CHOScore>
0.0000

> <Gold.PLP.Chemscore.Metal>
0.0000

> <Gold.Chemscore.Hbonds>
donor molecule, donor type, donor heavy atom, donor atom, acceptor molecule, acceptor atom, score
      L1  H     9    28       P1 10171  0.59
      L1  H    20    45       P1  7921  0.01
      P1  H  8011  8017       L1    14  0.59

> <Gold.PLP.Chemscore.Internal.Correction>
0.0582

> <Gold.Rescore>
     Score         DG    S(hbond)    S(metal)    S(lipo)     H(rot)  DE(clash)    DE(int)     intcor
     17.50     -19.24       2.01        0.00      94.50       1.57       0.35       1.38       ----

> <Gold.Chemscore.Fitness>
17.5038

> <Gold.Chemscore.DG>
-19.2367

> <Gold.Chemscore.ZeroCoef>
-5.4800

> <Gold.Chemscore.Hbond>
2.0119

> <Gold.Chemscore.Metal>
0.0000

> <Gold.Chemscore.Lipo>
94.5000

> <Gold.Chemscore.Internal_Hbond>
0.0000

> <Gold.Chemscore.DEClash>
0.3535

> <Gold.Chemscore.DEInternal>
1.3794

> <Gold.Chemscore.Rot>
1.5701

> <Gold.Chemscore.Internal.Correction>
   9.000000E+99

> <Gold.Chemscore.Hbonds>
donor molecule, donor type, donor heavy atom, donor atom, acceptor molecule, acceptor atom, score
      L1  H     9    28       P1 10171  0.58
      L1  H    20    45       P1  7921  0.04
      P1  H  8011  8017       L1    14  0.07

> <Gold.Chemscore.Hbond.Weighted>
-6.7198

> <Gold.Chemscore.Metal.Weighted>
-0.0000

> <Gold.Chemscore.Lipo.Weighted>
-11.0565

> <Gold.Chemscore.Internal_Hbond.Weighted>
0.0000

> <Gold.Chemscore.DEClash.Weighted>
0.3535

> <Gold.Chemscore.DEInternal.Weighted>
1.3794

> <Gold.Chemscore.Rot.Weighted>
4.0196

> <Gold.Chemscore.Internal.Correction.Weighted>
   9.000000E+99

> <Gold.Protein.RotatedTorsions>
[ 6907 6896 6895 6894 ] final  -31.93 input  -60.11 | X-H torsion
[ 7974 7965 7964 7962 ] final  -84.24 input  175.53 | X-H torsion
[ 8008 7997 7996 7995 ] final  -14.69 input   59.86 | X-H torsion
[ 10167 10162 10161 10158 ] final -168.32 input  -65.29 | X-H torsion
[ 10718 10713 10712 10709 ] final   70.04 input   66.30 | X-H torsion
[ 10763 10752 10751 10750 ] final  132.48 input  -60.55 | X-H torsion
[ 11005 11000 10999 10996 ] final  -17.17 input  -57.11 | X-H torsion

> <Gold.Protein.ActiveResidues>
 VAL166  LYS551  ARG553  GLY616  TRP617  ASP618  TYR619  PRO620  LYS621  CYS622 
 ASP623  PHE694  ASN695  SER759  ASP760  ASP761  ALA762  ILE779  LEU786  VAL792 
 PHE793  MET794  SER795  GLU796  ALA797  LYS798  CYS799  TRP800  GLU811  SER814 

> <Gold.Protein.RotatedAtoms>
  151.0855  134.9884  159.8376 H   0  0  0  0  0  0  0  0  0  0  0  0  # atno 6907 bound_to 6896
  152.5424  134.2129  159.8767 H   0  0  0  0  0  0  0  0  0  0  0  0  # atno 6908 bound_to 6896
  151.2162  133.4484  159.2633 H   0  0  0  0  0  0  0  0  0  0  0  0  # atno 6909 bound_to 6896
  145.5093  140.9541  143.1716 H   0  0  0  0  0  0  0  0  0  0  0  0  # atno 7974 bound_to 7965
  154.5190  140.2216  155.9011 H   0  0  0  0  0  0  0  0  0  0  0  0  # atno 8008 bound_to 7997
  156.1640  140.3136  155.8822 H   0  0  0  0  0  0  0  0  0  0  0  0  # atno 8009 bound_to 7997
  155.3693  140.0465  157.3036 H   0  0  0  0  0  0  0  0  0  0  0  0  # atno 8010 bound_to 7997
  139.5992  144.1046  152.1724 H   0  0  0  0  0  0  0  0  0  0  0  0  # atno 10167 bound_to 10162
  157.6378  130.9457  150.0596 H   0  0  0  0  0  0  0  0  0  0  0  0  # atno 10718 bound_to 10713
  153.7915  135.3154  155.3379 H   0  0  0  0  0  0  0  0  0  0  0  0  # atno 10763 bound_to 10752
  154.8124  135.4658  154.0555 H   0  0  0  0  0  0  0  0  0  0  0  0  # atno 10764 bound_to 10752
  153.1874  135.6903  153.8484 H   0  0  0  0  0  0  0  0  0  0  0  0  # atno 10765 bound_to 10752
  140.8141  133.8118  155.9593 H   0  0  0  0  0  0  0  0  0  0  0  0  # atno 11005 bound_to 11000
  144.7736  139.6679  143.7184 LP  0  0  0  0  0  0  0  0  0  0  0  0  # atno 17320 bound_to 7965
  146.2177  139.5578  142.9639 LP  0  0  0  0  0  0  0  0  0  0  0  0  # atno 17321 bound_to 7965
  140.0638  144.5835  150.7243 LP  0  0  0  0  0  0  0  0  0  0  0  0  # atno 17342 bound_to 10162
  140.7237  143.2614  151.4194 LP  0  0  0  0  0  0  0  0  0  0  0  0  # atno 17343 bound_to 10162
  156.1633  130.3644  149.9268 LP  0  0  0  0  0  0  0  0  0  0  0  0  # atno 17370 bound_to 10713
  156.7261  130.9025  151.3622 LP  0  0  0  0  0  0  0  0  0  0  0  0  # atno 17371 bound_to 10713
  140.9167  134.2192  157.4952 LP  0  0  0  0  0  0  0  0  0  0  0  0  # atno 17394 bound_to 11000
  139.8712  134.9774  156.4959 LP  0  0  0  0  0  0  0  0  0  0  0  0  # atno 17395 bound_to 11000

$$$$
