AV-unprocessed.smi:1922|AV-procd|sdf|7787|dock2
  -GOLD-   22720 9533D 1   1.00000     0.00000
 Structure written by MMmdl.
 34 35  0  0  0  0  0  0  0  0  2 V2000
  148.3708  138.0758  157.5504 O   0  0  0  0  0  0  0  0  0  0  0  0
  149.3537  138.1145  158.2924 C   0  0  0  0  0  0  0  0  0  0  0  0
  149.7938  136.8797  159.0944 C   0  0  0  0  0  0  0  0  0  0  0  0
  148.7115  136.2443  159.8606 N   0  0  0  0  0  0  0  0  0  0  0  0
  148.1003  137.1201  160.8566 N   0  5  0  0  0  0  0  0  0  0  0  0
  147.0756  136.6474  161.6147 C   0  0  0  0  0  0  0  0  0  0  0  0
  146.4997  137.3311  162.4579 O   0  0  0  0  0  0  0  0  0  0  0  0
  146.6551  135.2706  161.4148 C   0  0  0  0  0  0  0  0  0  0  0  0
  147.2554  134.4764  160.5064 C   0  0  0  0  0  0  0  0  0  0  0  0
  148.3524  134.9428  159.6672 C   0  0  0  0  0  0  0  0  0  0  0  0
  148.9126  134.2192  158.8431 O   0  0  0  0  0  0  0  0  0  0  0  0
  150.1012  139.2153  158.4659 N   0  0  0  0  0  0  0  0  0  0  0  0
  149.8950  140.4972  157.8003 C   0  0  0  0  0  0  0  0  0  0  0  0
  150.6663  141.6320  158.5002 C   0  0  0  0  0  0  0  0  0  0  0  0
  150.9451  142.8314  157.5923 C   0  0  0  0  0  0  0  0  0  0  0  0
  152.0716  143.6008  158.2900 C   0  0  0  0  0  0  0  0  0  0  0  0
  152.8067  142.5796  159.1721 C   0  0  0  0  0  0  0  0  0  0  0  0
  152.0623  141.2499  159.0044 C   0  0  0  0  0  0  0  0  0  0  0  0
  150.2291  136.1458  158.4137 H   0  0  0  0  0  0  0  0  0  0  0  0
  150.6064  137.1827  159.7571 H   0  0  0  0  0  0  0  0  0  0  0  0
  145.8454  134.8748  162.0097 H   0  0  0  0  0  0  0  0  0  0  0  0
  146.9117  133.4593  160.3935 H   0  0  0  0  0  0  0  0  0  0  0  0
  150.8845  139.1535  159.0999 H   0  0  0  0  0  0  0  0  0  0  0  0
  150.1675  140.4397  156.7451 H   0  0  0  0  0  0  0  0  0  0  0  0
  148.8268  140.7134  157.8265 H   0  0  0  0  0  0  0  0  0  0  0  0
  150.0809  141.9840  159.3516 H   0  0  0  0  0  0  0  0  0  0  0  0
  151.2916  142.4857  156.6171 H   0  0  0  0  0  0  0  0  0  0  0  0
  150.0599  143.4468  157.4288 H   0  0  0  0  0  0  0  0  0  0  0  0
  152.7382  144.0749  157.5690 H   0  0  0  0  0  0  0  0  0  0  0  0
  151.6527  144.3907  158.9145 H   0  0  0  0  0  0  0  0  0  0  0  0
  153.8560  142.4814  158.8925 H   0  0  0  0  0  0  0  0  0  0  0  0
  152.7764  142.9013  160.2139 H   0  0  0  0  0  0  0  0  0  0  0  0
  152.0311  140.6722  159.9288 H   0  0  0  0  0  0  0  0  0  0  0  0
  152.5723  140.6423  158.2554 H   0  0  0  0  0  0  0  0  0  0  0  0
  1  2  2  0  0  0  0
  2  3  1  0  0  0  0
  2 12  1  0  0  0  0
  3 19  1  0  0  0  0
  3 20  1  0  0  0  0
  3  4  1  0  0  0  0
  4  5  1  0  0  0  0
  4 10  1  0  0  0  0
  5  6  1  0  0  0  0
  6  7  2  0  0  0  0
  6  8  1  0  0  0  0
  8 21  1  0  0  0  0
  8  9  2  0  0  0  0
  9 22  1  0  0  0  0
  9 10  1  0  0  0  0
 10 11  2  0  0  0  0
 12 13  1  0  0  0  0
 12 23  1  0  0  0  0
 13 14  1  0  0  0  0
 13 24  1  0  0  0  0
 13 25  1  0  0  0  0
 14 18  1  0  0  0  0
 14 15  1  0  0  0  0
 14 26  1  0  0  0  0
 15 16  1  0  0  0  0
 15 27  1  0  0  0  0
 15 28  1  0  0  0  0
 16 17  1  0  0  0  0
 16 29  1  0  0  0  0
 16 30  1  0  0  0  0
 17 18  1  0  0  0  0
 17 31  1  0  0  0  0
 17 32  1  0  0  0  0
 18 33  1  0  0  0  0
 18 34  1  0  0  0  0
M  CHG  1   5  -1
M  END
> <s_m_source_file>
AV-unprocessed.smi

> <i_m_source_file_index>
1922

> <i_lp_mmshare_version>
43012

> <i_f3d_flags>
0

> <s_epik_input>
W0NIMl0xW0NIMl1bQ0gyXVtDSDJdW0NIXTFbQ0gyXVtOSF1DKD1PKVtDSDJdbjJbbkhdYyg9TylbY0hdW2NIXWMyPU8=

> <s_epik_cmdline>
J2VwaWtfcHl0aG9uJywgJy1waCcsICc3LjAnLCAnLXRuJywgJzgnLCAnLW1hJywgJzIwMCcsICctbWV0YWxfYmluZGluZycsICctaW1hZScsICc8aW5maWxlLm1hZT4nLCAnLW9tYWUnLCAnPG91dGZpbGUubWFlPic=

> <r_lp_tautomer_probability>
1

> <r_epik_Ionization_Penalty>
0.0984168

> <r_epik_Ionization_Penalty_Charging>
0.0984168

> <r_epik_Ionization_Penalty_Neutral>
1.97085e-08

> <r_epik_State_Penalty>
0.0346886

> <r_epik_Charging_Adjusted_Penalty>
0.133105

> <i_epik_Tot_Q>
-1

> <i_epik_Tot_abs_Q>
1

> <r_epik_Metal_State_Penalty>
0.0346886

> <b_epik_Metal_Only>
0

> <s_lp_Force_Field>
OPLS_2005

> <r_lp_Energy>
36.8816

> <b_lp_Chiralities_Consistent>
1

> <s_lp_Variant>
AV-unprocessed.smi:1922-1

> <Gold.Version>
5.8.1

> <Gold.Id.Protein>
6NUR|6NUR_protein|mol2

> <Gold.PLP.Fitness>
39.6790

> <Gold.PLP.PLP>
-30.3598

> <Gold.PLP.part.hbond>
-3.8735

> <Gold.PLP.part.metal>
0.0000

> <Gold.PLP.part.buried>
-3.6227

> <Gold.PLP.part.nonpolar>
-23.7645

> <Gold.PLP.part.repulsive>
0.1971

> <Gold.PLP.ligand.clash>
0.0000

> <Gold.PLP.ligand.torsion>
0.4038

> <Gold.PLP.Chemscore.Hbond>
3.3696

> <Gold.PLP.Chemscore.CHOScore>
0.0000

> <Gold.PLP.Chemscore.Metal>
0.0000

> <Gold.Chemscore.Hbonds>
donor molecule, donor type, donor heavy atom, donor atom, acceptor molecule, acceptor atom, score
      P1  H  6896  6909       L1    11  1.00
      P1  H  6931  6943       L1     5  1.86
      P1  H  6934  6947       L1     5  0.53

> <Gold.PLP.Chemscore.Internal.Correction>
0.0180

> <Gold.Rescore>
     Score         DG    S(hbond)    S(metal)    S(lipo)     H(rot)  DE(clash)    DE(int)     intcor
     14.11     -14.44       1.71        0.00      70.14       1.94       0.06       0.27       ----

> <Gold.Chemscore.Fitness>
14.1104

> <Gold.Chemscore.DG>
-14.4396

> <Gold.Chemscore.ZeroCoef>
-5.4800

> <Gold.Chemscore.Hbond>
1.7126

> <Gold.Chemscore.Metal>
0.0000

> <Gold.Chemscore.Lipo>
70.1389

> <Gold.Chemscore.Internal_Hbond>
0.0000

> <Gold.Chemscore.DEClash>
0.0553

> <Gold.Chemscore.DEInternal>
0.2738

> <Gold.Chemscore.Rot>
1.9401

> <Gold.Chemscore.Internal.Correction>
   9.000000E+99

> <Gold.Chemscore.Hbonds>
donor molecule, donor type, donor heavy atom, donor atom, acceptor molecule, acceptor atom, score
      P1  H  6896  6909       L1    11  0.72
      P1  H  6931  6943       L1     5  0.54
      P1  H  6934  6947       L1     5  0.01

> <Gold.Chemscore.Hbond.Weighted>
-5.7200

> <Gold.Chemscore.Metal.Weighted>
-0.0000

> <Gold.Chemscore.Lipo.Weighted>
-8.2062

> <Gold.Chemscore.Internal_Hbond.Weighted>
0.0000

> <Gold.Chemscore.DEClash.Weighted>
0.0553

> <Gold.Chemscore.DEInternal.Weighted>
0.2738

> <Gold.Chemscore.Rot.Weighted>
4.9666

> <Gold.Chemscore.Internal.Correction.Weighted>
   9.000000E+99

> <Gold.Protein.RotatedTorsions>
[ 6907 6896 6895 6894 ] final   10.01 input  -60.11 | X-H torsion
[ 7974 7965 7964 7962 ] final  143.69 input  175.53 | X-H torsion
[ 8008 7997 7996 7995 ] final  -66.88 input   59.86 | X-H torsion
[ 10167 10162 10161 10158 ] final   80.62 input  -65.29 | X-H torsion
[ 10718 10713 10712 10709 ] final   42.95 input   66.30 | X-H torsion
[ 10763 10752 10751 10750 ] final   54.03 input  -60.55 | X-H torsion
[ 11005 11000 10999 10996 ] final  -85.75 input  -57.11 | X-H torsion

> <Gold.Protein.ActiveResidues>
 VAL166  LYS551  ARG553  GLY616  TRP617  ASP618  TYR619  PRO620  LYS621  CYS622 
 ASP623  PHE694  ASN695  SER759  ASP760  ASP761  ALA762  ILE779  LEU786  VAL792 
 PHE793  MET794  SER795  GLU796  ALA797  LYS798  CYS799  TRP800  GLU811  SER814 

> <Gold.Protein.RotatedAtoms>
  151.7313  135.0874  160.0300 H   0  0  0  0  0  0  0  0  0  0  0  0  # atno 6907 bound_to 6896
  152.3539  133.6209  159.5973 H   0  0  0  0  0  0  0  0  0  0  0  0  # atno 6908 bound_to 6896
  150.7558  133.9447  159.3508 H   0  0  0  0  0  0  0  0  0  0  0  0  # atno 6909 bound_to 6896
  144.8899  139.5574  143.5803 H   0  0  0  0  0  0  0  0  0  0  0  0  # atno 7974 bound_to 7965
  154.4763  140.0904  156.7269 H   0  0  0  0  0  0  0  0  0  0  0  0  # atno 8008 bound_to 7997
  155.4588  140.3460  155.4292 H   0  0  0  0  0  0  0  0  0  0  0  0  # atno 8009 bound_to 7997
  156.1121  140.1450  156.9312 H   0  0  0  0  0  0  0  0  0  0  0  0  # atno 8010 bound_to 7997
  139.9479  144.6046  150.8189 H   0  0  0  0  0  0  0  0  0  0  0  0  # atno 10167 bound_to 10162
  157.4105  130.7911  149.7426 H   0  0  0  0  0  0  0  0  0  0  0  0  # atno 10718 bound_to 10713
  152.9800  135.5759  154.4838 H   0  0  0  0  0  0  0  0  0  0  0  0  # atno 10763 bound_to 10752
  154.4382  135.2775  155.1867 H   0  0  0  0  0  0  0  0  0  0  0  0  # atno 10764 bound_to 10752
  154.3547  135.6201  153.5714 H   0  0  0  0  0  0  0  0  0  0  0  0  # atno 10765 bound_to 10752
  141.1638  133.7416  156.9060 H   0  0  0  0  0  0  0  0  0  0  0  0  # atno 11005 bound_to 11000
  146.3047  139.7541  142.9065 LP  0  0  0  0  0  0  0  0  0  0  0  0  # atno 17320 bound_to 7965
  145.3802  141.0357  143.3182 LP  0  0  0  0  0  0  0  0  0  0  0  0  # atno 17321 bound_to 7965
  140.7592  143.3123  151.2816 LP  0  0  0  0  0  0  0  0  0  0  0  0  # atno 17342 bound_to 10162
  139.6652  144.0118  152.2718 LP  0  0  0  0  0  0  0  0  0  0  0  0  # atno 17343 bound_to 10162
  155.9849  130.3987  150.3288 LP  0  0  0  0  0  0  0  0  0  0  0  0  # atno 17370 bound_to 10713
  157.1425  131.0300  151.2921 LP  0  0  0  0  0  0  0  0  0  0  0  0  # atno 17371 bound_to 10713
  140.1549  134.9205  157.2641 LP  0  0  0  0  0  0  0  0  0  0  0  0  # atno 17394 bound_to 11000
  140.2679  134.3495  155.7384 LP  0  0  0  0  0  0  0  0  0  0  0  0  # atno 17395 bound_to 11000

$$$$
