AV-unprocessed.smi:3143|AV-procd|sdf|11977|dock3
  -GOLD-   2272017373D 1   1.00000     0.00000
 Structure written by MMmdl.
 37 38  0  0  0  0  0  0  0  0  1 V2000
  151.0147  142.7714  157.5267 C   0  0  0  0  0  0  0  0  0  0  0  0
  150.8567  141.3470  158.0804 C   0  0  1  0  0  0  0  0  0  0  0  0
  150.1988  140.4950  157.0723 N   0  0  0  0  0  0  0  0  0  0  0  0
  150.9242  140.4247  155.8084 C   0  0  0  0  0  0  0  0  0  0  0  0
  150.1187  139.5859  154.8058 C   0  0  0  0  0  0  0  0  0  0  0  0
  148.8166  140.1689  154.5466 N   0  0  0  0  0  0  0  0  0  0  0  0
  148.3963  141.4629  154.7719 C   0  0  0  0  0  0  0  0  0  0  0  0
  147.0924  141.5415  154.3743 C   0  0  0  0  0  0  0  0  0  0  0  0
  146.7997  140.2270  153.9140 C   0  0  0  0  0  0  0  0  0  0  0  0
  147.8339  139.4081  154.0179 N   0  0  0  0  0  0  0  0  0  0  0  0
  152.2321  140.8086  158.5370 C   0  0  0  0  0  0  0  0  0  0  0  0
  152.7950  139.9599  157.8432 O   0  0  0  0  0  0  0  0  0  0  0  0
  152.7857  141.2728  159.6787 N   0  0  0  0  0  0  0  0  0  0  0  0
  152.1583  142.3001  160.5091 C   0  0  0  0  0  0  0  0  0  0  0  0
  153.2131  142.7069  161.5376 C   0  0  0  0  0  0  0  0  0  0  0  0
  154.1025  141.4783  161.6596 C   0  0  0  0  0  0  0  0  0  0  0  0
  154.0520  140.8411  160.2707 C   0  0  0  0  0  0  0  0  0  0  0  0
  151.4635  143.4369  158.2655 H   0  0  0  0  0  0  0  0  0  0  0  0
  150.0478  143.1948  157.2534 H   0  0  0  0  0  0  0  0  0  0  0  0
  151.6463  142.7885  156.6373 H   0  0  0  0  0  0  0  0  0  0  0  0
  150.1757  141.4057  158.9282 H   0  0  0  0  0  0  0  0  0  0  0  0
  150.0512  139.5598  157.4233 H   0  0  0  0  0  0  0  0  0  0  0  0
  151.0933  141.4212  155.3991 H   0  0  0  0  0  0  0  0  0  0  0  0
  151.9015  139.9683  155.9724 H   0  0  0  0  0  0  0  0  0  0  0  0
  150.6541  139.5033  153.8587 H   0  0  0  0  0  0  0  0  0  0  0  0
  149.9773  138.5706  155.1801 H   0  0  0  0  0  0  0  0  0  0  0  0
  149.0522  142.2112  155.1921 H   0  0  0  0  0  0  0  0  0  0  0  0
  146.4461  142.4059  154.4072 H   0  0  0  0  0  0  0  0  0  0  0  0
  145.8735  139.8465  153.5093 H   0  0  0  0  0  0  0  0  0  0  0  0
  151.8270  143.1582  159.9219 H   0  0  0  0  0  0  0  0  0  0  0  0
  151.2860  141.8711  161.0044 H   0  0  0  0  0  0  0  0  0  0  0  0
  153.7972  143.5432  161.1512 H   0  0  0  0  0  0  0  0  0  0  0  0
  152.7797  143.0133  162.4900 H   0  0  0  0  0  0  0  0  0  0  0  0
  155.1170  141.7196  161.9782 H   0  0  0  0  0  0  0  0  0  0  0  0
  153.6768  140.7921  162.3928 H   0  0  0  0  0  0  0  0  0  0  0  0
  154.1269  139.7548  160.3382 H   0  0  0  0  0  0  0  0  0  0  0  0
  154.8759  141.2061  159.6557 H   0  0  0  0  0  0  0  0  0  0  0  0
  1  2  1  0  0  0  0
  1 18  1  0  0  0  0
  1 19  1  0  0  0  0
  1 20  1  0  0  0  0
  2  3  1  0  0  0  0
  2 11  1  0  0  0  0
  2 21  1  0  0  0  0
  3  4  1  0  0  0  0
  3 22  1  0  0  0  0
  4  5  1  0  0  0  0
  4 23  1  0  0  0  0
  4 24  1  0  0  0  0
  5  6  1  0  0  0  0
  5 25  1  0  0  0  0
  5 26  1  0  0  0  0
  6 10  1  0  0  0  0
  6  7  1  0  0  0  0
  7  8  2  0  0  0  0
  7 27  1  0  0  0  0
  8  9  1  0  0  0  0
  8 28  1  0  0  0  0
  9 10  2  0  0  0  0
  9 29  1  0  0  0  0
 11 12  2  0  0  0  0
 11 13  1  0  0  0  0
 13 17  1  0  0  0  0
 13 14  1  0  0  0  0
 14 15  1  0  0  0  0
 14 30  1  0  0  0  0
 14 31  1  0  0  0  0
 15 16  1  0  0  0  0
 15 32  1  0  0  0  0
 15 33  1  0  0  0  0
 16 17  1  0  0  0  0
 16 34  1  0  0  0  0
 16 35  1  0  0  0  0
 17 36  1  0  0  0  0
 17 37  1  0  0  0  0
M  END
> <s_m_source_file>
AV-unprocessed.smi

> <i_m_source_file_index>
3143

> <i_lp_mmshare_version>
43012

> <i_f3d_flags>
0

> <s_epik_input>
W0NIMl0xW0NIMl1bQ0gyXVtDSDJdTjFDKD1PKVtDQEhdKFtDSDNdKVtOSF1bQ0gyXVtDSDJdbjJbY0hdW2NIXVtjSF1uMg==

> <s_epik_cmdline>
J2VwaWtfcHl0aG9uJywgJy1waCcsICc3LjAnLCAnLXRuJywgJzgnLCAnLW1hJywgJzIwMCcsICctbWV0YWxfYmluZGluZycsICctaW1hZScsICc8aW5maWxlLm1hZT4nLCAnLW9tYWUnLCAnPG91dGZpbGUubWFlPic=

> <r_lp_tautomer_probability>
1

> <r_epik_Ionization_Penalty>
0.733724

> <r_epik_Ionization_Penalty_Charging>
0

> <r_epik_Ionization_Penalty_Neutral>
0.733724

> <r_epik_State_Penalty>
0.75825

> <r_epik_Charging_Adjusted_Penalty>
0.75825

> <i_epik_Tot_Q>
0

> <i_epik_Tot_abs_Q>
0

> <r_epik_Metal_State_Penalty>
0.757598

> <b_epik_Metal_Only>
0

> <s_lp_Force_Field>
OPLS_2005

> <r_lp_Energy>
31.5048

> <b_lp_Chiralities_Consistent>
1

> <s_lp_Variant>
AV-unprocessed.smi:3143-4

> <Gold.Version>
5.8.1

> <Gold.Id.Protein>
6NUR|6NUR_protein|mol2

> <Gold.PLP.Fitness>
47.0128

> <Gold.PLP.PLP>
-39.5178

> <Gold.PLP.part.hbond>
-1.0000

> <Gold.PLP.part.metal>
0.0000

> <Gold.PLP.part.buried>
-2.3034

> <Gold.PLP.part.nonpolar>
-36.2848

> <Gold.PLP.part.repulsive>
0.3917

> <Gold.PLP.ligand.clash>
0.0000

> <Gold.PLP.ligand.torsion>
0.6710

> <Gold.PLP.Chemscore.Hbond>
1.0000

> <Gold.PLP.Chemscore.CHOScore>
1.9303

> <Gold.PLP.Chemscore.Metal>
0.0000

> <Gold.Chemscore.Hbonds>
donor molecule, donor type, donor heavy atom, donor atom, acceptor molecule, acceptor atom, score
      P1  H  7997  8010       L1    12  1.00
      L1  C     7    27       P1  8028  0.95
      L1  C     9    29       P1 10175  1.00

> <Gold.PLP.Chemscore.Internal.Correction>
0.0460

> <Gold.Rescore>
     Score         DG    S(hbond)    S(metal)    S(lipo)     H(rot)  DE(clash)    DE(int)     intcor
     12.95     -15.09       0.97        0.00      93.19       1.77       0.14       2.00       ----

> <Gold.Chemscore.Fitness>
12.9456

> <Gold.Chemscore.DG>
-15.0853

> <Gold.Chemscore.ZeroCoef>
-5.4800

> <Gold.Chemscore.Hbond>
0.9699

> <Gold.Chemscore.Metal>
0.0000

> <Gold.Chemscore.Lipo>
93.1938

> <Gold.Chemscore.Internal_Hbond>
0.0000

> <Gold.Chemscore.DEClash>
0.1403

> <Gold.Chemscore.DEInternal>
1.9994

> <Gold.Chemscore.Rot>
1.7726

> <Gold.Chemscore.Internal.Correction>
   9.000000E+99

> <Gold.Chemscore.Hbonds>
donor molecule, donor type, donor heavy atom, donor atom, acceptor molecule, acceptor atom, score
      P1  H  7997  8010       L1    12  0.98

> <Gold.Chemscore.Hbond.Weighted>
-3.2395

> <Gold.Chemscore.Metal.Weighted>
-0.0000

> <Gold.Chemscore.Lipo.Weighted>
-10.9037

> <Gold.Chemscore.Internal_Hbond.Weighted>
0.0000

> <Gold.Chemscore.DEClash.Weighted>
0.1403

> <Gold.Chemscore.DEInternal.Weighted>
1.9994

> <Gold.Chemscore.Rot.Weighted>
4.5378

> <Gold.Chemscore.Internal.Correction.Weighted>
   9.000000E+99

> <Gold.Protein.RotatedTorsions>
[ 6907 6896 6895 6894 ] final -165.56 input  -60.11 | X-H torsion
[ 7974 7965 7964 7962 ] final    0.92 input  175.53 | X-H torsion
[ 8008 7997 7996 7995 ] final   42.10 input   59.86 | X-H torsion
[ 10167 10162 10161 10158 ] final  -21.53 input  -65.29 | X-H torsion
[ 10718 10713 10712 10709 ] final    1.52 input   66.30 | X-H torsion
[ 10763 10752 10751 10750 ] final  -21.73 input  -60.55 | X-H torsion
[ 11005 11000 10999 10996 ] final    8.70 input  -57.11 | X-H torsion

> <Gold.Protein.ActiveResidues>
 VAL166  LYS551  ARG553  GLY616  TRP617  ASP618  TYR619  PRO620  LYS621  CYS622 
 ASP623  PHE694  ASN695  SER759  ASP760  ASP761  ALA762  ILE779  LEU786  VAL792 
 PHE793  MET794  SER795  GLU796  ALA797  LYS798  CYS799  TRP800  GLU811  SER814 

> <Gold.Protein.RotatedAtoms>
  151.4297  133.3674  159.2766 H   0  0  0  0  0  0  0  0  0  0  0  0  # atno 6907 bound_to 6896
  150.9234  134.8652  159.7514 H   0  0  0  0  0  0  0  0  0  0  0  0  # atno 6908 bound_to 6896
  152.4993  134.4236  159.9541 H   0  0  0  0  0  0  0  0  0  0  0  0  # atno 6909 bound_to 6896
  146.2437  140.1065  142.8345 H   0  0  0  0  0  0  0  0  0  0  0  0  # atno 7974 bound_to 7965
  155.2805  140.3372  155.4258 H   0  0  0  0  0  0  0  0  0  0  0  0  # atno 8008 bound_to 7997
  156.2092  140.1763  156.7774 H   0  0  0  0  0  0  0  0  0  0  0  0  # atno 8009 bound_to 7997
  154.5662  140.0678  156.8880 H   0  0  0  0  0  0  0  0  0  0  0  0  # atno 8010 bound_to 7997
  140.7282  143.4619  151.0367 H   0  0  0  0  0  0  0  0  0  0  0  0  # atno 10167 bound_to 10162
  156.8494  130.5548  149.5671 H   0  0  0  0  0  0  0  0  0  0  0  0  # atno 10718 bound_to 10713
  153.6407  135.6985  153.5242 H   0  0  0  0  0  0  0  0  0  0  0  0  # atno 10763 bound_to 10752
  153.2784  135.4193  155.1055 H   0  0  0  0  0  0  0  0  0  0  0  0  # atno 10764 bound_to 10752
  154.8500  135.3596  154.5951 H   0  0  0  0  0  0  0  0  0  0  0  0  # atno 10765 bound_to 10752
  140.5341  134.0438  155.7882 H   0  0  0  0  0  0  0  0  0  0  0  0  # atno 11005 bound_to 11000
  145.0524  140.9027  143.4987 LP  0  0  0  0  0  0  0  0  0  0  0  0  # atno 17320 bound_to 7965
  145.1165  139.2722  143.5610 LP  0  0  0  0  0  0  0  0  0  0  0  0  # atno 17321 bound_to 7965
  139.8304  143.7698  152.3179 LP  0  0  0  0  0  0  0  0  0  0  0  0  # atno 17342 bound_to 10162
  139.7812  144.7444  151.0086 LP  0  0  0  0  0  0  0  0  0  0  0  0  # atno 17343 bound_to 10162
  156.0837  130.5841  150.9609 LP  0  0  0  0  0  0  0  0  0  0  0  0  # atno 17370 bound_to 10713
  157.6312  131.0921  150.8438 LP  0  0  0  0  0  0  0  0  0  0  0  0  # atno 17371 bound_to 10713
  141.1265  133.9374  157.2625 LP  0  0  0  0  0  0  0  0  0  0  0  0  # atno 17394 bound_to 11000
  139.9539  135.0170  156.9072 LP  0  0  0  0  0  0  0  0  0  0  0  0  # atno 17395 bound_to 11000

$$$$
