#       Name:                AV-unprocessed.smi:1301
#       Creating user name   scv26
#       Creation time:       Fri Mar 27 04:58:26 2020


#       File generated by GOLD software.
#

@<TRIPOS>MOLECULE
AV-unprocessed.smi:1301
    50    51     1
SMALL
NO_CHARGES


@<TRIPOS>ATOM
      1 ****        -3.8205   4.5916   5.4631 C.3            1 S1                 0.0000
      2 ****        -2.9027   3.8129   4.5845 C.2            1 S1                 0.0000
      3 ****        -2.8200   2.4855   4.2726 C.2            1 S1                 0.0000
      4 ****        -1.7189   2.4313   3.3751 C.2            1 S1                 0.0000
      5 ****        -1.2279   1.3273   2.7914 N.pl3          1 S1                -1.0000
      6 ****        -1.7807   0.8581   1.6499 C.2            1 S1                 0.0000
      7 ****        -2.7551   1.3290   1.0589 O.2            1 S1                 0.0000
      8 ****        -1.1571  -0.2220   1.1587 N.am           1 S1                 0.0000
      9 ****        -1.4958  -0.9337  -0.0733 C.3            1 S1                 0.0000
     10 ****        -0.8297  -2.3198  -0.0846 C.3            1 S1                 0.0000
     11 ****         0.6986  -2.2204  -0.2481 C.3            1 S1                 0.0000
     12 ****         1.0657  -1.4531  -1.4664 N.4            1 S1                 1.0000
     13 ****         2.5314  -1.4560  -1.7105 C.3            1 S1                 0.0000
     14 ****         2.9016  -1.2151  -3.1906 C.3            1 S1                 0.0000
     15 ****         2.3548  -2.3227  -4.1070 C.3            1 S1                 0.0000
     16 ****         4.4239  -1.0894  -3.3526 C.3            1 S1                 0.0000
     17 ****         0.4746  -0.0884  -1.4533 C.3            1 S1                 0.0000
     18 ****        -1.0572  -0.1491  -1.3254 C.3            1 S1                 0.0000
     19 ****        -1.1715   3.6181   3.1733 N.2            1 S1                 0.0000
     20 ****        -1.9285   4.5108   3.9412 O.3            1 S1                 0.0000
     21 ****        -3.5196   4.5042   6.5069 H              1 S1                 0.0000
     22 ****        -4.8438   4.2268   5.3732 H              1 S1                 0.0000
     23 ****        -3.8152   5.6487   5.1963 H              1 S1                 0.0000
     24 ****        -3.4489   1.6820   4.6256 H              1 S1                 0.0000
     25 ****        -0.3723  -0.5736   1.6875 H              1 S1                 0.0000
     26 ****        -2.5782  -1.0718  -0.0976 H              1 S1                 0.0000
     27 ****        -1.0742  -2.8644   0.8283 H              1 S1                 0.0000
     28 ****        -1.2392  -2.9081  -0.9069 H              1 S1                 0.0000
     29 ****         1.1462  -1.7492   0.6285 H              1 S1                 0.0000
     30 ****         1.1129  -3.2275  -0.3096 H              1 S1                 0.0000
     31 ****         3.0016  -0.7094  -1.0683 H              1 S1                 0.0000
     32 ****         2.9492  -2.4179  -1.4092 H              1 S1                 0.0000
     33 ****         2.4746  -0.2681  -3.5188 H              1 S1                 0.0000
     34 ****         2.7477  -3.3003  -3.8264 H              1 S1                 0.0000
     35 ****         2.6293  -2.1415  -5.1467 H              1 S1                 0.0000
     36 ****         1.2667  -2.3758  -4.0652 H              1 S1                 0.0000
     37 ****         4.9330  -2.0071  -3.0564 H              1 S1                 0.0000
     38 ****         4.8191  -0.2773  -2.7416 H              1 S1                 0.0000
     39 ****         4.6936  -0.8799  -4.3882 H              1 S1                 0.0000
     40 ****         0.9000   0.4881  -0.6302 H              1 S1                 0.0000
     41 ****         0.7262   0.4444  -2.3691 H              1 S1                 0.0000
     42 ****        -1.4708  -0.6304  -2.2126 H              1 S1                 0.0000
     43 ****        -1.4697   0.8603  -1.3138 H              1 S1                 0.0000
     44 ****         0.6479  -1.9464  -2.2422 H              1 S1                 0.0000
     45 ****        -0.4509   0.8500   3.2018 LP             1 S1                 0.0000
     46 ****        -3.2165   2.1387   1.4215 LP             1 S1                 0.0000
     47 ****        -3.0840   0.9011   0.2170 LP             1 S1                 0.0000
     48 ****        -0.3842   3.8323   2.5951 LP             1 S1                 0.0000
     49 ****        -1.3392   4.9622   4.6113 LP             1 S1                 0.0000
     50 ****        -2.3441   5.1985   3.3459 LP             1 S1                 0.0000
@<TRIPOS>BOND
    1    1    2 1     
    2    1   21 1     
    3    1   22 1     
    4    1   23 1     
    5    2   20 1     
    6    2    3 2     
    7    3    4 1     
    8    3   24 1     
    9    4    5 1     
   10    4   19 2     
   11    5    6 1     
   12    6    7 2     
   13    6    8 am    
   14    8    9 1     
   15    8   25 1     
   16    9   18 1     
   17    9   10 1     
   18    9   26 1     
   19   10   11 1     
   20   10   27 1     
   21   10   28 1     
   22   11   12 1     
   23   11   29 1     
   24   11   30 1     
   25   12   13 1     
   26   12   17 1     
   27   12   44 1     
   28   13   14 1     
   29   13   31 1     
   30   13   32 1     
   31   14   15 1     
   32   14   16 1     
   33   14   33 1     
   34   15   34 1     
   35   15   35 1     
   36   15   36 1     
   37   16   37 1     
   38   16   38 1     
   39   16   39 1     
   40   17   18 1     
   41   17   40 1     
   42   17   41 1     
   43   18   42 1     
   44   18   43 1     
   45   19   20 1     
   46    5   45 1     
   47    7   46 1     
   48    7   47 1     
   49   19   48 1     
   50   20   49 1     
   51   20   50 1     
@<TRIPOS>SUBSTRUCTURE
      1 S1             1
@<TRIPOS>SET
LONE_PAIRS      STATIC     ATOMS    <user>   **** ""
6 45 46 47 48 49 50
DONOR_HYDROGENS      STATIC     ATOMS    <user>   **** ""
2 25 44
ATOM$BLUE        STATIC     ATOMS    COLORGROUP SYSTEM
6 45 46 47 48 49 50
ATOM$RED        STATIC     ATOMS    COLORGROUP SYSTEM
2 25 44
