#       Name:                AV-unprocessed.smi:701
#       Creating user name   scv26
#       Creation time:       Fri Mar 27 00:38:54 2020


#       File generated by GOLD software.
#

@<TRIPOS>MOLECULE
AV-unprocessed.smi:701
    57    59     1
SMALL
NO_CHARGES


@<TRIPOS>ATOM
      1 ****        -4.6765   2.9388  -1.2479 C.3            1 S1                 0.0000
      2 ****        -3.1742   3.2294  -1.2571 C.3            1 S1                 0.0000
      3 ****        -2.5148   2.2412  -0.4838 O.3            1 S1                 0.0000
      4 ****        -1.1021   2.4055  -0.4493 C.3            1 S1                 0.0000
      5 ****        -0.4146   1.7488  -1.6539 C.3            1 S1                 0.0000
      6 ****        -0.3571   0.4759  -0.8086 C.3            1 S1                 0.0000
      7 ****         0.8831  -0.2692  -0.9906 N.am           1 S1                 0.0000
      8 ****         1.1094  -1.4918  -0.4894 C.2            1 S1                 0.0000
      9 ****         0.2828  -2.1057   0.1866 O.2            1 S1                 0.0000
     10 ****         2.4909  -2.0976  -0.7710 C.3            1 S1                 0.0000
     11 ****         2.4500  -3.5618  -0.8920 N.am           1 S1                 0.0000
     12 ****         2.7840  -4.3656   0.1888 C.2            1 S1                 0.0000
     13 ****         2.7512  -5.7188   0.1497 C.2            1 S1                 0.0000
     14 ****         2.3503  -6.4130  -1.0693 C.2            1 S1                 0.0000
     15 ****         2.2892  -7.6330  -1.2033 O.2            1 S1                 0.0000
     16 ****         2.0211  -5.5697  -2.1339 N.am           1 S1                 0.0000
     17 ****         2.0508  -4.1747  -2.0996 C.2            1 S1                 0.0000
     18 ****         1.7357  -3.5249  -3.0959 O.2            1 S1                 0.0000
     19 ****        -0.4023   1.3620   0.4637 C.3            1 S1                 0.0000
     20 ****         0.9529   1.8153   1.0567 C.3            1 S1                 0.0000
     21 ****         0.7989   2.8598   2.1765 C.3            1 S1                 0.0000
     22 ****        -0.1024   2.3401   3.3040 C.3            1 S1                 0.0000
     23 ****        -1.4420   1.8311   2.7563 C.3            1 S1                 0.0000
     24 ****        -1.2255   0.8001   1.6366 C.3            1 S1                 0.0000
     25 ****         1.7359  -6.0053  -2.9988 H              1 S1                 0.0000
     26 ****        -5.2203   3.6776  -1.8366 H              1 S1                 0.0000
     27 ****        -5.0732   2.9614  -0.2324 H              1 S1                 0.0000
     28 ****        -4.8864   1.9552  -1.6685 H              1 S1                 0.0000
     29 ****        -2.8023   3.2253  -2.2821 H              1 S1                 0.0000
     30 ****        -2.9834   4.2194  -0.8407 H              1 S1                 0.0000
     31 ****        -0.7934   3.4348  -0.2617 H              1 S1                 0.0000
     32 ****        -1.0245   1.6656  -2.5535 H              1 S1                 0.0000
     33 ****         0.5638   2.1805  -1.8714 H              1 S1                 0.0000
     34 ****        -1.2602  -0.1261  -0.9357 H              1 S1                 0.0000
     35 ****         1.6141   0.1731  -1.5285 H              1 S1                 0.0000
     36 ****         2.9210  -1.6566  -1.6727 H              1 S1                 0.0000
     37 ****         3.1589  -1.8029   0.0394 H              1 S1                 0.0000
     38 ****         3.0821  -3.8943   1.1145 H              1 S1                 0.0000
     39 ****         3.0213  -6.2909   1.0256 H              1 S1                 0.0000
     40 ****         1.4927   0.9553   1.4558 H              1 S1                 0.0000
     41 ****         1.5970   2.2302   0.2813 H              1 S1                 0.0000
     42 ****         1.7785   3.1212   2.5774 H              1 S1                 0.0000
     43 ****         0.3798   3.7803   1.7696 H              1 S1                 0.0000
     44 ****         0.4057   1.5284   3.8263 H              1 S1                 0.0000
     45 ****        -0.2715   3.1248   4.0417 H              1 S1                 0.0000
     46 ****        -2.0276   1.3883   3.5623 H              1 S1                 0.0000
     47 ****        -2.0260   2.6691   2.3738 H              1 S1                 0.0000
     48 ****        -2.1953   0.4412   1.2912 H              1 S1                 0.0000
     49 ****        -0.7273  -0.0771   2.0515 H              1 S1                 0.0000
     50 ****        -2.7207   1.3434  -0.8732 LP             1 S1                 0.0000
     51 ****        -2.8627   2.2861   0.4526 LP             1 S1                 0.0000
     52 ****        -0.6065  -1.6935   0.3845 LP             1 S1                 0.0000
     53 ****         0.5011  -3.0163   0.5375 LP             1 S1                 0.0000
     54 ****         2.5253  -8.2325  -0.4385 LP             1 S1                 0.0000
     55 ****         2.0034  -8.0264  -2.0772 LP             1 S1                 0.0000
     56 ****         1.7570  -2.5255  -3.0684 LP             1 S1                 0.0000
     57 ****         1.4584  -3.9962  -3.9331 LP             1 S1                 0.0000
@<TRIPOS>BOND
    1    1    2 1     
    2    1   26 1     
    3    1   27 1     
    4    1   28 1     
    5    2    3 1     
    6    2   29 1     
    7    2   30 1     
    8    3    4 1     
    9    4   19 1     
   10    4    5 1     
   11    4   31 1     
   12    5    6 1     
   13    5   32 1     
   14    5   33 1     
   15    6    7 1     
   16    6   19 1     
   17    6   34 1     
   18    7    8 am    
   19    7   35 1     
   20    8    9 2     
   21    8   10 1     
   22   10   11 1     
   23   10   36 1     
   24   10   37 1     
   25   11   17 1     
   26   11   12 1     
   27   12   13 2     
   28   12   38 1     
   29   13   14 1     
   30   13   39 1     
   31   14   15 2     
   32   14   16 1     
   33   16   25 1     
   34   16   17 1     
   35   17   18 2     
   36   19   24 1     
   37   19   20 1     
   38   20   21 1     
   39   20   40 1     
   40   20   41 1     
   41   21   22 1     
   42   21   42 1     
   43   21   43 1     
   44   22   23 1     
   45   22   44 1     
   46   22   45 1     
   47   23   24 1     
   48   23   46 1     
   49   23   47 1     
   50   24   48 1     
   51   24   49 1     
   52    3   50 1     
   53    3   51 1     
   54    9   52 1     
   55    9   53 1     
   56   15   54 1     
   57   15   55 1     
   58   18   56 1     
   59   18   57 1     
@<TRIPOS>SUBSTRUCTURE
      1 S1             1
@<TRIPOS>SET
LONE_PAIRS      STATIC     ATOMS    <user>   **** ""
8 50 51 52 53 54 55 56 57
DONOR_HYDROGENS      STATIC     ATOMS    <user>   **** ""
2 35 25
ATOM$BLUE        STATIC     ATOMS    COLORGROUP SYSTEM
8 50 51 52 53 54 55 56 57
ATOM$RED        STATIC     ATOMS    COLORGROUP SYSTEM
2 35 25
