AV-unprocessed.smi:2021|AV-procd|sdf|8177|dock10
  -GOLD-   2272010423D 1   1.00000     0.00000
 Structure written by MMmdl.
 42 43  0  0  0  0  0  0  0  0  2 V2000
  147.2228  143.1923  159.1651 C   0  0  0  0  0  0  0  0  0  0  0  0
  147.4937  142.4939  157.8220 C   0  0  0  0  0  0  0  0  0  0  0  0
  146.5856  141.2650  157.6650 C   0  0  0  0  0  0  0  0  0  0  0  0
  148.9775  142.0938  157.6666 C   0  0  0  0  0  0  0  0  0  0  0  0
  149.5154  142.3465  156.3015 N   0  3  1  0  0  0  0  0  0  0  0  0
  150.9856  142.1772  156.2045 C   0  0  0  0  0  0  0  0  0  0  0  0
  151.3689  140.6883  156.1358 C   0  0  0  0  0  0  0  0  0  0  0  0
  150.7032  140.0817  155.0360 O   0  0  0  0  0  0  0  0  0  0  0  0
  149.2845  140.1217  155.1588 C   0  0  2  0  0  0  0  0  0  0  0  0
  148.6612  139.3844  153.9598 C   0  0  0  0  0  0  0  0  0  0  0  0
  149.0407  137.9757  153.9302 N   0  0  0  0  0  0  0  0  0  0  0  0
  149.1789  137.1893  155.0073 C   0  0  0  0  0  0  0  0  0  0  0  0
  148.9878  137.5778  156.1598 O   0  0  0  0  0  0  0  0  0  0  0  0
  149.5470  135.9449  154.6556 N   0  0  0  0  0  0  0  0  0  0  0  0
  149.8047  134.8313  155.4979 C   0  0  0  0  0  0  0  0  0  0  0  0
  149.8231  134.8995  156.8383 N   0  0  0  0  0  0  0  0  0  0  0  0
  150.1016  133.6679  157.4170 N   0  0  0  0  0  0  0  0  0  0  0  0
  150.2812  132.7210  156.4916 C   0  0  0  0  0  0  0  0  0  0  0  0
  150.1260  133.2406  154.8225 S   0  0  0  0  0  0  0  0  0  0  0  0
  148.8378  141.6000  155.2094 C   0  0  0  0  0  0  0  0  0  0  0  0
  147.4676  142.5435  160.0067 H   0  0  0  0  0  0  0  0  0  0  0  0
  146.1724  143.4704  159.2564 H   0  0  0  0  0  0  0  0  0  0  0  0
  147.8084  144.1062  159.2667 H   0  0  0  0  0  0  0  0  0  0  0  0
  147.2211  143.1846  157.0250 H   0  0  0  0  0  0  0  0  0  0  0  0
  146.7858  140.5212  158.4370 H   0  0  0  0  0  0  0  0  0  0  0  0
  146.7335  140.7875  156.6960 H   0  0  0  0  0  0  0  0  0  0  0  0
  145.5331  141.5415  157.7354 H   0  0  0  0  0  0  0  0  0  0  0  0
  149.5579  142.6659  158.3920 H   0  0  0  0  0  0  0  0  0  0  0  0
  149.1176  141.0467  157.9352 H   0  0  0  0  0  0  0  0  0  0  0  0
  151.3296  142.6788  155.2989 H   0  0  0  0  0  0  0  0  0  0  0  0
  151.4887  142.6714  157.0365 H   0  0  0  0  0  0  0  0  0  0  0  0
  152.4447  140.5852  155.9943 H   0  0  0  0  0  0  0  0  0  0  0  0
  151.1201  140.1697  157.0627 H   0  0  0  0  0  0  0  0  0  0  0  0
  148.9845  139.6089  156.0738 H   0  0  0  0  0  0  0  0  0  0  0  0
  147.5741  139.4220  154.0325 H   0  0  0  0  0  0  0  0  0  0  0  0
  148.9225  139.8785  153.0223 H   0  0  0  0  0  0  0  0  0  0  0  0
  149.2200  137.5727  153.0222 H   0  0  0  0  0  0  0  0  0  0  0  0
  149.6671  135.7752  153.6680 H   0  0  0  0  0  0  0  0  0  0  0  0
  150.5068  131.7092  156.7939 H   0  0  0  0  0  0  0  0  0  0  0  0
  147.7547  141.6715  155.2968 H   0  0  0  0  0  0  0  0  0  0  0  0
  149.0944  142.0840  154.2660 H   0  0  0  0  0  0  0  0  0  0  0  0
  149.3409  143.3269  156.1314 H   0  0  0  0  0  0  0  0  0  0  0  0
  1  2  1  0  0  0  0
  1 21  1  0  0  0  0
  1 22  1  0  0  0  0
  1 23  1  0  0  0  0
  2  3  1  0  0  0  0
  2  4  1  0  0  0  0
  2 24  1  0  0  0  0
  3 25  1  0  0  0  0
  3 26  1  0  0  0  0
  3 27  1  0  0  0  0
  4  5  1  0  0  0  0
  4 28  1  0  0  0  0
  4 29  1  0  0  0  0
  5 20  1  0  0  0  0
  5  6  1  0  0  0  0
  5 42  1  0  0  0  0
  6  7  1  0  0  0  0
  6 30  1  0  0  0  0
  6 31  1  0  0  0  0
  7  8  1  0  0  0  0
  7 32  1  0  0  0  0
  7 33  1  0  0  0  0
  8  9  1  0  0  0  0
  9 10  1  0  0  0  0
  9 20  1  0  0  0  0
  9 34  1  0  0  0  0
 10 11  1  0  0  0  0
 10 35  1  0  0  0  0
 10 36  1  0  0  0  0
 11 12  1  0  0  0  0
 11 37  1  0  0  0  0
 12 13  2  0  0  0  0
 12 14  1  0  0  0  0
 14 15  1  0  0  0  0
 14 38  1  0  0  0  0
 15 19  1  0  0  0  0
 15 16  2  0  0  0  0
 16 17  1  0  0  0  0
 17 18  2  0  0  0  0
 18 19  1  0  0  0  0
 18 39  1  0  0  0  0
 20 40  1  0  0  0  0
 20 41  1  0  0  0  0
M  CHG  1   5   1
M  END
> <s_m_source_file>
AV-unprocessed.smi

> <i_m_source_file_index>
2021

> <i_lp_mmshare_version>
43012

> <i_f3d_flags>
0

> <s_epik_input>
W0NIM11bQ0hdKFtDSDNdKVtDSDJdTjFbQ0gyXVtDSDJdT1tDQEhdKFtDSDJdMSlbQ0gyXVtOSF1DKD1PKVtOSF1jMm5uW2NIXXMy

> <s_epik_cmdline>
J2VwaWtfcHl0aG9uJywgJy1waCcsICc3LjAnLCAnLXRuJywgJzgnLCAnLW1hJywgJzIwMCcsICctbWV0YWxfYmluZGluZycsICctaW1hZScsICc8aW5maWxlLm1hZT4nLCAnLW9tYWUnLCAnPG91dGZpbGUubWFlPic=

> <r_lp_tautomer_probability>
1

> <r_epik_Ionization_Penalty>
0.102019

> <r_epik_Ionization_Penalty_Charging>
0.098413

> <r_epik_Ionization_Penalty_Neutral>
0.00360555

> <r_epik_State_Penalty>
0.0884988

> <r_epik_Charging_Adjusted_Penalty>
0.186912

> <i_epik_Tot_Q>
1

> <i_epik_Tot_abs_Q>
1

> <r_epik_Metal_State_Penalty>
0.454709

> <b_epik_Metal_Only>
0

> <s_lp_Force_Field>
OPLS_2005

> <r_lp_Energy>
19.4379

> <b_lp_Chiralities_Consistent>
1

> <s_lp_Variant>
AV-unprocessed.smi:2021-3

> <Gold.Version>
5.8.1

> <Gold.Id.Protein>
6NUR|6NUR_protein|mol2

> <Gold.PLP.Fitness>
42.8463

> <Gold.PLP.PLP>
-26.4547

> <Gold.PLP.part.hbond>
-5.0000

> <Gold.PLP.part.metal>
0.0000

> <Gold.PLP.part.buried>
-3.4532

> <Gold.PLP.part.nonpolar>
-17.2140

> <Gold.PLP.part.repulsive>
0.1962

> <Gold.PLP.ligand.clash>
0.0062

> <Gold.PLP.ligand.torsion>
0.7485

> <Gold.PLP.Chemscore.Hbond>
5.9360

> <Gold.PLP.Chemscore.CHOScore>
0.0000

> <Gold.PLP.Chemscore.Metal>
0.0000

> <Gold.Chemscore.Hbonds>
donor molecule, donor type, donor heavy atom, donor atom, acceptor molecule, acceptor atom, score
      L1  H     5    42       P1  8028  2.00
      L1  H    11    37       P1  7948  1.00
      L1  H    14    38       P1  7948  0.82
      P1  H  6896  6908       L1    17  0.96
      P1  H  7989  7998       L1     8  1.00

> <Gold.PLP.Chemscore.Internal.Correction>
0.0868

> <Gold.Rescore>
     Score         DG    S(hbond)    S(metal)    S(lipo)     H(rot)  DE(clash)    DE(int)     intcor
     15.73     -19.32       3.80        0.00      50.88       1.88       0.09       3.49       ----

> <Gold.Chemscore.Fitness>
15.7321

> <Gold.Chemscore.DG>
-19.3152

> <Gold.Chemscore.ZeroCoef>
-5.4800

> <Gold.Chemscore.Hbond>
3.8018

> <Gold.Chemscore.Metal>
0.0000

> <Gold.Chemscore.Lipo>
50.8820

> <Gold.Chemscore.Internal_Hbond>
0.0000

> <Gold.Chemscore.DEClash>
0.0940

> <Gold.Chemscore.DEInternal>
3.4891

> <Gold.Chemscore.Rot>
1.8812

> <Gold.Chemscore.Internal.Correction>
   9.000000E+99

> <Gold.Chemscore.Hbonds>
donor molecule, donor type, donor heavy atom, donor atom, acceptor molecule, acceptor atom, score
      L1  H     5    42       P1  8028  0.94
      L1  H    11    37       P1  7948  0.93
      L1  H    14    38       P1  7948  0.16
      P1  H  6896  6908       L1    17  0.87
      P1  H  7989  7998       L1     8  0.34

> <Gold.Chemscore.Hbond.Weighted>
-12.6979

> <Gold.Chemscore.Metal.Weighted>
-0.0000

> <Gold.Chemscore.Lipo.Weighted>
-5.9532

> <Gold.Chemscore.Internal_Hbond.Weighted>
0.0000

> <Gold.Chemscore.DEClash.Weighted>
0.0940

> <Gold.Chemscore.DEInternal.Weighted>
3.4891

> <Gold.Chemscore.Rot.Weighted>
4.8159

> <Gold.Chemscore.Internal.Correction.Weighted>
   9.000000E+99

> <Gold.Protein.RotatedTorsions>
[ 6907 6896 6895 6894 ] final  106.35 input  -60.11 | X-H torsion
[ 7974 7965 7964 7962 ] final   -8.84 input  175.53 | X-H torsion
[ 8008 7997 7996 7995 ] final  137.04 input   59.86 | X-H torsion
[ 10167 10162 10161 10158 ] final -110.27 input  -65.29 | X-H torsion
[ 10718 10713 10712 10709 ] final   92.16 input   66.30 | X-H torsion
[ 10763 10752 10751 10750 ] final  162.38 input  -60.55 | X-H torsion
[ 11005 11000 10999 10996 ] final -115.29 input  -57.11 | X-H torsion

> <Gold.Protein.ActiveResidues>
 VAL166  LYS551  ARG553  GLY616  TRP617  ASP618  TYR619  PRO620  LYS621  CYS622 
 ASP623  PHE694  ASN695  SER759  ASP760  ASP761  ALA762  ILE779  LEU786  VAL792 
 PHE793  MET794  SER795  GLU796  ALA797  LYS798  CYS799  TRP800  GLU811  SER814 

> <Gold.Protein.RotatedAtoms>
  152.5197  133.9393  159.7618 H   0  0  0  0  0  0  0  0  0  0  0  0  # atno 6907 bound_to 6896
  150.9727  133.6319  159.2742 H   0  0  0  0  0  0  0  0  0  0  0  0  # atno 6908 bound_to 6896
  151.3525  135.0893  159.9460 H   0  0  0  0  0  0  0  0  0  0  0  0  # atno 6909 bound_to 6896
  146.2269  140.2528  142.8348 H   0  0  0  0  0  0  0  0  0  0  0  0  # atno 7974 bound_to 7965
  156.3003  140.2429  156.3845 H   0  0  0  0  0  0  0  0  0  0  0  0  # atno 8008 bound_to 7997
  154.8671  140.0417  157.1721 H   0  0  0  0  0  0  0  0  0  0  0  0  # atno 8009 bound_to 7997
  154.8835  140.2952  155.5415 H   0  0  0  0  0  0  0  0  0  0  0  0  # atno 8010 bound_to 7997
  140.1463  143.4236  152.1526 H   0  0  0  0  0  0  0  0  0  0  0  0  # atno 10167 bound_to 10162
  157.6959  131.0433  150.3840 H   0  0  0  0  0  0  0  0  0  0  0  0  # atno 10718 bound_to 10713
  154.2774  135.2764  155.2712 H   0  0  0  0  0  0  0  0  0  0  0  0  # atno 10763 bound_to 10752
  154.5248  135.5746  153.6713 H   0  0  0  0  0  0  0  0  0  0  0  0  # atno 10764 bound_to 10752
  152.9935  135.6213  154.2932 H   0  0  0  0  0  0  0  0  0  0  0  0  # atno 10765 bound_to 10752
  141.0497  133.9706  157.2857 H   0  0  0  0  0  0  0  0  0  0  0  0  # atno 11005 bound_to 11000
  144.9399  140.8067  143.5637 LP  0  0  0  0  0  0  0  0  0  0  0  0  # atno 17320 bound_to 7965
  145.2479  139.2044  143.4958 LP  0  0  0  0  0  0  0  0  0  0  0  0  # atno 17321 bound_to 7965
  139.5447  144.7288  151.4621 LP  0  0  0  0  0  0  0  0  0  0  0  0  # atno 17342 bound_to 10162
  140.6730  143.8253  150.7022 LP  0  0  0  0  0  0  0  0  0  0  0  0  # atno 17343 bound_to 10162
  156.4250  130.3960  149.6799 LP  0  0  0  0  0  0  0  0  0  0  0  0  # atno 17370 bound_to 10713
  156.4036  130.7687  151.2696 LP  0  0  0  0  0  0  0  0  0  0  0  0  # atno 17371 bound_to 10713
  139.9340  135.0198  156.8496 LP  0  0  0  0  0  0  0  0  0  0  0  0  # atno 17394 bound_to 11000
  140.6079  134.0110  155.7564 LP  0  0  0  0  0  0  0  0  0  0  0  0  # atno 17395 bound_to 11000

$$$$
