AV-unprocessed.smi:1599|AV-procd|sdf|6424|dock10
  -GOLD-   22720 7 63D 1   1.00000     0.00000
 Structure written by MMmdl.
 39 40  0  0  0  0  0  0  0  0  1 V2000
  152.2414  145.5651  159.3094 C   0  0  0  0  0  0  0  0  0  0  0  0
  151.3290  144.3299  159.3408 C   0  0  1  0  0  0  0  0  0  0  0  0
  151.2224  143.7713  157.9946 N   0  0  0  0  0  0  0  0  0  0  0  0
  150.7211  142.5677  157.6832 C   0  0  0  0  0  0  0  0  0  0  0  0
  150.2645  141.7808  158.5120 O   0  0  0  0  0  0  0  0  0  0  0  0
  150.7888  142.3423  156.3616 N   0  0  0  0  0  0  0  0  0  0  0  0
  150.3819  141.1745  155.6698 C   0  0  0  0  0  0  0  0  0  0  0  0
  149.2164  140.9520  154.8835 C   0  0  0  0  0  0  0  0  0  0  0  0
  149.1957  139.7176  154.4041 N   0  0  0  0  0  0  0  0  0  0  0  0
  150.3331  139.1391  154.8644 N   0  0  0  0  0  0  0  0  0  0  0  0
  150.6272  137.7578  154.5234 C   0  0  0  0  0  0  0  0  0  0  0  0
  149.7875  136.7825  155.3533 C   0  0  0  0  0  0  0  0  0  0  0  0
  149.0038  135.9327  154.6844 N   0  0  0  0  0  0  0  0  0  0  0  0
  149.8424  136.7937  156.5815 O   0  0  0  0  0  0  0  0  0  0  0  0
  151.0781  140.0038  155.6431 C   0  0  0  0  0  0  0  0  0  0  0  0
  151.8451  143.2513  160.3117 C   0  0  2  0  0  0  0  0  0  0  0  0
  152.2580  143.7762  161.6866 C   0  0  0  0  0  0  0  0  0  0  0  0
  153.1935  142.6946  162.1947 C   0  0  0  0  0  0  0  0  0  0  0  0
  153.6909  142.0091  160.9182 C   0  0  0  0  0  0  0  0  0  0  0  0
  153.0583  142.6867  159.8387 O   0  0  0  0  0  0  0  0  0  0  0  0
  152.3258  146.0172  160.2979 H   0  0  0  0  0  0  0  0  0  0  0  0
  151.8482  146.3263  158.6346 H   0  0  0  0  0  0  0  0  0  0  0  0
  153.2471  145.3094  158.9743 H   0  0  0  0  0  0  0  0  0  0  0  0
  150.3444  144.6467  159.6899 H   0  0  0  0  0  0  0  0  0  0  0  0
  151.5711  144.3457  157.2414 H   0  0  0  0  0  0  0  0  0  0  0  0
  151.1849  143.0766  155.7935 H   0  0  0  0  0  0  0  0  0  0  0  0
  148.4001  141.6180  154.6467 H   0  0  0  0  0  0  0  0  0  0  0  0
  150.4405  137.6190  153.4574 H   0  0  0  0  0  0  0  0  0  0  0  0
  151.6861  137.5561  154.6923 H   0  0  0  0  0  0  0  0  0  0  0  0
  148.4287  135.2723  155.1869 H   0  0  0  0  0  0  0  0  0  0  0  0
  148.9879  135.9570  153.6750 H   0  0  0  0  0  0  0  0  0  0  0  0
  152.0144  139.7152  156.0977 H   0  0  0  0  0  0  0  0  0  0  0  0
  151.1067  142.4553  160.4282 H   0  0  0  0  0  0  0  0  0  0  0  0
  152.8033  144.7156  161.5822 H   0  0  0  0  0  0  0  0  0  0  0  0
  151.4103  143.9496  162.3502 H   0  0  0  0  0  0  0  0  0  0  0  0
  154.0078  143.1095  162.7892 H   0  0  0  0  0  0  0  0  0  0  0  0
  152.6527  141.9808  162.8171 H   0  0  0  0  0  0  0  0  0  0  0  0
  154.7750  142.0648  160.8150 H   0  0  0  0  0  0  0  0  0  0  0  0
  153.4025  140.9574  160.9085 H   0  0  0  0  0  0  0  0  0  0  0  0
  1  2  1  0  0  0  0
  1 21  1  0  0  0  0
  1 22  1  0  0  0  0
  1 23  1  0  0  0  0
  2  3  1  0  0  0  0
  2 16  1  0  0  0  0
  2 24  1  0  0  0  0
  3  4  1  0  0  0  0
  3 25  1  0  0  0  0
  4  5  2  0  0  0  0
  4  6  1  0  0  0  0
  6  7  1  0  0  0  0
  6 26  1  0  0  0  0
  7 15  2  0  0  0  0
  7  8  1  0  0  0  0
  8  9  2  0  0  0  0
  8 27  1  0  0  0  0
  9 10  1  0  0  0  0
 10 11  1  0  0  0  0
 10 15  1  0  0  0  0
 11 12  1  0  0  0  0
 11 28  1  0  0  0  0
 11 29  1  0  0  0  0
 12 13  1  0  0  0  0
 12 14  2  0  0  0  0
 13 30  1  0  0  0  0
 13 31  1  0  0  0  0
 15 32  1  0  0  0  0
 16 20  1  0  0  0  0
 16 17  1  0  0  0  0
 16 33  1  0  0  0  0
 17 18  1  0  0  0  0
 17 34  1  0  0  0  0
 17 35  1  0  0  0  0
 18 19  1  0  0  0  0
 18 36  1  0  0  0  0
 18 37  1  0  0  0  0
 19 20  1  0  0  0  0
 19 38  1  0  0  0  0
 19 39  1  0  0  0  0
M  END
> <s_m_source_file>
AV-unprocessed.smi

> <i_m_source_file_index>
1599

> <i_lp_mmshare_version>
43012

> <i_f3d_flags>
0

> <s_epik_input>
TzFbQ0gyXVtDSDJdW0NIMl1bQ0BIXTFbQ0BIXShbQ0gzXSlbTkhdQyg9TylbTkhdYzJbY0hdbm4oW2NIXTIpW0NIMl1DKD1PKVtOSDJd

> <s_epik_cmdline>
J2VwaWtfcHl0aG9uJywgJy1waCcsICc3LjAnLCAnLXRuJywgJzgnLCAnLW1hJywgJzIwMCcsICctbWV0YWxfYmluZGluZycsICctaW1hZScsICc8aW5maWxlLm1hZT4nLCAnLW9tYWUnLCAnPG91dGZpbGUubWFlPic=

> <r_lp_tautomer_probability>
1

> <r_epik_Ionization_Penalty>
4.15391e-05

> <r_epik_Ionization_Penalty_Charging>
0

> <r_epik_Ionization_Penalty_Neutral>
4.15391e-05

> <r_epik_State_Penalty>
-0

> <r_epik_Charging_Adjusted_Penalty>
0

> <i_epik_Tot_Q>
0

> <i_epik_Tot_abs_Q>
0

> <r_epik_Metal_State_Penalty>
-0

> <b_epik_Metal_Only>
0

> <s_lp_Force_Field>
OPLS_2005

> <r_lp_Energy>
20.7391

> <b_lp_Chiralities_Consistent>
1

> <s_lp_Variant>
AV-unprocessed.smi:1599-2

> <Gold.Version>
5.8.1

> <Gold.Id.Protein>
6NUR|6NUR_protein|mol2

> <Gold.PLP.Fitness>
45.1786

> <Gold.PLP.PLP>
-44.5842

> <Gold.PLP.part.hbond>
-1.9153

> <Gold.PLP.part.metal>
0.0000

> <Gold.PLP.part.buried>
-5.7314

> <Gold.PLP.part.nonpolar>
-36.4930

> <Gold.PLP.part.repulsive>
0.3167

> <Gold.PLP.ligand.clash>
0.0000

> <Gold.PLP.ligand.torsion>
1.2194

> <Gold.PLP.Chemscore.Hbond>
1.0000

> <Gold.PLP.Chemscore.CHOScore>
0.0000

> <Gold.PLP.Chemscore.Metal>
0.0000

> <Gold.Chemscore.Hbonds>
donor molecule, donor type, donor heavy atom, donor atom, acceptor molecule, acceptor atom, score
      L1  H    13    31       P1  7948  1.00

> <Gold.PLP.Chemscore.Internal.Correction>
0.0333

> <Gold.Rescore>
     Score         DG    S(hbond)    S(metal)    S(lipo)     H(rot)  DE(clash)    DE(int)     intcor
     12.13     -14.74       1.00        0.00     100.63       2.28       0.13       2.48       ----

> <Gold.Chemscore.Fitness>
12.1273

> <Gold.Chemscore.DG>
-14.7409

> <Gold.Chemscore.ZeroCoef>
-5.4800

> <Gold.Chemscore.Hbond>
0.9968

> <Gold.Chemscore.Metal>
0.0000

> <Gold.Chemscore.Lipo>
100.6342

> <Gold.Chemscore.Internal_Hbond>
0.0000

> <Gold.Chemscore.DEClash>
0.1301

> <Gold.Chemscore.DEInternal>
2.4836

> <Gold.Chemscore.Rot>
2.2823

> <Gold.Chemscore.Internal.Correction>
   9.000000E+99

> <Gold.Chemscore.Hbonds>
donor molecule, donor type, donor heavy atom, donor atom, acceptor molecule, acceptor atom, score
      L1  H    13    31       P1  7948  0.96

> <Gold.Chemscore.Hbond.Weighted>
-3.3294

> <Gold.Chemscore.Metal.Weighted>
-0.0000

> <Gold.Chemscore.Lipo.Weighted>
-11.7742

> <Gold.Chemscore.Internal_Hbond.Weighted>
0.0000

> <Gold.Chemscore.DEClash.Weighted>
0.1301

> <Gold.Chemscore.DEInternal.Weighted>
2.4836

> <Gold.Chemscore.Rot.Weighted>
5.8427

> <Gold.Chemscore.Internal.Correction.Weighted>
   9.000000E+99

> <Gold.Protein.RotatedTorsions>
[ 6907 6896 6895 6894 ] final  -65.90 input  -60.11 | X-H torsion
[ 7974 7965 7964 7962 ] final  -61.82 input  175.53 | X-H torsion
[ 8008 7997 7996 7995 ] final   18.91 input   59.86 | X-H torsion
[ 10167 10162 10161 10158 ] final -120.33 input  -65.29 | X-H torsion
[ 10718 10713 10712 10709 ] final -125.27 input   66.30 | X-H torsion
[ 10763 10752 10751 10750 ] final -146.24 input  -60.55 | X-H torsion
[ 11005 11000 10999 10996 ] final   98.21 input  -57.11 | X-H torsion

> <Gold.Protein.ActiveResidues>
 VAL166  LYS551  ARG553  GLY616  TRP617  ASP618  TYR619  PRO620  LYS621  CYS622 
 ASP623  PHE694  ASN695  SER759  ASP760  ASP761  ALA762  ILE779  LEU786  VAL792 
 PHE793  MET794  SER795  GLU796  ALA797  LYS798  CYS799  TRP800  GLU811  SER814 

> <Gold.Protein.RotatedAtoms>
  150.7497  134.6096  159.6078 H   0  0  0  0  0  0  0  0  0  0  0  0  # atno 6907 bound_to 6896
  152.3434  134.7101  160.0266 H   0  0  0  0  0  0  0  0  0  0  0  0  # atno 6908 bound_to 6896
  151.7545  133.3293  159.3437 H   0  0  0  0  0  0  0  0  0  0  0  0  # atno 6909 bound_to 6896
  145.7988  140.8667  143.0242 H   0  0  0  0  0  0  0  0  0  0  0  0  # atno 7974 bound_to 7965
  154.9129  140.3016  155.5256 H   0  0  0  0  0  0  0  0  0  0  0  0  # atno 8008 bound_to 7997
  156.3014  140.2386  156.4106 H   0  0  0  0  0  0  0  0  0  0  0  0  # atno 8009 bound_to 7997
  154.8407  140.0414  157.1528 H   0  0  0  0  0  0  0  0  0  0  0  0  # atno 8010 bound_to 7997
  140.0370  143.5191  152.2149 H   0  0  0  0  0  0  0  0  0  0  0  0  # atno 10167 bound_to 10162
  156.1661  130.6635  151.0116 H   0  0  0  0  0  0  0  0  0  0  0  0  # atno 10718 bound_to 10713
  154.8345  135.3392  154.6630 H   0  0  0  0  0  0  0  0  0  0  0  0  # atno 10763 bound_to 10752
  153.7247  135.6956  153.5008 H   0  0  0  0  0  0  0  0  0  0  0  0  # atno 10764 bound_to 10752
  153.2356  135.4402  155.0595 H   0  0  0  0  0  0  0  0  0  0  0  0  # atno 10765 bound_to 10752
  139.8773  134.9038  156.4422 H   0  0  0  0  0  0  0  0  0  0  0  0  # atno 11005 bound_to 11000
  144.6771  140.0230  143.7483 LP  0  0  0  0  0  0  0  0  0  0  0  0  # atno 17320 bound_to 7965
  145.9899  139.3007  143.0991 LP  0  0  0  0  0  0  0  0  0  0  0  0  # atno 17321 bound_to 7965
  139.6038  144.7590  151.3108 LP  0  0  0  0  0  0  0  0  0  0  0  0  # atno 17342 bound_to 10162
  140.7277  143.6956  150.7886 LP  0  0  0  0  0  0  0  0  0  0  0  0  # atno 17343 bound_to 10162
  157.6769  131.0848  150.7472 LP  0  0  0  0  0  0  0  0  0  0  0  0  # atno 17370 bound_to 10713
  156.7533  130.4775  149.5452 LP  0  0  0  0  0  0  0  0  0  0  0  0  # atno 17371 bound_to 10713
  140.8991  133.7792  155.9660 LP  0  0  0  0  0  0  0  0  0  0  0  0  # atno 17394 bound_to 11000
  140.8670  134.2772  157.5208 LP  0  0  0  0  0  0  0  0  0  0  0  0  # atno 17395 bound_to 11000

$$$$
