AV-unprocessed.smi:1093|AV-procd|sdf|4740|dock1
  -GOLD-   22720 3273D 1   1.00000     0.00000
 Structure written by MMmdl.
 48 49  0  0  0  0  0  0  0  0  3 V2000
  144.3752  143.4532  156.6522 C   0  0  0  0  0  0  0  0  0  0  0  0
  143.8105  142.5992  155.5078 C   0  0  0  0  0  0  0  0  0  0  0  0
  144.8787  141.9234  154.7303 N   0  3  1  0  0  0  0  0  0  0  0  0
  145.8485  142.8843  154.1435 C   0  0  0  0  0  0  0  0  0  0  0  0
  146.8492  142.1697  153.2186 C   0  0  0  0  0  0  0  0  0  0  0  0
  147.5636  141.0191  153.9471 C   0  0  0  0  0  0  0  0  0  0  0  0
  146.5479  140.0612  154.5950 C   0  0  2  0  0  0  0  0  0  0  0  0
  145.8375  139.3087  153.5595 N   0  0  0  0  0  0  0  0  0  0  0  0
  145.9219  137.9837  153.3709 C   0  0  0  0  0  0  0  0  0  0  0  0
  146.5967  137.2420  154.0839 O   0  0  0  0  0  0  0  0  0  0  0  0
  145.1669  137.5885  152.3308 N   0  0  0  0  0  0  0  0  0  0  0  0
  144.9980  136.2785  151.8036 C   0  0  0  0  0  0  0  0  0  0  0  0
  145.9952  135.3218  152.0870 C   0  0  0  0  0  0  0  0  0  0  0  0
  145.8678  134.0062  151.5960 C   0  0  0  0  0  0  0  0  0  0  0  0
  144.7332  133.6470  150.8281 C   0  0  0  0  0  0  0  0  0  0  0  0
  144.5326  132.3518  150.3037 N   0  0  0  0  0  0  0  0  0  0  0  0
  143.8950  132.1892  149.0017 C   0  0  0  0  0  0  0  0  0  0  0  0
  145.0852  131.1964  150.9990 C   0  0  0  0  0  0  0  0  0  0  0  0
  143.7951  134.5969  150.5935 N   0  3  0  0  0  0  0  0  0  0  0  0
  143.8780  135.8682  151.0415 C   0  0  0  0  0  0  0  0  0  0  0  0
  145.5778  140.8573  155.4964 C   0  0  0  0  0  0  0  0  0  0  0  0
  143.5668  143.8659  157.2561 H   0  0  0  0  0  0  0  0  0  0  0  0
  144.9653  144.2932  156.2870 H   0  0  0  0  0  0  0  0  0  0  0  0
  145.0083  142.8586  157.3116 H   0  0  0  0  0  0  0  0  0  0  0  0
  143.1550  141.8472  155.9493 H   0  0  0  0  0  0  0  0  0  0  0  0
  143.1868  143.2015  154.8459 H   0  0  0  0  0  0  0  0  0  0  0  0
  145.3165  143.6456  153.5714 H   0  0  0  0  0  0  0  0  0  0  0  0
  146.3784  143.4026  154.9445 H   0  0  0  0  0  0  0  0  0  0  0  0
  146.3251  141.7841  152.3432 H   0  0  0  0  0  0  0  0  0  0  0  0
  147.5835  142.8834  152.8442 H   0  0  0  0  0  0  0  0  0  0  0  0
  148.2155  140.4805  153.2582 H   0  0  0  0  0  0  0  0  0  0  0  0
  148.2117  141.4329  154.7207 H   0  0  0  0  0  0  0  0  0  0  0  0
  147.0988  139.3482  155.2114 H   0  0  0  0  0  0  0  0  0  0  0  0
  145.2641  139.8433  152.9231 H   0  0  0  0  0  0  0  0  0  0  0  0
  144.6181  138.3078  151.8827 H   0  0  0  0  0  0  0  0  0  0  0  0
  146.8600  135.5914  152.6756 H   0  0  0  0  0  0  0  0  0  0  0  0
  146.6450  133.2910  151.8212 H   0  0  0  0  0  0  0  0  0  0  0  0
  142.8999  132.6352  149.0023 H   0  0  0  0  0  0  0  0  0  0  0  0
  143.7857  131.1361  148.7421 H   0  0  0  0  0  0  0  0  0  0  0  0
  144.4895  132.6665  148.2221 H   0  0  0  0  0  0  0  0  0  0  0  0
  146.1655  131.2955  151.1106 H   0  0  0  0  0  0  0  0  0  0  0  0
  144.8908  130.2739  150.4513 H   0  0  0  0  0  0  0  0  0  0  0  0
  144.6393  131.0947  151.9890 H   0  0  0  0  0  0  0  0  0  0  0  0
  143.0379  136.4926  150.7785 H   0  0  0  0  0  0  0  0  0  0  0  0
  146.1276  141.3102  156.3231 H   0  0  0  0  0  0  0  0  0  0  0  0
  144.8576  140.1778  155.9501 H   0  0  0  0  0  0  0  0  0  0  0  0
  144.4203  141.4735  153.9511 H   0  0  0  0  0  0  0  0  0  0  0  0
  142.9740  134.3365  150.0471 H   0  0  0  0  0  0  0  0  0  0  0  0
  1  2  1  0  0  0  0
  1 22  1  0  0  0  0
  1 23  1  0  0  0  0
  1 24  1  0  0  0  0
  2  3  1  0  0  0  0
  2 25  1  0  0  0  0
  2 26  1  0  0  0  0
  3 21  1  0  0  0  0
  3  4  1  0  0  0  0
  3 47  1  0  0  0  0
  4  5  1  0  0  0  0
  4 27  1  0  0  0  0
  4 28  1  0  0  0  0
  5  6  1  0  0  0  0
  5 29  1  0  0  0  0
  5 30  1  0  0  0  0
  6  7  1  0  0  0  0
  6 31  1  0  0  0  0
  6 32  1  0  0  0  0
  7  8  1  0  0  0  0
  7 21  1  0  0  0  0
  7 33  1  0  0  0  0
  8  9  1  0  0  0  0
  8 34  1  0  0  0  0
  9 10  2  0  0  0  0
  9 11  1  0  0  0  0
 11 12  1  0  0  0  0
 11 35  1  0  0  0  0
 12 20  1  0  0  0  0
 12 13  2  0  0  0  0
 13 14  1  0  0  0  0
 13 36  1  0  0  0  0
 14 15  2  0  0  0  0
 14 37  1  0  0  0  0
 15 16  1  0  0  0  0
 15 19  1  0  0  0  0
 16 17  1  0  0  0  0
 16 18  1  0  0  0  0
 17 38  1  0  0  0  0
 17 39  1  0  0  0  0
 17 40  1  0  0  0  0
 18 41  1  0  0  0  0
 18 42  1  0  0  0  0
 18 43  1  0  0  0  0
 19 20  2  0  0  0  0
 19 48  1  0  0  0  0
 20 44  1  0  0  0  0
 21 45  1  0  0  0  0
 21 46  1  0  0  0  0
M  CHG  1   3   1
M  CHG  1  19   1
M  END
> <s_m_source_file>
AV-unprocessed.smi

> <i_m_source_file_index>
1093

> <i_lp_mmshare_version>
43012

> <i_f3d_flags>
0

> <s_epik_input>
W0NIM11bQ0gyXU4xW0NIMl1bQ0gyXVtDSDJdW0NASF0oW0NIMl0xKVtOSF1DKD1PKVtOSF1jMltjSF1bY0hdYyhOKFtDSDNdKVtDSDNdKW5bY0hdMg==

> <s_epik_cmdline>
J2VwaWtfcHl0aG9uJywgJy1waCcsICc3LjAnLCAnLXRuJywgJzgnLCAnLW1hJywgJzIwMCcsICctbWV0YWxfYmluZGluZycsICctaW1hZScsICc8aW5maWxlLm1hZT4nLCAnLW9tYWUnLCAnPG91dGZpbGUubWFlPic=

> <r_lp_tautomer_probability>
0.999994

> <r_epik_Ionization_Penalty>
0.346711

> <r_epik_Ionization_Penalty_Charging>
0.346691

> <r_epik_Ionization_Penalty_Neutral>
1.93006e-05

> <r_epik_State_Penalty>
0.339838

> <r_epik_Charging_Adjusted_Penalty>
0.68653

> <i_epik_Tot_Q>
2

> <i_epik_Tot_abs_Q>
2

> <r_epik_Metal_State_Penalty>
0.600835

> <b_epik_Metal_Only>
0

> <s_lp_Force_Field>
OPLS_2005

> <r_lp_Energy>
35.5794

> <b_lp_Chiralities_Consistent>
1

> <s_lp_Variant>
AV-unprocessed.smi:1093-3

> <Gold.Version>
5.8.1

> <Gold.Id.Protein>
6NUR|6NUR_protein|mol2

> <Gold.PLP.Fitness>
46.8914

> <Gold.PLP.PLP>
-31.9619

> <Gold.PLP.part.hbond>
-4.2458

> <Gold.PLP.part.metal>
0.0000

> <Gold.PLP.part.buried>
-2.7091

> <Gold.PLP.part.nonpolar>
-25.6590

> <Gold.PLP.part.repulsive>
0.1270

> <Gold.PLP.ligand.clash>
0.0000

> <Gold.PLP.ligand.torsion>
0.5836

> <Gold.PLP.Chemscore.Hbond>
5.3498

> <Gold.PLP.Chemscore.CHOScore>
0.0000

> <Gold.PLP.Chemscore.Metal>
0.0000

> <Gold.Chemscore.Hbonds>
donor molecule, donor type, donor heavy atom, donor atom, acceptor molecule, acceptor atom, score
      L1  H     3    47       P1 10175  1.90
      L1  H     8    34       P1 10175  0.99
      L1  H    11    35       P1 10171  0.37
      L1  H    19    48       P1 10186  2.00

> <Gold.PLP.Chemscore.Internal.Correction>
0.0473

> <Gold.Rescore>
     Score         DG    S(hbond)    S(metal)    S(lipo)     H(rot)  DE(clash)    DE(int)     intcor
     16.66     -21.20       3.08        0.00      72.57       1.19       2.62       1.93       ----

> <Gold.Chemscore.Fitness>
16.6573

> <Gold.Chemscore.DG>
-21.2000

> <Gold.Chemscore.ZeroCoef>
-5.4800

> <Gold.Chemscore.Hbond>
3.0803

> <Gold.Chemscore.Metal>
0.0000

> <Gold.Chemscore.Lipo>
72.5707

> <Gold.Chemscore.Internal_Hbond>
0.0000

> <Gold.Chemscore.DEClash>
2.6151

> <Gold.Chemscore.DEInternal>
1.9276

> <Gold.Chemscore.Rot>
1.1949

> <Gold.Chemscore.Internal.Correction>
   9.000000E+99

> <Gold.Chemscore.Hbonds>
donor molecule, donor type, donor heavy atom, donor atom, acceptor molecule, acceptor atom, score
      L1  H     3    47       P1 10175  0.22
      L1  H     8    34       P1 10175  0.94
      L1  H    11    35       P1 10171  0.37
      L1  H    19    48       P1 10186  0.84

> <Gold.Chemscore.Hbond.Weighted>
-10.2882

> <Gold.Chemscore.Metal.Weighted>
-0.0000

> <Gold.Chemscore.Lipo.Weighted>
-8.4908

> <Gold.Chemscore.Internal_Hbond.Weighted>
0.0000

> <Gold.Chemscore.DEClash.Weighted>
2.6151

> <Gold.Chemscore.DEInternal.Weighted>
1.9276

> <Gold.Chemscore.Rot.Weighted>
3.0590

> <Gold.Chemscore.Internal.Correction.Weighted>
   9.000000E+99

> <Gold.Protein.RotatedTorsions>
[ 6907 6896 6895 6894 ] final  -18.76 input  -60.11 | X-H torsion
[ 7974 7965 7964 7962 ] final  -52.30 input  175.53 | X-H torsion
[ 8008 7997 7996 7995 ] final -134.57 input   59.86 | X-H torsion
[ 10167 10162 10161 10158 ] final  -86.11 input  -65.29 | X-H torsion
[ 10718 10713 10712 10709 ] final  109.05 input   66.30 | X-H torsion
[ 10763 10752 10751 10750 ] final  -61.89 input  -60.55 | X-H torsion
[ 11005 11000 10999 10996 ] final -145.83 input  -57.11 | X-H torsion

> <Gold.Protein.ActiveResidues>
 VAL166  LYS551  ARG553  GLY616  TRP617  ASP618  TYR619  PRO620  LYS621  CYS622 
 ASP623  PHE694  ASN695  SER759  ASP760  ASP761  ALA762  ILE779  LEU786  VAL792 
 PHE793  MET794  SER795  GLU796  ALA797  LYS798  CYS799  TRP800  GLU811  SER814 

> <Gold.Protein.RotatedAtoms>
  151.2732  135.0691  159.9141 H   0  0  0  0  0  0  0  0  0  0  0  0  # atno 6907 bound_to 6896
  152.5347  134.0108  159.7948 H   0  0  0  0  0  0  0  0  0  0  0  0  # atno 6908 bound_to 6896
  151.0350  133.5706  159.2688 H   0  0  0  0  0  0  0  0  0  0  0  0  # atno 6909 bound_to 6896
  145.9094  140.7928  142.9703 H   0  0  0  0  0  0  0  0  0  0  0  0  # atno 7974 bound_to 7965
  155.3642  140.0484  157.3046 H   0  0  0  0  0  0  0  0  0  0  0  0  # atno 8008 bound_to 7997
  154.5162  140.2209  155.9024 H   0  0  0  0  0  0  0  0  0  0  0  0  # atno 8009 bound_to 7997
  156.1639  140.3110  155.8861 H   0  0  0  0  0  0  0  0  0  0  0  0  # atno 8010 bound_to 7997
  140.3972  143.2678  151.9188 H   0  0  0  0  0  0  0  0  0  0  0  0  # atno 10167 bound_to 10162
  157.6559  131.0906  150.6396 H   0  0  0  0  0  0  0  0  0  0  0  0  # atno 10718 bound_to 10713
  154.2915  135.6252  153.5387 H   0  0  0  0  0  0  0  0  0  0  0  0  # atno 10763 bound_to 10752
  152.9852  135.5657  154.5385 H   0  0  0  0  0  0  0  0  0  0  0  0  # atno 10764 bound_to 10752
  154.4997  135.2871  155.1407 H   0  0  0  0  0  0  0  0  0  0  0  0  # atno 10765 bound_to 10752
  140.7883  134.2999  157.5022 H   0  0  0  0  0  0  0  0  0  0  0  0  # atno 11005 bound_to 11000
  144.6742  140.1802  143.7406 LP  0  0  0  0  0  0  0  0  0  0  0  0  # atno 17320 bound_to 7965
  145.8690  139.2262  143.1672 LP  0  0  0  0  0  0  0  0  0  0  0  0  # atno 17321 bound_to 7965
  139.4786  144.5669  151.8151 LP  0  0  0  0  0  0  0  0  0  0  0  0  # atno 17342 bound_to 10162
  140.4777  144.1494  150.5927 LP  0  0  0  0  0  0  0  0  0  0  0  0  # atno 17343 bound_to 10162
  156.6703  130.4537  149.5659 LP  0  0  0  0  0  0  0  0  0  0  0  0  # atno 17370 bound_to 10713
  156.2002  130.6615  151.1159 LP  0  0  0  0  0  0  0  0  0  0  0  0  # atno 17371 bound_to 10713
  139.8734  134.9359  156.3646 LP  0  0  0  0  0  0  0  0  0  0  0  0  # atno 17394 bound_to 11000
  140.9415  133.7511  156.0153 LP  0  0  0  0  0  0  0  0  0  0  0  0  # atno 17395 bound_to 11000

$$$$
