AV-unprocessed.smi:1233|AV-procd|sdf|5171|dock5
  -GOLD-   22720 4243D 1   1.00000     0.00000
 Structure written by MMmdl.
 38 39  0  0  0  0  0  0  0  0  1 V2000
  151.4999  138.7823  155.1060 C   0  0  0  0  0  0  0  0  0  0  0  0
  150.5965  139.8135  155.4887 O   0  0  0  0  0  0  0  0  0  0  0  0
  149.4481  139.9955  154.7417 C   0  0  0  0  0  0  0  0  0  0  0  0
  149.0745  139.0134  153.8830 N   0  0  0  0  0  0  0  0  0  0  0  0
  147.9558  139.1913  153.1506 C   0  0  0  0  0  0  0  0  0  0  0  0
  147.1616  140.3501  153.2264 C   0  0  0  0  0  0  0  0  0  0  0  0
  147.5469  141.3700  154.1162 C   0  0  0  0  0  0  0  0  0  0  0  0
  148.7091  141.1904  154.9046 C   0  0  0  0  0  0  0  0  0  0  0  0
  149.1960  142.1641  155.8194 N   0  0  0  0  0  0  0  0  0  0  0  0
  149.7179  141.9734  157.0427 C   0  0  0  0  0  0  0  0  0  0  0  0
  149.8562  140.8824  157.5960 O   0  0  0  0  0  0  0  0  0  0  0  0
  150.1004  143.1362  157.5915 N   0  0  0  0  0  0  0  0  0  0  0  0
  150.7740  143.2862  158.8828 C   0  0  2  0  0  0  0  0  0  0  0  0
  151.2248  144.7626  159.0201 C   0  0  0  0  0  0  0  0  0  0  0  0
  152.2925  145.0597  160.0972 C   0  0  0  0  0  0  0  0  0  0  0  0
  152.0660  144.3647  161.4553 C   0  0  0  0  0  0  0  0  0  0  0  0
  152.0563  142.8139  161.4512 C   0  0  0  0  0  0  0  0  0  0  0  0
  152.5462  142.1980  160.2178 N   0  0  0  0  0  0  0  0  0  0  0  0
  151.9994  142.3519  158.9999 C   0  0  0  0  0  0  0  0  0  0  0  0
  152.4714  141.7933  158.0101 O   0  0  0  0  0  0  0  0  0  0  0  0
  152.3433  138.7681  155.7963 H   0  0  0  0  0  0  0  0  0  0  0  0
  151.8954  138.9517  154.1036 H   0  0  0  0  0  0  0  0  0  0  0  0
  151.0256  137.8006  155.1436 H   0  0  0  0  0  0  0  0  0  0  0  0
  147.6901  138.3885  152.4790 H   0  0  0  0  0  0  0  0  0  0  0  0
  146.2792  140.4566  152.6129 H   0  0  0  0  0  0  0  0  0  0  0  0
  146.9554  142.2711  154.1659 H   0  0  0  0  0  0  0  0  0  0  0  0
  149.2322  143.1084  155.4638 H   0  0  0  0  0  0  0  0  0  0  0  0
  149.9527  143.9812  157.0595 H   0  0  0  0  0  0  0  0  0  0  0  0
  150.0604  143.0510  159.6738 H   0  0  0  0  0  0  0  0  0  0  0  0
  151.6073  145.1257  158.0646 H   0  0  0  0  0  0  0  0  0  0  0  0
  150.3415  145.3671  159.2299 H   0  0  0  0  0  0  0  0  0  0  0  0
  153.2798  144.7919  159.7185 H   0  0  0  0  0  0  0  0  0  0  0  0
  152.3353  146.1378  160.2543 H   0  0  0  0  0  0  0  0  0  0  0  0
  152.8539  144.6976  162.1317 H   0  0  0  0  0  0  0  0  0  0  0  0
  151.1364  144.7256  161.8964 H   0  0  0  0  0  0  0  0  0  0  0  0
  152.6630  142.4444  162.2783 H   0  0  0  0  0  0  0  0  0  0  0  0
  151.0476  142.4475  161.6472 H   0  0  0  0  0  0  0  0  0  0  0  0
  153.3552  141.5990  160.2971 H   0  0  0  0  0  0  0  0  0  0  0  0
  1  2  1  0  0  0  0
  1 21  1  0  0  0  0
  1 22  1  0  0  0  0
  1 23  1  0  0  0  0
  2  3  1  0  0  0  0
  3  8  1  0  0  0  0
  3  4  2  0  0  0  0
  4  5  1  0  0  0  0
  5  6  2  0  0  0  0
  5 24  1  0  0  0  0
  6  7  1  0  0  0  0
  6 25  1  0  0  0  0
  7  8  2  0  0  0  0
  7 26  1  0  0  0  0
  8  9  1  0  0  0  0
  9 10  1  0  0  0  0
  9 27  1  0  0  0  0
 10 11  2  0  0  0  0
 10 12  1  0  0  0  0
 12 13  1  0  0  0  0
 12 28  1  0  0  0  0
 13 19  1  0  0  0  0
 13 14  1  0  0  0  0
 13 29  1  0  0  0  0
 14 15  1  0  0  0  0
 14 30  1  0  0  0  0
 14 31  1  0  0  0  0
 15 16  1  0  0  0  0
 15 32  1  0  0  0  0
 15 33  1  0  0  0  0
 16 17  1  0  0  0  0
 16 34  1  0  0  0  0
 16 35  1  0  0  0  0
 17 18  1  0  0  0  0
 17 36  1  0  0  0  0
 17 37  1  0  0  0  0
 18 19  1  0  0  0  0
 18 38  1  0  0  0  0
 19 20  2  0  0  0  0
M  END
> <s_m_source_file>
AV-unprocessed.smi

> <i_m_source_file_index>
1233

> <i_lp_mmshare_version>
43012

> <i_f3d_flags>
0

> <s_epik_input>
W0NIM11PYzFuW2NIXVtjSF1bY0hdYzFbTkhdQyg9TylbTkhdW0NAQEhdMltDSDJdW0NIMl1bQ0gyXVtDSDJdW05IXUMyPU8=

> <s_epik_cmdline>
J2VwaWtfcHl0aG9uJywgJy1waCcsICc3LjAnLCAnLXRuJywgJzgnLCAnLW1hJywgJzIwMCcsICctbWV0YWxfYmluZGluZycsICctaW1hZScsICc8aW5maWxlLm1hZT4nLCAnLW9tYWUnLCAnPG91dGZpbGUubWFlPic=

> <r_lp_tautomer_probability>
1

> <r_epik_Ionization_Penalty>
8.308e-05

> <r_epik_Ionization_Penalty_Charging>
0

> <r_epik_Ionization_Penalty_Neutral>
8.308e-05

> <r_epik_State_Penalty>
-0

> <r_epik_Charging_Adjusted_Penalty>
0

> <i_epik_Tot_Q>
0

> <i_epik_Tot_abs_Q>
0

> <r_epik_Metal_State_Penalty>
-0

> <b_epik_Metal_Only>
0

> <s_lp_Force_Field>
OPLS_2005

> <r_lp_Energy>
19.4298

> <b_lp_Chiralities_Consistent>
1

> <s_lp_Variant>
AV-unprocessed.smi:1233-1

> <Gold.Version>
5.8.1

> <Gold.Id.Protein>
6NUR|6NUR_protein|mol2

> <Gold.PLP.Fitness>
37.9936

> <Gold.PLP.PLP>
-31.2830

> <Gold.PLP.part.hbond>
-2.0000

> <Gold.PLP.part.metal>
0.0000

> <Gold.PLP.part.buried>
1.4431

> <Gold.PLP.part.nonpolar>
-32.3141

> <Gold.PLP.part.repulsive>
1.9179

> <Gold.PLP.ligand.clash>
0.9499

> <Gold.PLP.ligand.torsion>
0.5856

> <Gold.PLP.Chemscore.Hbond>
1.9440

> <Gold.PLP.Chemscore.CHOScore>
0.9994

> <Gold.PLP.Chemscore.Metal>
0.0000

> <Gold.Chemscore.Hbonds>
donor molecule, donor type, donor heavy atom, donor atom, acceptor molecule, acceptor atom, score
      L1  H     9    27       P1  8028  0.99
      L1  H    12    28       P1  8028  0.88
      L1  C     5    24       P1  7948  0.95

> <Gold.PLP.Chemscore.Internal.Correction>
0.0014

> <Gold.Rescore>
     Score         DG    S(hbond)    S(metal)    S(lipo)     H(rot)  DE(clash)    DE(int)     intcor
      8.81     -18.56       1.76        0.00      90.12       1.31       1.37       8.38       ----

> <Gold.Chemscore.Fitness>
8.8078

> <Gold.Chemscore.DG>
-18.5650

> <Gold.Chemscore.ZeroCoef>
-5.4800

> <Gold.Chemscore.Hbond>
1.7640

> <Gold.Chemscore.Metal>
0.0000

> <Gold.Chemscore.Lipo>
90.1224

> <Gold.Chemscore.Internal_Hbond>
0.0000

> <Gold.Chemscore.DEClash>
1.3736

> <Gold.Chemscore.DEInternal>
8.3835

> <Gold.Chemscore.Rot>
1.3090

> <Gold.Chemscore.Internal.Correction>
   9.000000E+99

> <Gold.Chemscore.Hbonds>
donor molecule, donor type, donor heavy atom, donor atom, acceptor molecule, acceptor atom, score
      L1  H     9    27       P1  8028  0.94
      L1  H    12    28       P1  8028  0.78

> <Gold.Chemscore.Hbond.Weighted>
-5.8916

> <Gold.Chemscore.Metal.Weighted>
-0.0000

> <Gold.Chemscore.Lipo.Weighted>
-10.5443

> <Gold.Chemscore.Internal_Hbond.Weighted>
0.0000

> <Gold.Chemscore.DEClash.Weighted>
1.3736

> <Gold.Chemscore.DEInternal.Weighted>
8.3835

> <Gold.Chemscore.Rot.Weighted>
3.3509

> <Gold.Chemscore.Internal.Correction.Weighted>
   9.000000E+99

> <Gold.Protein.RotatedTorsions>
[ 6907 6896 6895 6894 ] final -174.74 input  -60.11 | X-H torsion
[ 7974 7965 7964 7962 ] final -166.89 input  175.53 | X-H torsion
[ 8008 7997 7996 7995 ] final   36.10 input   59.86 | X-H torsion
[ 10167 10162 10161 10158 ] final  -75.16 input  -65.29 | X-H torsion
[ 10718 10713 10712 10709 ] final  -41.18 input   66.30 | X-H torsion
[ 10763 10752 10751 10750 ] final -168.03 input  -60.55 | X-H torsion
[ 11005 11000 10999 10996 ] final  -88.51 input  -57.11 | X-H torsion

> <Gold.Protein.ActiveResidues>
 VAL166  LYS551  ARG553  GLY616  TRP617  ASP618  TYR619  PRO620  LYS621  CYS622 
 ASP623  PHE694  ASN695  SER759  ASP760  ASP761  ALA762  ILE779  LEU786  VAL792 
 PHE793  MET794  SER795  GLU796  ALA797  LYS798  CYS799  TRP800  GLU811  SER814 

> <Gold.Protein.RotatedAtoms>
  151.5772  133.3382  159.3000 H   0  0  0  0  0  0  0  0  0  0  0  0  # atno 6907 bound_to 6896
  150.8334  134.7600  159.6884 H   0  0  0  0  0  0  0  0  0  0  0  0  # atno 6908 bound_to 6896
  152.4414  134.5590  159.9940 H   0  0  0  0  0  0  0  0  0  0  0  0  # atno 6909 bound_to 6896
  144.7235  140.2599  143.6266 H   0  0  0  0  0  0  0  0  0  0  0  0  # atno 7974 bound_to 7965
  155.1819  140.3300  155.4373 H   0  0  0  0  0  0  0  0  0  0  0  0  # atno 8008 bound_to 7997
  156.2474  140.1925  156.6867 H   0  0  0  0  0  0  0  0  0  0  0  0  # atno 8009 bound_to 7997
  154.6265  140.0588  156.9666 H   0  0  0  0  0  0  0  0  0  0  0  0  # atno 8010 bound_to 7997
  140.4966  143.2369  151.7820 H   0  0  0  0  0  0  0  0  0  0  0  0  # atno 10167 bound_to 10162
  156.2732  130.4209  149.8416 H   0  0  0  0  0  0  0  0  0  0  0  0  # atno 10718 bound_to 10713
  154.6671  135.2933  154.9791 H   0  0  0  0  0  0  0  0  0  0  0  0  # atno 10763 bound_to 10752
  154.0831  135.6601  153.4845 H   0  0  0  0  0  0  0  0  0  0  0  0  # atno 10764 bound_to 10752
  153.0464  135.5202  154.7649 H   0  0  0  0  0  0  0  0  0  0  0  0  # atno 10765 bound_to 10752
  141.1600  133.7574  156.9462 H   0  0  0  0  0  0  0  0  0  0  0  0  # atno 11005 bound_to 11000
  145.8145  139.2017  143.1973 LP  0  0  0  0  0  0  0  0  0  0  0  0  # atno 17320 bound_to 7965
  146.0567  140.8013  142.9755 LP  0  0  0  0  0  0  0  0  0  0  0  0  # atno 17321 bound_to 7965
  139.4863  144.4578  151.9577 LP  0  0  0  0  0  0  0  0  0  0  0  0  # atno 17342 bound_to 10162
  140.3666  144.2907  150.5926 LP  0  0  0  0  0  0  0  0  0  0  0  0  # atno 17343 bound_to 10162
  156.5890  130.8498  151.3403 LP  0  0  0  0  0  0  0  0  0  0  0  0  # atno 17370 bound_to 10713
  157.7290  130.9665  150.1770 LP  0  0  0  0  0  0  0  0  0  0  0  0  # atno 17371 bound_to 10713
  140.1288  134.9369  157.2308 LP  0  0  0  0  0  0  0  0  0  0  0  0  # atno 17394 bound_to 11000
  140.2979  134.3165  155.7297 LP  0  0  0  0  0  0  0  0  0  0  0  0  # atno 17395 bound_to 11000

$$$$
