AV-unprocessed.smi:229|AV-procd|sdf|1755|dock10
  -GOLD-   2262020283D 1   1.00000     0.00000
 Structure written by MMmdl.
 58 62  0  0  0  0  0  0  0  0  1 V2000
  148.4017  135.6234  159.3428 C   0  0  0  0  0  0  0  0  0  0  0  0
  148.4292  134.7352  158.0918 C   0  0  0  0  0  0  0  0  0  0  0  0
  149.7422  134.8262  157.2971 C   0  0  2  0  0  0  0  0  0  0  0  0
  150.0073  136.2339  156.7337 C   0  0  0  0  0  0  0  0  0  0  0  0
  151.2016  136.2185  155.8990 N   0  0  0  0  0  0  0  0  0  0  0  0
  151.7298  137.4378  155.6220 C   0  0  0  0  0  0  0  0  0  0  0  0
  152.7450  137.5500  154.7234 N   0  0  0  0  0  0  0  0  0  0  0  0
  153.2671  138.7467  154.4385 C   0  0  0  0  0  0  0  0  0  0  0  0
  152.9336  139.9413  154.9304 N   0  0  0  0  0  0  0  0  0  0  0  0
  151.9227  139.8347  155.8392 C   0  0  0  0  0  0  0  0  0  0  0  0
  151.2695  138.6352  156.2402 C   0  0  0  0  0  0  0  0  0  0  0  0
  150.2995  138.9235  157.1942 N   0  0  0  0  0  0  0  0  0  0  0  0
  150.3695  140.2187  157.3411 C   0  0  0  0  0  0  0  0  0  0  0  0
  151.3193  140.8442  156.5664 N   0  0  0  0  0  0  0  0  0  0  0  0
  151.6206  142.2642  156.5293 C   0  0  0  0  0  0  0  0  0  0  0  0
  150.9525  143.0364  157.6871 C   0  0  2  0  0  0  0  0  0  0  0  0
  151.0300  144.4182  157.3944 O   0  0  0  0  0  0  0  0  0  0  0  0
  151.6420  142.8046  159.0459 C   0  0  2  0  0  0  0  0  0  0  0  0
  152.9923  143.5071  159.2061 C   0  0  0  0  0  0  0  0  0  0  0  0
  153.7125  142.6697  160.2499 C   0  0  0  0  0  0  0  0  0  0  0  0
  152.9459  141.3452  160.2496 C   0  0  0  0  0  0  0  0  0  0  0  0
  152.0333  141.4445  159.1652 O   0  0  0  0  0  0  0  0  0  0  0  0
  151.1326  135.2345  154.8228 C   0  0  0  0  0  0  0  0  0  0  0  0
  150.8116  133.8292  155.3794 C   0  0  2  0  0  0  0  0  0  0  0  0
  151.9877  133.1752  156.1147 C   0  0  0  0  0  0  0  0  0  0  0  0
  152.5096  132.1426  155.1254 C   0  0  0  0  0  0  0  0  0  0  0  0
  151.3192  131.6862  154.5116 O   0  0  0  0  0  0  0  0  0  0  0  0
  150.5268  132.8330  154.2391 C   0  0  0  0  0  0  0  0  0  0  0  0
  149.6495  133.9021  156.2115 O   0  0  0  0  0  0  0  0  0  0  0  0
  147.4775  135.4734  159.9011 H   0  0  0  0  0  0  0  0  0  0  0  0
  148.4608  136.6809  159.0861 H   0  0  0  0  0  0  0  0  0  0  0  0
  149.2330  135.3913  160.0090 H   0  0  0  0  0  0  0  0  0  0  0  0
  148.2780  133.7008  158.4022 H   0  0  0  0  0  0  0  0  0  0  0  0
  147.5866  134.9837  157.4456 H   0  0  0  0  0  0  0  0  0  0  0  0
  150.5642  134.5362  157.9528 H   0  0  0  0  0  0  0  0  0  0  0  0
  149.1602  136.5642  156.1309 H   0  0  0  0  0  0  0  0  0  0  0  0
  150.1078  136.9453  157.5515 H   0  0  0  0  0  0  0  0  0  0  0  0
  154.0676  138.7466  153.7136 H   0  0  0  0  0  0  0  0  0  0  0  0
  149.7312  140.7557  158.0277 H   0  0  0  0  0  0  0  0  0  0  0  0
  152.7047  142.3725  156.5671 H   0  0  0  0  0  0  0  0  0  0  0  0
  151.3007  142.6658  155.5667 H   0  0  0  0  0  0  0  0  0  0  0  0
  149.9022  142.7495  157.7560 H   0  0  0  0  0  0  0  0  0  0  0  0
  150.5069  144.5879  156.6255 H   0  0  0  0  0  0  0  0  0  0  0  0
  150.9838  143.0757  159.8741 H   0  0  0  0  0  0  0  0  0  0  0  0
  153.5468  143.4721  158.2669 H   0  0  0  0  0  0  0  0  0  0  0  0
  152.8938  144.5525  159.5002 H   0  0  0  0  0  0  0  0  0  0  0  0
  154.7628  142.5343  159.9896 H   0  0  0  0  0  0  0  0  0  0  0  0
  153.6658  143.1373  161.2340 H   0  0  0  0  0  0  0  0  0  0  0  0
  153.6012  140.4822  160.1289 H   0  0  0  0  0  0  0  0  0  0  0  0
  152.3892  141.2234  161.1799 H   0  0  0  0  0  0  0  0  0  0  0  0
  150.3549  135.5393  154.1205 H   0  0  0  0  0  0  0  0  0  0  0  0
  152.0734  135.2094  154.2709 H   0  0  0  0  0  0  0  0  0  0  0  0
  152.7568  133.8817  156.4285 H   0  0  0  0  0  0  0  0  0  0  0  0
  151.6334  132.6538  157.0047 H   0  0  0  0  0  0  0  0  0  0  0  0
  153.1601  132.6032  154.3801 H   0  0  0  0  0  0  0  0  0  0  0  0
  153.0531  131.3309  155.6091 H   0  0  0  0  0  0  0  0  0  0  0  0
  149.4723  132.5672  154.1607 H   0  0  0  0  0  0  0  0  0  0  0  0
  150.8356  133.2385  153.2743 H   0  0  0  0  0  0  0  0  0  0  0  0
  1  2  1  0  0  0  0
  1 30  1  0  0  0  0
  1 31  1  0  0  0  0
  1 32  1  0  0  0  0
  2  3  1  0  0  0  0
  2 33  1  0  0  0  0
  2 34  1  0  0  0  0
  3 29  1  0  0  0  0
  3  4  1  0  0  0  0
  3 35  1  0  0  0  0
  4  5  1  0  0  0  0
  4 36  1  0  0  0  0
  4 37  1  0  0  0  0
  5  6  1  0  0  0  0
  5 23  1  0  0  0  0
  6 11  1  0  0  0  0
  6  7  2  0  0  0  0
  7  8  1  0  0  0  0
  8  9  2  0  0  0  0
  8 38  1  0  0  0  0
  9 10  1  0  0  0  0
 10 14  1  0  0  0  0
 10 11  2  0  0  0  0
 11 12  1  0  0  0  0
 12 13  2  0  0  0  0
 13 14  1  0  0  0  0
 13 39  1  0  0  0  0
 14 15  1  0  0  0  0
 15 16  1  0  0  0  0
 15 40  1  0  0  0  0
 15 41  1  0  0  0  0
 16 17  1  0  0  0  0
 16 18  1  0  0  0  0
 16 42  1  0  0  0  0
 17 43  1  0  0  0  0
 18 22  1  0  0  0  0
 18 19  1  0  0  0  0
 18 44  1  0  0  0  0
 19 20  1  0  0  0  0
 19 45  1  0  0  0  0
 19 46  1  0  0  0  0
 20 21  1  0  0  0  0
 20 47  1  0  0  0  0
 20 48  1  0  0  0  0
 21 22  1  0  0  0  0
 21 49  1  0  0  0  0
 21 50  1  0  0  0  0
 23 24  1  0  0  0  0
 23 51  1  0  0  0  0
 23 52  1  0  0  0  0
 24 28  1  0  0  0  0
 24 25  1  0  0  0  0
 24 29  1  0  0  0  0
 25 26  1  0  0  0  0
 25 53  1  0  0  0  0
 25 54  1  0  0  0  0
 26 27  1  0  0  0  0
 26 55  1  0  0  0  0
 26 56  1  0  0  0  0
 27 28  1  0  0  0  0
 28 57  1  0  0  0  0
 28 58  1  0  0  0  0
M  END
> <s_m_source_file>
AV-unprocessed.smi

> <i_m_source_file_index>
229

> <i_lp_mmshare_version>
43012

> <i_f3d_flags>
0

> <s_epik_input>
W0NIMl0xT1tDSDJdW0NIMl1bQ0BdMTJbQ0gyXU4oW0NIMl1bQ0BIXShPMilbQ0gyXVtDSDNdKWMobltjSF1uMyljKGMzNCluW2NIXW40W0NIMl1bQ0BIXShbT0hdKVtDQEBIXTVbQ0gyXVtDSDJdW0NIMl1PNQ==

> <s_epik_cmdline>
J2VwaWtfcHl0aG9uJywgJy1waCcsICc3LjAnLCAnLXRuJywgJzgnLCAnLW1hJywgJzIwMCcsICctbWV0YWxfYmluZGluZycsICctaW1hZScsICc8aW5maWxlLm1hZT4nLCAnLW9tYWUnLCAnPG91dGZpbGUubWFlPic=

> <r_lp_tautomer_probability>
1

> <r_epik_Ionization_Penalty>
0.00318402

> <r_epik_Ionization_Penalty_Charging>
0

> <r_epik_Ionization_Penalty_Neutral>
0.00318402

> <r_epik_State_Penalty>
0.00215642

> <r_epik_Charging_Adjusted_Penalty>
0.00215642

> <i_epik_Tot_Q>
0

> <i_epik_Tot_abs_Q>
0

> <r_epik_Metal_State_Penalty>
-0

> <b_epik_Metal_Only>
0

> <s_lp_Force_Field>
OPLS_2005

> <r_lp_Energy>
54.5162

> <b_lp_Chiralities_Consistent>
1

> <s_lp_Variant>
AV-unprocessed.smi:229-9

> <Gold.Version>
5.8.1

> <Gold.Id.Protein>
6NUR|6NUR_protein|mol2

> <Gold.PLP.Fitness>
50.2571

> <Gold.PLP.PLP>
-42.9145

> <Gold.PLP.part.hbond>
-3.6297

> <Gold.PLP.part.metal>
0.0000

> <Gold.PLP.part.buried>
-8.2930

> <Gold.PLP.part.nonpolar>
-30.4863

> <Gold.PLP.part.repulsive>
0.1330

> <Gold.PLP.ligand.clash>
0.2066

> <Gold.PLP.ligand.torsion>
0.9516

> <Gold.PLP.Chemscore.Hbond>
3.0139

> <Gold.PLP.Chemscore.CHOScore>
0.0000

> <Gold.PLP.Chemscore.Metal>
0.0000

> <Gold.Chemscore.Hbonds>
donor molecule, donor type, donor heavy atom, donor atom, acceptor molecule, acceptor atom, score
      L1  H    17    43       P1  8028  1.00
      P1  H  7989  7998       L1     9  0.20
      P1  H  7997  8010       L1     9  0.85
      P1  H 10752 10764       L1     7  0.26

> <Gold.PLP.Chemscore.Internal.Correction>
0.4105

> <Gold.Rescore>
     Score         DG    S(hbond)    S(metal)    S(lipo)     H(rot)  DE(clash)    DE(int)     intcor
     12.11     -18.39       2.09        0.00     104.51       2.46       1.11       5.17       ----

> <Gold.Chemscore.Fitness>
12.1125

> <Gold.Chemscore.DG>
-18.3926

> <Gold.Chemscore.ZeroCoef>
-5.4800

> <Gold.Chemscore.Hbond>
2.0900

> <Gold.Chemscore.Metal>
0.0000

> <Gold.Chemscore.Lipo>
104.5080

> <Gold.Chemscore.Internal_Hbond>
0.0000

> <Gold.Chemscore.DEClash>
1.1102

> <Gold.Chemscore.DEInternal>
5.1699

> <Gold.Chemscore.Rot>
2.4591

> <Gold.Chemscore.Internal.Correction>
   9.000000E+99

> <Gold.Chemscore.Hbonds>
donor molecule, donor type, donor heavy atom, donor atom, acceptor molecule, acceptor atom, score
      L1  H    17    43       P1  8028  0.94
      P1  H  7989  7998       L1     9  0.01
      P1  H  7997  8010       L1     9  0.07
      P1  H 10752 10764       L1     7  0.02

> <Gold.Chemscore.Hbond.Weighted>
-6.9805

> <Gold.Chemscore.Metal.Weighted>
-0.0000

> <Gold.Chemscore.Lipo.Weighted>
-12.2274

> <Gold.Chemscore.Internal_Hbond.Weighted>
0.0000

> <Gold.Chemscore.DEClash.Weighted>
1.1102

> <Gold.Chemscore.DEInternal.Weighted>
5.1699

> <Gold.Chemscore.Rot.Weighted>
6.2953

> <Gold.Chemscore.Internal.Correction.Weighted>
   9.000000E+99

> <Gold.Protein.RotatedTorsions>
[ 6907 6896 6895 6894 ] final -156.68 input  -60.11 | X-H torsion
[ 7974 7965 7964 7962 ] final -139.45 input  175.53 | X-H torsion
[ 8008 7997 7996 7995 ] final  100.97 input   59.86 | X-H torsion
[ 10167 10162 10161 10158 ] final  -93.03 input  -65.29 | X-H torsion
[ 10718 10713 10712 10709 ] final  164.59 input   66.30 | X-H torsion
[ 10763 10752 10751 10750 ] final  -57.70 input  -60.55 | X-H torsion
[ 11005 11000 10999 10996 ] final  131.20 input  -57.11 | X-H torsion

> <Gold.Protein.ActiveResidues>
 VAL166  LYS551  ARG553  GLY616  TRP617  ASP618  TYR619  PRO620  LYS621  CYS622 
 ASP623  PHE694  ASN695  SER759  ASP760  ASP761  ALA762  ILE779  LEU786  VAL792 
 PHE793  MET794  SER795  GLU796  ALA797  LYS798  CYS799  TRP800  GLU811  SER814 

> <Gold.Protein.RotatedAtoms>
  151.2913  133.4164  159.2633 H   0  0  0  0  0  0  0  0  0  0  0  0  # atno 6907 bound_to 6896
  151.0275  134.9515  159.8103 H   0  0  0  0  0  0  0  0  0  0  0  0  # atno 6908 bound_to 6896
  152.5338  134.2874  159.9083 H   0  0  0  0  0  0  0  0  0  0  0  0  # atno 6909 bound_to 6896
  144.8676  140.6317  143.5288 H   0  0  0  0  0  0  0  0  0  0  0  0  # atno 7974 bound_to 7965
  156.1255  140.3205  155.8270 H   0  0  0  0  0  0  0  0  0  0  0  0  # atno 8008 bound_to 7997
  155.4428  140.0527  157.3026 H   0  0  0  0  0  0  0  0  0  0  0  0  # atno 8009 bound_to 7997
  154.4859  140.2072  155.9670 H   0  0  0  0  0  0  0  0  0  0  0  0  # atno 8010 bound_to 7997
  140.3288  143.3007  151.9965 H   0  0  0  0  0  0  0  0  0  0  0  0  # atno 10167 bound_to 10162
  157.0922  131.0420  151.2532 H   0  0  0  0  0  0  0  0  0  0  0  0  # atno 10718 bound_to 10713
  154.2265  135.6368  153.5161 H   0  0  0  0  0  0  0  0  0  0  0  0  # atno 10763 bound_to 10752
  152.9958  135.5509  154.6058 H   0  0  0  0  0  0  0  0  0  0  0  0  # atno 10764 bound_to 10752
  154.5531  135.2903  155.0964 H   0  0  0  0  0  0  0  0  0  0  0  0  # atno 10765 bound_to 10752
  139.9716  134.9576  156.9404 H   0  0  0  0  0  0  0  0  0  0  0  0  # atno 11005 bound_to 11000
  145.4192  139.1567  143.4083 LP  0  0  0  0  0  0  0  0  0  0  0  0  # atno 17320 bound_to 7965
  146.2907  140.4301  142.8740 LP  0  0  0  0  0  0  0  0  0  0  0  0  # atno 17321 bound_to 7965
  139.4860  144.6252  151.7178 LP  0  0  0  0  0  0  0  0  0  0  0  0  # atno 17342 bound_to 10162
  140.5416  144.0569  150.6091 LP  0  0  0  0  0  0  0  0  0  0  0  0  # atno 17343 bound_to 10162
  157.4711  130.7709  149.7325 LP  0  0  0  0  0  0  0  0  0  0  0  0  # atno 17370 bound_to 10713
  155.9895  130.3951  150.3070 LP  0  0  0  0  0  0  0  0  0  0  0  0  # atno 17371 bound_to 10713
  140.5281  134.0840  155.7309 LP  0  0  0  0  0  0  0  0  0  0  0  0  # atno 17394 bound_to 11000
  141.1395  133.9162  157.2357 LP  0  0  0  0  0  0  0  0  0  0  0  0  # atno 17395 bound_to 11000

$$$$
