AV-unprocessed.smi:760|AV-procd|sdf|3629|dock1
  -GOLD-   22720 1 23D 1   1.00000     0.00000
 Structure written by MMmdl.
 43 44  0  0  0  0  0  0  0  0  1 V2000
  151.9994  139.9006  155.4360 C   0  0  0  0  0  0  0  0  0  0  0  0
  151.1781  140.6696  156.1695 C   0  0  0  0  0  0  0  0  0  0  0  0
  151.2479  140.7015  157.6858 C   0  0  0  0  0  0  0  0  0  0  0  0
  150.1071  141.5359  155.5229 C   0  0  0  0  0  0  0  0  0  0  0  0
  149.2205  140.8140  154.6067 N   0  0  0  0  0  0  0  0  0  0  0  0
  148.0696  141.6137  154.1751 C   0  0  0  0  0  0  0  0  0  0  0  0
  147.2021  140.8260  153.1772 C   0  0  0  0  0  0  0  0  0  0  0  0
  146.7193  139.4989  153.7789 C   0  0  0  0  0  0  0  0  0  0  0  0
  146.0128  138.7240  152.7634 N   0  0  0  0  0  0  0  0  0  0  0  0
  145.7047  137.4228  152.8574 C   0  0  0  0  0  0  0  0  0  0  0  0
  145.9859  136.7240  153.8312 O   0  0  0  0  0  0  0  0  0  0  0  0
  145.0599  136.9949  151.7596 N   0  0  0  0  0  0  0  0  0  0  0  0
  144.5842  135.6857  151.4954 C   0  0  0  0  0  0  0  0  0  0  0  0
  143.6444  134.9889  152.2987 C   0  0  0  0  0  0  0  0  0  0  0  0
  143.3902  133.7864  151.8052 N   0  0  0  0  0  0  0  0  0  0  0  0
  144.1541  133.6970  150.6893 N   0  0  0  0  0  0  0  0  0  0  0  0
  144.1125  132.4862  149.8977 C   0  0  0  0  0  0  0  0  0  0  0  0
  144.8974  134.8396  150.4692 C   0  0  0  0  0  0  0  0  0  0  0  0
  147.9339  138.7239  154.3156 C   0  0  0  0  0  0  0  0  0  0  0  0
  148.7624  139.5940  155.2757 C   0  0  0  0  0  0  0  0  0  0  0  0
  152.7517  139.2791  155.8995 H   0  0  0  0  0  0  0  0  0  0  0  0
  151.9307  139.8830  154.3581 H   0  0  0  0  0  0  0  0  0  0  0  0
  150.3161  140.3258  158.1092 H   0  0  0  0  0  0  0  0  0  0  0  0
  151.4030  141.7138  158.0568 H   0  0  0  0  0  0  0  0  0  0  0  0
  152.0619  140.0784  158.0578 H   0  0  0  0  0  0  0  0  0  0  0  0
  149.5019  141.9673  156.3216 H   0  0  0  0  0  0  0  0  0  0  0  0
  150.5849  142.3716  155.0090 H   0  0  0  0  0  0  0  0  0  0  0  0
  147.4781  141.9167  155.0403 H   0  0  0  0  0  0  0  0  0  0  0  0
  148.4090  142.5216  153.6783 H   0  0  0  0  0  0  0  0  0  0  0  0
  146.3469  141.4322  152.8761 H   0  0  0  0  0  0  0  0  0  0  0  0
  147.7805  140.6365  152.2713 H   0  0  0  0  0  0  0  0  0  0  0  0
  146.0403  139.7204  154.6049 H   0  0  0  0  0  0  0  0  0  0  0  0
  145.7403  139.2171  151.9259 H   0  0  0  0  0  0  0  0  0  0  0  0
  144.8933  137.6773  151.0347 H   0  0  0  0  0  0  0  0  0  0  0  0
  143.1489  135.3077  153.2039 H   0  0  0  0  0  0  0  0  0  0  0  0
  144.7166  132.6064  148.9979 H   0  0  0  0  0  0  0  0  0  0  0  0
  143.0840  132.2690  149.6070 H   0  0  0  0  0  0  0  0  0  0  0  0
  144.5049  131.6519  150.4799 H   0  0  0  0  0  0  0  0  0  0  0  0
  145.5619  134.9388  149.6237 H   0  0  0  0  0  0  0  0  0  0  0  0
  147.6069  137.8207  154.8316 H   0  0  0  0  0  0  0  0  0  0  0  0
  148.5648  138.3961  153.4877 H   0  0  0  0  0  0  0  0  0  0  0  0
  149.6231  139.0202  155.6218 H   0  0  0  0  0  0  0  0  0  0  0  0
  148.1727  139.8485  156.1578 H   0  0  0  0  0  0  0  0  0  0  0  0
  1  2  2  0  0  0  0
  1 21  1  0  0  0  0
  1 22  1  0  0  0  0
  2  3  1  0  0  0  0
  2  4  1  0  0  0  0
  3 23  1  0  0  0  0
  3 24  1  0  0  0  0
  3 25  1  0  0  0  0
  4  5  1  0  0  0  0
  4 26  1  0  0  0  0
  4 27  1  0  0  0  0
  5 20  1  0  0  0  0
  5  6  1  0  0  0  0
  6  7  1  0  0  0  0
  6 28  1  0  0  0  0
  6 29  1  0  0  0  0
  7  8  1  0  0  0  0
  7 30  1  0  0  0  0
  7 31  1  0  0  0  0
  8  9  1  0  0  0  0
  8 19  1  0  0  0  0
  8 32  1  0  0  0  0
  9 10  1  0  0  0  0
  9 33  1  0  0  0  0
 10 11  2  0  0  0  0
 10 12  1  0  0  0  0
 12 13  1  0  0  0  0
 12 34  1  0  0  0  0
 13 18  2  0  0  0  0
 13 14  1  0  0  0  0
 14 15  2  0  0  0  0
 14 35  1  0  0  0  0
 15 16  1  0  0  0  0
 16 17  1  0  0  0  0
 16 18  1  0  0  0  0
 17 36  1  0  0  0  0
 17 37  1  0  0  0  0
 17 38  1  0  0  0  0
 18 39  1  0  0  0  0
 19 20  1  0  0  0  0
 19 40  1  0  0  0  0
 19 41  1  0  0  0  0
 20 42  1  0  0  0  0
 20 43  1  0  0  0  0
M  END
> <s_m_source_file>
AV-unprocessed.smi

> <i_m_source_file_index>
760

> <i_lp_mmshare_version>
43012

> <i_f3d_flags>
0

> <s_epik_input>
W0NIMl09QyhbQ0gzXSlbQ0gyXU4xW0NIMl1bQ0gyXVtDSF0oW0NIMl1bQ0gyXTEpW05IXUMoPU8pW05IXWMyW2NIXW5uKFtDSDNdKVtjSF0y

> <s_epik_cmdline>
J2VwaWtfcHl0aG9uJywgJy1waCcsICc3LjAnLCAnLXRuJywgJzgnLCAnLW1hJywgJzIwMCcsICctbWV0YWxfYmluZGluZycsICctaW1hZScsICc8aW5maWxlLm1hZT4nLCAnLW9tYWUnLCAnPG91dGZpbGUubWFlPic=

> <r_lp_tautomer_probability>
1

> <r_epik_Ionization_Penalty>
2.03709

> <r_epik_Ionization_Penalty_Charging>
0

> <r_epik_Ionization_Penalty_Neutral>
2.03709

> <r_epik_State_Penalty>
2.16834

> <r_epik_Charging_Adjusted_Penalty>
2.16834

> <i_epik_Tot_Q>
0

> <i_epik_Tot_abs_Q>
0

> <r_epik_Metal_State_Penalty>
2.16831

> <b_epik_Metal_Only>
0

> <s_lp_Force_Field>
OPLS_2005

> <r_lp_Energy>
20.5491

> <b_lp_Chiralities_Consistent>
1

> <s_lp_Variant>
AV-unprocessed.smi:760-3

> <Gold.Version>
5.8.1

> <Gold.Id.Protein>
6NUR|6NUR_protein|mol2

> <Gold.PLP.Fitness>
40.5524

> <Gold.PLP.PLP>
-36.1762

> <Gold.PLP.part.hbond>
-2.0000

> <Gold.PLP.part.metal>
0.0000

> <Gold.PLP.part.buried>
-5.2428

> <Gold.PLP.part.nonpolar>
-29.5821

> <Gold.PLP.part.repulsive>
0.4580

> <Gold.PLP.ligand.clash>
0.0000

> <Gold.PLP.ligand.torsion>
0.8354

> <Gold.PLP.Chemscore.Hbond>
1.0000

> <Gold.PLP.Chemscore.CHOScore>
1.0000

> <Gold.PLP.Chemscore.Metal>
0.0000

> <Gold.Chemscore.Hbonds>
donor molecule, donor type, donor heavy atom, donor atom, acceptor molecule, acceptor atom, score
      L1  H    12    34       P1 10171  1.00
      L1  C    18    39       P1  7921  1.00

> <Gold.PLP.Chemscore.Internal.Correction>
0.0470

> <Gold.Rescore>
     Score         DG    S(hbond)    S(metal)    S(lipo)     H(rot)  DE(clash)    DE(int)     intcor
     12.46     -14.52       0.99        0.00      78.56       1.35       0.02       2.04       ----

> <Gold.Chemscore.Fitness>
12.4562

> <Gold.Chemscore.DG>
-14.5242

> <Gold.Chemscore.ZeroCoef>
-5.4800

> <Gold.Chemscore.Hbond>
0.9898

> <Gold.Chemscore.Metal>
0.0000

> <Gold.Chemscore.Lipo>
78.5636

> <Gold.Chemscore.Internal_Hbond>
0.0000

> <Gold.Chemscore.DEClash>
0.0243

> <Gold.Chemscore.DEInternal>
2.0437

> <Gold.Chemscore.Rot>
1.3491

> <Gold.Chemscore.Internal.Correction>
   9.000000E+99

> <Gold.Chemscore.Hbonds>
donor molecule, donor type, donor heavy atom, donor atom, acceptor molecule, acceptor atom, score
      L1  H     9    33       P1 10175  0.01
      L1  H    12    34       P1 10171  0.98

> <Gold.Chemscore.Hbond.Weighted>
-3.3061

> <Gold.Chemscore.Metal.Weighted>
-0.0000

> <Gold.Chemscore.Lipo.Weighted>
-9.1919

> <Gold.Chemscore.Internal_Hbond.Weighted>
0.0000

> <Gold.Chemscore.DEClash.Weighted>
0.0243

> <Gold.Chemscore.DEInternal.Weighted>
2.0437

> <Gold.Chemscore.Rot.Weighted>
3.4538

> <Gold.Chemscore.Internal.Correction.Weighted>
   9.000000E+99

> <Gold.Protein.RotatedTorsions>
[ 6907 6896 6895 6894 ] final  107.09 input  -60.11 | X-H torsion
[ 7974 7965 7964 7962 ] final  118.99 input  175.53 | X-H torsion
[ 8008 7997 7996 7995 ] final  104.92 input   59.86 | X-H torsion
[ 10167 10162 10161 10158 ] final   -8.81 input  -65.29 | X-H torsion
[ 10718 10713 10712 10709 ] final  -17.75 input   66.30 | X-H torsion
[ 10763 10752 10751 10750 ] final -122.47 input  -60.55 | X-H torsion
[ 11005 11000 10999 10996 ] final  135.93 input  -57.11 | X-H torsion

> <Gold.Protein.ActiveResidues>
 VAL166  LYS551  ARG553  GLY616  TRP617  ASP618  TYR619  PRO620  LYS621  CYS622 
 ASP623  PHE694  ASN695  SER759  ASP760  ASP761  ALA762  ILE779  LEU786  VAL792 
 PHE793  MET794  SER795  GLU796  ALA797  LYS798  CYS799  TRP800  GLU811  SER814 

> <Gold.Protein.RotatedAtoms>
  152.5168  133.9286  159.7569 H   0  0  0  0  0  0  0  0  0  0  0  0  # atno 6907 bound_to 6896
  150.9641  133.6405  159.2756 H   0  0  0  0  0  0  0  0  0  0  0  0  # atno 6908 bound_to 6896
  151.3639  135.0915  159.9496 H   0  0  0  0  0  0  0  0  0  0  0  0  # atno 6909 bound_to 6896
  145.1485  139.3224  143.4579 H   0  0  0  0  0  0  0  0  0  0  0  0  # atno 7974 bound_to 7965
  156.1614  140.3139  155.8814 H   0  0  0  0  0  0  0  0  0  0  0  0  # atno 8008 bound_to 7997
  155.3774  140.0485  157.3061 H   0  0  0  0  0  0  0  0  0  0  0  0  # atno 8009 bound_to 7997
  154.5150  140.2178  155.9094 H   0  0  0  0  0  0  0  0  0  0  0  0  # atno 8010 bound_to 7997
  140.7070  143.5927  150.8877 H   0  0  0  0  0  0  0  0  0  0  0  0  # atno 10167 bound_to 10162
  156.5692  130.4745  149.6370 H   0  0  0  0  0  0  0  0  0  0  0  0  # atno 10718 bound_to 10713
  154.8690  135.4132  154.2786 H   0  0  0  0  0  0  0  0  0  0  0  0  # atno 10763 bound_to 10752
  153.3683  135.7006  153.6663 H   0  0  0  0  0  0  0  0  0  0  0  0  # atno 10764 bound_to 10752
  153.5535  135.3624  155.2741 H   0  0  0  0  0  0  0  0  0  0  0  0  # atno 10765 bound_to 10752
  140.0012  134.9477  157.0076 H   0  0  0  0  0  0  0  0  0  0  0  0  # atno 11005 bound_to 11000
  146.3497  140.1550  142.8591 LP  0  0  0  0  0  0  0  0  0  0  0  0  # atno 17320 bound_to 7965
  145.0456  140.8978  143.5026 LP  0  0  0  0  0  0  0  0  0  0  0  0  # atno 17321 bound_to 7965
  139.9652  143.6119  152.2990 LP  0  0  0  0  0  0  0  0  0  0  0  0  # atno 17342 bound_to 10162
  139.6686  144.7661  151.1827 LP  0  0  0  0  0  0  0  0  0  0  0  0  # atno 17343 bound_to 10162
  156.2729  130.7027  151.1830 LP  0  0  0  0  0  0  0  0  0  0  0  0  # atno 17370 bound_to 10713
  157.7352  131.0575  150.5484 LP  0  0  0  0  0  0  0  0  0  0  0  0  # atno 17371 bound_to 10713
  140.4725  134.1372  155.7205 LP  0  0  0  0  0  0  0  0  0  0  0  0  # atno 17394 bound_to 11000
  141.1643  133.8733  157.1759 LP  0  0  0  0  0  0  0  0  0  0  0  0  # atno 17395 bound_to 11000

$$$$
