#       Name:                AV-unprocessed.smi:3193
#       Creating user name   scv26
#       Creation time:       Fri Mar 27 18:03:57 2020


#       File generated by GOLD software.
#

@<TRIPOS>MOLECULE
AV-unprocessed.smi:3193
    41    42     1
SMALL
NO_CHARGES


@<TRIPOS>ATOM
      1 ****        -3.4646  -0.2723  -0.9887 C.3            1 S1                 0.0000
      2 ****        -2.6475   0.5920  -0.0064 C.3            1 S1                 0.0000
      3 ****        -3.1496   2.0517   0.0190 C.3            1 S1                 0.0000
      4 ****        -2.7602   2.8276  -1.2507 C.3            1 S1                 0.0000
      5 ****        -1.2444   2.7754  -1.4899 C.3            1 S1                 0.0000
      6 ****        -0.7298   1.3276  -1.5284 C.3            1 S1                 0.0000
      7 ****        -1.1143   0.5532  -0.2471 C.3            1 S1                 0.0000
      8 ****        -0.5469  -0.8807  -0.2372 C.3            1 S1                 0.0000
      9 ****         0.9248  -0.8830  -0.1178 N.4            1 S1                 1.0000
     10 ****         1.5229  -2.2330  -0.0803 C.3            1 S1                 0.0000
     11 ****         3.0539  -2.1725   0.0368 C.3            1 S1                 0.0000
     12 ****         3.4853  -1.5548   1.2768 N.pl3          1 S1                 0.0000
     13 ****         3.4406  -2.1089   2.5495 C.2            1 S1                 0.0000
     14 ****         3.9482  -1.1609   3.4090 C.2            1 S1                 0.0000
     15 ****         4.3134  -0.0250   2.6903 N.2            1 S1                 0.0000
     16 ****         4.0163  -0.3345   1.4353 C.2            1 S1                 0.0000
     17 ****        -3.3124   0.0262  -2.0255 H              1 S1                 0.0000
     18 ****        -4.5317  -0.1929  -0.7799 H              1 S1                 0.0000
     19 ****        -3.2056  -1.3276  -0.9057 H              1 S1                 0.0000
     20 ****        -2.8321   0.1796   0.9866 H              1 S1                 0.0000
     21 ****        -4.2317   2.0781   0.1534 H              1 S1                 0.0000
     22 ****        -2.7282   2.5605   0.8870 H              1 S1                 0.0000
     23 ****        -3.2834   2.4168  -2.1145 H              1 S1                 0.0000
     24 ****        -3.0851   3.8649  -1.1639 H              1 S1                 0.0000
     25 ****        -0.9978   3.2832  -2.4228 H              1 S1                 0.0000
     26 ****        -0.7324   3.3222  -0.6974 H              1 S1                 0.0000
     27 ****        -1.1256   0.8213  -2.4091 H              1 S1                 0.0000
     28 ****         0.3537   1.3426  -1.6494 H              1 S1                 0.0000
     29 ****        -0.6599   1.0788   0.5949 H              1 S1                 0.0000
     30 ****        -0.9599  -1.4361   0.6060 H              1 S1                 0.0000
     31 ****        -0.8341  -1.4133  -1.1447 H              1 S1                 0.0000
     32 ****         1.3112  -0.3798  -0.9036 H              1 S1                 0.0000
     33 ****         1.1032  -2.7944   0.7555 H              1 S1                 0.0000
     34 ****         1.2492  -2.7663  -0.9915 H              1 S1                 0.0000
     35 ****         3.4699  -3.1800  -0.0027 H              1 S1                 0.0000
     36 ****         3.4822  -1.6232  -0.8029 H              1 S1                 0.0000
     37 ****         3.0610  -3.1031   2.7351 H              1 S1                 0.0000
     38 ****         4.0797  -1.2088   4.4801 H              1 S1                 0.0000
     39 ****         4.1832   0.3462   0.6131 H              1 S1                 0.0000
     40 ****         1.1771  -0.3982   0.7319 H              1 S1                 0.0000
     41 ****         4.7076   0.8253   3.0391 LP             1 S1                 0.0000
@<TRIPOS>BOND
    1    1    2 1     
    2    1   17 1     
    3    1   18 1     
    4    1   19 1     
    5    2    7 1     
    6    2    3 1     
    7    2   20 1     
    8    3    4 1     
    9    3   21 1     
   10    3   22 1     
   11    4    5 1     
   12    4   23 1     
   13    4   24 1     
   14    5    6 1     
   15    5   25 1     
   16    5   26 1     
   17    6    7 1     
   18    6   27 1     
   19    6   28 1     
   20    7    8 1     
   21    7   29 1     
   22    8    9 1     
   23    8   30 1     
   24    8   31 1     
   25    9   10 1     
   26    9   32 1     
   27    9   40 1     
   28   10   11 1     
   29   10   33 1     
   30   10   34 1     
   31   11   12 1     
   32   11   35 1     
   33   11   36 1     
   34   12   16 1     
   35   12   13 1     
   36   13   14 2     
   37   13   37 1     
   38   14   15 1     
   39   14   38 1     
   40   15   16 2     
   41   16   39 1     
   42   15   41 1     
@<TRIPOS>SUBSTRUCTURE
      1 S1             1
@<TRIPOS>SET
LONE_PAIRS      STATIC     ATOMS    <user>   **** ""
1 41
DONOR_HYDROGENS      STATIC     ATOMS    <user>   **** ""
2 32 40
ATOM$BLUE        STATIC     ATOMS    COLORGROUP SYSTEM
1 41
ATOM$RED        STATIC     ATOMS    COLORGROUP SYSTEM
2 32 40
