AV-unprocessed.smi:917|AV-procd|sdf|4162|dock2
  -GOLD-   22720 2 63D 1   1.00000     0.00000
 Structure written by MMmdl.
 43 44  0  0  0  0  0  0  0  0  1 V2000
  160.6113  140.9509  161.4081 C   0  0  0  0  0  0  0  0  0  0  0  0
  160.0243  141.4160  160.1065 C   0  0  0  0  0  0  0  0  0  0  0  0
  160.4421  142.5492  159.5679 N   0  0  0  0  0  0  0  0  0  0  0  0
  159.7183  142.6985  158.3811 O   0  0  0  0  0  0  0  0  0  0  0  0
  158.8821  141.6376  158.2506 C   0  0  0  0  0  0  0  0  0  0  0  0
  158.0229  141.6153  157.0320 C   0  0  0  0  0  0  0  0  0  0  0  0
  159.0220  140.7872  159.3134 C   0  0  0  0  0  0  0  0  0  0  0  0
  158.3028  139.4918  159.5900 C   0  0  0  0  0  0  0  0  0  0  0  0
  156.7932  139.7149  159.4975 C   0  0  0  0  0  0  0  0  0  0  0  0
  156.2735  139.9663  158.4101 O   0  0  0  0  0  0  0  0  0  0  0  0
  156.1054  139.6389  160.6471 N   0  0  0  0  0  0  0  0  0  0  0  0
  154.6755  139.8850  160.7851 C   0  0  0  0  0  0  0  0  0  0  0  0
  154.3747  141.3910  160.8443 C   0  0  0  0  0  0  0  0  0  0  0  0
  152.9599  141.7272  160.3484 C   0  0  0  0  0  0  0  0  0  0  0  0
  152.7906  143.2047  159.9526 C   0  0  0  0  0  0  0  0  0  0  0  0
  152.2992  144.0906  161.0990 C   0  0  0  0  0  0  0  0  0  0  0  0
  151.7713  145.3543  160.4149 C   0  0  0  0  0  0  0  0  0  0  0  0
  151.3441  144.9263  159.0027 C   0  0  0  0  0  0  0  0  0  0  0  0
  151.7518  143.4547  158.8537 C   0  0  0  0  0  0  0  0  0  0  0  0
  160.8867  139.8973  161.3571 H   0  0  0  0  0  0  0  0  0  0  0  0
  159.8945  141.0674  162.2209 H   0  0  0  0  0  0  0  0  0  0  0  0
  161.5081  141.5135  161.6716 H   0  0  0  0  0  0  0  0  0  0  0  0
  157.6261  140.6169  156.8498 H   0  0  0  0  0  0  0  0  0  0  0  0
  158.5915  141.9151  156.1514 H   0  0  0  0  0  0  0  0  0  0  0  0
  157.1811  142.2992  157.1412 H   0  0  0  0  0  0  0  0  0  0  0  0
  158.5831  138.7189  158.8738 H   0  0  0  0  0  0  0  0  0  0  0  0
  158.5614  139.0981  160.5738 H   0  0  0  0  0  0  0  0  0  0  0  0
  156.6151  139.4242  161.4919 H   0  0  0  0  0  0  0  0  0  0  0  0
  154.1293  139.4157  159.9651 H   0  0  0  0  0  0  0  0  0  0  0  0
  154.3355  139.4011  161.7011 H   0  0  0  0  0  0  0  0  0  0  0  0
  154.4949  141.7444  161.8693 H   0  0  0  0  0  0  0  0  0  0  0  0
  155.1081  141.9308  160.2441 H   0  0  0  0  0  0  0  0  0  0  0  0
  152.7066  141.0861  159.5030 H   0  0  0  0  0  0  0  0  0  0  0  0
  152.2431  141.4897  161.1354 H   0  0  0  0  0  0  0  0  0  0  0  0
  153.7516  143.5955  159.6143 H   0  0  0  0  0  0  0  0  0  0  0  0
  151.4829  143.5963  161.6283 H   0  0  0  0  0  0  0  0  0  0  0  0
  153.0816  144.3073  161.8270 H   0  0  0  0  0  0  0  0  0  0  0  0
  150.9518  145.8053  160.9753 H   0  0  0  0  0  0  0  0  0  0  0  0
  152.5676  146.0967  160.3462 H   0  0  0  0  0  0  0  0  0  0  0  0
  150.2713  145.0504  158.8505 H   0  0  0  0  0  0  0  0  0  0  0  0
  151.8510  145.5416  158.2582 H   0  0  0  0  0  0  0  0  0  0  0  0
  152.1368  143.2328  157.8580 H   0  0  0  0  0  0  0  0  0  0  0  0
  150.8791  142.8203  159.0163 H   0  0  0  0  0  0  0  0  0  0  0  0
  1  2  1  0  0  0  0
  1 20  1  0  0  0  0
  1 21  1  0  0  0  0
  1 22  1  0  0  0  0
  2  7  1  0  0  0  0
  2  3  2  0  0  0  0
  3  4  1  0  0  0  0
  4  5  1  0  0  0  0
  5  6  1  0  0  0  0
  5  7  2  0  0  0  0
  6 23  1  0  0  0  0
  6 24  1  0  0  0  0
  6 25  1  0  0  0  0
  7  8  1  0  0  0  0
  8  9  1  0  0  0  0
  8 26  1  0  0  0  0
  8 27  1  0  0  0  0
  9 10  2  0  0  0  0
  9 11  1  0  0  0  0
 11 12  1  0  0  0  0
 11 28  1  0  0  0  0
 12 13  1  0  0  0  0
 12 29  1  0  0  0  0
 12 30  1  0  0  0  0
 13 14  1  0  0  0  0
 13 31  1  0  0  0  0
 13 32  1  0  0  0  0
 14 15  1  0  0  0  0
 14 33  1  0  0  0  0
 14 34  1  0  0  0  0
 15 19  1  0  0  0  0
 15 16  1  0  0  0  0
 15 35  1  0  0  0  0
 16 17  1  0  0  0  0
 16 36  1  0  0  0  0
 16 37  1  0  0  0  0
 17 18  1  0  0  0  0
 17 38  1  0  0  0  0
 17 39  1  0  0  0  0
 18 19  1  0  0  0  0
 18 40  1  0  0  0  0
 18 41  1  0  0  0  0
 19 42  1  0  0  0  0
 19 43  1  0  0  0  0
M  END
> <s_m_source_file>
AV-unprocessed.smi

> <i_m_source_file_index>
917

> <i_lp_mmshare_version>
43012

> <i_f3d_flags>
0

> <s_epik_input>
W0NIM11jMW5vYyhbQ0gzXSljMVtDSDJdQyg9TylbTkhdW0NIMl1bQ0gyXVtDSDJdW0NIXTJbQ0gyXVtDSDJdW0NIMl1bQ0gyXTI=

> <s_epik_cmdline>
J2VwaWtfcHl0aG9uJywgJy1waCcsICc3LjAnLCAnLXRuJywgJzgnLCAnLW1hJywgJzIwMCcsICctbWV0YWxfYmluZGluZycsICctaW1hZScsICc8aW5maWxlLm1hZT4nLCAnLW9tYWUnLCAnPG91dGZpbGUubWFlPic=

> <r_lp_tautomer_probability>
1

> <r_epik_Ionization_Penalty>
1.90047e-08

> <r_epik_Ionization_Penalty_Charging>
0

> <r_epik_Ionization_Penalty_Neutral>
1.90047e-08

> <r_epik_State_Penalty>
-0

> <r_epik_Charging_Adjusted_Penalty>
0

> <i_epik_Tot_Q>
0

> <i_epik_Tot_abs_Q>
0

> <r_epik_Metal_State_Penalty>
-0

> <b_epik_Metal_Only>
0

> <s_lp_Force_Field>
OPLS_2005

> <r_lp_Energy>
14.8475

> <b_lp_Chiralities_Consistent>
1

> <s_lp_Variant>
AV-unprocessed.smi:917-1

> <Gold.Version>
5.8.1

> <Gold.Id.Protein>
6NUR|6NUR_protein|mol2

> <Gold.PLP.Fitness>
45.0678

> <Gold.PLP.PLP>
-43.8325

> <Gold.PLP.part.hbond>
-2.0000

> <Gold.PLP.part.metal>
0.0000

> <Gold.PLP.part.buried>
-5.2783

> <Gold.PLP.part.nonpolar>
-36.9947

> <Gold.PLP.part.repulsive>
0.0897

> <Gold.PLP.ligand.clash>
0.0000

> <Gold.PLP.ligand.torsion>
0.9016

> <Gold.PLP.Chemscore.Hbond>
0.9920

> <Gold.PLP.Chemscore.CHOScore>
0.0000

> <Gold.PLP.Chemscore.Metal>
0.0000

> <Gold.Chemscore.Hbonds>
donor molecule, donor type, donor heavy atom, donor atom, acceptor molecule, acceptor atom, score
      P1  H  7997  8010       L1    10  0.39

> <Gold.PLP.Chemscore.Internal.Correction>
0.0626

> <Gold.Rescore>
     Score         DG    S(hbond)    S(metal)    S(lipo)     H(rot)  DE(clash)    DE(int)     intcor
     16.96     -19.01       0.98        0.00     123.92       1.65       0.04       2.02       ----

> <Gold.Chemscore.Fitness>
16.9558

> <Gold.Chemscore.DG>
-19.0137

> <Gold.Chemscore.ZeroCoef>
-5.4800

> <Gold.Chemscore.Hbond>
0.9755

> <Gold.Chemscore.Metal>
0.0000

> <Gold.Chemscore.Lipo>
123.9183

> <Gold.Chemscore.Internal_Hbond>
0.0000

> <Gold.Chemscore.DEClash>
0.0411

> <Gold.Chemscore.DEInternal>
2.0169

> <Gold.Chemscore.Rot>
1.6495

> <Gold.Chemscore.Internal.Correction>
   9.000000E+99

> <Gold.Chemscore.Hbonds>
donor molecule, donor type, donor heavy atom, donor atom, acceptor molecule, acceptor atom, score
      P1  H  7997  8010       L1    10  0.37

> <Gold.Chemscore.Hbond.Weighted>
-3.2581

> <Gold.Chemscore.Metal.Weighted>
-0.0000

> <Gold.Chemscore.Lipo.Weighted>
-14.4984

> <Gold.Chemscore.Internal_Hbond.Weighted>
0.0000

> <Gold.Chemscore.DEClash.Weighted>
0.0411

> <Gold.Chemscore.DEInternal.Weighted>
2.0169

> <Gold.Chemscore.Rot.Weighted>
4.2228

> <Gold.Chemscore.Internal.Correction.Weighted>
   9.000000E+99

> <Gold.Protein.RotatedTorsions>
[ 6907 6896 6895 6894 ] final -171.93 input  -60.11 | X-H torsion
[ 7974 7965 7964 7962 ] final -119.73 input  175.53 | X-H torsion
[ 8008 7997 7996 7995 ] final  -53.69 input   59.86 | X-H torsion
[ 10167 10162 10161 10158 ] final  137.73 input  -65.29 | X-H torsion
[ 10718 10713 10712 10709 ] final -125.31 input   66.30 | X-H torsion
[ 10763 10752 10751 10750 ] final   86.14 input  -60.55 | X-H torsion
[ 11005 11000 10999 10996 ] final  155.74 input  -57.11 | X-H torsion

> <Gold.Protein.ActiveResidues>
 VAL166  LYS551  ARG553  GLY616  TRP617  ASP618  TYR619  PRO620  LYS621  CYS622 
 ASP623  PHE694  ASN695  SER759  ASP760  ASP761  ALA762  ILE779  LEU786  VAL792 
 PHE793  MET794  SER795  GLU796  ALA797  LYS798  CYS799  TRP800  GLU811  SER814 

> <Gold.Protein.RotatedAtoms>
  151.5319  133.3447  159.2919 H   0  0  0  0  0  0  0  0  0  0  0  0  # atno 6907 bound_to 6896
  150.8588  134.7937  159.7078 H   0  0  0  0  0  0  0  0  0  0  0  0  # atno 6908 bound_to 6896
  152.4614  134.5184  159.9827 H   0  0  0  0  0  0  0  0  0  0  0  0  # atno 6909 bound_to 6896
  145.0593  140.8278  143.4162 H   0  0  0  0  0  0  0  0  0  0  0  0  # atno 7974 bound_to 7965
  154.4140  140.1194  156.5194 H   0  0  0  0  0  0  0  0  0  0  0  0  # atno 8008 bound_to 7997
  155.6717  140.3496  155.4802 H   0  0  0  0  0  0  0  0  0  0  0  0  # atno 8009 bound_to 7997
  155.9627  140.1126  157.0872 H   0  0  0  0  0  0  0  0  0  0  0  0  # atno 8010 bound_to 7997
  139.5134  144.6393  151.5612 H   0  0  0  0  0  0  0  0  0  0  0  0  # atno 10167 bound_to 10162
  156.1664  130.6637  151.0121 H   0  0  0  0  0  0  0  0  0  0  0  0  # atno 10718 bound_to 10713
  153.1542  135.4591  154.9680 H   0  0  0  0  0  0  0  0  0  0  0  0  # atno 10763 bound_to 10752
  154.7848  135.3200  154.7912 H   0  0  0  0  0  0  0  0  0  0  0  0  # atno 10764 bound_to 10752
  153.8412  135.6930  153.4857 H   0  0  0  0  0  0  0  0  0  0  0  0  # atno 10765 bound_to 10752
  140.1610  134.8609  157.2574 H   0  0  0  0  0  0  0  0  0  0  0  0  # atno 11005 bound_to 11000
  145.1429  139.2561  143.5481 LP  0  0  0  0  0  0  0  0  0  0  0  0  # atno 17320 bound_to 7965
  146.3523  140.1111  142.8604 LP  0  0  0  0  0  0  0  0  0  0  0  0  # atno 17321 bound_to 7965
  140.6154  143.9358  150.6484 LP  0  0  0  0  0  0  0  0  0  0  0  0  # atno 17342 bound_to 10162
  140.2615  143.3521  152.1319 LP  0  0  0  0  0  0  0  0  0  0  0  0  # atno 17343 bound_to 10162
  157.6771  131.0847  150.7466 LP  0  0  0  0  0  0  0  0  0  0  0  0  # atno 17370 bound_to 10713
  156.7527  130.4774  149.5453 LP  0  0  0  0  0  0  0  0  0  0  0  0  # atno 17371 bound_to 10713
  140.2490  134.3705  155.7450 LP  0  0  0  0  0  0  0  0  0  0  0  0  # atno 17394 bound_to 11000
  141.2209  133.7306  156.8906 LP  0  0  0  0  0  0  0  0  0  0  0  0  # atno 17395 bound_to 11000

$$$$
