AV-unprocessed.smi:2224|AV-procd|sdf|8991|dock5
  -GOLD-   2272012203D 1   1.00000     0.00000
 Structure written by MMmdl.
 44 46  0  0  0  0  0  0  0  0  1 V2000
  143.9653  132.6717  150.4746 C   0  0  0  0  0  0  0  0  0  0  0  0
  144.0256  133.7312  151.5547 C   0  0  0  0  0  0  0  0  0  0  0  0
  142.8613  134.1453  152.2297 C   0  0  0  0  0  0  0  0  0  0  0  0
  142.9861  135.1364  153.2231 C   0  0  0  0  0  0  0  0  0  0  0  0
  141.7767  135.6267  153.9915 C   0  0  0  0  0  0  0  0  0  0  0  0
  144.1658  135.7043  153.5537 N   0  0  0  0  0  0  0  0  0  0  0  0
  145.2931  135.3140  152.9088 C   0  0  0  0  0  0  0  0  0  0  0  0
  146.5809  135.8472  153.1797 N   0  0  0  0  0  0  0  0  0  0  0  0
  147.1163  136.1639  154.3716 C   0  0  0  0  0  0  0  0  0  0  0  0
  146.5557  136.0435  155.4614 O   0  0  0  0  0  0  0  0  0  0  0  0
  148.3589  136.6445  154.2299 N   0  0  0  0  0  0  0  0  0  0  0  0
  149.2010  137.0992  155.3300 C   0  0  2  0  0  0  0  0  0  0  0  0
  150.5694  137.5857  154.8519 C   0  0  1  0  0  0  0  0  0  0  0  0
  151.2583  138.9031  154.8196 C   0  0  0  0  0  0  0  0  0  0  0  0
  152.6282  138.4404  155.3847 C   0  0  0  0  0  0  0  0  0  0  0  0
  152.4226  137.0912  155.8712 O   0  0  0  0  0  0  0  0  0  0  0  0
  151.0464  137.0550  156.1896 C   0  0  2  0  0  0  0  0  0  0  0  0
  149.9897  135.9406  156.0501 C   0  0  0  0  0  0  0  0  0  0  0  0
  149.3801  135.4547  157.3655 C   0  0  0  0  0  0  0  0  0  0  0  0
  150.3793  134.6750  155.2593 C   0  0  0  0  0  0  0  0  0  0  0  0
  145.2564  134.3229  151.9025 C   0  0  0  0  0  0  0  0  0  0  0  0
  142.9394  132.3534  150.2869 H   0  0  0  0  0  0  0  0  0  0  0  0
  144.5455  131.7977  150.7708 H   0  0  0  0  0  0  0  0  0  0  0  0
  144.3776  133.0584  149.5422 H   0  0  0  0  0  0  0  0  0  0  0  0
  141.8991  133.7150  151.9925 H   0  0  0  0  0  0  0  0  0  0  0  0
  140.8572  135.1840  153.6076 H   0  0  0  0  0  0  0  0  0  0  0  0
  141.6902  136.7110  153.9134 H   0  0  0  0  0  0  0  0  0  0  0  0
  141.8677  135.3637  155.0456 H   0  0  0  0  0  0  0  0  0  0  0  0
  147.1568  136.0211  152.3697 H   0  0  0  0  0  0  0  0  0  0  0  0
  148.7463  136.7082  153.3000 H   0  0  0  0  0  0  0  0  0  0  0  0
  148.7094  137.8004  156.0106 H   0  0  0  0  0  0  0  0  0  0  0  0
  150.9113  136.9841  154.0063 H   0  0  0  0  0  0  0  0  0  0  0  0
  151.3383  139.3160  153.8136 H   0  0  0  0  0  0  0  0  0  0  0  0
  150.7735  139.6339  155.4685 H   0  0  0  0  0  0  0  0  0  0  0  0
  153.4048  138.4375  154.6195 H   0  0  0  0  0  0  0  0  0  0  0  0
  152.9542  139.0929  156.1958 H   0  0  0  0  0  0  0  0  0  0  0  0
  150.8286  137.7212  157.0324 H   0  0  0  0  0  0  0  0  0  0  0  0
  150.0993  134.8828  157.9526 H   0  0  0  0  0  0  0  0  0  0  0  0
  148.5115  134.8178  157.1951 H   0  0  0  0  0  0  0  0  0  0  0  0
  149.0485  136.2884  157.9853 H   0  0  0  0  0  0  0  0  0  0  0  0
  151.1056  134.0768  155.8104 H   0  0  0  0  0  0  0  0  0  0  0  0
  150.8232  134.8831  154.2877 H   0  0  0  0  0  0  0  0  0  0  0  0
  149.5119  134.0398  155.0767 H   0  0  0  0  0  0  0  0  0  0  0  0
  146.1619  134.0196  151.3968 H   0  0  0  0  0  0  0  0  0  0  0  0
  1  2  1  0  0  0  0
  1 22  1  0  0  0  0
  1 23  1  0  0  0  0
  1 24  1  0  0  0  0
  2 21  1  0  0  0  0
  2  3  2  0  0  0  0
  3  4  1  0  0  0  0
  3 25  1  0  0  0  0
  4  5  1  0  0  0  0
  4  6  2  0  0  0  0
  5 26  1  0  0  0  0
  5 27  1  0  0  0  0
  5 28  1  0  0  0  0
  6  7  1  0  0  0  0
  7  8  1  0  0  0  0
  7 21  2  0  0  0  0
  8  9  1  0  0  0  0
  8 29  1  0  0  0  0
  9 10  2  0  0  0  0
  9 11  1  0  0  0  0
 11 12  1  0  0  0  0
 11 30  1  0  0  0  0
 12 18  1  0  0  0  0
 12 13  1  0  0  0  0
 12 31  1  0  0  0  0
 13 17  1  0  0  0  0
 13 14  1  0  0  0  0
 13 32  1  0  0  0  0
 14 15  1  0  0  0  0
 14 33  1  0  0  0  0
 14 34  1  0  0  0  0
 15 16  1  0  0  0  0
 15 35  1  0  0  0  0
 15 36  1  0  0  0  0
 16 17  1  0  0  0  0
 17 18  1  0  0  0  0
 17 37  1  0  0  0  0
 18 19  1  0  0  0  0
 18 20  1  0  0  0  0
 19 38  1  0  0  0  0
 19 39  1  0  0  0  0
 19 40  1  0  0  0  0
 20 41  1  0  0  0  0
 20 42  1  0  0  0  0
 20 43  1  0  0  0  0
 21 44  1  0  0  0  0
M  END
> <s_m_source_file>
AV-unprocessed.smi

> <i_m_source_file_index>
2224

> <i_lp_mmshare_version>
43012

> <i_f3d_flags>
0

> <s_epik_input>
W0NIM11jMVtjSF1jKFtDSDNdKW5jKFtjSF0xKVtOSF1DKD1PKVtOSF1bQ0BIXTJDKFtDSDNdKShbQ0gzXSlbQ0BIXShbQ0BASF0yMylPW0NIMl1bQ0gyXTM=

> <s_epik_cmdline>
J2VwaWtfcHl0aG9uJywgJy1waCcsICc3LjAnLCAnLXRuJywgJzgnLCAnLW1hJywgJzIwMCcsICctbWV0YWxfYmluZGluZycsICctaW1hZScsICc8aW5maWxlLm1hZT4nLCAnLW9tYWUnLCAnPG91dGZpbGUubWFlPic=

> <r_lp_tautomer_probability>
1

> <r_epik_Ionization_Penalty>
0.000276544

> <r_epik_Ionization_Penalty_Charging>
0

> <r_epik_Ionization_Penalty_Neutral>
0.000276544

> <r_epik_State_Penalty>
-0

> <r_epik_Charging_Adjusted_Penalty>
0

> <i_epik_Tot_Q>
0

> <i_epik_Tot_abs_Q>
0

> <r_epik_Metal_State_Penalty>
-0

> <b_epik_Metal_Only>
0

> <s_lp_Force_Field>
OPLS_2005

> <r_lp_Energy>
62.2425

> <b_lp_Chiralities_Consistent>
1

> <s_lp_Variant>
AV-unprocessed.smi:2224-1

> <Gold.Version>
5.8.1

> <Gold.Id.Protein>
6NUR|6NUR_protein|mol2

> <Gold.PLP.Fitness>
37.3511

> <Gold.PLP.PLP>
-30.0297

> <Gold.PLP.part.hbond>
-2.8090

> <Gold.PLP.part.metal>
0.0000

> <Gold.PLP.part.buried>
-4.6171

> <Gold.PLP.part.nonpolar>
-23.4612

> <Gold.PLP.part.repulsive>
0.0923

> <Gold.PLP.ligand.clash>
0.0000

> <Gold.PLP.ligand.torsion>
0.4794

> <Gold.PLP.Chemscore.Hbond>
2.6713

> <Gold.PLP.Chemscore.CHOScore>
0.0000

> <Gold.PLP.Chemscore.Metal>
0.0000

> <Gold.Chemscore.Hbonds>
donor molecule, donor type, donor heavy atom, donor atom, acceptor molecule, acceptor atom, score
      L1  H     8    29       P1  7948  0.85
      L1  H    11    30       P1  7948  0.98
      P1  H 10752 10764       L1    16  0.83

> <Gold.PLP.Chemscore.Internal.Correction>
0.2664

> <Gold.Rescore>
     Score         DG    S(hbond)    S(metal)    S(lipo)     H(rot)  DE(clash)    DE(int)     intcor
     19.12     -20.25       2.63        0.00      73.10       1.00       0.01       1.12       ----

> <Gold.Chemscore.Fitness>
19.1168

> <Gold.Chemscore.DG>
-20.2463

> <Gold.Chemscore.ZeroCoef>
-5.4800

> <Gold.Chemscore.Hbond>
2.6267

> <Gold.Chemscore.Metal>
0.0000

> <Gold.Chemscore.Lipo>
73.1033

> <Gold.Chemscore.Internal_Hbond>
0.0000

> <Gold.Chemscore.DEClash>
0.0086

> <Gold.Chemscore.DEInternal>
1.1209

> <Gold.Chemscore.Rot>
1.0000

> <Gold.Chemscore.Internal.Correction>
   9.000000E+99

> <Gold.Chemscore.Hbonds>
donor molecule, donor type, donor heavy atom, donor atom, acceptor molecule, acceptor atom, score
      L1  H     8    29       P1  7948  0.85
      L1  H    11    30       P1  7948  0.89
      P1  H 10752 10764       L1    16  0.76

> <Gold.Chemscore.Hbond.Weighted>
-8.7732

> <Gold.Chemscore.Metal.Weighted>
-0.0000

> <Gold.Chemscore.Lipo.Weighted>
-8.5531

> <Gold.Chemscore.Internal_Hbond.Weighted>
0.0000

> <Gold.Chemscore.DEClash.Weighted>
0.0086

> <Gold.Chemscore.DEInternal.Weighted>
1.1209

> <Gold.Chemscore.Rot.Weighted>
2.5600

> <Gold.Chemscore.Internal.Correction.Weighted>
   9.000000E+99

> <Gold.Protein.RotatedTorsions>
[ 6907 6896 6895 6894 ] final  159.32 input  -60.11 | X-H torsion
[ 7974 7965 7964 7962 ] final   65.27 input  175.53 | X-H torsion
[ 8008 7997 7996 7995 ] final  -84.57 input   59.86 | X-H torsion
[ 10167 10162 10161 10158 ] final  149.48 input  -65.29 | X-H torsion
[ 10718 10713 10712 10709 ] final   73.35 input   66.30 | X-H torsion
[ 10763 10752 10751 10750 ] final  -35.12 input  -60.55 | X-H torsion
[ 11005 11000 10999 10996 ] final -176.69 input  -57.11 | X-H torsion

> <Gold.Protein.ActiveResidues>
 VAL166  LYS551  ARG553  GLY616  TRP617  ASP618  TYR619  PRO620  LYS621  CYS622 
 ASP623  PHE694  ASN695  SER759  ASP760  ASP761  ALA762  ILE779  LEU786  VAL792 
 PHE793  MET794  SER795  GLU796  ALA797  LYS798  CYS799  TRP800  GLU811  SER814 

> <Gold.Protein.RotatedAtoms>
  151.9874  133.3779  159.4130 H   0  0  0  0  0  0  0  0  0  0  0  0  # atno 6907 bound_to 6896
  150.6926  134.3974  159.5113 H   0  0  0  0  0  0  0  0  0  0  0  0  # atno 6908 bound_to 6896
  152.1702  134.8840  160.0585 H   0  0  0  0  0  0  0  0  0  0  0  0  # atno 6909 bound_to 6896
  145.8404  139.3192  143.0934 H   0  0  0  0  0  0  0  0  0  0  0  0  # atno 7974 bound_to 7965
  154.6312  140.0603  156.9734 H   0  0  0  0  0  0  0  0  0  0  0  0  # atno 8008 bound_to 7997
  155.1663  140.3287  155.4383 H   0  0  0  0  0  0  0  0  0  0  0  0  # atno 8009 bound_to 7997
  156.2484  140.1922  156.6767 H   0  0  0  0  0  0  0  0  0  0  0  0  # atno 8010 bound_to 7997
  139.4861  144.5598  151.7251 H   0  0  0  0  0  0  0  0  0  0  0  0  # atno 10167 bound_to 10162
  157.6544  130.9624  150.1057 H   0  0  0  0  0  0  0  0  0  0  0  0  # atno 10718 bound_to 10713
  153.8579  135.6843  153.4785 H   0  0  0  0  0  0  0  0  0  0  0  0  # atno 10763 bound_to 10752
  153.1359  135.4678  154.9419 H   0  0  0  0  0  0  0  0  0  0  0  0  # atno 10764 bound_to 10752
  154.7772  135.3257  154.8016 H   0  0  0  0  0  0  0  0  0  0  0  0  # atno 10765 bound_to 10752
  140.4493  134.6358  157.4794 H   0  0  0  0  0  0  0  0  0  0  0  0  # atno 11005 bound_to 11000
  145.9471  140.8936  143.0278 LP  0  0  0  0  0  0  0  0  0  0  0  0  # atno 17320 bound_to 7965
  144.6734  140.1628  143.7421 LP  0  0  0  0  0  0  0  0  0  0  0  0  # atno 17321 bound_to 7965
  140.5166  144.0943  150.6010 LP  0  0  0  0  0  0  0  0  0  0  0  0  # atno 17342 bound_to 10162
  140.3887  143.2764  152.0085 LP  0  0  0  0  0  0  0  0  0  0  0  0  # atno 17343 bound_to 10162
  156.1967  130.3658  149.8840 LP  0  0  0  0  0  0  0  0  0  0  0  0  # atno 17370 bound_to 10713
  156.6754  130.8837  151.3568 LP  0  0  0  0  0  0  0  0  0  0  0  0  # atno 17371 bound_to 10713
  140.0018  134.6825  155.9519 LP  0  0  0  0  0  0  0  0  0  0  0  0  # atno 17394 bound_to 11000
  141.1671  133.6537  156.4519 LP  0  0  0  0  0  0  0  0  0  0  0  0  # atno 17395 bound_to 11000

$$$$
