AV-unprocessed.smi:1|AV-procd|sdf|14|dock9
  -GOLD-   2262015113D 1   1.00000     0.00000
 Structure written by MMmdl.
 57 62  0  0  0  0  0  0  0  0  1 V2000
  150.1129  142.3424  156.3953 O   0  0  0  0  0  0  0  0  0  0  0  0
  151.1674  142.0402  156.9606 C   0  0  0  0  0  0  0  0  0  0  0  0
  152.0254  140.9810  156.6945 N   0  0  0  0  0  0  0  0  0  0  0  0
  152.2737  140.6359  155.4673 C   0  0  0  0  0  0  0  0  0  0  0  0
  151.8243  141.1301  154.2361 N   0  0  0  0  0  0  0  0  0  0  0  0
  152.1699  140.6282  152.9726 C   0  0  0  0  0  0  0  0  0  0  0  0
  152.9750  139.6214  152.7646 N   0  0  0  0  0  0  0  0  0  0  0  0
  153.4626  139.0981  153.9552 C   0  0  0  0  0  0  0  0  0  0  0  0
  153.1954  139.5007  155.2467 C   0  0  0  0  0  0  0  0  0  0  0  0
  153.8851  138.7158  156.1645 N   0  0  0  0  0  0  0  0  0  0  0  0
  154.5467  137.8681  155.3823 C   0  0  0  0  0  0  0  0  0  0  0  0
  154.3536  138.0291  154.0602 N   0  0  0  0  0  0  0  0  0  0  0  0
  154.9904  137.2130  152.9778 C   0  0  1  0  0  0  0  0  0  0  0  0
  155.9308  136.3636  153.5582 O   0  0  0  0  0  0  0  0  0  0  0  0
  155.9648  135.1401  152.8413 C   0  0  1  0  0  0  0  0  0  0  0  0
  156.5763  134.0248  153.6988 C   0  0  0  0  0  0  0  0  0  0  0  0
  156.4311  134.3543  155.0711 O   0  0  0  0  0  0  0  0  0  0  0  0
  156.8118  133.4777  156.0214 C   0  0  0  0  0  0  0  0  0  0  0  0
  157.4015  132.4223  155.7804 O   0  0  0  0  0  0  0  0  0  0  0  0
  156.4490  133.9216  157.3982 C   0  0  0  0  0  0  0  0  0  0  0  0
  155.6880  135.1019  157.5675 C   0  0  0  0  0  0  0  0  0  0  0  0
  155.3282  135.5453  158.8550 C   0  0  0  0  0  0  0  0  0  0  0  0
  155.7274  134.8150  159.9894 C   0  0  0  0  0  0  0  0  0  0  0  0
  156.4866  133.6404  159.8345 C   0  0  0  0  0  0  0  0  0  0  0  0
  156.8453  133.1942  158.5475 C   0  0  0  0  0  0  0  0  0  0  0  0
  154.5109  134.9175  152.4215 C   0  0  1  0  0  0  0  0  0  0  0  0
  153.7546  134.2924  153.4441 O   0  0  0  0  0  0  0  0  0  0  0  0
  152.2442  134.9993  153.4702 S   0  0  0  0  0  0  0  0  0  0  0  0
  151.3733  134.2481  152.5531 O   0  0  0  0  0  0  0  0  0  0  0  0
  151.8714  135.2700  154.8667 O   0  0  0  0  0  0  0  0  0  0  0  0
  152.6482  136.4425  152.7321 O   0  0  0  0  0  0  0  0  0  0  0  0
  153.9698  136.3413  152.2163 C   0  0  1  0  0  0  0  0  0  0  0  0
  151.6292  142.9054  158.0874 C   0  0  0  0  0  0  0  0  0  0  0  0
  150.7706  143.8905  158.6201 C   0  0  0  0  0  0  0  0  0  0  0  0
  151.2033  144.7031  159.6861 C   0  0  0  0  0  0  0  0  0  0  0  0
  152.4936  144.5317  160.2242 C   0  0  0  0  0  0  0  0  0  0  0  0
  153.3514  143.5468  159.6970 C   0  0  0  0  0  0  0  0  0  0  0  0
  152.9203  142.7338  158.6305 C   0  0  0  0  0  0  0  0  0  0  0  0
  151.7014  141.1570  152.1414 H   0  0  0  0  0  0  0  0  0  0  0  0
  155.1990  137.1065  155.7837 H   0  0  0  0  0  0  0  0  0  0  0  0
  155.4875  137.9399  152.3341 H   0  0  0  0  0  0  0  0  0  0  0  0
  156.5754  135.3007  151.9511 H   0  0  0  0  0  0  0  0  0  0  0  0
  156.0676  133.0802  153.5038 H   0  0  0  0  0  0  0  0  0  0  0  0
  157.6273  133.8864  153.4403 H   0  0  0  0  0  0  0  0  0  0  0  0
  155.3698  135.6793  156.7113 H   0  0  0  0  0  0  0  0  0  0  0  0
  154.7451  136.4470  158.9715 H   0  0  0  0  0  0  0  0  0  0  0  0
  155.4518  135.1556  160.9767 H   0  0  0  0  0  0  0  0  0  0  0  0
  156.7947  133.0798  160.7047 H   0  0  0  0  0  0  0  0  0  0  0  0
  157.4289  132.2890  158.4645 H   0  0  0  0  0  0  0  0  0  0  0  0
  154.4361  134.3141  151.5162 H   0  0  0  0  0  0  0  0  0  0  0  0
  153.9890  136.6235  151.1632 H   0  0  0  0  0  0  0  0  0  0  0  0
  149.7783  144.0259  158.2142 H   0  0  0  0  0  0  0  0  0  0  0  0
  150.5448  145.4567  160.0923 H   0  0  0  0  0  0  0  0  0  0  0  0
  152.8241  145.1549  161.0421 H   0  0  0  0  0  0  0  0  0  0  0  0
  154.3402  143.4143  160.1110 H   0  0  0  0  0  0  0  0  0  0  0  0
  153.5835  141.9792  158.2326 H   0  0  0  0  0  0  0  0  0  0  0  0
  151.1896  141.9152  154.2619 H   0  0  0  0  0  0  0  0  0  0  0  0
  1  2  2  0  0  0  0
  2  3  1  0  0  0  0
  2 33  1  0  0  0  0
  3  4  2  0  0  0  0
  4  9  1  0  0  0  0
  4  5  1  0  0  0  0
  5  6  1  0  0  0  0
  5 57  1  0  0  0  0
  6  7  2  0  0  0  0
  6 39  1  0  0  0  0
  7  8  1  0  0  0  0
  8 12  1  0  0  0  0
  8  9  2  0  0  0  0
  9 10  1  0  0  0  0
 10 11  2  0  0  0  0
 11 12  1  0  0  0  0
 11 40  1  0  0  0  0
 12 13  1  0  0  0  0
 13 32  1  0  0  0  0
 13 14  1  0  0  0  0
 13 41  1  0  0  0  0
 14 15  1  0  0  0  0
 15 16  1  0  0  0  0
 15 26  1  0  0  0  0
 15 42  1  0  0  0  0
 16 17  1  0  0  0  0
 16 43  1  0  0  0  0
 16 44  1  0  0  0  0
 17 18  1  0  0  0  0
 18 19  2  0  0  0  0
 18 20  1  0  0  0  0
 20 25  1  0  0  0  0
 20 21  2  0  0  0  0
 21 22  1  0  0  0  0
 21 45  1  0  0  0  0
 22 23  2  0  0  0  0
 22 46  1  0  0  0  0
 23 24  1  0  0  0  0
 23 47  1  0  0  0  0
 24 25  2  0  0  0  0
 24 48  1  0  0  0  0
 25 49  1  0  0  0  0
 26 32  1  0  0  0  0
 26 27  1  0  0  0  0
 26 50  1  0  0  0  0
 27 28  1  0  0  0  0
 28 29  2  0  0  0  0
 28 30  2  0  0  0  0
 28 31  1  0  0  0  0
 31 32  1  0  0  0  0
 32 51  1  0  0  0  0
 33 38  1  0  0  0  0
 33 34  2  0  0  0  0
 34 35  1  0  0  0  0
 34 52  1  0  0  0  0
 35 36  2  0  0  0  0
 35 53  1  0  0  0  0
 36 37  1  0  0  0  0
 36 54  1  0  0  0  0
 37 38  2  0  0  0  0
 37 55  1  0  0  0  0
 38 56  1  0  0  0  0
M  END
> <s_m_source_file>
AV-unprocessed.smi

> <i_m_source_file_index>
1

> <i_lp_mmshare_version>
43012

> <i_f3d_flags>
0

> <s_epik_input>
W2NIXTFbY0hdW2NIXVtjSF1bY0hdYzFDKD1PKVtOSF1jKG5bY0hdbjIpYyhjMjMpbltjSF1uM1tDQEBIXShbQ0BIXShbQ0BIXTQ1KU9TKE81KSg9Tyk9TylPW0NASF00W0NIMl1PQyg9TyljNltjSF1bY0hdW2NIXVtjSF1bY0hdNg==

> <s_epik_cmdline>
J2VwaWtfcHl0aG9uJywgJy1waCcsICc3LjAnLCAnLXRuJywgJzgnLCAnLW1hJywgJzIwMCcsICctbWV0YWxfYmluZGluZycsICctaW1hZScsICc8aW5maWxlLm1hZT4nLCAnLW9tYWUnLCAnPG91dGZpbGUubWFlPic=

> <r_epik_Ionization_Penalty>
0.122545

> <r_epik_Ionization_Penalty_Charging>
0.122545

> <r_epik_Ionization_Penalty_Neutral>
7.8935e-16

> <r_epik_State_Penalty>
2.69178

> <r_epik_Charging_Adjusted_Penalty>
2.81433

> <i_epik_Tot_Q>
0

> <i_epik_Tot_abs_Q>
0

> <r_epik_Metal_State_Penalty>
3.02665

> <b_epik_Metal_Only>
0

> <s_epik_Chemistry_Notes>
This compound has an ester and may undergo hydrolysis at high or low pH. This compound contains an acetal/aminal-like group ( X-CH(R)-Y where X, Y are N, S, or O) that may be acid/base labile, releasing an aldehyde.

> <s_lp_Force_Field>
OPLS_2005

> <r_lp_Energy>
60.6373

> <b_lp_Chiralities_Consistent>
1

> <s_lp_Variant>
AV-unprocessed.smi:1-14

> <Gold.Version>
5.8.1

> <Gold.Id.Protein>
6NUR|6NUR_protein|mol2

> <Gold.PLP.Fitness>
59.7031

> <Gold.PLP.PLP>
-55.9820

> <Gold.PLP.part.hbond>
-3.6380

> <Gold.PLP.part.metal>
0.0000

> <Gold.PLP.part.buried>
-5.8733

> <Gold.PLP.part.nonpolar>
-49.7300

> <Gold.PLP.part.repulsive>
1.9457

> <Gold.PLP.ligand.clash>
0.0000

> <Gold.PLP.ligand.torsion>
0.9895

> <Gold.PLP.Chemscore.Hbond>
1.8640

> <Gold.PLP.Chemscore.CHOScore>
0.0000

> <Gold.PLP.Chemscore.Metal>
0.0000

> <Gold.Chemscore.Hbonds>
donor molecule, donor type, donor heavy atom, donor atom, acceptor molecule, acceptor atom, score
      L1  C     6    39       P1  7957  0.54

> <Gold.PLP.Chemscore.Internal.Correction>
0.1081

> <Gold.Rescore>
     Score         DG    S(hbond)    S(metal)    S(lipo)     H(rot)  DE(clash)    DE(int)     intcor
     18.20     -21.03       1.82        0.00     127.50       2.13       0.32       2.50       ----

> <Gold.Chemscore.Fitness>
18.1994

> <Gold.Chemscore.DG>
-21.0270

> <Gold.Chemscore.ZeroCoef>
-5.4800

> <Gold.Chemscore.Hbond>
1.8238

> <Gold.Chemscore.Metal>
0.0000

> <Gold.Chemscore.Lipo>
127.4950

> <Gold.Chemscore.Internal_Hbond>
0.0000

> <Gold.Chemscore.DEClash>
0.3229

> <Gold.Chemscore.DEInternal>
2.5047

> <Gold.Chemscore.Rot>
2.1333

> <Gold.Chemscore.Internal.Correction>
   9.000000E+99

> <Gold.Chemscore.Hbond.Weighted>
-6.0914

> <Gold.Chemscore.Metal.Weighted>
-0.0000

> <Gold.Chemscore.Lipo.Weighted>
-14.9169

> <Gold.Chemscore.Internal_Hbond.Weighted>
0.0000

> <Gold.Chemscore.DEClash.Weighted>
0.3229

> <Gold.Chemscore.DEInternal.Weighted>
2.5047

> <Gold.Chemscore.Rot.Weighted>
5.4614

> <Gold.Chemscore.Internal.Correction.Weighted>
   9.000000E+99

> <Gold.Protein.RotatedTorsions>
[ 6907 6896 6895 6894 ] final  108.15 input  -60.11 | X-H torsion
[ 7974 7965 7964 7962 ] final    6.34 input  175.53 | X-H torsion
[ 8008 7997 7996 7995 ] final -127.56 input   59.86 | X-H torsion
[ 10167 10162 10161 10158 ] final  126.62 input  -65.29 | X-H torsion
[ 10718 10713 10712 10709 ] final  120.71 input   66.30 | X-H torsion
[ 10763 10752 10751 10750 ] final  173.93 input  -60.55 | X-H torsion
[ 11005 11000 10999 10996 ] final  129.39 input  -57.11 | X-H torsion

> <Gold.Protein.ActiveResidues>
 VAL166  LYS551  ARG553  GLY616  TRP617  ASP618  TYR619  PRO620  LYS621  CYS622 
 ASP623  PHE694  ASN695  SER759  ASP760  ASP761  ALA762  ILE779  LEU786  VAL792 
 PHE793  MET794  SER795  GLU796  ALA797  LYS798  CYS799  TRP800  GLU811  SER814 

> <Gold.Protein.RotatedAtoms>
  152.5124  133.9131  159.7497 H   0  0  0  0  0  0  0  0  0  0  0  0  # atno 6907 bound_to 6896
  150.9520  133.6531  159.2777 H   0  0  0  0  0  0  0  0  0  0  0  0  # atno 6908 bound_to 6896
  151.3806  135.0944  159.9547 H   0  0  0  0  0  0  0  0  0  0  0  0  # atno 6909 bound_to 6896
  146.2435  140.0248  142.8395 H   0  0  0  0  0  0  0  0  0  0  0  0  # atno 7974 bound_to 7965
  155.2483  140.0431  157.2983 H   0  0  0  0  0  0  0  0  0  0  0  0  # atno 8008 bound_to 7997
  154.5785  140.2394  155.8057 H   0  0  0  0  0  0  0  0  0  0  0  0  # atno 8009 bound_to 7997
  156.2176  140.2980  155.9883 H   0  0  0  0  0  0  0  0  0  0  0  0  # atno 8010 bound_to 7997
  139.5621  144.6888  151.4012 H   0  0  0  0  0  0  0  0  0  0  0  0  # atno 10167 bound_to 10162
  157.5871  131.1068  150.8072 H   0  0  0  0  0  0  0  0  0  0  0  0  # atno 10718 bound_to 10713
  154.4469  135.2763  155.1808 H   0  0  0  0  0  0  0  0  0  0  0  0  # atno 10763 bound_to 10752
  154.3651  135.6121  153.5714 H   0  0  0  0  0  0  0  0  0  0  0  0  # atno 10764 bound_to 10752
  152.9844  135.5844  154.4807 H   0  0  0  0  0  0  0  0  0  0  0  0  # atno 10765 bound_to 10752
  139.9613  134.9601  156.9141 H   0  0  0  0  0  0  0  0  0  0  0  0  # atno 11005 bound_to 11000
  145.1208  140.9461  143.4601 LP  0  0  0  0  0  0  0  0  0  0  0  0  # atno 17320 bound_to 7965
  145.0483  139.3203  143.5941 LP  0  0  0  0  0  0  0  0  0  0  0  0  # atno 17321 bound_to 7965
  140.6902  143.7879  150.7244 LP  0  0  0  0  0  0  0  0  0  0  0  0  # atno 17342 bound_to 10162
  140.1359  143.4484  152.2225 LP  0  0  0  0  0  0  0  0  0  0  0  0  # atno 17343 bound_to 10162
  156.8504  130.5078  149.5312 LP  0  0  0  0  0  0  0  0  0  0  0  0  # atno 17370 bound_to 10713
  156.0921  130.5904  150.9751 LP  0  0  0  0  0  0  0  0  0  0  0  0  # atno 17371 bound_to 10713
  140.5495  134.0641  155.7365 LP  0  0  0  0  0  0  0  0  0  0  0  0  # atno 17394 bound_to 11000
  141.1290  133.9334  157.2575 LP  0  0  0  0  0  0  0  0  0  0  0  0  # atno 17395 bound_to 11000

$$$$
