#       Name:                AV-unprocessed.smi:2881
#       Creating user name   scv26
#       Creation time:       Fri Mar 27 15:53:04 2020


#       File generated by GOLD software.
#

@<TRIPOS>MOLECULE
AV-unprocessed.smi:2881
    45    47     1
SMALL
NO_CHARGES


@<TRIPOS>ATOM
      1 ****        -3.4726   4.5176   2.4225 C.3            1 S1                 0.0000
      2 ****        -3.1895   3.1697   1.8514 C.2            1 S1                 0.0000
      3 ****        -2.7363   2.0190   2.4320 C.2            1 S1                 0.0000
      4 ****        -2.6664   1.0837   1.3571 C.2            1 S1                 0.0000
      5 ****        -2.2214  -0.3529   1.4087 C.3            1 S1                 0.0000
      6 ****        -0.6977  -0.4283   1.3130 C.2            1 S1                 0.0000
      7 ****        -0.0142  -0.4227   2.3367 O.2            1 S1                 0.0000
      8 ****        -0.1799  -0.4967   0.0766 N.am           1 S1                 0.0000
      9 ****         1.2468  -0.5062  -0.2477 C.3            1 S1                 0.0000
     10 ****         1.4706   0.0737  -1.6611 C.3            1 S1                 0.0000
     11 ****         2.9600   0.4235  -1.8330 C.3            1 S1                 0.0000
     12 ****         3.6199  -0.9651  -1.9317 C.3            1 S1                 0.0000
     13 ****         2.4202  -1.9253  -1.8060 C.3            1 S1                 0.0000
     14 ****         1.3369  -1.1560  -2.5513 C.3            1 S1                 0.0000
     15 ****         1.9052  -1.9167  -0.3453 C.3            1 S1                 0.0000
     16 ****         0.9979  -3.1224  -0.0106 C.3            1 S1                 0.0000
     17 ****         1.7381  -4.3245  -0.0559 O.3            1 S1                 0.0000
     18 ****        -3.0531   1.6117   0.2034 N.2            1 S1                 0.0000
     19 ****        -3.3669   2.8824   0.5174 N.pl3          1 S1                 0.0000
     20 ****        -3.6963   3.5347  -0.1800 H              1 S1                 0.0000
     21 ****        -3.3658   4.5110   3.5075 H              1 S1                 0.0000
     22 ****        -4.4887   4.8344   2.1866 H              1 S1                 0.0000
     23 ****        -2.7829   5.2606   2.0211 H              1 S1                 0.0000
     24 ****        -2.4848   1.8663   3.4712 H              1 S1                 0.0000
     25 ****        -2.5459  -0.8168   2.3408 H              1 S1                 0.0000
     26 ****        -2.6721  -0.9336   0.6021 H              1 S1                 0.0000
     27 ****        -0.8216  -0.4969  -0.7033 H              1 S1                 0.0000
     28 ****         1.7735   0.1081   0.4854 H              1 S1                 0.0000
     29 ****         0.8046   0.9001  -1.9133 H              1 S1                 0.0000
     30 ****         3.1221   0.9898  -2.7509 H              1 S1                 0.0000
     31 ****         3.3497   1.0136  -1.0029 H              1 S1                 0.0000
     32 ****         4.1135  -1.0854  -2.8968 H              1 S1                 0.0000
     33 ****         4.3670  -1.1282  -1.1542 H              1 S1                 0.0000
     34 ****         2.6280  -2.9199  -2.2017 H              1 S1                 0.0000
     35 ****         0.3533  -1.6252  -2.5011 H              1 S1                 0.0000
     36 ****         1.5842  -0.9624  -3.5965 H              1 S1                 0.0000
     37 ****         2.7540  -1.9533   0.3397 H              1 S1                 0.0000
     38 ****         0.5902  -3.0267   0.9956 H              1 S1                 0.0000
     39 ****         0.1560  -3.1949  -0.6991 H              1 S1                 0.0000
     40 ****         1.1643  -5.0395   0.1738 H              1 S1                 0.0000
     41 ****        -0.4556  -0.3688   3.2324 LP             1 S1                 0.0000
     42 ****         0.9825  -0.4721   2.2727 LP             1 S1                 0.0000
     43 ****         2.4963  -4.2783   0.5945 LP             1 S1                 0.0000
     44 ****         2.0982  -4.4642  -0.9783 LP             1 S1                 0.0000
     45 ****        -3.1005   1.1686  -0.6918 LP             1 S1                 0.0000
@<TRIPOS>BOND
    1    1    2 1     
    2    1   21 1     
    3    1   22 1     
    4    1   23 1     
    5    2   19 1     
    6    2    3 2     
    7    3    4 1     
    8    3   24 1     
    9    4    5 1     
   10    4   18 2     
   11    5    6 1     
   12    5   25 1     
   13    5   26 1     
   14    6    7 2     
   15    6    8 am    
   16    8    9 1     
   17    8   27 1     
   18    9   15 1     
   19    9   10 1     
   20    9   28 1     
   21   10   14 1     
   22   10   11 1     
   23   10   29 1     
   24   11   12 1     
   25   11   30 1     
   26   11   31 1     
   27   12   13 1     
   28   12   32 1     
   29   12   33 1     
   30   13   14 1     
   31   13   15 1     
   32   13   34 1     
   33   14   35 1     
   34   14   36 1     
   35   15   16 1     
   36   15   37 1     
   37   16   17 1     
   38   16   38 1     
   39   16   39 1     
   40   17   40 1     
   41   18   19 1     
   42   19   20 1     
   43    7   41 1     
   44    7   42 1     
   45   17   43 1     
   46   17   44 1     
   47   18   45 1     
@<TRIPOS>SUBSTRUCTURE
      1 S1             1
@<TRIPOS>SET
LONE_PAIRS      STATIC     ATOMS    <user>   **** ""
5 41 42 43 44 45
DONOR_HYDROGENS      STATIC     ATOMS    <user>   **** ""
3 27 40 20
ATOM$BLUE        STATIC     ATOMS    COLORGROUP SYSTEM
5 41 42 43 44 45
ATOM$RED        STATIC     ATOMS    COLORGROUP SYSTEM
3 27 40 20
