AV-unprocessed.smi:259|AV-procd|sdf|1974|dock6
  -GOLD-   2262021143D 1   1.00000     0.00000
 Structure written by MMmdl.
 54 57  0  0  0  0  0  0  0  0  1 V2000
  153.4895  141.4054  160.0443 C   0  0  0  0  0  0  0  0  0  0  0  0
  152.5058  141.8334  159.0616 N   0  0  0  0  0  0  0  0  0  0  0  0
  152.1437  141.1100  157.9922 C   0  0  0  0  0  0  0  0  0  0  0  0
  152.6171  140.0008  157.7440 O   0  0  0  0  0  0  0  0  0  0  0  0
  151.0770  141.7327  157.0757 C   0  0  0  0  0  0  0  0  0  0  0  0
  150.4676  140.7951  155.9964 C   0  0  2  0  0  0  0  0  0  0  0  0
  151.5379  140.1995  155.2820 O   0  0  0  0  0  0  0  0  0  0  0  0
  149.5252  141.5472  155.0213 C   0  0  0  0  0  0  0  0  0  0  0  0
  148.7658  140.5895  154.0902 C   0  0  0  0  0  0  0  0  0  0  0  0
  148.0293  139.5097  154.8922 C   0  0  0  0  0  0  0  0  0  0  0  0
  148.9637  138.8047  155.7665 N   0  0  0  0  0  0  0  0  0  0  0  0
  148.5947  137.5926  156.2521 C   0  0  0  0  0  0  0  0  0  0  0  0
  148.1975  136.6121  155.3970 N   0  0  0  0  0  0  0  0  0  0  0  0
  147.8177  135.4201  155.8661 C   0  0  0  0  0  0  0  0  0  0  0  0
  147.7615  135.0003  157.1315 N   0  0  0  0  0  0  0  0  0  0  0  0
  148.1679  135.9752  157.9942 C   0  0  0  0  0  0  0  0  0  0  0  0
  148.5979  137.2858  157.6426 C   0  0  0  0  0  0  0  0  0  0  0  0
  148.9458  137.9907  158.7888 N   0  0  0  0  0  0  0  0  0  0  0  0
  148.7223  137.1507  159.7617 C   0  0  0  0  0  0  0  0  0  0  0  0
  148.2606  135.9130  159.3744 N   0  0  0  0  0  0  0  0  0  0  0  0
  147.9288  134.7942  160.2436 C   0  0  0  0  0  0  0  0  0  0  0  0
  147.0585  135.1798  161.4541 C   0  0  0  0  0  0  0  0  0  0  0  0
  146.4541  133.8950  162.0561 C   0  0  0  0  0  0  0  0  0  0  0  0
  145.4798  134.1660  163.0442 O   0  0  0  0  0  0  0  0  0  0  0  0
  147.6850  136.1624  162.4541 C   0  0  0  0  0  0  0  0  0  0  0  0
  146.5780  137.0830  162.3361 O   0  0  0  0  0  0  0  0  0  0  0  0
  146.0823  136.3380  161.2019 C   0  0  0  0  0  0  0  0  0  0  0  0
  149.7145  139.6425  156.7032 C   0  0  0  0  0  0  0  0  0  0  0  0
  153.6066  142.1713  160.8109 H   0  0  0  0  0  0  0  0  0  0  0  0
  154.4606  141.2405  159.5757 H   0  0  0  0  0  0  0  0  0  0  0  0
  153.1753  140.4811  160.5306 H   0  0  0  0  0  0  0  0  0  0  0  0
  152.0706  142.7334  159.2045 H   0  0  0  0  0  0  0  0  0  0  0  0
  150.2844  142.1319  157.7100 H   0  0  0  0  0  0  0  0  0  0  0  0
  151.5195  142.5970  156.5775 H   0  0  0  0  0  0  0  0  0  0  0  0
  152.3072  140.2104  155.8318 H   0  0  0  0  0  0  0  0  0  0  0  0
  148.7992  142.1224  155.5974 H   0  0  0  0  0  0  0  0  0  0  0  0
  150.0782  142.2690  154.4197 H   0  0  0  0  0  0  0  0  0  0  0  0
  148.0571  141.1472  153.4778 H   0  0  0  0  0  0  0  0  0  0  0  0
  149.4654  140.1171  153.3995 H   0  0  0  0  0  0  0  0  0  0  0  0
  147.2385  139.9600  155.4940 H   0  0  0  0  0  0  0  0  0  0  0  0
  147.5546  138.8101  154.2027 H   0  0  0  0  0  0  0  0  0  0  0  0
  147.5149  134.6996  155.1206 H   0  0  0  0  0  0  0  0  0  0  0  0
  148.8912  137.4155  160.7951 H   0  0  0  0  0  0  0  0  0  0  0  0
  147.4237  134.0443  159.6336 H   0  0  0  0  0  0  0  0  0  0  0  0
  148.8565  134.3258  160.5743 H   0  0  0  0  0  0  0  0  0  0  0  0
  145.9885  133.2859  161.2808 H   0  0  0  0  0  0  0  0  0  0  0  0
  147.2228  133.2797  162.5240 H   0  0  0  0  0  0  0  0  0  0  0  0
  145.7886  134.8779  163.5840 H   0  0  0  0  0  0  0  0  0  0  0  0
  147.7945  135.7647  163.4637 H   0  0  0  0  0  0  0  0  0  0  0  0
  148.6169  136.6139  162.1127 H   0  0  0  0  0  0  0  0  0  0  0  0
  146.2571  136.8689  160.2648 H   0  0  0  0  0  0  0  0  0  0  0  0
  145.0295  136.0717  161.3012 H   0  0  0  0  0  0  0  0  0  0  0  0
  150.4148  139.0564  157.2973 H   0  0  0  0  0  0  0  0  0  0  0  0
  148.9956  140.0589  157.4103 H   0  0  0  0  0  0  0  0  0  0  0  0
  1  2  1  0  0  0  0
  1 29  1  0  0  0  0
  1 30  1  0  0  0  0
  1 31  1  0  0  0  0
  2  3  1  0  0  0  0
  2 32  1  0  0  0  0
  3  4  2  0  0  0  0
  3  5  1  0  0  0  0
  5  6  1  0  0  0  0
  5 33  1  0  0  0  0
  5 34  1  0  0  0  0
  6 28  1  0  0  0  0
  6  7  1  0  0  0  0
  6  8  1  0  0  0  0
  7 35  1  0  0  0  0
  8  9  1  0  0  0  0
  8 36  1  0  0  0  0
  8 37  1  0  0  0  0
  9 10  1  0  0  0  0
  9 38  1  0  0  0  0
  9 39  1  0  0  0  0
 10 11  1  0  0  0  0
 10 40  1  0  0  0  0
 10 41  1  0  0  0  0
 11 12  1  0  0  0  0
 11 28  1  0  0  0  0
 12 17  1  0  0  0  0
 12 13  2  0  0  0  0
 13 14  1  0  0  0  0
 14 15  2  0  0  0  0
 14 42  1  0  0  0  0
 15 16  1  0  0  0  0
 16 20  1  0  0  0  0
 16 17  2  0  0  0  0
 17 18  1  0  0  0  0
 18 19  2  0  0  0  0
 19 20  1  0  0  0  0
 19 43  1  0  0  0  0
 20 21  1  0  0  0  0
 21 22  1  0  0  0  0
 21 44  1  0  0  0  0
 21 45  1  0  0  0  0
 22 27  1  0  0  0  0
 22 23  1  0  0  0  0
 22 25  1  0  0  0  0
 23 24  1  0  0  0  0
 23 46  1  0  0  0  0
 23 47  1  0  0  0  0
 24 48  1  0  0  0  0
 25 26  1  0  0  0  0
 25 49  1  0  0  0  0
 25 50  1  0  0  0  0
 26 27  1  0  0  0  0
 27 51  1  0  0  0  0
 27 52  1  0  0  0  0
 28 53  1  0  0  0  0
 28 54  1  0  0  0  0
M  END
> <s_m_source_file>
AV-unprocessed.smi

> <i_m_source_file_index>
259

> <i_lp_mmshare_version>
43012

> <i_f3d_flags>
0

> <s_epik_input>
W0NIM11bTkhdQyg9TylbQ0gyXVtDQEBdMShbT0hdKVtDSDJdW0NIMl1bQ0gyXU4oW0NIMl0xKWMobltjSF1uMiljKGMyMyluW2NIXW4zW0NIMl1DNChbQ0gyXVtPSF0pW0NIMl1PW0NIMl00

> <s_epik_cmdline>
J2VwaWtfcHl0aG9uJywgJy1waCcsICc3LjAnLCAnLXRuJywgJzgnLCAnLW1hJywgJzIwMCcsICctbWV0YWxfYmluZGluZycsICctaW1hZScsICc8aW5maWxlLm1hZT4nLCAnLW9tYWUnLCAnPG91dGZpbGUubWFlPic=

> <r_lp_tautomer_probability>
1

> <r_epik_Ionization_Penalty>
0.00366363

> <r_epik_Ionization_Penalty_Charging>
0

> <r_epik_Ionization_Penalty_Neutral>
0.00366363

> <r_epik_State_Penalty>
0.00243014

> <r_epik_Charging_Adjusted_Penalty>
0.00243014

> <i_epik_Tot_Q>
0

> <i_epik_Tot_abs_Q>
0

> <r_epik_Metal_State_Penalty>
-0

> <b_epik_Metal_Only>
0

> <s_lp_Force_Field>
OPLS_2005

> <r_lp_Energy>
39.9433

> <b_lp_Chiralities_Consistent>
1

> <s_lp_Variant>
AV-unprocessed.smi:259-2

> <Gold.Version>
5.8.1

> <Gold.Id.Protein>
6NUR|6NUR_protein|mol2

> <Gold.PLP.Fitness>
42.9866

> <Gold.PLP.PLP>
-38.0357

> <Gold.PLP.part.hbond>
-3.2622

> <Gold.PLP.part.metal>
0.0000

> <Gold.PLP.part.buried>
-5.1327

> <Gold.PLP.part.nonpolar>
-29.5100

> <Gold.PLP.part.repulsive>
0.1764

> <Gold.PLP.ligand.clash>
0.0000

> <Gold.PLP.ligand.torsion>
0.8871

> <Gold.PLP.Chemscore.Hbond>
1.9760

> <Gold.PLP.Chemscore.CHOScore>
0.0000

> <Gold.PLP.Chemscore.Metal>
0.0000

> <Gold.Chemscore.Hbonds>
donor molecule, donor type, donor heavy atom, donor atom, acceptor molecule, acceptor atom, score
      P1  H  7989  7998       L1     7  0.96
      P1  H  7997  8008       L1     4  0.94

> <Gold.PLP.Chemscore.Internal.Correction>
0.7972

> <Gold.Rescore>
     Score         DG    S(hbond)    S(metal)    S(lipo)     H(rot)  DE(clash)    DE(int)     intcor
      7.98     -10.47       1.84        0.00      79.60       4.09       0.03       2.46       ----

> <Gold.Chemscore.Fitness>
7.9786

> <Gold.Chemscore.DG>
-10.4664

> <Gold.Chemscore.ZeroCoef>
-5.4800

> <Gold.Chemscore.Hbond>
1.8398

> <Gold.Chemscore.Metal>
0.0000

> <Gold.Chemscore.Lipo>
79.6024

> <Gold.Chemscore.Internal_Hbond>
0.0000

> <Gold.Chemscore.DEClash>
0.0306

> <Gold.Chemscore.DEInternal>
2.4572

> <Gold.Chemscore.Rot>
4.0906

> <Gold.Chemscore.Internal.Correction>
   9.000000E+99

> <Gold.Chemscore.Hbonds>
donor molecule, donor type, donor heavy atom, donor atom, acceptor molecule, acceptor atom, score
      P1  H  7989  7998       L1     7  0.73
      P1  H  7997  8008       L1     4  0.75

> <Gold.Chemscore.Hbond.Weighted>
-6.1449

> <Gold.Chemscore.Metal.Weighted>
-0.0000

> <Gold.Chemscore.Lipo.Weighted>
-9.3135

> <Gold.Chemscore.Internal_Hbond.Weighted>
0.0000

> <Gold.Chemscore.DEClash.Weighted>
0.0306

> <Gold.Chemscore.DEInternal.Weighted>
2.4572

> <Gold.Chemscore.Rot.Weighted>
10.4719

> <Gold.Chemscore.Internal.Correction.Weighted>
   9.000000E+99

> <Gold.Protein.RotatedTorsions>
[ 6907 6896 6895 6894 ] final -162.67 input  -60.11 | X-H torsion
[ 7974 7965 7964 7962 ] final   44.40 input  175.53 | X-H torsion
[ 8008 7997 7996 7995 ] final  -65.28 input   59.86 | X-H torsion
[ 10167 10162 10161 10158 ] final  153.63 input  -65.29 | X-H torsion
[ 10718 10713 10712 10709 ] final   31.29 input   66.30 | X-H torsion
[ 10763 10752 10751 10750 ] final  174.05 input  -60.55 | X-H torsion
[ 11005 11000 10999 10996 ] final  162.63 input  -57.11 | X-H torsion

> <Gold.Protein.ActiveResidues>
 VAL166  LYS551  ARG553  GLY616  TRP617  ASP618  TYR619  PRO620  LYS621  CYS622 
 ASP623  PHE694  ASN695  SER759  ASP760  ASP761  ALA762  ILE779  LEU786  VAL792 
 PHE793  MET794  SER795  GLU796  ALA797  LYS798  CYS799  TRP800  GLU811  SER814 

> <Gold.Protein.RotatedAtoms>
  151.3840  133.3811  159.2713 H   0  0  0  0  0  0  0  0  0  0  0  0  # atno 6907 bound_to 6896
  150.9555  134.8951  159.7709 H   0  0  0  0  0  0  0  0  0  0  0  0  # atno 6908 bound_to 6896
  152.5129  134.3797  159.9399 H   0  0  0  0  0  0  0  0  0  0  0  0  # atno 6909 bound_to 6896
  146.0571  139.5078  142.9681 H   0  0  0  0  0  0  0  0  0  0  0  0  # atno 7974 bound_to 7965
  154.4662  140.0936  156.7026 H   0  0  0  0  0  0  0  0  0  0  0  0  # atno 8008 bound_to 7997
  155.4852  140.3469  155.4328 H   0  0  0  0  0  0  0  0  0  0  0  0  # atno 8009 bound_to 7997
  156.0960  140.1409  156.9519 H   0  0  0  0  0  0  0  0  0  0  0  0  # atno 8010 bound_to 7997
  139.4826  144.5256  151.7805 H   0  0  0  0  0  0  0  0  0  0  0  0  # atno 10167 bound_to 10162
  157.2706  130.7206  149.6502 H   0  0  0  0  0  0  0  0  0  0  0  0  # atno 10718 bound_to 10713
  154.4486  135.2764  155.1797 H   0  0  0  0  0  0  0  0  0  0  0  0  # atno 10763 bound_to 10752
  154.3634  135.6124  153.5706 H   0  0  0  0  0  0  0  0  0  0  0  0  # atno 10764 bound_to 10752
  152.9845  135.5840  154.4826 H   0  0  0  0  0  0  0  0  0  0  0  0  # atno 10765 bound_to 10752
  140.2276  134.8148  157.3285 H   0  0  0  0  0  0  0  0  0  0  0  0  # atno 11005 bound_to 11000
  145.6624  141.0237  143.1702 LP  0  0  0  0  0  0  0  0  0  0  0  0  # atno 17320 bound_to 7965
  144.7154  139.8216  143.7400 LP  0  0  0  0  0  0  0  0  0  0  0  0  # atno 17321 bound_to 7965
  140.4776  144.1496  150.5927 LP  0  0  0  0  0  0  0  0  0  0  0  0  # atno 17342 bound_to 10162
  140.4313  143.2567  151.9591 LP  0  0  0  0  0  0  0  0  0  0  0  0  # atno 17343 bound_to 10162
  155.9663  130.4369  150.5152 LP  0  0  0  0  0  0  0  0  0  0  0  0  # atno 17370 bound_to 10713
  157.3076  131.0657  151.2024 LP  0  0  0  0  0  0  0  0  0  0  0  0  # atno 17371 bound_to 10713
  140.1783  134.4521  155.7787 LP  0  0  0  0  0  0  0  0  0  0  0  0  # atno 17394 bound_to 11000
  141.2219  133.6972  156.7826 LP  0  0  0  0  0  0  0  0  0  0  0  0  # atno 17395 bound_to 11000

$$$$
