AV-unprocessed.smi:3149|AV-procd|sdf|12001|dock10
  -GOLD-   2272017403D 1   1.00000     0.00000
 Structure written by MMmdl.
 38 39  0  0  0  0  0  0  0  0  2 V2000
  151.0536  138.2744  154.1869 C   0  0  0  0  0  0  0  0  0  0  0  0
  149.6381  138.8899  154.2165 C   0  0  2  0  0  0  0  0  0  0  0  0
  148.8642  138.4541  153.0314 N   0  3  0  0  0  0  0  0  0  0  0  0
  147.4044  138.3349  153.2335 C   0  0  0  0  0  0  0  0  0  0  0  0
  146.7270  137.6476  152.0440 C   0  0  0  0  0  0  0  0  0  0  0  0
  146.8534  138.0980  150.9047 O   0  0  0  0  0  0  0  0  0  0  0  0
  145.8888  136.5650  152.3187 N   0  0  0  0  0  0  0  0  0  0  0  0
  145.7836  135.4319  151.4112 C   0  0  0  0  0  0  0  0  0  0  0  0
  145.4937  134.5960  152.6620 C   0  0  0  0  0  0  0  0  0  0  0  0
  146.0966  135.7325  153.4940 C   0  0  0  0  0  0  0  0  0  0  0  0
  149.6540  140.4407  154.2883 C   0  0  1  0  0  0  0  0  0  0  0  0
  148.2374  141.0475  154.2549 C   0  0  0  0  0  0  0  0  0  0  0  0
  150.3802  140.9327  155.4524 N   0  0  0  0  0  0  0  0  0  0  0  0
  149.9388  141.8000  156.4308 C   0  0  0  0  0  0  0  0  0  0  0  0
  150.9648  141.9759  157.3142 C   0  0  0  0  0  0  0  0  0  0  0  0
  152.0067  141.1618  156.7896 C   0  0  0  0  0  0  0  0  0  0  0  0
  151.6545  140.5383  155.6769 N   0  0  0  0  0  0  0  0  0  0  0  0
  151.6217  138.5214  155.0837 H   0  0  0  0  0  0  0  0  0  0  0  0
  151.6213  138.6315  153.3271 H   0  0  0  0  0  0  0  0  0  0  0  0
  151.0220  137.1866  154.1348 H   0  0  0  0  0  0  0  0  0  0  0  0
  149.1273  138.5210  155.1076 H   0  0  0  0  0  0  0  0  0  0  0  0
  149.0009  139.1455  152.3076 H   0  0  0  0  0  0  0  0  0  0  0  0
  147.2054  137.7694  154.1438 H   0  0  0  0  0  0  0  0  0  0  0  0
  146.9683  139.3268  153.3563 H   0  0  0  0  0  0  0  0  0  0  0  0
  144.9525  135.4993  150.7084 H   0  0  0  0  0  0  0  0  0  0  0  0
  146.7262  135.1670  150.9280 H   0  0  0  0  0  0  0  0  0  0  0  0
  144.4281  134.4447  152.8441 H   0  0  0  0  0  0  0  0  0  0  0  0
  146.0503  133.6596  152.7132 H   0  0  0  0  0  0  0  0  0  0  0  0
  147.1488  135.5732  153.7395 H   0  0  0  0  0  0  0  0  0  0  0  0
  145.5016  136.0286  154.3587 H   0  0  0  0  0  0  0  0  0  0  0  0
  150.1895  140.8106  153.4120 H   0  0  0  0  0  0  0  0  0  0  0  0
  147.7172  140.8042  153.3284 H   0  0  0  0  0  0  0  0  0  0  0  0
  148.2770  142.1350  154.3256 H   0  0  0  0  0  0  0  0  0  0  0  0
  147.6263  140.6846  155.0821 H   0  0  0  0  0  0  0  0  0  0  0  0
  148.9430  142.2182  156.4167 H   0  0  0  0  0  0  0  0  0  0  0  0
  150.9702  142.5918  158.2013 H   0  0  0  0  0  0  0  0  0  0  0  0
  153.0013  141.0067  157.1811 H   0  0  0  0  0  0  0  0  0  0  0  0
  149.2295  137.5730  152.6995 H   0  0  0  0  0  0  0  0  0  0  0  0
  1  2  1  0  0  0  0
  1 18  1  0  0  0  0
  1 19  1  0  0  0  0
  1 20  1  0  0  0  0
  2  3  1  0  0  0  0
  2 11  1  0  0  0  0
  2 21  1  0  0  0  0
  3  4  1  0  0  0  0
  3 22  1  0  0  0  0
  3 38  1  0  0  0  0
  4  5  1  0  0  0  0
  4 23  1  0  0  0  0
  4 24  1  0  0  0  0
  5  6  2  0  0  0  0
  5  7  1  0  0  0  0
  7 10  1  0  0  0  0
  7  8  1  0  0  0  0
  8  9  1  0  0  0  0
  8 25  1  0  0  0  0
  8 26  1  0  0  0  0
  9 10  1  0  0  0  0
  9 27  1  0  0  0  0
  9 28  1  0  0  0  0
 10 29  1  0  0  0  0
 10 30  1  0  0  0  0
 11 12  1  0  0  0  0
 11 13  1  0  0  0  0
 11 31  1  0  0  0  0
 12 32  1  0  0  0  0
 12 33  1  0  0  0  0
 12 34  1  0  0  0  0
 13 17  1  0  0  0  0
 13 14  1  0  0  0  0
 14 15  2  0  0  0  0
 14 35  1  0  0  0  0
 15 16  1  0  0  0  0
 15 36  1  0  0  0  0
 16 17  2  0  0  0  0
 16 37  1  0  0  0  0
M  CHG  1   3   1
M  END
> <s_m_source_file>
AV-unprocessed.smi

> <i_m_source_file_index>
3149

> <i_lp_mmshare_version>
43012

> <i_f3d_flags>
0

> <s_epik_input>
bjFbY0hdW2NIXVtjSF1uMVtDQEBIXShbQ0gzXSlbQ0BIXShbQ0gzXSlbTkhdW0NIMl1DKD1PKU4yW0NIMl1bQ0gyXVtDSDJdMg==

> <s_epik_cmdline>
J2VwaWtfcHl0aG9uJywgJy1waCcsICc3LjAnLCAnLXRuJywgJzgnLCAnLW1hJywgJzIwMCcsICctbWV0YWxfYmluZGluZycsICctaW1hZScsICc8aW5maWxlLm1hZT4nLCAnLW9tYWUnLCAnPG91dGZpbGUubWFlPic=

> <r_lp_tautomer_probability>
1

> <r_epik_Ionization_Penalty>
0.141739

> <r_epik_Ionization_Penalty_Charging>
0.141731

> <r_epik_Ionization_Penalty_Neutral>
8.82171e-06

> <r_epik_State_Penalty>
0.131043

> <r_epik_Charging_Adjusted_Penalty>
0.272773

> <i_epik_Tot_Q>
1

> <i_epik_Tot_abs_Q>
1

> <r_epik_Metal_State_Penalty>
0.131384

> <b_epik_Metal_Only>
0

> <s_lp_Force_Field>
OPLS_2005

> <r_lp_Energy>
21.3939

> <b_lp_Chiralities_Consistent>
1

> <s_lp_Variant>
AV-unprocessed.smi:3149-3

> <Gold.Version>
5.8.1

> <Gold.Id.Protein>
6NUR|6NUR_protein|mol2

> <Gold.PLP.Fitness>
46.7340

> <Gold.PLP.PLP>
-32.5372

> <Gold.PLP.part.hbond>
-3.0000

> <Gold.PLP.part.metal>
0.0000

> <Gold.PLP.part.buried>
-2.1093

> <Gold.PLP.part.nonpolar>
-28.3713

> <Gold.PLP.part.repulsive>
0.8590

> <Gold.PLP.ligand.clash>
0.0000

> <Gold.PLP.ligand.torsion>
0.8636

> <Gold.PLP.Chemscore.Hbond>
4.0000

> <Gold.PLP.Chemscore.CHOScore>
1.0000

> <Gold.PLP.Chemscore.Metal>
0.0000

> <Gold.Chemscore.Hbonds>
donor molecule, donor type, donor heavy atom, donor atom, acceptor molecule, acceptor atom, score
      L1  H     3    22       P1  7957  1.00
      L1  H     3    38       P1  7948  1.92
      P1  H  7954  7966       L1     6  1.00
      L1  C    14    35       P1  8028  0.54

> <Gold.PLP.Chemscore.Internal.Correction>
0.9241

> <Gold.Rescore>
     Score         DG    S(hbond)    S(metal)    S(lipo)     H(rot)  DE(clash)    DE(int)     intcor
     14.24     -18.03       2.94        0.00      63.92       1.85       1.03       2.76       ----

> <Gold.Chemscore.Fitness>
14.2399

> <Gold.Chemscore.DG>
-18.0305

> <Gold.Chemscore.ZeroCoef>
-5.4800

> <Gold.Chemscore.Hbond>
2.9397

> <Gold.Chemscore.Metal>
0.0000

> <Gold.Chemscore.Lipo>
63.9241

> <Gold.Chemscore.Internal_Hbond>
0.0000

> <Gold.Chemscore.DEClash>
1.0285

> <Gold.Chemscore.DEInternal>
2.7621

> <Gold.Chemscore.Rot>
1.8544

> <Gold.Chemscore.Internal.Correction>
   9.000000E+99

> <Gold.Chemscore.Hbonds>
donor molecule, donor type, donor heavy atom, donor atom, acceptor molecule, acceptor atom, score
      L1  H     3    22       P1  7957  0.95
      L1  H     3    38       P1  7948  0.85
      P1  H  7954  7966       L1     6  0.99

> <Gold.Chemscore.Hbond.Weighted>
-9.8186

> <Gold.Chemscore.Metal.Weighted>
-0.0000

> <Gold.Chemscore.Lipo.Weighted>
-7.4791

> <Gold.Chemscore.Internal_Hbond.Weighted>
0.0000

> <Gold.Chemscore.DEClash.Weighted>
1.0285

> <Gold.Chemscore.DEInternal.Weighted>
2.7621

> <Gold.Chemscore.Rot.Weighted>
4.7472

> <Gold.Chemscore.Internal.Correction.Weighted>
   9.000000E+99

> <Gold.Protein.RotatedTorsions>
[ 6907 6896 6895 6894 ] final   30.31 input  -60.11 | X-H torsion
[ 7974 7965 7964 7962 ] final    0.40 input  175.53 | X-H torsion
[ 8008 7997 7996 7995 ] final  148.46 input   59.86 | X-H torsion
[ 10167 10162 10161 10158 ] final  -77.82 input  -65.29 | X-H torsion
[ 10718 10713 10712 10709 ] final    5.98 input   66.30 | X-H torsion
[ 10763 10752 10751 10750 ] final  -55.23 input  -60.55 | X-H torsion
[ 11005 11000 10999 10996 ] final  153.75 input  -57.11 | X-H torsion

> <Gold.Protein.ActiveResidues>
 VAL166  LYS551  ARG553  GLY616  TRP617  ASP618  TYR619  PRO620  LYS621  CYS622 
 ASP623  PHE694  ASN695  SER759  ASP760  ASP761  ALA762  ILE779  LEU786  VAL792 
 PHE793  MET794  SER795  GLU796  ALA797  LYS798  CYS799  TRP800  GLU811  SER814 

> <Gold.Protein.RotatedAtoms>
  152.0441  134.9693  160.0573 H   0  0  0  0  0  0  0  0  0  0  0  0  # atno 6907 bound_to 6896
  152.1120  133.4301  159.4644 H   0  0  0  0  0  0  0  0  0  0  0  0  # atno 6908 bound_to 6896
  150.6844  134.2555  159.4571 H   0  0  0  0  0  0  0  0  0  0  0  0  # atno 6909 bound_to 6896
  146.2434  140.1143  142.8343 H   0  0  0  0  0  0  0  0  0  0  0  0  # atno 7974 bound_to 7965
  156.2790  140.2128  156.5701 H   0  0  0  0  0  0  0  0  0  0  0  0  # atno 8008 bound_to 7997
  154.7142  140.0509  157.0602 H   0  0  0  0  0  0  0  0  0  0  0  0  # atno 8009 bound_to 7997
  155.0564  140.3162  155.4678 H   0  0  0  0  0  0  0  0  0  0  0  0  # atno 8010 bound_to 7997
  140.4736  143.2420  151.8167 H   0  0  0  0  0  0  0  0  0  0  0  0  # atno 10167 bound_to 10162
  156.9154  130.5771  149.5647 H   0  0  0  0  0  0  0  0  0  0  0  0  # atno 10718 bound_to 10713
  154.1875  135.6433  153.5051 H   0  0  0  0  0  0  0  0  0  0  0  0  # atno 10763 bound_to 10752
  153.0043  135.5421  154.6450 H   0  0  0  0  0  0  0  0  0  0  0  0  # atno 10764 bound_to 10752
  154.5830  135.2927  155.0686 H   0  0  0  0  0  0  0  0  0  0  0  0  # atno 10765 bound_to 10752
  140.1426  134.8729  157.2351 H   0  0  0  0  0  0  0  0  0  0  0  0  # atno 11005 bound_to 11000
  145.0460  140.8982  143.5024 LP  0  0  0  0  0  0  0  0  0  0  0  0  # atno 17320 bound_to 7965
  145.1232  139.2680  143.5578 LP  0  0  0  0  0  0  0  0  0  0  0  0  # atno 17321 bound_to 7965
  139.4822  144.4861  151.9245 LP  0  0  0  0  0  0  0  0  0  0  0  0  # atno 17342 bound_to 10162
  140.3946  144.2572  150.5897 LP  0  0  0  0  0  0  0  0  0  0  0  0  # atno 17343 bound_to 10162
  156.0516  130.5584  150.9001 LP  0  0  0  0  0  0  0  0  0  0  0  0  # atno 17370 bound_to 10713
  157.5941  131.0943  150.9070 LP  0  0  0  0  0  0  0  0  0  0  0  0  # atno 17371 bound_to 10713
  140.2703  134.3467  155.7376 LP  0  0  0  0  0  0  0  0  0  0  0  0  # atno 17394 bound_to 11000
  141.2188  133.7420  156.9213 LP  0  0  0  0  0  0  0  0  0  0  0  0  # atno 17395 bound_to 11000

$$$$
