AV-unprocessed.smi:2390|AV-procd|sdf|9478|dock4
  -GOLD-   2272013103D 1   1.00000     0.00000
 Structure written by MMmdl.
 46 47  0  0  0  0  0  0  0  0  2 V2000
  145.2124  129.7635  151.7533 C   0  0  0  0  0  0  0  0  0  0  0  0
  145.3699  131.2278  151.4010 C   0  0  0  0  0  0  0  0  0  0  0  0
  144.5722  131.8235  150.4044 C   0  0  0  0  0  0  0  0  0  0  0  0
  144.7654  133.1889  150.1285 C   0  0  0  0  0  0  0  0  0  0  0  0
  145.7398  133.8980  150.8567 C   0  0  0  0  0  0  0  0  0  0  0  0
  146.4992  133.2247  151.8397 C   0  0  0  0  0  0  0  0  0  0  0  0
  147.4481  134.0298  152.5240 N   0  0  0  0  0  0  0  0  0  0  0  0
  147.8001  133.9747  153.8202 C   0  0  0  0  0  0  0  0  0  0  0  0
  147.3921  133.1473  154.6362 O   0  0  0  0  0  0  0  0  0  0  0  0
  148.6721  134.9461  154.1295 N   0  0  0  0  0  0  0  0  0  0  0  0
  149.2618  135.1656  155.4502 C   0  0  1  0  0  0  0  0  0  0  0  0
  150.7433  134.7516  155.4027 C   0  0  0  0  0  0  0  0  0  0  0  0
  149.0458  136.6293  155.9560 C   0  0  2  0  0  0  0  0  0  0  0  0
  147.5532  136.8988  156.2764 C   0  0  0  0  0  0  0  0  0  0  0  0
  149.6289  137.6517  155.0225 N   0  3  0  0  0  0  0  0  0  0  0  0
  149.0353  139.0119  155.1598 C   0  0  0  0  0  0  0  0  0  0  0  0
  149.6674  140.0076  154.1725 C   0  0  0  0  0  0  0  0  0  0  0  0
  151.0723  140.0501  154.3640 O   0  0  0  0  0  0  0  0  0  0  0  0
  151.6631  138.7865  154.1069 C   0  0  0  0  0  0  0  0  0  0  0  0
  151.1142  137.7466  155.0975 C   0  0  0  0  0  0  0  0  0  0  0  0
  146.3057  131.9074  152.0986 N   0  0  0  0  0  0  0  0  0  0  0  0
  144.5483  129.2576  151.0519 H   0  0  0  0  0  0  0  0  0  0  0  0
  144.7945  129.6593  152.7550 H   0  0  0  0  0  0  0  0  0  0  0  0
  146.1787  129.2588  151.7289 H   0  0  0  0  0  0  0  0  0  0  0  0
  143.8309  131.2527  149.8648 H   0  0  0  0  0  0  0  0  0  0  0  0
  144.1755  133.6854  149.3722 H   0  0  0  0  0  0  0  0  0  0  0  0
  145.8992  134.9481  150.6582 H   0  0  0  0  0  0  0  0  0  0  0  0
  147.8975  134.7391  151.9642 H   0  0  0  0  0  0  0  0  0  0  0  0
  148.9542  135.5801  153.3959 H   0  0  0  0  0  0  0  0  0  0  0  0
  148.7500  134.4659  156.1097 H   0  0  0  0  0  0  0  0  0  0  0  0
  151.2138  134.8331  156.3825 H   0  0  0  0  0  0  0  0  0  0  0  0
  151.3132  135.3678  154.7070 H   0  0  0  0  0  0  0  0  0  0  0  0
  150.8475  133.7144  155.0816 H   0  0  0  0  0  0  0  0  0  0  0  0
  149.5860  136.7372  156.8977 H   0  0  0  0  0  0  0  0  0  0  0  0
  147.1111  136.1078  156.8809 H   0  0  0  0  0  0  0  0  0  0  0  0
  146.9569  136.9880  155.3681 H   0  0  0  0  0  0  0  0  0  0  0  0
  147.4212  137.8111  156.8579 H   0  0  0  0  0  0  0  0  0  0  0  0
  147.9658  138.9940  154.9555 H   0  0  0  0  0  0  0  0  0  0  0  0
  149.1670  139.3656  156.1836 H   0  0  0  0  0  0  0  0  0  0  0  0
  149.4342  139.7360  153.1416 H   0  0  0  0  0  0  0  0  0  0  0  0
  149.2609  141.0057  154.3360 H   0  0  0  0  0  0  0  0  0  0  0  0
  151.4738  138.4819  153.0761 H   0  0  0  0  0  0  0  0  0  0  0  0
  152.7440  138.8751  154.2174 H   0  0  0  0  0  0  0  0  0  0  0  0
  151.4133  138.0067  156.1142 H   0  0  0  0  0  0  0  0  0  0  0  0
  151.5841  136.7955  154.8571 H   0  0  0  0  0  0  0  0  0  0  0  0
  149.4071  137.3418  154.0872 H   0  0  0  0  0  0  0  0  0  0  0  0
  1  2  1  0  0  0  0
  1 22  1  0  0  0  0
  1 23  1  0  0  0  0
  1 24  1  0  0  0  0
  2 21  1  0  0  0  0
  2  3  2  0  0  0  0
  3  4  1  0  0  0  0
  3 25  1  0  0  0  0
  4  5  2  0  0  0  0
  4 26  1  0  0  0  0
  5  6  1  0  0  0  0
  5 27  1  0  0  0  0
  6  7  1  0  0  0  0
  6 21  2  0  0  0  0
  7  8  1  0  0  0  0
  7 28  1  0  0  0  0
  8  9  2  0  0  0  0
  8 10  1  0  0  0  0
 10 11  1  0  0  0  0
 10 29  1  0  0  0  0
 11 12  1  0  0  0  0
 11 13  1  0  0  0  0
 11 30  1  0  0  0  0
 12 31  1  0  0  0  0
 12 32  1  0  0  0  0
 12 33  1  0  0  0  0
 13 14  1  0  0  0  0
 13 15  1  0  0  0  0
 13 34  1  0  0  0  0
 14 35  1  0  0  0  0
 14 36  1  0  0  0  0
 14 37  1  0  0  0  0
 15 20  1  0  0  0  0
 15 16  1  0  0  0  0
 15 46  1  0  0  0  0
 16 17  1  0  0  0  0
 16 38  1  0  0  0  0
 16 39  1  0  0  0  0
 17 18  1  0  0  0  0
 17 40  1  0  0  0  0
 17 41  1  0  0  0  0
 18 19  1  0  0  0  0
 19 20  1  0  0  0  0
 19 42  1  0  0  0  0
 19 43  1  0  0  0  0
 20 44  1  0  0  0  0
 20 45  1  0  0  0  0
M  CHG  1  15   1
M  END
> <s_m_source_file>
AV-unprocessed.smi

> <i_m_source_file_index>
2390

> <i_lp_mmshare_version>
43012

> <i_f3d_flags>
0

> <s_epik_input>
W0NIM11jMVtjSF1bY0hdW2NIXWMobjEpW05IXUMoPU8pW05IXVtDQEhdKFtDSDNdKVtDQEhdKFtDSDNdKU4yW0NIMl1bQ0gyXU9bQ0gyXVtDSDJdMg==

> <s_epik_cmdline>
J2VwaWtfcHl0aG9uJywgJy1waCcsICc3LjAnLCAnLXRuJywgJzgnLCAnLW1hJywgJzIwMCcsICctbWV0YWxfYmluZGluZycsICctaW1hZScsICc8aW5maWxlLm1hZT4nLCAnLW9tYWUnLCAnPG91dGZpbGUubWFlPic=

> <r_epik_Ionization_Penalty>
0.60259

> <r_epik_Ionization_Penalty_Charging>
0.602531

> <r_epik_Ionization_Penalty_Neutral>
5.9516e-05

> <r_epik_State_Penalty>
0.617039

> <r_epik_Charging_Adjusted_Penalty>
1.21957

> <i_epik_Tot_Q>
1

> <i_epik_Tot_abs_Q>
1

> <r_epik_Metal_State_Penalty>
0.617047

> <b_epik_Metal_Only>
0

> <s_lp_Force_Field>
OPLS_2005

> <r_lp_Energy>
24.4942

> <b_lp_Chiralities_Consistent>
1

> <s_lp_Variant>
AV-unprocessed.smi:2390-6

> <Gold.Version>
5.8.1

> <Gold.Id.Protein>
6NUR|6NUR_protein|mol2

> <Gold.PLP.Fitness>
40.2356

> <Gold.PLP.PLP>
-32.8454

> <Gold.PLP.part.hbond>
-3.0000

> <Gold.PLP.part.metal>
0.0000

> <Gold.PLP.part.buried>
-5.9494

> <Gold.PLP.part.nonpolar>
-23.2526

> <Gold.PLP.part.repulsive>
0.2363

> <Gold.PLP.ligand.clash>
0.0000

> <Gold.PLP.ligand.torsion>
0.8643

> <Gold.PLP.Chemscore.Hbond>
3.0000

> <Gold.PLP.Chemscore.CHOScore>
0.0000

> <Gold.PLP.Chemscore.Metal>
0.0000

> <Gold.Chemscore.Hbonds>
donor molecule, donor type, donor heavy atom, donor atom, acceptor molecule, acceptor atom, score
      L1  H     7    28       P1  7948  1.00
      L1  H    10    29       P1  7948  1.00
      P1  H  7989  7998       L1    18  0.47

> <Gold.PLP.Chemscore.Internal.Correction>
0.1187

> <Gold.Rescore>
     Score         DG    S(hbond)    S(metal)    S(lipo)     H(rot)  DE(clash)    DE(int)     intcor
     14.44     -17.63       2.11        0.00      76.13       1.48       1.34       1.84       ----

> <Gold.Chemscore.Fitness>
14.4422

> <Gold.Chemscore.DG>
-17.6258

> <Gold.Chemscore.ZeroCoef>
-5.4800

> <Gold.Chemscore.Hbond>
2.1075

> <Gold.Chemscore.Metal>
0.0000

> <Gold.Chemscore.Lipo>
76.1254

> <Gold.Chemscore.Internal_Hbond>
0.0000

> <Gold.Chemscore.DEClash>
1.3437

> <Gold.Chemscore.DEInternal>
1.8400

> <Gold.Chemscore.Rot>
1.4844

> <Gold.Chemscore.Internal.Correction>
   9.000000E+99

> <Gold.Chemscore.Hbonds>
donor molecule, donor type, donor heavy atom, donor atom, acceptor molecule, acceptor atom, score
      L1  H     7    28       P1  7948  0.33
      L1  H    10    29       P1  7948  0.77
      L1  H    15    46       P1  7948  0.01
      P1  H  7989  7998       L1    18  0.18

> <Gold.Chemscore.Hbond.Weighted>
-7.0391

> <Gold.Chemscore.Metal.Weighted>
-0.0000

> <Gold.Chemscore.Lipo.Weighted>
-8.9067

> <Gold.Chemscore.Internal_Hbond.Weighted>
0.0000

> <Gold.Chemscore.DEClash.Weighted>
1.3437

> <Gold.Chemscore.DEInternal.Weighted>
1.8400

> <Gold.Chemscore.Rot.Weighted>
3.8000

> <Gold.Chemscore.Internal.Correction.Weighted>
   9.000000E+99

> <Gold.Protein.RotatedTorsions>
[ 6907 6896 6895 6894 ] final  163.30 input  -60.11 | X-H torsion
[ 7974 7965 7964 7962 ] final -112.60 input  175.53 | X-H torsion
[ 8008 7997 7996 7995 ] final   32.40 input   59.86 | X-H torsion
[ 10167 10162 10161 10158 ] final  -70.19 input  -65.29 | X-H torsion
[ 10718 10713 10712 10709 ] final -109.98 input   66.30 | X-H torsion
[ 10763 10752 10751 10750 ] final  152.65 input  -60.55 | X-H torsion
[ 11005 11000 10999 10996 ] final  -98.80 input  -57.11 | X-H torsion

> <Gold.Protein.ActiveResidues>
 VAL166  LYS551  ARG553  GLY616  TRP617  ASP618  TYR619  PRO620  LYS621  CYS622 
 ASP623  PHE694  ASN695  SER759  ASP760  ASP761  ALA762  ILE779  LEU786  VAL792 
 PHE793  MET794  SER795  GLU796  ALA797  LYS798  CYS799  TRP800  GLU811  SER814 

> <Gold.Protein.RotatedAtoms>
  151.9273  133.3601  159.3918 H   0  0  0  0  0  0  0  0  0  0  0  0  # atno 6907 bound_to 6896
  150.7024  134.4573  159.5373 H   0  0  0  0  0  0  0  0  0  0  0  0  # atno 6908 bound_to 6896
  152.2208  134.8415  160.0537 H   0  0  0  0  0  0  0  0  0  0  0  0  # atno 6909 bound_to 6896
  145.1420  140.8783  143.3696 H   0  0  0  0  0  0  0  0  0  0  0  0  # atno 7974 bound_to 7965
  155.1219  140.3249  155.4495 H   0  0  0  0  0  0  0  0  0  0  0  0  # atno 8008 bound_to 7997
  156.2660  140.2026  156.6289 H   0  0  0  0  0  0  0  0  0  0  0  0  # atno 8009 bound_to 7997
  154.6677  140.0540  157.0119 H   0  0  0  0  0  0  0  0  0  0  0  0  # atno 8010 bound_to 7997
  140.5372  143.2317  151.7156 H   0  0  0  0  0  0  0  0  0  0  0  0  # atno 10167 bound_to 10162
  156.0566  130.5792  150.8174 H   0  0  0  0  0  0  0  0  0  0  0  0  # atno 10718 bound_to 10713
  154.1234  135.2831  155.3203 H   0  0  0  0  0  0  0  0  0  0  0  0  # atno 10763 bound_to 10752
  154.6407  135.5403  153.7789 H   0  0  0  0  0  0  0  0  0  0  0  0  # atno 10764 bound_to 10752
  153.0305  135.6485  154.1388 H   0  0  0  0  0  0  0  0  0  0  0  0  # atno 10765 bound_to 10752
  141.1332  133.8273  157.0887 H   0  0  0  0  0  0  0  0  0  0  0  0  # atno 11005 bound_to 11000
  145.0522  139.3173  143.5923 LP  0  0  0  0  0  0  0  0  0  0  0  0  # atno 17320 bound_to 7965
  146.3504  139.9934  142.8683 LP  0  0  0  0  0  0  0  0  0  0  0  0  # atno 17321 bound_to 7965
  139.4975  144.4025  152.0166 LP  0  0  0  0  0  0  0  0  0  0  0  0  # atno 17342 bound_to 10162
  140.3131  144.3515  150.6028 LP  0  0  0  0  0  0  0  0  0  0  0  0  # atno 17343 bound_to 10162
  157.5541  131.0944  150.9654 LP  0  0  0  0  0  0  0  0  0  0  0  0  # atno 17370 bound_to 10713
  156.9907  130.5562  149.5303 LP  0  0  0  0  0  0  0  0  0  0  0  0  # atno 17371 bound_to 10713
  140.0406  134.9856  157.0954 LP  0  0  0  0  0  0  0  0  0  0  0  0  # atno 17394 bound_to 11000
  140.4142  134.1949  155.7163 LP  0  0  0  0  0  0  0  0  0  0  0  0  # atno 17395 bound_to 11000

$$$$
