#       Name:                AV-unprocessed.smi:2752
#       Creating user name   scv26
#       Creation time:       Fri Mar 27 15:05:53 2020


#       File generated by GOLD software.
#

@<TRIPOS>MOLECULE
AV-unprocessed.smi:2752
    39    40     1
SMALL
NO_CHARGES


@<TRIPOS>ATOM
      1 ****        -2.2801   0.2613  -2.9618 C.3            1 S1                 0.0000
      2 ****        -1.0766  -0.2142  -3.5454 O.3            1 S1                 0.0000
      3 ****         0.0865   0.1164  -2.7974 C.3            1 S1                 0.0000
      4 ****         1.3042  -0.0775  -3.7076 C.3            1 S1                 0.0000
      5 ****         1.7368  -1.5220  -3.4803 C.3            1 S1                 0.0000
      6 ****         1.5004  -1.7450  -1.9881 C.3            1 S1                 0.0000
      7 ****         0.2798  -0.8789  -1.6280 C.3            1 S1                 0.0000
      8 ****         0.5008  -0.1610  -0.3746 N.am           1 S1                 0.0000
      9 ****        -0.2209  -0.3036   0.7465 C.2            1 S1                 0.0000
     10 ****        -1.1771  -1.0725   0.8498 O.2            1 S1                 0.0000
     11 ****         0.2373   0.5008   1.7219 N.am           1 S1                 0.0000
     12 ****        -0.2306   0.6164   3.0582 C.ar           1 S1                 0.0000
     13 ****         0.4435   1.5766   3.8471 C.ar           1 S1                 0.0000
     14 ****         0.0593   1.7652   5.1891 C.ar           1 S1                 0.0000
     15 ****        -0.9905   0.9861   5.7068 C.ar           1 S1                 0.0000
     16 ****        -1.3944   1.1307   6.9912 F              1 S1                 0.0000
     17 ****        -1.6096   0.0518   4.8559 C.ar           1 S1                 0.0000
     18 ****        -1.2424  -0.1294   3.5693 N.ar           1 S1                 0.0000
     19 ****        -3.1271  -0.0388  -3.5785 H              1 S1                 0.0000
     20 ****        -2.2820   1.3502  -2.8991 H              1 S1                 0.0000
     21 ****        -2.4347  -0.1438  -1.9614 H              1 S1                 0.0000
     22 ****         0.0359   1.1572  -2.4702 H              1 S1                 0.0000
     23 ****         1.0925   0.1417  -4.7547 H              1 S1                 0.0000
     24 ****         2.1055   0.5902  -3.3882 H              1 S1                 0.0000
     25 ****         1.1004  -2.1926  -4.0596 H              1 S1                 0.0000
     26 ****         2.7708  -1.7037  -3.7740 H              1 S1                 0.0000
     27 ****         1.3459  -2.7975  -1.7482 H              1 S1                 0.0000
     28 ****         2.3827  -1.4140  -1.4376 H              1 S1                 0.0000
     29 ****        -0.5918  -1.5316  -1.5578 H              1 S1                 0.0000
     30 ****         1.2661   0.4972  -0.3635 H              1 S1                 0.0000
     31 ****         1.0198   1.0919   1.4838 H              1 S1                 0.0000
     32 ****         1.2486   2.1657   3.4320 H              1 S1                 0.0000
     33 ****         0.5616   2.4938   5.8082 H              1 S1                 0.0000
     34 ****        -2.4191  -0.5659   5.2158 H              1 S1                 0.0000
     35 ****        -0.9892   0.1836  -4.4587 LP             1 S1                 0.0000
     36 ****        -1.1328  -1.2099  -3.6195 LP             1 S1                 0.0000
     37 ****        -1.4534  -1.6344   0.0701 LP             1 S1                 0.0000
     38 ****        -1.6774  -1.1351   1.7134 LP             1 S1                 0.0000
     39 ****        -1.7105  -0.8052   2.9999 LP             1 S1                 0.0000
@<TRIPOS>BOND
    1    1    2 1     
    2    1   19 1     
    3    1   20 1     
    4    1   21 1     
    5    2    3 1     
    6    3    7 1     
    7    3    4 1     
    8    3   22 1     
    9    4    5 1     
   10    4   23 1     
   11    4   24 1     
   12    5    6 1     
   13    5   25 1     
   14    5   26 1     
   15    6    7 1     
   16    6   27 1     
   17    6   28 1     
   18    7    8 1     
   19    7   29 1     
   20    8    9 am    
   21    8   30 1     
   22    9   10 2     
   23    9   11 am    
   24   11   12 1     
   25   11   31 1     
   26   12   18 ar    
   27   12   13 ar    
   28   13   14 ar    
   29   13   32 1     
   30   14   15 ar    
   31   14   33 1     
   32   15   16 1     
   33   15   17 ar    
   34   17   18 ar    
   35   17   34 1     
   36    2   35 1     
   37    2   36 1     
   38   10   37 1     
   39   10   38 1     
   40   18   39 1     
@<TRIPOS>SUBSTRUCTURE
      1 S1             1
@<TRIPOS>SET
LONE_PAIRS      STATIC     ATOMS    <user>   **** ""
5 35 36 37 38 39
DONOR_HYDROGENS      STATIC     ATOMS    <user>   **** ""
2 30 31
ATOM$BLUE        STATIC     ATOMS    COLORGROUP SYSTEM
5 35 36 37 38 39
ATOM$RED        STATIC     ATOMS    COLORGROUP SYSTEM
2 30 31
