#       Name:                AV-unprocessed.smi:2816
#       Creating user name   scv26
#       Creation time:       Fri Mar 27 15:28:44 2020


#       File generated by GOLD software.
#

@<TRIPOS>MOLECULE
AV-unprocessed.smi:2816
    46    48     1
SMALL
NO_CHARGES


@<TRIPOS>ATOM
      1 ****        -5.7829   0.9073   0.7436 C.3            1 S1                 0.0000
      2 ****        -4.2467   0.8194   0.7424 C.3            1 S1                 0.0000
      3 ****        -3.6940   1.4847  -0.5311 C.3            1 S1                 0.0000
      4 ****        -3.6935   1.5191   1.9976 C.3            1 S1                 0.0000
      5 ****        -3.7803  -0.9830   0.7576 S.o2           1 S1                 0.0000
      6 ****        -4.1928  -1.5582   2.0478 O.2            1 S1                 0.0000
      7 ****        -4.2792  -1.5870  -0.4883 O.2            1 S1                 0.0000
      8 ****        -1.9876  -1.0278   0.6966 C.ar           1 S1                 0.0000
      9 ****        -1.3279  -1.1647  -0.5415 C.ar           1 S1                 0.0000
     10 ****         0.0793  -1.1479  -0.5494 C.ar           1 S1                 0.0000
     11 ****         0.7715  -0.9856   0.6744 C.ar           1 S1                 0.0000
     12 ****         2.1704  -0.9466   0.7714 N.pl3          1 S1                 0.0000
     13 ****         3.0107  -0.8214  -0.4137 C.3            1 S1                 0.0000
     14 ****         2.9068   0.5550  -1.0853 C.3            1 S1                 0.0000
     15 ****         4.3696   1.0145  -1.0975 C.3            1 S1                 0.0000
     16 ****         5.2305   0.1901  -2.0644 C.3            1 S1                 0.0000
     17 ****         5.3574  -1.1360  -1.3151 C.3            1 S1                 0.0000
     18 ****         4.5080  -0.8754  -0.0634 C.3            1 S1                 0.0000
     19 ****         4.8010   0.4963   0.1480 O.3            1 S1                 0.0000
     20 ****         0.0037  -0.8525   1.8518 C.ar           1 S1                 0.0000
     21 ****        -1.3456  -0.8650   1.8731 N.ar           1 S1                 0.0000
     22 ****        -6.1221   1.9437   0.7345 H              1 S1                 0.0000
     23 ****        -6.2065   0.4297   1.6278 H              1 S1                 0.0000
     24 ****        -6.2090   0.4147  -0.1310 H              1 S1                 0.0000
     25 ****        -4.0499   0.9812  -1.4303 H              1 S1                 0.0000
     26 ****        -2.6043   1.4683  -0.5525 H              1 S1                 0.0000
     27 ****        -4.0033   2.5284  -0.5959 H              1 S1                 0.0000
     28 ****        -4.0270   2.5560   2.0484 H              1 S1                 0.0000
     29 ****        -2.6043   1.5332   2.0055 H              1 S1                 0.0000
     30 ****        -4.0258   1.0235   2.9100 H              1 S1                 0.0000
     31 ****        -1.8814  -1.2753  -1.4621 H              1 S1                 0.0000
     32 ****         0.6013  -1.2543  -1.4882 H              1 S1                 0.0000
     33 ****         2.5928  -0.7651   1.6710 H              1 S1                 0.0000
     34 ****         2.7706  -1.6281  -1.1073 H              1 S1                 0.0000
     35 ****         2.4787   0.5026  -2.0865 H              1 S1                 0.0000
     36 ****         2.3031   1.2474  -0.4964 H              1 S1                 0.0000
     37 ****         4.4932   2.0928  -1.2024 H              1 S1                 0.0000
     38 ****         4.7635   0.0817  -3.0437 H              1 S1                 0.0000
     39 ****         6.2110   0.6474  -2.2012 H              1 S1                 0.0000
     40 ****         4.9992  -1.9875  -1.8943 H              1 S1                 0.0000
     41 ****         6.3971  -1.3218  -1.0433 H              1 S1                 0.0000
     42 ****         4.7558  -1.5284   0.7745 H              1 S1                 0.0000
     43 ****         0.4874  -0.7235   2.8093 H              1 S1                 0.0000
     44 ****         4.2802   0.8767   0.9122 LP             1 S1                 0.0000
     45 ****         5.7772   0.6513   0.2999 LP             1 S1                 0.0000
     46 ****        -1.8514  -0.7576   2.7290 LP             1 S1                 0.0000
@<TRIPOS>BOND
    1    1    2 1     
    2    1   22 1     
    3    1   23 1     
    4    1   24 1     
    5    2    3 1     
    6    2    4 1     
    7    2    5 1     
    8    3   25 1     
    9    3   26 1     
   10    3   27 1     
   11    4   28 1     
   12    4   29 1     
   13    4   30 1     
   14    5    6 2     
   15    5    7 2     
   16    5    8 1     
   17    8   21 ar    
   18    8    9 ar    
   19    9   10 ar    
   20    9   31 1     
   21   10   11 ar    
   22   10   32 1     
   23   11   12 1     
   24   11   20 ar    
   25   12   13 1     
   26   12   33 1     
   27   13   18 1     
   28   13   14 1     
   29   13   34 1     
   30   14   15 1     
   31   14   35 1     
   32   14   36 1     
   33   15   19 1     
   34   15   16 1     
   35   15   37 1     
   36   16   17 1     
   37   16   38 1     
   38   16   39 1     
   39   17   18 1     
   40   17   40 1     
   41   17   41 1     
   42   18   19 1     
   43   18   42 1     
   44   20   21 ar    
   45   20   43 1     
   46   19   44 1     
   47   19   45 1     
   48   21   46 1     
@<TRIPOS>SUBSTRUCTURE
      1 S1             1
@<TRIPOS>SET
LONE_PAIRS      STATIC     ATOMS    <user>   **** ""
5 6 7 44 45 46
DONOR_HYDROGENS      STATIC     ATOMS    <user>   **** ""
1 33
ATOM$BLUE        STATIC     ATOMS    COLORGROUP SYSTEM
5 6 7 44 45 46
ATOM$RED        STATIC     ATOMS    COLORGROUP SYSTEM
1 33
