AV-unprocessed.smi:3078|AV-procd|sdf|11733|dock8
  -GOLD-   2272017133D 1   1.00000     0.00000
 Structure written by MMmdl.
 23 23  0  0  0  0  0  0  0  0  2 V2000
  144.2172  138.1835  151.8087 C   0  0  0  0  0  0  0  0  0  0  0  0
  144.4345  136.8026  151.4338 N   0  0  0  0  0  0  0  0  0  0  0  0
  143.9152  136.1104  150.3615 C   0  0  0  0  0  0  0  0  0  0  0  0
  144.3950  134.8305  150.4246 C   0  0  0  0  0  0  0  0  0  0  0  0
  144.1387  133.6643  149.5024 C   0  0  2  0  0  0  0  0  0  0  0  0
  143.2684  134.0941  148.3958 N   0  3  0  0  0  0  0  0  0  0  0  0
  143.5229  132.4513  150.2257 C   0  0  0  0  0  0  0  0  0  0  0  0
  142.1243  132.6859  150.5312 N   0  0  0  0  0  0  0  0  0  0  0  0
  145.2130  134.8469  151.5912 C   0  0  0  0  0  0  0  0  0  0  0  0
  145.2357  136.0258  152.1903 N   0  0  0  0  0  0  0  0  0  0  0  0
  143.7209  138.7174  150.9979 H   0  0  0  0  0  0  0  0  0  0  0  0
  145.1719  138.6673  152.0178 H   0  0  0  0  0  0  0  0  0  0  0  0
  143.5899  138.2275  152.6993 H   0  0  0  0  0  0  0  0  0  0  0  0
  143.2501  136.5805  149.6519 H   0  0  0  0  0  0  0  0  0  0  0  0
  145.0741  133.3452  149.0403 H   0  0  0  0  0  0  0  0  0  0  0  0
  142.3733  134.3818  148.7647 H   0  0  0  0  0  0  0  0  0  0  0  0
  143.1362  133.3260  147.7538 H   0  0  0  0  0  0  0  0  0  0  0  0
  143.6167  131.5458  149.6255 H   0  0  0  0  0  0  0  0  0  0  0  0
  144.0454  132.2691  151.1654 H   0  0  0  0  0  0  0  0  0  0  0  0
  141.7709  133.4446  149.9652 H   0  0  0  0  0  0  0  0  0  0  0  0
  141.5757  131.8712  150.2945 H   0  0  0  0  0  0  0  0  0  0  0  0
  145.7883  134.0388  152.0188 H   0  0  0  0  0  0  0  0  0  0  0  0
  143.6975  134.8689  147.9106 H   0  0  0  0  0  0  0  0  0  0  0  0
  1  2  1  0  0  0  0
  1 11  1  0  0  0  0
  1 12  1  0  0  0  0
  1 13  1  0  0  0  0
  2 10  1  0  0  0  0
  2  3  1  0  0  0  0
  3  4  2  0  0  0  0
  3 14  1  0  0  0  0
  4  5  1  0  0  0  0
  4  9  1  0  0  0  0
  5  6  1  0  0  0  0
  5  7  1  0  0  0  0
  5 15  1  0  0  0  0
  6 16  1  0  0  0  0
  6 17  1  0  0  0  0
  6 23  1  0  0  0  0
  7  8  1  0  0  0  0
  7 18  1  0  0  0  0
  7 19  1  0  0  0  0
  8 20  1  0  0  0  0
  8 21  1  0  0  0  0
  9 10  2  0  0  0  0
  9 22  1  0  0  0  0
M  CHG  1   6   1
M  END
> <s_m_source_file>
AV-unprocessed.smi

> <i_m_source_file_index>
3078

> <i_lp_mmshare_version>
43012

> <i_f3d_flags>
0

> <s_epik_input>
W0NIM11uMVtjSF1jKFtjSF1uMSlbQ0BIXShbTkgyXSlbQ0gyXVtOSDJd

> <s_epik_cmdline>
J2VwaWtfcHl0aG9uJywgJy1waCcsICc3LjAnLCAnLXRuJywgJzgnLCAnLW1hJywgJzIwMCcsICctbWV0YWxfYmluZGluZycsICctaW1hZScsICc8aW5maWxlLm1hZT4nLCAnLW9tYWUnLCAnPG91dGZpbGUubWFlPic=

> <r_epik_Ionization_Penalty>
0.19937

> <r_epik_Ionization_Penalty_Charging>
0.0290541

> <r_epik_Ionization_Penalty_Neutral>
0.170316

> <r_epik_State_Penalty>
1.07715

> <r_epik_Charging_Adjusted_Penalty>
1.1062

> <i_epik_Tot_Q>
1

> <i_epik_Tot_abs_Q>
1

> <r_epik_Metal_State_Penalty>
1.07718

> <b_epik_Metal_Only>
0

> <s_lp_Force_Field>
OPLS_2005

> <r_lp_Energy>
0.880803

> <b_lp_Chiralities_Consistent>
1

> <s_lp_Variant>
AV-unprocessed.smi:3078-3

> <Gold.Version>
5.8.1

> <Gold.Id.Protein>
6NUR|6NUR_protein|mol2

> <Gold.PLP.Fitness>
39.4289

> <Gold.PLP.PLP>
-22.3645

> <Gold.PLP.part.hbond>
-3.6964

> <Gold.PLP.part.metal>
0.0000

> <Gold.PLP.part.buried>
-2.5041

> <Gold.PLP.part.nonpolar>
-16.9818

> <Gold.PLP.part.repulsive>
0.8450

> <Gold.PLP.ligand.clash>
0.0000

> <Gold.PLP.ligand.torsion>
0.0905

> <Gold.PLP.Chemscore.Hbond>
4.7440

> <Gold.PLP.Chemscore.CHOScore>
1.0000

> <Gold.PLP.Chemscore.Metal>
0.0000

> <Gold.Chemscore.Hbonds>
donor molecule, donor type, donor heavy atom, donor atom, acceptor molecule, acceptor atom, score
      L1  H     6    16       P1 10186  2.00
      L1  H     6    23       P1  7921  0.01
      L1  H     8    20       P1 10186  0.42
      L1  H     8    21       P1 10952  1.00
      L1  C     3    14       P1 10171  0.45

> <Gold.PLP.Chemscore.Internal.Correction>
0.0134

> <Gold.Rescore>
     Score         DG    S(hbond)    S(metal)    S(lipo)     H(rot)  DE(clash)    DE(int)     intcor
     18.82     -19.19       3.59        0.00      45.34       1.40       0.02       0.34       ----

> <Gold.Chemscore.Fitness>
18.8210

> <Gold.Chemscore.DG>
-19.1869

> <Gold.Chemscore.ZeroCoef>
-5.4800

> <Gold.Chemscore.Hbond>
3.5923

> <Gold.Chemscore.Metal>
0.0000

> <Gold.Chemscore.Lipo>
45.3361

> <Gold.Chemscore.Internal_Hbond>
0.0000

> <Gold.Chemscore.DEClash>
0.0217

> <Gold.Chemscore.DEInternal>
0.3441

> <Gold.Chemscore.Rot>
1.4045

> <Gold.Chemscore.Internal.Correction>
   9.000000E+99

> <Gold.Chemscore.Hbonds>
donor molecule, donor type, donor heavy atom, donor atom, acceptor molecule, acceptor atom, score
      L1  H     6    16       P1 10186  0.95
      L1  H     6    23       P1  7921  0.03
      L1  H     8    20       P1 10186  0.43
      L1  H     8    21       P1 10952  0.40

> <Gold.Chemscore.Hbond.Weighted>
-11.9981

> <Gold.Chemscore.Metal.Weighted>
-0.0000

> <Gold.Chemscore.Lipo.Weighted>
-5.3043

> <Gold.Chemscore.Internal_Hbond.Weighted>
0.0000

> <Gold.Chemscore.DEClash.Weighted>
0.0217

> <Gold.Chemscore.DEInternal.Weighted>
0.3441

> <Gold.Chemscore.Rot.Weighted>
3.5956

> <Gold.Chemscore.Internal.Correction.Weighted>
   9.000000E+99

> <Gold.Protein.RotatedTorsions>
[ 6907 6896 6895 6894 ] final    4.20 input  -60.11 | X-H torsion
[ 7974 7965 7964 7962 ] final -172.80 input  175.53 | X-H torsion
[ 8008 7997 7996 7995 ] final  -90.89 input   59.86 | X-H torsion
[ 10167 10162 10161 10158 ] final   11.01 input  -65.29 | X-H torsion
[ 10718 10713 10712 10709 ] final  101.01 input   66.30 | X-H torsion
[ 10763 10752 10751 10750 ] final  -78.66 input  -60.55 | X-H torsion
[ 11005 11000 10999 10996 ] final  112.31 input  -57.11 | X-H torsion

> <Gold.Protein.ActiveResidues>
 VAL166  LYS551  ARG553  GLY616  TRP617  ASP618  TYR619  PRO620  LYS621  CYS622 
 ASP623  PHE694  ASN695  SER759  ASP760  ASP761  ALA762  ILE779  LEU786  VAL792 
 PHE793  MET794  SER795  GLU796  ALA797  LYS798  CYS799  TRP800  GLU811  SER814 

> <Gold.Protein.RotatedAtoms>
  151.6374  135.1016  160.0134 H   0  0  0  0  0  0  0  0  0  0  0  0  # atno 6907 bound_to 6896
  152.4073  133.6904  159.6375 H   0  0  0  0  0  0  0  0  0  0  0  0  # atno 6908 bound_to 6896
  150.7966  133.8604  159.3271 H   0  0  0  0  0  0  0  0  0  0  0  0  # atno 6909 bound_to 6896
  144.7143  140.1718  143.6366 H   0  0  0  0  0  0  0  0  0  0  0  0  # atno 7974 bound_to 7965
  154.7040  140.0525  157.0486 H   0  0  0  0  0  0  0  0  0  0  0  0  # atno 8008 bound_to 7997
  155.0645  140.3193  155.4631 H   0  0  0  0  0  0  0  0  0  0  0  0  # atno 8009 bound_to 7997
  156.2769  140.2093  156.5772 H   0  0  0  0  0  0  0  0  0  0  0  0  # atno 8010 bound_to 7997
  140.6159  143.8310  150.7117 H   0  0  0  0  0  0  0  0  0  0  0  0  # atno 10167 bound_to 10162
  157.6840  131.0714  150.5187 H   0  0  0  0  0  0  0  0  0  0  0  0  # atno 10718 bound_to 10713
  154.5287  135.5722  153.6741 H   0  0  0  0  0  0  0  0  0  0  0  0  # atno 10763 bound_to 10752
  152.9934  135.6199  154.2658 H   0  0  0  0  0  0  0  0  0  0  0  0  # atno 10764 bound_to 10752
  154.2583  135.2857  155.2768 H   0  0  0  0  0  0  0  0  0  0  0  0  # atno 10765 bound_to 10752
  139.8924  134.9527  156.6565 H   0  0  0  0  0  0  0  0  0  0  0  0  # atno 11005 bound_to 11000
  145.8936  139.2390  143.1535 LP  0  0  0  0  0  0  0  0  0  0  0  0  # atno 17320 bound_to 7965
  145.9879  140.8628  143.0081 LP  0  0  0  0  0  0  0  0  0  0  0  0  # atno 17321 bound_to 7965
  140.1889  143.4053  152.1878 LP  0  0  0  0  0  0  0  0  0  0  0  0  # atno 17342 bound_to 10162
  139.5398  144.7245  151.4772 LP  0  0  0  0  0  0  0  0  0  0  0  0  # atno 17343 bound_to 10162
  156.5501  130.4229  149.6112 LP  0  0  0  0  0  0  0  0  0  0  0  0  # atno 17370 bound_to 10713
  156.2910  130.7124  151.1973 LP  0  0  0  0  0  0  0  0  0  0  0  0  # atno 17371 bound_to 10713
  140.7480  133.8921  155.8326 LP  0  0  0  0  0  0  0  0  0  0  0  0  # atno 17394 bound_to 11000
  141.0024  134.1132  157.4304 LP  0  0  0  0  0  0  0  0  0  0  0  0  # atno 17395 bound_to 11000

$$$$
