AV-unprocessed.smi:753|AV-procd|sdf|3599|dock7
  -GOLD-   22720 0593D 1   1.00000     0.00000
 Structure written by MMmdl.
 43 45  0  0  0  0  0  0  0  0  1 V2000
  145.7544  151.6608  159.4829 C   0  0  0  0  0  0  0  0  0  0  0  0
  145.4734  150.1735  159.4311 C   0  0  0  0  0  0  0  0  0  0  0  0
  145.4012  149.4929  158.1973 C   0  0  0  0  0  0  0  0  0  0  0  0
  145.1317  148.1109  158.2083 C   0  0  0  0  0  0  0  0  0  0  0  0
  144.9467  147.4645  159.4475 C   0  0  0  0  0  0  0  0  0  0  0  0
  144.6453  145.9804  159.5127 C   0  0  0  0  0  0  0  0  0  0  0  0
  145.6523  145.2272  160.3962 C   0  0  0  0  0  0  0  0  0  0  0  0
  146.9930  145.2620  159.8262 N   0  0  0  0  0  0  0  0  0  0  0  0
  148.0697  144.6490  160.3460 C   0  0  0  0  0  0  0  0  0  0  0  0
  148.0393  143.9877  161.3822 O   0  0  0  0  0  0  0  0  0  0  0  0
  149.2022  144.8087  159.6388 N   0  0  0  0  0  0  0  0  0  0  0  0
  150.5317  144.2721  159.9372 C   0  0  2  0  0  0  0  0  0  0  0  0
  151.6333  145.3584  159.9571 C   0  0  0  0  0  0  0  0  0  0  0  0
  152.6266  144.8593  158.8916 C   0  0  1  0  0  0  0  0  0  0  0  0
  153.3310  143.5863  159.3997 C   0  0  0  0  0  0  0  0  0  0  0  0
  152.2178  142.5229  159.3176 C   0  0  0  0  0  0  0  0  0  0  0  0
  151.0140  143.3365  158.8070 C   0  0  2  0  0  0  0  0  0  0  0  0
  151.6880  144.2982  157.8323 C   0  0  0  0  0  0  0  0  0  0  0  0
  145.0402  148.2366  160.6247 C   0  0  0  0  0  0  0  0  0  0  0  0
  145.2971  149.5624  160.6238 N   0  0  0  0  0  0  0  0  0  0  0  0
  145.9341  152.0646  158.4862 H   0  0  0  0  0  0  0  0  0  0  0  0
  146.6350  151.8606  160.0939 H   0  0  0  0  0  0  0  0  0  0  0  0
  144.9065  152.1913  159.9171 H   0  0  0  0  0  0  0  0  0  0  0  0
  145.5459  150.0145  157.2626 H   0  0  0  0  0  0  0  0  0  0  0  0
  145.0661  147.5602  157.2815 H   0  0  0  0  0  0  0  0  0  0  0  0
  143.6315  145.8408  159.8910 H   0  0  0  0  0  0  0  0  0  0  0  0
  144.6547  145.5726  158.5009 H   0  0  0  0  0  0  0  0  0  0  0  0
  145.6949  145.6846  161.3851 H   0  0  0  0  0  0  0  0  0  0  0  0
  145.3340  144.1938  160.5450 H   0  0  0  0  0  0  0  0  0  0  0  0
  147.1121  145.7835  158.9701 H   0  0  0  0  0  0  0  0  0  0  0  0
  149.1339  145.3680  158.8008 H   0  0  0  0  0  0  0  0  0  0  0  0
  150.4942  143.7269  160.8823 H   0  0  0  0  0  0  0  0  0  0  0  0
  151.2389  146.3368  159.6774 H   0  0  0  0  0  0  0  0  0  0  0  0
  152.0963  145.4589  160.9395 H   0  0  0  0  0  0  0  0  0  0  0  0
  153.3131  145.6295  158.5389 H   0  0  0  0  0  0  0  0  0  0  0  0
  154.1659  143.3177  158.7510 H   0  0  0  0  0  0  0  0  0  0  0  0
  153.7187  143.7062  160.4120 H   0  0  0  0  0  0  0  0  0  0  0  0
  152.4872  141.7418  158.6056 H   0  0  0  0  0  0  0  0  0  0  0  0
  152.0238  142.0452  160.2787 H   0  0  0  0  0  0  0  0  0  0  0  0
  150.2275  142.7158  158.3756 H   0  0  0  0  0  0  0  0  0  0  0  0
  151.0086  145.0442  157.4165 H   0  0  0  0  0  0  0  0  0  0  0  0
  152.2082  143.7937  157.0159 H   0  0  0  0  0  0  0  0  0  0  0  0
  144.9002  147.7795  161.5934 H   0  0  0  0  0  0  0  0  0  0  0  0
  1  2  1  0  0  0  0
  1 21  1  0  0  0  0
  1 22  1  0  0  0  0
  1 23  1  0  0  0  0
  2 20  1  0  0  0  0
  2  3  2  0  0  0  0
  3  4  1  0  0  0  0
  3 24  1  0  0  0  0
  4  5  2  0  0  0  0
  4 25  1  0  0  0  0
  5  6  1  0  0  0  0
  5 19  1  0  0  0  0
  6  7  1  0  0  0  0
  6 26  1  0  0  0  0
  6 27  1  0  0  0  0
  7  8  1  0  0  0  0
  7 28  1  0  0  0  0
  7 29  1  0  0  0  0
  8  9  1  0  0  0  0
  8 30  1  0  0  0  0
  9 10  2  0  0  0  0
  9 11  1  0  0  0  0
 11 12  1  0  0  0  0
 11 31  1  0  0  0  0
 12 17  1  0  0  0  0
 12 13  1  0  0  0  0
 12 32  1  0  0  0  0
 13 14  1  0  0  0  0
 13 33  1  0  0  0  0
 13 34  1  0  0  0  0
 14 18  1  0  0  0  0
 14 15  1  0  0  0  0
 14 35  1  0  0  0  0
 15 16  1  0  0  0  0
 15 36  1  0  0  0  0
 15 37  1  0  0  0  0
 16 17  1  0  0  0  0
 16 38  1  0  0  0  0
 16 39  1  0  0  0  0
 17 18  1  0  0  0  0
 17 40  1  0  0  0  0
 18 41  1  0  0  0  0
 18 42  1  0  0  0  0
 19 20  2  0  0  0  0
 19 43  1  0  0  0  0
M  END
> <s_m_source_file>
AV-unprocessed.smi

> <i_m_source_file_index>
753

> <i_lp_mmshare_version>
43012

> <i_f3d_flags>
0

> <s_epik_input>
W0NIM11jMVtjSF1bY0hdYyhbY0hdbjEpW0NIMl1bQ0gyXVtOSF1DKD1PKVtOSF1bQ0BIXShbQ0gyXVtDQEBIXTIzKVtDQEBIXShbQ0gyXTMpW0NIMl1bQ0gyXTI=

> <s_epik_cmdline>
J2VwaWtfcHl0aG9uJywgJy1waCcsICc3LjAnLCAnLXRuJywgJzgnLCAnLW1hJywgJzIwMCcsICctbWV0YWxfYmluZGluZycsICctaW1hZScsICc8aW5maWxlLm1hZT4nLCAnLW9tYWUnLCAnPG91dGZpbGUubWFlPic=

> <r_epik_Ionization_Penalty>
0.0569047

> <r_epik_Ionization_Penalty_Charging>
0

> <r_epik_Ionization_Penalty_Neutral>
0.0569047

> <r_epik_State_Penalty>
0.0490541

> <r_epik_Charging_Adjusted_Penalty>
0.0490541

> <i_epik_Tot_Q>
0

> <i_epik_Tot_abs_Q>
0

> <r_epik_Metal_State_Penalty>
0.0447357

> <b_epik_Metal_Only>
0

> <s_lp_Force_Field>
OPLS_2005

> <r_lp_Energy>
50.812

> <b_lp_Chiralities_Consistent>
1

> <s_lp_Variant>
AV-unprocessed.smi:753-1

> <Gold.Version>
5.8.1

> <Gold.Id.Protein>
6NUR|6NUR_protein|mol2

> <Gold.PLP.Fitness>
60.2185

> <Gold.PLP.PLP>
-51.5129

> <Gold.PLP.part.hbond>
-3.2849

> <Gold.PLP.part.metal>
0.0000

> <Gold.PLP.part.buried>
-7.4019

> <Gold.PLP.part.nonpolar>
-42.2414

> <Gold.PLP.part.repulsive>
0.4823

> <Gold.PLP.ligand.clash>
0.0000

> <Gold.PLP.ligand.torsion>
0.0554

> <Gold.PLP.Chemscore.Hbond>
2.9280

> <Gold.PLP.Chemscore.CHOScore>
0.0000

> <Gold.PLP.Chemscore.Metal>
0.0000

> <Gold.Chemscore.Hbonds>
donor molecule, donor type, donor heavy atom, donor atom, acceptor molecule, acceptor atom, score
      L1  H     8    30       P1  8029  1.00
      L1  H    11    31       P1  8029  0.89
      P1  H  6933  6944       L1    10  1.00

> <Gold.PLP.Chemscore.Internal.Correction>
0.0323

> <Gold.Rescore>
     Score         DG    S(hbond)    S(metal)    S(lipo)     H(rot)  DE(clash)    DE(int)     intcor
     26.24     -27.01       2.77        0.00     136.21       1.43       0.24       0.52       ----

> <Gold.Chemscore.Fitness>
26.2431

> <Gold.Chemscore.DG>
-27.0081

> <Gold.Chemscore.ZeroCoef>
-5.4800

> <Gold.Chemscore.Hbond>
2.7695

> <Gold.Chemscore.Metal>
0.0000

> <Gold.Chemscore.Lipo>
136.2075

> <Gold.Chemscore.Internal_Hbond>
0.0000

> <Gold.Chemscore.DEClash>
0.2414

> <Gold.Chemscore.DEInternal>
0.5235

> <Gold.Chemscore.Rot>
1.4291

> <Gold.Chemscore.Internal.Correction>
   9.000000E+99

> <Gold.Chemscore.Hbonds>
donor molecule, donor type, donor heavy atom, donor atom, acceptor molecule, acceptor atom, score
      L1  H     8    30       P1  8029  0.95
      L1  H    11    31       P1  8029  0.80
      P1  H  6933  6944       L1    10  0.98

> <Gold.Chemscore.Hbond.Weighted>
-9.2503

> <Gold.Chemscore.Metal.Weighted>
-0.0000

> <Gold.Chemscore.Lipo.Weighted>
-15.9363

> <Gold.Chemscore.Internal_Hbond.Weighted>
0.0000

> <Gold.Chemscore.DEClash.Weighted>
0.2414

> <Gold.Chemscore.DEInternal.Weighted>
0.5235

> <Gold.Chemscore.Rot.Weighted>
3.6585

> <Gold.Chemscore.Internal.Correction.Weighted>
   9.000000E+99

> <Gold.Protein.RotatedTorsions>
[ 6907 6896 6895 6894 ] final   18.14 input  -60.11 | X-H torsion
[ 7974 7965 7964 7962 ] final   -7.98 input  175.53 | X-H torsion
[ 8008 7997 7996 7995 ] final -101.45 input   59.86 | X-H torsion
[ 10167 10162 10161 10158 ] final  161.90 input  -65.29 | X-H torsion
[ 10718 10713 10712 10709 ] final  -20.78 input   66.30 | X-H torsion
[ 10763 10752 10751 10750 ] final   61.10 input  -60.55 | X-H torsion
[ 11005 11000 10999 10996 ] final  144.14 input  -57.11 | X-H torsion

> <Gold.Protein.ActiveResidues>
 VAL166  LYS551  ARG553  GLY616  TRP617  ASP618  TYR619  PRO620  LYS621  CYS622 
 ASP623  PHE694  ASN695  SER759  ASP760  ASP761  ALA762  ILE779  LEU786  VAL792 
 PHE793  MET794  SER795  GLU796  ALA797  LYS798  CYS799  TRP800  GLU811  SER814 

> <Gold.Protein.RotatedAtoms>
  151.8606  135.0525  160.0468 H   0  0  0  0  0  0  0  0  0  0  0  0  # atno 6907 bound_to 6896
  152.2665  133.5340  159.5422 H   0  0  0  0  0  0  0  0  0  0  0  0  # atno 6908 bound_to 6896
  150.7136  134.0673  159.3894 H   0  0  0  0  0  0  0  0  0  0  0  0  # atno 6909 bound_to 6896
  146.2293  140.2399  142.8343 H   0  0  0  0  0  0  0  0  0  0  0  0  # atno 7974 bound_to 7965
  154.8428  140.0434  157.1552 H   0  0  0  0  0  0  0  0  0  0  0  0  # atno 8008 bound_to 7997
  154.9028  140.3002  155.5288 H   0  0  0  0  0  0  0  0  0  0  0  0  # atno 8009 bound_to 7997
  156.2993  140.2372  156.4058 H   0  0  0  0  0  0  0  0  0  0  0  0  # atno 8010 bound_to 7997
  139.4854  144.4491  151.8853 H   0  0  0  0  0  0  0  0  0  0  0  0  # atno 10167 bound_to 10162
  156.5272  130.4646  149.6566 H   0  0  0  0  0  0  0  0  0  0  0  0  # atno 10718 bound_to 10713
  152.9940  135.5513  154.5979 H   0  0  0  0  0  0  0  0  0  0  0  0  # atno 10763 bound_to 10752
  154.5327  135.2814  155.1168 H   0  0  0  0  0  0  0  0  0  0  0  0  # atno 10764 bound_to 10752
  154.2477  135.6404  153.5282 H   0  0  0  0  0  0  0  0  0  0  0  0  # atno 10765 bound_to 10752
  140.0609  134.9205  157.1182 H   0  0  0  0  0  0  0  0  0  0  0  0  # atno 11005 bound_to 11000
  144.9492  140.8160  143.5582 LP  0  0  0  0  0  0  0  0  0  0  0  0  # atno 17320 bound_to 7965
  145.2359  139.2094  143.5018 LP  0  0  0  0  0  0  0  0  0  0  0  0  # atno 17321 bound_to 7965
  140.3947  144.2571  150.5897 LP  0  0  0  0  0  0  0  0  0  0  0  0  # atno 17342 bound_to 10162
  140.5113  143.2290  151.8530 LP  0  0  0  0  0  0  0  0  0  0  0  0  # atno 17343 bound_to 10162
  156.3094  130.7220  151.2110 LP  0  0  0  0  0  0  0  0  0  0  0  0  # atno 17370 bound_to 10713
  157.7427  131.0485  150.5000 LP  0  0  0  0  0  0  0  0  0  0  0  0  # atno 17371 bound_to 10713
  140.3771  134.2327  155.7173 LP  0  0  0  0  0  0  0  0  0  0  0  0  # atno 17394 bound_to 11000
  141.1973  133.8063  157.0635 LP  0  0  0  0  0  0  0  0  0  0  0  0  # atno 17395 bound_to 11000

$$$$
