AV-unprocessed.smi:2454|AV-procd|sdf|9696|dock1
  -GOLD-   2272013333D 1   1.00000     0.00000
 Structure written by MMmdl.
 42 43  0  0  0  0  0  0  0  0  1 V2000
  148.5401  132.9529  152.8724 C   0  0  0  0  0  0  0  0  0  0  0  0
  148.9173  133.5630  154.0940 O   0  0  0  0  0  0  0  0  0  0  0  0
  147.8153  133.7693  154.9616 C   0  0  0  0  0  0  0  0  0  0  0  0
  148.2585  134.3584  156.2848 C   0  0  0  0  0  0  0  0  0  0  0  0
  148.9908  135.5630  156.3412 C   0  0  0  0  0  0  0  0  0  0  0  0
  149.3707  136.0336  157.6185 C   0  0  0  0  0  0  0  0  0  0  0  0
  150.1055  137.2558  157.6193 N   0  0  0  0  0  0  0  0  0  0  0  0
  150.5466  138.0341  158.6307 C   0  0  0  0  0  0  0  0  0  0  0  0
  150.3298  137.7291  159.8024 O   0  0  0  0  0  0  0  0  0  0  0  0
  151.2212  139.1404  158.2765 N   0  0  0  0  0  0  0  0  0  0  0  0
  151.7887  140.1366  159.1798 C   0  0  1  0  0  0  0  0  0  0  0  0
  153.3176  139.9705  159.2382 C   0  0  0  0  0  0  0  0  0  0  0  0
  153.9630  141.0595  160.1077 C   0  0  0  0  0  0  0  0  0  0  0  0
  153.5774  142.4647  159.6194 C   0  0  0  0  0  0  0  0  0  0  0  0
  152.0457  142.6499  159.5694 C   0  0  1  0  0  0  0  0  0  0  0  0
  151.6487  144.0635  159.0963 C   0  0  0  0  0  0  0  0  0  0  0  0
  150.3264  144.2272  159.1465 F   0  0  0  0  0  0  0  0  0  0  0  0
  152.2266  144.9833  159.8691 F   0  0  0  0  0  0  0  0  0  0  0  0
  152.0591  144.2575  157.8429 F   0  0  0  0  0  0  0  0  0  0  0  0
  151.4063  141.5483  158.6970 C   0  0  0  0  0  0  0  0  0  0  0  0
  149.0254  135.3256  158.7245 N   0  0  0  0  0  0  0  0  0  0  0  0
  148.3327  134.1964  158.5587 C   0  0  0  0  0  0  0  0  0  0  0  0
  147.9299  133.6733  157.4005 N   0  0  0  0  0  0  0  0  0  0  0  0
  149.4211  132.8096  152.2468 H   0  0  0  0  0  0  0  0  0  0  0  0
  147.8346  133.5762  152.3216 H   0  0  0  0  0  0  0  0  0  0  0  0
  148.0860  131.9758  153.0426 H   0  0  0  0  0  0  0  0  0  0  0  0
  147.0956  134.4443  154.4955 H   0  0  0  0  0  0  0  0  0  0  0  0
  147.2979  132.8250  155.1411 H   0  0  0  0  0  0  0  0  0  0  0  0
  149.2511  136.0989  155.4398 H   0  0  0  0  0  0  0  0  0  0  0  0
  150.3339  137.6026  156.6991 H   0  0  0  0  0  0  0  0  0  0  0  0
  151.3499  139.3051  157.2878 H   0  0  0  0  0  0  0  0  0  0  0  0
  151.3933  140.0047  160.1887 H   0  0  0  0  0  0  0  0  0  0  0  0
  153.5729  138.9857  159.6317 H   0  0  0  0  0  0  0  0  0  0  0  0
  153.7345  140.0186  158.2310 H   0  0  0  0  0  0  0  0  0  0  0  0
  153.6488  140.9334  161.1446 H   0  0  0  0  0  0  0  0  0  0  0  0
  155.0475  140.9472  160.0977 H   0  0  0  0  0  0  0  0  0  0  0  0
  154.0248  143.2102  160.2772 H   0  0  0  0  0  0  0  0  0  0  0  0
  154.0027  142.6333  158.6294 H   0  0  0  0  0  0  0  0  0  0  0  0
  151.6649  142.5288  160.5848 H   0  0  0  0  0  0  0  0  0  0  0  0
  151.7178  141.6778  157.6594 H   0  0  0  0  0  0  0  0  0  0  0  0
  150.3206  141.6522  158.7063 H   0  0  0  0  0  0  0  0  0  0  0  0
  148.0716  133.6522  159.4542 H   0  0  0  0  0  0  0  0  0  0  0  0
  1  2  1  0  0  0  0
  1 24  1  0  0  0  0
  1 25  1  0  0  0  0
  1 26  1  0  0  0  0
  2  3  1  0  0  0  0
  3  4  1  0  0  0  0
  3 27  1  0  0  0  0
  3 28  1  0  0  0  0
  4 23  1  0  0  0  0
  4  5  2  0  0  0  0
  5  6  1  0  0  0  0
  5 29  1  0  0  0  0
  6  7  1  0  0  0  0
  6 21  2  0  0  0  0
  7  8  1  0  0  0  0
  7 30  1  0  0  0  0
  8  9  2  0  0  0  0
  8 10  1  0  0  0  0
 10 11  1  0  0  0  0
 10 31  1  0  0  0  0
 11 20  1  0  0  0  0
 11 12  1  0  0  0  0
 11 32  1  0  0  0  0
 12 13  1  0  0  0  0
 12 33  1  0  0  0  0
 12 34  1  0  0  0  0
 13 14  1  0  0  0  0
 13 35  1  0  0  0  0
 13 36  1  0  0  0  0
 14 15  1  0  0  0  0
 14 37  1  0  0  0  0
 14 38  1  0  0  0  0
 15 16  1  0  0  0  0
 15 20  1  0  0  0  0
 15 39  1  0  0  0  0
 16 17  1  0  0  0  0
 16 18  1  0  0  0  0
 16 19  1  0  0  0  0
 20 40  1  0  0  0  0
 20 41  1  0  0  0  0
 21 22  1  0  0  0  0
 22 23  2  0  0  0  0
 22 42  1  0  0  0  0
M  END
> <s_m_source_file>
AV-unprocessed.smi

> <i_m_source_file_index>
2454

> <i_lp_mmshare_version>
43012

> <i_f3d_flags>
0

> <s_epik_input>
W0NIM11PW0NIMl1jMVtjSF1jKG5bY0hdbjEpW05IXUMoPU8pW05IXVtDQEBIXTJbQ0gyXVtDSDJdW0NIMl1bQ0BASF0oQyhGKShGKUYpW0NIMl0y

> <s_epik_cmdline>
J2VwaWtfcHl0aG9uJywgJy1waCcsICc3LjAnLCAnLXRuJywgJzgnLCAnLW1hJywgJzIwMCcsICctbWV0YWxfYmluZGluZycsICctaW1hZScsICc8aW5maWxlLm1hZT4nLCAnLW9tYWUnLCAnPG91dGZpbGUubWFlPic=

> <r_lp_tautomer_probability>
1

> <r_epik_Ionization_Penalty>
3.01554e-05

> <r_epik_Ionization_Penalty_Charging>
0

> <r_epik_Ionization_Penalty_Neutral>
3.01554e-05

> <r_epik_State_Penalty>
-0

> <r_epik_Charging_Adjusted_Penalty>
0

> <i_epik_Tot_Q>
0

> <i_epik_Tot_abs_Q>
0

> <r_epik_Metal_State_Penalty>
-0

> <b_epik_Metal_Only>
0

> <s_lp_Force_Field>
OPLS_2005

> <r_lp_Energy>
13.6068

> <b_lp_Chiralities_Consistent>
1

> <s_lp_Variant>
AV-unprocessed.smi:2454-2

> <Gold.Version>
5.8.1

> <Gold.Id.Protein>
6NUR|6NUR_protein|mol2

> <Gold.PLP.Fitness>
40.8959

> <Gold.PLP.PLP>
-38.2454

> <Gold.PLP.part.hbond>
-2.0000

> <Gold.PLP.part.metal>
0.0000

> <Gold.PLP.part.buried>
-5.5657

> <Gold.PLP.part.nonpolar>
-32.1498

> <Gold.PLP.part.repulsive>
0.2877

> <Gold.PLP.ligand.clash>
0.0000

> <Gold.PLP.ligand.torsion>
0.1954

> <Gold.PLP.Chemscore.Hbond>
1.0000

> <Gold.PLP.Chemscore.CHOScore>
0.0000

> <Gold.PLP.Chemscore.Metal>
0.0000

> <Gold.Chemscore.Hbonds>
donor molecule, donor type, donor heavy atom, donor atom, acceptor molecule, acceptor atom, score
      P1  H  6896  6908       L1    21  0.95

> <Gold.PLP.Chemscore.Internal.Correction>
0.0413

> <Gold.Rescore>
     Score         DG    S(hbond)    S(metal)    S(lipo)     H(rot)  DE(clash)    DE(int)     intcor
     10.61     -12.01       0.54        0.00      75.60       1.60       0.05       1.35       ----

> <Gold.Chemscore.Fitness>
10.6070

> <Gold.Chemscore.DG>
-12.0093

> <Gold.Chemscore.ZeroCoef>
-5.4800

> <Gold.Chemscore.Hbond>
0.5357

> <Gold.Chemscore.Metal>
0.0000

> <Gold.Chemscore.Lipo>
75.5994

> <Gold.Chemscore.Internal_Hbond>
0.0000

> <Gold.Chemscore.DEClash>
0.0494

> <Gold.Chemscore.DEInternal>
1.3529

> <Gold.Chemscore.Rot>
1.6035

> <Gold.Chemscore.Internal.Correction>
   9.000000E+99

> <Gold.Chemscore.Hbonds>
donor molecule, donor type, donor heavy atom, donor atom, acceptor molecule, acceptor atom, score
      P1  H  6896  6908       L1    21  0.15

> <Gold.Chemscore.Hbond.Weighted>
-1.7892

> <Gold.Chemscore.Metal.Weighted>
-0.0000

> <Gold.Chemscore.Lipo.Weighted>
-8.8451

> <Gold.Chemscore.Internal_Hbond.Weighted>
0.0000

> <Gold.Chemscore.DEClash.Weighted>
0.0494

> <Gold.Chemscore.DEInternal.Weighted>
1.3529

> <Gold.Chemscore.Rot.Weighted>
4.1050

> <Gold.Chemscore.Internal.Correction.Weighted>
   9.000000E+99

> <Gold.Protein.RotatedTorsions>
[ 6907 6896 6895 6894 ] final  169.89 input  -60.11 | X-H torsion
[ 7974 7965 7964 7962 ] final  -60.57 input  175.53 | X-H torsion
[ 8008 7997 7996 7995 ] final -124.17 input   59.86 | X-H torsion
[ 10167 10162 10161 10158 ] final   -0.91 input  -65.29 | X-H torsion
[ 10718 10713 10712 10709 ] final  -55.17 input   66.30 | X-H torsion
[ 10763 10752 10751 10750 ] final  -97.79 input  -60.55 | X-H torsion
[ 11005 11000 10999 10996 ] final  113.42 input  -57.11 | X-H torsion

> <Gold.Protein.ActiveResidues>
 VAL166  LYS551  ARG553  GLY616  TRP617  ASP618  TYR619  PRO620  LYS621  CYS622 
 ASP623  PHE694  ASN695  SER759  ASP760  ASP761  ALA762  ILE779  LEU786  VAL792 
 PHE793  MET794  SER795  GLU796  ALA797  LYS798  CYS799  TRP800  GLU811  SER814 

> <Gold.Protein.RotatedAtoms>
  151.8247  133.3399  159.3594 H   0  0  0  0  0  0  0  0  0  0  0  0  # atno 6907 bound_to 6896
  150.7283  134.5540  159.5818 H   0  0  0  0  0  0  0  0  0  0  0  0  # atno 6908 bound_to 6896
  152.2980  134.7645  160.0415 H   0  0  0  0  0  0  0  0  0  0  0  0  # atno 6909 bound_to 6896
  145.8139  140.8582  143.0168 H   0  0  0  0  0  0  0  0  0  0  0  0  # atno 7974 bound_to 7965
  155.1925  140.0413  157.2903 H   0  0  0  0  0  0  0  0  0  0  0  0  # atno 8008 bound_to 7997
  154.6129  140.2481  155.7618 H   0  0  0  0  0  0  0  0  0  0  0  0  # atno 8009 bound_to 7997
  156.2389  140.2911  156.0399 H   0  0  0  0  0  0  0  0  0  0  0  0  # atno 8010 bound_to 7997
  140.6788  143.6838  150.8084 H   0  0  0  0  0  0  0  0  0  0  0  0  # atno 10167 bound_to 10162
  156.1391  130.4155  150.0135 H   0  0  0  0  0  0  0  0  0  0  0  0  # atno 10718 bound_to 10713
  154.7359  135.5033  153.9040 H   0  0  0  0  0  0  0  0  0  0  0  0  # atno 10763 bound_to 10752
  153.0994  135.6681  153.9709 H   0  0  0  0  0  0  0  0  0  0  0  0  # atno 10764 bound_to 10752
  153.9499  135.3059  155.3418 H   0  0  0  0  0  0  0  0  0  0  0  0  # atno 10765 bound_to 10752
  139.8952  134.9549  156.6736 H   0  0  0  0  0  0  0  0  0  0  0  0  # atno 11005 bound_to 11000
  144.6754  140.0435  143.7480 LP  0  0  0  0  0  0  0  0  0  0  0  0  # atno 17320 bound_to 7965
  145.9748  139.2896  143.1077 LP  0  0  0  0  0  0  0  0  0  0  0  0  # atno 17321 bound_to 7965
  140.0535  143.5226  152.2662 LP  0  0  0  0  0  0  0  0  0  0  0  0  # atno 17342 bound_to 10162
  139.6096  144.7605  151.2982 LP  0  0  0  0  0  0  0  0  0  0  0  0  # atno 17343 bound_to 10162
  156.8025  130.9296  151.3645 LP  0  0  0  0  0  0  0  0  0  0  0  0  # atno 17370 bound_to 10713
  157.6559  130.8924  149.9728 LP  0  0  0  0  0  0  0  0  0  0  0  0  # atno 17371 bound_to 10713
  140.7354  133.9023  155.8240 LP  0  0  0  0  0  0  0  0  0  0  0  0  # atno 17394 bound_to 11000
  141.0120  134.1007  157.4211 LP  0  0  0  0  0  0  0  0  0  0  0  0  # atno 17395 bound_to 11000

$$$$
