AV-unprocessed.smi:1602|AV-procd|sdf|6441|dock9
  -GOLD-   22720 7 93D 1   1.00000     0.00000
 Structure written by MMmdl.
 35 36  0  0  0  0  0  0  0  0  2 V2000
  153.6478  139.7329  160.9555 C   0  0  0  0  0  0  0  0  0  0  0  0
  153.3268  140.8380  159.9372 C   0  0  2  0  0  0  0  0  0  0  0  0
  152.0960  141.6981  160.3408 C   0  0  0  0  0  0  0  0  0  0  0  0
  151.8966  142.9171  159.5587 N   0  0  0  0  0  0  0  0  0  0  0  0
  151.9845  144.2335  159.9704 C   0  0  0  0  0  0  0  0  0  0  0  0
  151.7383  145.0223  158.8833 C   0  0  0  0  0  0  0  0  0  0  0  0
  151.5242  144.0892  157.8312 C   0  0  0  0  0  0  0  0  0  0  0  0
  151.6323  142.8341  158.2329 N   0  0  0  0  0  0  0  0  0  0  0  0
  153.1230  140.2257  158.6317 N   0  5  0  0  0  0  0  0  0  0  0  0
  152.4617  138.7493  158.5171 S   0  0  0  0  0  0  0  0  0  0  0  0
  153.4242  137.6420  158.6396 O   0  0  0  0  0  0  0  0  0  0  0  0
  151.1936  138.6398  159.2565 O   0  0  0  0  0  0  0  0  0  0  0  0
  152.0486  138.8256  156.8320 N   0  0  0  0  0  0  0  0  0  0  0  0
  153.1509  138.6515  155.8709 C   0  0  0  0  0  0  0  0  0  0  0  0
  152.6221  138.5128  154.4340 C   0  0  0  0  0  0  0  0  0  0  0  0
  151.7857  139.6120  154.1091 O   0  0  0  0  0  0  0  0  0  0  0  0
  150.6451  139.6559  154.9519 C   0  0  0  0  0  0  0  0  0  0  0  0
  151.0743  139.8550  156.4139 C   0  0  0  0  0  0  0  0  0  0  0  0
  153.7831  140.1503  161.9534 H   0  0  0  0  0  0  0  0  0  0  0  0
  154.5691  139.2127  160.6911 H   0  0  0  0  0  0  0  0  0  0  0  0
  152.8544  138.9868  161.0105 H   0  0  0  0  0  0  0  0  0  0  0  0
  154.1908  141.5034  159.9169 H   0  0  0  0  0  0  0  0  0  0  0  0
  151.1935  141.0945  160.2399 H   0  0  0  0  0  0  0  0  0  0  0  0
  152.1470  141.9664  161.3965 H   0  0  0  0  0  0  0  0  0  0  0  0
  152.2060  144.4942  160.9948 H   0  0  0  0  0  0  0  0  0  0  0  0
  151.7175  146.1009  158.8448 H   0  0  0  0  0  0  0  0  0  0  0  0
  151.3005  144.2846  156.7930 H   0  0  0  0  0  0  0  0  0  0  0  0
  153.8202  139.5094  155.9453 H   0  0  0  0  0  0  0  0  0  0  0  0
  153.7329  137.7673  156.1303 H   0  0  0  0  0  0  0  0  0  0  0  0
  153.4554  138.4850  153.7319 H   0  0  0  0  0  0  0  0  0  0  0  0
  152.0756  137.5762  154.3120 H   0  0  0  0  0  0  0  0  0  0  0  0
  150.0051  140.4800  154.6366 H   0  0  0  0  0  0  0  0  0  0  0  0
  150.0594  138.7418  154.8419 H   0  0  0  0  0  0  0  0  0  0  0  0
  150.1931  139.8312  157.0537 H   0  0  0  0  0  0  0  0  0  0  0  0
  151.5274  140.8390  156.5384 H   0  0  0  0  0  0  0  0  0  0  0  0
  1  2  1  0  0  0  0
  1 19  1  0  0  0  0
  1 20  1  0  0  0  0
  1 21  1  0  0  0  0
  2  3  1  0  0  0  0
  2  9  1  0  0  0  0
  2 22  1  0  0  0  0
  3  4  1  0  0  0  0
  3 23  1  0  0  0  0
  3 24  1  0  0  0  0
  4  8  1  0  0  0  0
  4  5  1  0  0  0  0
  5  6  2  0  0  0  0
  5 25  1  0  0  0  0
  6  7  1  0  0  0  0
  6 26  1  0  0  0  0
  7  8  2  0  0  0  0
  7 27  1  0  0  0  0
  9 10  1  0  0  0  0
 10 11  2  0  0  0  0
 10 12  2  0  0  0  0
 10 13  1  0  0  0  0
 13 18  1  0  0  0  0
 13 14  1  0  0  0  0
 14 15  1  0  0  0  0
 14 28  1  0  0  0  0
 14 29  1  0  0  0  0
 15 16  1  0  0  0  0
 15 30  1  0  0  0  0
 15 31  1  0  0  0  0
 16 17  1  0  0  0  0
 17 18  1  0  0  0  0
 17 32  1  0  0  0  0
 17 33  1  0  0  0  0
 18 34  1  0  0  0  0
 18 35  1  0  0  0  0
M  CHG  1   9  -1
M  END
> <s_m_source_file>
AV-unprocessed.smi

> <i_m_source_file_index>
1602

> <i_lp_mmshare_version>
43012

> <i_f3d_flags>
0

> <s_epik_input>
bjFbY0hdW2NIXVtjSF1uMVtDSDJdW0NAQEhdKFtDSDNdKVtOSF1TKD1PKSg9TylOMltDSDJdW0NIMl1PW0NIMl1bQ0gyXTI=

> <s_epik_cmdline>
J2VwaWtfcHl0aG9uJywgJy1waCcsICc3LjAnLCAnLXRuJywgJzgnLCAnLW1hJywgJzIwMCcsICctbWV0YWxfYmluZGluZycsICctaW1hZScsICc8aW5maWxlLm1hZT4nLCAnLW9tYWUnLCAnPG91dGZpbGUubWFlPic=

> <r_lp_tautomer_probability>
1

> <r_epik_Ionization_Penalty>
1.03144

> <r_epik_Ionization_Penalty_Charging>
1.03142

> <r_epik_Ionization_Penalty_Neutral>
2.21579e-05

> <r_epik_State_Penalty>
1.0826

> <r_epik_Charging_Adjusted_Penalty>
2.11402

> <i_epik_Tot_Q>
-1

> <i_epik_Tot_abs_Q>
1

> <r_epik_Metal_State_Penalty>
0.386234

> <b_epik_Metal_Only>
0

> <s_lp_Force_Field>
OPLS_2005

> <r_lp_Energy>
6.71123

> <b_lp_Chiralities_Consistent>
1

> <s_lp_Variant>
AV-unprocessed.smi:1602-3

> <Gold.Version>
5.8.1

> <Gold.Id.Protein>
6NUR|6NUR_protein|mol2

> <Gold.PLP.Fitness>
45.8322

> <Gold.PLP.PLP>
-35.3429

> <Gold.PLP.part.hbond>
-2.2552

> <Gold.PLP.part.metal>
0.0000

> <Gold.PLP.part.buried>
-2.2404

> <Gold.PLP.part.nonpolar>
-31.1367

> <Gold.PLP.part.repulsive>
0.1982

> <Gold.PLP.ligand.clash>
0.0000

> <Gold.PLP.ligand.torsion>
1.4144

> <Gold.PLP.Chemscore.Hbond>
2.9520

> <Gold.PLP.Chemscore.CHOScore>
0.9845

> <Gold.PLP.Chemscore.Metal>
0.0000

> <Gold.Chemscore.Hbonds>
donor molecule, donor type, donor heavy atom, donor atom, acceptor molecule, acceptor atom, score
      P1  H  7989  7998       L1    16  0.61
      P1  H  7997  8010       L1     9  1.14
      L1  C     7    27       P1  8028  0.63

> <Gold.PLP.Chemscore.Internal.Correction>
1.5086

> <Gold.Rescore>
     Score         DG    S(hbond)    S(metal)    S(lipo)     H(rot)  DE(clash)    DE(int)     intcor
     15.84     -17.44       1.74        0.00      89.14       1.67       0.10       1.51       ----

> <Gold.Chemscore.Fitness>
15.8368

> <Gold.Chemscore.DG>
-17.4408

> <Gold.Chemscore.ZeroCoef>
-5.4800

> <Gold.Chemscore.Hbond>
1.7375

> <Gold.Chemscore.Metal>
0.0000

> <Gold.Chemscore.Lipo>
89.1448

> <Gold.Chemscore.Internal_Hbond>
0.0000

> <Gold.Chemscore.DEClash>
0.0978

> <Gold.Chemscore.DEInternal>
1.5063

> <Gold.Chemscore.Rot>
1.6688

> <Gold.Chemscore.Internal.Correction>
   9.000000E+99

> <Gold.Chemscore.Hbonds>
donor molecule, donor type, donor heavy atom, donor atom, acceptor molecule, acceptor atom, score
      P1  H  7989  7998       L1    16  0.15
      P1  H  7997  8010       L1     9  0.13

> <Gold.Chemscore.Hbond.Weighted>
-5.8031

> <Gold.Chemscore.Metal.Weighted>
-0.0000

> <Gold.Chemscore.Lipo.Weighted>
-10.4299

> <Gold.Chemscore.Internal_Hbond.Weighted>
0.0000

> <Gold.Chemscore.DEClash.Weighted>
0.0978

> <Gold.Chemscore.DEInternal.Weighted>
1.5063

> <Gold.Chemscore.Rot.Weighted>
4.2722

> <Gold.Chemscore.Internal.Correction.Weighted>
   9.000000E+99

> <Gold.Protein.RotatedTorsions>
[ 6907 6896 6895 6894 ] final  -17.14 input  -60.11 | X-H torsion
[ 7974 7965 7964 7962 ] final  105.05 input  175.53 | X-H torsion
[ 8008 7997 7996 7995 ] final   30.62 input   59.86 | X-H torsion
[ 10167 10162 10161 10158 ] final  149.79 input  -65.29 | X-H torsion
[ 10718 10713 10712 10709 ] final -129.97 input   66.30 | X-H torsion
[ 10763 10752 10751 10750 ] final  -74.55 input  -60.55 | X-H torsion
[ 11005 11000 10999 10996 ] final  170.85 input  -57.11 | X-H torsion

> <Gold.Protein.ActiveResidues>
 VAL166  LYS551  ARG553  GLY616  TRP617  ASP618  TYR619  PRO620  LYS621  CYS622 
 ASP623  PHE694  ASN695  SER759  ASP760  ASP761  ALA762  ILE779  LEU786  VAL792 
 PHE793  MET794  SER795  GLU796  ALA797  LYS798  CYS799  TRP800  GLU811  SER814 

> <Gold.Protein.RotatedAtoms>
  151.2978  135.0760  159.9227 H   0  0  0  0  0  0  0  0  0  0  0  0  # atno 6907 bound_to 6896
  152.5303  133.9864  159.7841 H   0  0  0  0  0  0  0  0  0  0  0  0  # atno 6908 bound_to 6896
  151.0146  133.5882  159.2709 H   0  0  0  0  0  0  0  0  0  0  0  0  # atno 6909 bound_to 6896
  145.3247  139.2503  143.3693 H   0  0  0  0  0  0  0  0  0  0  0  0  # atno 7974 bound_to 7965
  155.0933  140.3222  155.4567 H   0  0  0  0  0  0  0  0  0  0  0  0  # atno 8008 bound_to 7997
  156.2736  140.2074  156.6007 H   0  0  0  0  0  0  0  0  0  0  0  0  # atno 8009 bound_to 7997
  154.6886  140.0519  157.0327 H   0  0  0  0  0  0  0  0  0  0  0  0  # atno 8010 bound_to 7997
  139.4857  144.5574  151.7293 H   0  0  0  0  0  0  0  0  0  0  0  0  # atno 10167 bound_to 10162
  156.2099  130.6911  151.0637 H   0  0  0  0  0  0  0  0  0  0  0  0  # atno 10718 bound_to 10713
  154.4745  135.5861  153.6345 H   0  0  0  0  0  0  0  0  0  0  0  0  # atno 10763 bound_to 10752
  152.9839  135.6075  154.3324 H   0  0  0  0  0  0  0  0  0  0  0  0  # atno 10764 bound_to 10752
  154.3209  135.2843  155.2499 H   0  0  0  0  0  0  0  0  0  0  0  0  # atno 10765 bound_to 10752
  140.3127  134.7503  157.4004 H   0  0  0  0  0  0  0  0  0  0  0  0  # atno 11005 bound_to 11000
  146.3069  140.3812  142.8684 LP  0  0  0  0  0  0  0  0  0  0  0  0  # atno 17320 bound_to 7965
  144.8911  140.7525  143.5926 LP  0  0  0  0  0  0  0  0  0  0  0  0  # atno 17321 bound_to 7965
  140.5137  144.0985  150.6002 LP  0  0  0  0  0  0  0  0  0  0  0  0  # atno 17342 bound_to 10162
  140.3920  143.2748  152.0049 LP  0  0  0  0  0  0  0  0  0  0  0  0  # atno 17343 bound_to 10162
  157.7032  131.0767  150.6751 LP  0  0  0  0  0  0  0  0  0  0  0  0  # atno 17370 bound_to 10713
  156.6810  130.4567  149.5628 LP  0  0  0  0  0  0  0  0  0  0  0  0  # atno 17371 bound_to 10713
  140.1010  134.5472  155.8353 LP  0  0  0  0  0  0  0  0  0  0  0  0  # atno 17394 bound_to 11000
  141.2104  133.6695  156.6510 LP  0  0  0  0  0  0  0  0  0  0  0  0  # atno 17395 bound_to 11000

$$$$
