AV-unprocessed.smi:155|AV-procd|sdf|1279|dock4
  -GOLD-   2262018543D 1   1.00000     0.00000
 Structure written by MMmdl.
 64 67  0  0  0  0  0  0  0  0  3 V2000
  144.5783  134.4420  151.0153 C   0  0  0  0  0  0  0  0  0  0  0  0
  145.7155  133.4970  150.9519 N   0  3  0  0  0  0  0  0  0  0  0  0
  145.2638  132.1254  150.6221 C   0  0  0  0  0  0  0  0  0  0  0  0
  146.5606  133.5587  152.1714 C   0  0  0  0  0  0  0  0  0  0  0  0
  147.2361  134.9337  152.3595 C   0  0  0  0  0  0  0  0  0  0  0  0
  148.2099  134.9473  153.4839 N   0  3  2  0  0  0  0  0  0  0  0  0
  149.0201  133.7018  153.5631 C   0  0  0  0  0  0  0  0  0  0  0  0
  150.4957  134.0306  153.8499 C   0  0  0  0  0  0  0  0  0  0  0  0
  150.7609  134.4930  155.2924 C   0  0  0  0  0  0  0  0  0  0  0  0
  149.9373  135.6373  155.6775 N   0  0  0  0  0  0  0  0  0  0  0  0
  150.2793  136.9196  155.3439 C   0  0  0  0  0  0  0  0  0  0  0  0
  150.3214  137.2383  154.0212 N   0  0  0  0  0  0  0  0  0  0  0  0
  150.6481  138.4666  153.6143 C   0  0  0  0  0  0  0  0  0  0  0  0
  150.9726  139.5264  154.3517 N   0  0  0  0  0  0  0  0  0  0  0  0
  150.9359  139.2299  155.6810 C   0  0  0  0  0  0  0  0  0  0  0  0
  150.6058  137.9686  156.2623 C   0  0  0  0  0  0  0  0  0  0  0  0
  150.6935  138.0742  157.6481 N   0  0  0  0  0  0  0  0  0  0  0  0
  151.0371  139.3124  157.8694 C   0  0  0  0  0  0  0  0  0  0  0  0
  151.2026  140.0779  156.7412 N   0  0  0  0  0  0  0  0  0  0  0  0
  151.5706  141.4822  156.6925 C   0  0  0  0  0  0  0  0  0  0  0  0
  150.6213  142.3648  157.5269 C   0  0  2  0  0  0  0  0  0  0  0  0
  149.3855  142.5461  156.8605 O   0  0  0  0  0  0  0  0  0  0  0  0
  151.2354  143.7306  157.8949 C   0  0  2  0  0  0  0  0  0  0  0  0
  152.5754  143.6822  158.6501 C   0  0  0  0  0  0  0  0  0  0  0  0
  152.2895  144.4305  159.9398 C   0  0  0  0  0  0  0  0  0  0  0  0
  151.1150  145.3207  159.5559 C   0  0  0  0  0  0  0  0  0  0  0  0
  150.3427  144.4829  158.7121 O   0  0  0  0  0  0  0  0  0  0  0  0
  148.5421  135.3226  155.9990 C   0  0  0  0  0  0  0  0  0  0  0  0
  147.5901  135.3440  154.7810 C   0  0  0  0  0  0  0  0  0  0  0  0
  143.9029  134.1875  151.8335 H   0  0  0  0  0  0  0  0  0  0  0  0
  144.0093  134.4254  150.0850 H   0  0  0  0  0  0  0  0  0  0  0  0
  144.9295  135.4635  151.1663 H   0  0  0  0  0  0  0  0  0  0  0  0
  144.6576  131.7082  151.4276 H   0  0  0  0  0  0  0  0  0  0  0  0
  146.1086  131.4593  150.4478 H   0  0  0  0  0  0  0  0  0  0  0  0
  144.6623  132.1279  149.7122 H   0  0  0  0  0  0  0  0  0  0  0  0
  145.9242  133.3711  153.0379 H   0  0  0  0  0  0  0  0  0  0  0  0
  147.2964  132.7541  152.1440 H   0  0  0  0  0  0  0  0  0  0  0  0
  147.7292  135.2633  151.4443 H   0  0  0  0  0  0  0  0  0  0  0  0
  146.4490  135.6588  152.5716 H   0  0  0  0  0  0  0  0  0  0  0  0
  148.6101  133.0112  154.3016 H   0  0  0  0  0  0  0  0  0  0  0  0
  148.9882  133.1682  152.6127 H   0  0  0  0  0  0  0  0  0  0  0  0
  151.0978  133.1410  153.6633 H   0  0  0  0  0  0  0  0  0  0  0  0
  150.8471  134.7804  153.1404 H   0  0  0  0  0  0  0  0  0  0  0  0
  150.5362  133.6678  155.9691 H   0  0  0  0  0  0  0  0  0  0  0  0
  151.8175  134.6932  155.4587 H   0  0  0  0  0  0  0  0  0  0  0  0
  150.6478  138.6228  152.5456 H   0  0  0  0  0  0  0  0  0  0  0  0
  151.1761  139.7046  158.8667 H   0  0  0  0  0  0  0  0  0  0  0  0
  152.5938  141.5809  157.0571 H   0  0  0  0  0  0  0  0  0  0  0  0
  151.5807  141.8036  155.6504 H   0  0  0  0  0  0  0  0  0  0  0  0
  150.3950  141.8409  158.4566 H   0  0  0  0  0  0  0  0  0  0  0  0
  149.3454  143.4363  156.5448 H   0  0  0  0  0  0  0  0  0  0  0  0
  151.3823  144.3034  156.9778 H   0  0  0  0  0  0  0  0  0  0  0  0
  152.9372  142.6711  158.8398 H   0  0  0  0  0  0  0  0  0  0  0  0
  153.3434  144.2007  158.0750 H   0  0  0  0  0  0  0  0  0  0  0  0
  151.9810  143.7285  160.7157 H   0  0  0  0  0  0  0  0  0  0  0  0
  153.1481  144.9918  160.3093 H   0  0  0  0  0  0  0  0  0  0  0  0
  150.5424  145.6619  160.4185 H   0  0  0  0  0  0  0  0  0  0  0  0
  151.4534  146.1941  158.9963 H   0  0  0  0  0  0  0  0  0  0  0  0
  148.5154  134.3244  156.4370 H   0  0  0  0  0  0  0  0  0  0  0  0
  148.1682  135.9770  156.7875 H   0  0  0  0  0  0  0  0  0  0  0  0
  147.2111  136.3602  154.6788 H   0  0  0  0  0  0  0  0  0  0  0  0
  146.7240  134.7145  154.9898 H   0  0  0  0  0  0  0  0  0  0  0  0
  146.2910  133.8070  150.1815 H   0  0  0  0  0  0  0  0  0  0  0  0
  148.8753  135.6726  153.2564 H   0  0  0  0  0  0  0  0  0  0  0  0
  1  2  1  0  0  0  0
  1 30  1  0  0  0  0
  1 31  1  0  0  0  0
  1 32  1  0  0  0  0
  2  3  1  0  0  0  0
  2  4  1  0  0  0  0
  2 63  1  0  0  0  0
  3 33  1  0  0  0  0
  3 34  1  0  0  0  0
  3 35  1  0  0  0  0
  4  5  1  0  0  0  0
  4 36  1  0  0  0  0
  4 37  1  0  0  0  0
  5  6  1  0  0  0  0
  5 38  1  0  0  0  0
  5 39  1  0  0  0  0
  6 29  1  0  0  0  0
  6  7  1  0  0  0  0
  6 64  1  0  0  0  0
  7  8  1  0  0  0  0
  7 40  1  0  0  0  0
  7 41  1  0  0  0  0
  8  9  1  0  0  0  0
  8 42  1  0  0  0  0
  8 43  1  0  0  0  0
  9 10  1  0  0  0  0
  9 44  1  0  0  0  0
  9 45  1  0  0  0  0
 10 11  1  0  0  0  0
 10 28  1  0  0  0  0
 11 16  1  0  0  0  0
 11 12  2  0  0  0  0
 12 13  1  0  0  0  0
 13 14  2  0  0  0  0
 13 46  1  0  0  0  0
 14 15  1  0  0  0  0
 15 19  1  0  0  0  0
 15 16  2  0  0  0  0
 16 17  1  0  0  0  0
 17 18  2  0  0  0  0
 18 19  1  0  0  0  0
 18 47  1  0  0  0  0
 19 20  1  0  0  0  0
 20 21  1  0  0  0  0
 20 48  1  0  0  0  0
 20 49  1  0  0  0  0
 21 22  1  0  0  0  0
 21 23  1  0  0  0  0
 21 50  1  0  0  0  0
 22 51  1  0  0  0  0
 23 27  1  0  0  0  0
 23 24  1  0  0  0  0
 23 52  1  0  0  0  0
 24 25  1  0  0  0  0
 24 53  1  0  0  0  0
 24 54  1  0  0  0  0
 25 26  1  0  0  0  0
 25 55  1  0  0  0  0
 25 56  1  0  0  0  0
 26 27  1  0  0  0  0
 26 57  1  0  0  0  0
 26 58  1  0  0  0  0
 28 29  1  0  0  0  0
 28 59  1  0  0  0  0
 28 60  1  0  0  0  0
 29 61  1  0  0  0  0
 29 62  1  0  0  0  0
M  CHG  1   2   1
M  CHG  1   6   1
M  END
> <s_m_source_file>
AV-unprocessed.smi

> <i_m_source_file_index>
155

> <i_lp_mmshare_version>
43012

> <i_f3d_flags>
0

> <s_epik_input>
W0NIM11OKFtDSDNdKVtDSDJdW0NIMl1OMVtDSDJdW0NIMl1bQ0gyXU4oW0NIMl1bQ0gyXTEpYyhuW2NIXW4yKWMoYzIzKW5bY0hdbjNbQ0gyXVtDQEhdKFtPSF0pW0NAQEhdNFtDSDJdW0NIMl1bQ0gyXU80

> <s_epik_cmdline>
J2VwaWtfcHl0aG9uJywgJy1waCcsICc3LjAnLCAnLXRuJywgJzgnLCAnLW1hJywgJzIwMCcsICctbWV0YWxfYmluZGluZycsICctaW1hZScsICc8aW5maWxlLm1hZT4nLCAnLW9tYWUnLCAnPG91dGZpbGUubWFlPic=

> <r_lp_tautomer_probability>
1

> <r_epik_Ionization_Penalty>
3.0333

> <r_epik_Ionization_Penalty_Charging>
3.03317

> <r_epik_Ionization_Penalty_Neutral>
0.000131872

> <r_epik_State_Penalty>
1.99939

> <r_epik_Charging_Adjusted_Penalty>
5.03256

> <i_epik_Tot_Q>
2

> <i_epik_Tot_abs_Q>
2

> <r_epik_Metal_State_Penalty>
2.00021

> <b_epik_Metal_Only>
0

> <s_lp_Force_Field>
OPLS_2005

> <r_lp_Energy>
62.7096

> <b_lp_Chiralities_Consistent>
1

> <s_lp_Variant>
AV-unprocessed.smi:155-13

> <Gold.Version>
5.8.1

> <Gold.Id.Protein>
6NUR|6NUR_protein|mol2

> <Gold.PLP.Fitness>
48.8768

> <Gold.PLP.PLP>
-38.2709

> <Gold.PLP.part.hbond>
-2.9737

> <Gold.PLP.part.metal>
0.0000

> <Gold.PLP.part.buried>
-4.6598

> <Gold.PLP.part.nonpolar>
-33.4843

> <Gold.PLP.part.repulsive>
3.0356

> <Gold.PLP.ligand.clash>
0.0000

> <Gold.PLP.ligand.torsion>
1.8607

> <Gold.PLP.Chemscore.Hbond>
3.3033

> <Gold.PLP.Chemscore.CHOScore>
1.3419

> <Gold.PLP.Chemscore.Metal>
0.0000

> <Gold.Chemscore.Hbonds>
donor molecule, donor type, donor heavy atom, donor atom, acceptor molecule, acceptor atom, score
      L1  H     6    64       P1  7948  0.73
      L1  H    22    51       P1  8028  1.00
      P1  H  7989  7998       L1    14  1.00
      L1  C    13    46       P1  7949  0.05
      L1  C    13    46       P1  7957  0.58

> <Gold.PLP.Chemscore.Internal.Correction>
0.3916

> <Gold.Rescore>
     Score         DG    S(hbond)    S(metal)    S(lipo)     H(rot)  DE(clash)    DE(int)     intcor
     15.06     -19.33       2.50        0.00     107.11       2.75       1.96       2.31       ----

> <Gold.Chemscore.Fitness>
15.0584

> <Gold.Chemscore.DG>
-19.3273

> <Gold.Chemscore.ZeroCoef>
-5.4800

> <Gold.Chemscore.Hbond>
2.5010

> <Gold.Chemscore.Metal>
0.0000

> <Gold.Chemscore.Lipo>
107.1133

> <Gold.Chemscore.Internal_Hbond>
0.0000

> <Gold.Chemscore.DEClash>
1.9586

> <Gold.Chemscore.DEInternal>
2.3102

> <Gold.Chemscore.Rot>
2.7493

> <Gold.Chemscore.Internal.Correction>
   9.000000E+99

> <Gold.Chemscore.Hbonds>
donor molecule, donor type, donor heavy atom, donor atom, acceptor molecule, acceptor atom, score
      L1  H     6    64       P1  7948  0.33
      L1  H    22    51       P1  8028  0.98
      P1  H  7989  7998       L1    14  0.91

> <Gold.Chemscore.Hbond.Weighted>
-8.3533

> <Gold.Chemscore.Metal.Weighted>
-0.0000

> <Gold.Chemscore.Lipo.Weighted>
-12.5323

> <Gold.Chemscore.Internal_Hbond.Weighted>
0.0000

> <Gold.Chemscore.DEClash.Weighted>
1.9586

> <Gold.Chemscore.DEInternal.Weighted>
2.3102

> <Gold.Chemscore.Rot.Weighted>
7.0383

> <Gold.Chemscore.Internal.Correction.Weighted>
   9.000000E+99

> <Gold.Protein.RotatedTorsions>
[ 6907 6896 6895 6894 ] final  -94.29 input  -60.11 | X-H torsion
[ 7974 7965 7964 7962 ] final  127.35 input  175.53 | X-H torsion
[ 8008 7997 7996 7995 ] final  113.42 input   59.86 | X-H torsion
[ 10167 10162 10161 10158 ] final  -95.79 input  -65.29 | X-H torsion
[ 10718 10713 10712 10709 ] final  109.08 input   66.30 | X-H torsion
[ 10763 10752 10751 10750 ] final -128.75 input  -60.55 | X-H torsion
[ 11005 11000 10999 10996 ] final -143.07 input  -57.11 | X-H torsion

> <Gold.Protein.ActiveResidues>
 VAL166  LYS551  ARG553  GLY616  TRP617  ASP618  TYR619  PRO620  LYS621  CYS622 
 ASP623  PHE694  ASN695  SER759  ASP760  ASP761  ALA762  ILE779  LEU786  VAL792 
 PHE793  MET794  SER795  GLU796  ALA797  LYS798  CYS799  TRP800  GLU811  SER814 

> <Gold.Protein.RotatedAtoms>
  150.6939  134.1836  159.4257 H   0  0  0  0  0  0  0  0  0  0  0  0  # atno 6907 bound_to 6896
  151.9809  135.0026  160.0566 H   0  0  0  0  0  0  0  0  0  0  0  0  # atno 6908 bound_to 6896
  152.1756  133.4637  159.4968 H   0  0  0  0  0  0  0  0  0  0  0  0  # atno 6909 bound_to 6896
  145.0516  139.3879  143.5051 H   0  0  0  0  0  0  0  0  0  0  0  0  # atno 7974 bound_to 7965
  156.2257  140.2980  156.0061 H   0  0  0  0  0  0  0  0  0  0  0  0  # atno 8008 bound_to 7997
  155.2363  140.0421  157.2986 H   0  0  0  0  0  0  0  0  0  0  0  0  # atno 8009 bound_to 7997
  154.5911  140.2402  155.7927 H   0  0  0  0  0  0  0  0  0  0  0  0  # atno 8010 bound_to 7997
  140.3005  143.3165  152.0253 H   0  0  0  0  0  0  0  0  0  0  0  0  # atno 10167 bound_to 10162
  157.6557  131.0906  150.6401 H   0  0  0  0  0  0  0  0  0  0  0  0  # atno 10718 bound_to 10713
  154.8757  135.3918  154.3807 H   0  0  0  0  0  0  0  0  0  0  0  0  # atno 10763 bound_to 10752
  153.4555  135.7028  153.6087 H   0  0  0  0  0  0  0  0  0  0  0  0  # atno 10764 bound_to 10752
  153.4609  135.3812  155.2306 H   0  0  0  0  0  0  0  0  0  0  0  0  # atno 10765 bound_to 10752
  140.8162  134.2686  157.4920 H   0  0  0  0  0  0  0  0  0  0  0  0  # atno 11005 bound_to 11000
  146.3518  140.0168  142.8662 LP  0  0  0  0  0  0  0  0  0  0  0  0  # atno 17320 bound_to 7965
  145.1521  140.9628  143.4427 LP  0  0  0  0  0  0  0  0  0  0  0  0  # atno 17321 bound_to 7965
  139.4916  144.6459  151.6779 LP  0  0  0  0  0  0  0  0  0  0  0  0  # atno 17342 bound_to 10162
  140.5655  144.0197  150.6190 LP  0  0  0  0  0  0  0  0  0  0  0  0  # atno 17343 bound_to 10162
  156.6708  130.4539  149.5658 LP  0  0  0  0  0  0  0  0  0  0  0  0  # atno 17370 bound_to 10713
  156.1999  130.6613  151.1156 LP  0  0  0  0  0  0  0  0  0  0  0  0  # atno 17371 bound_to 10713
  139.8711  134.9510  156.4072 LP  0  0  0  0  0  0  0  0  0  0  0  0  # atno 17394 bound_to 11000
  140.9147  133.7687  155.9833 LP  0  0  0  0  0  0  0  0  0  0  0  0  # atno 17395 bound_to 11000

$$$$
