AV-unprocessed.smi:212|AV-procd|sdf|1632|dock3
  -GOLD-   2262019583D 1   1.00000     0.00000
 Structure written by MMmdl.
 65 68  0  0  0  0  0  0  0  0  2 V2000
  143.3002  137.5874  154.4442 C   0  0  0  0  0  0  0  0  0  0  0  0
  144.0251  136.3368  153.9101 C   0  0  1  0  0  0  0  0  0  0  0  0
  143.8323  136.1482  152.3919 C   0  0  0  0  0  0  0  0  0  0  0  0
  144.4780  134.8919  151.9279 N   0  3  1  0  0  0  0  0  0  0  0  0
  144.2269  134.5961  150.4918 C   0  0  0  0  0  0  0  0  0  0  0  0
  144.2564  133.0820  150.1719 C   0  0  0  0  0  0  0  0  0  0  0  0
  143.6115  132.8214  148.8001 C   0  0  0  0  0  0  0  0  0  0  0  0
  145.6833  132.5039  150.2074 C   0  0  0  0  0  0  0  0  0  0  0  0
  143.4713  132.3859  151.1192 O   0  0  0  0  0  0  0  0  0  0  0  0
  145.9183  134.8354  152.2880 C   0  0  0  0  0  0  0  0  0  0  0  0
  146.1374  135.0776  153.7958 C   0  0  0  0  0  0  0  0  0  0  0  0
  145.4451  136.2727  154.2709 N   0  0  0  0  0  0  0  0  0  0  0  0
  146.1655  137.4178  154.2066 C   0  0  0  0  0  0  0  0  0  0  0  0
  146.3208  138.0656  153.0228 N   0  0  0  0  0  0  0  0  0  0  0  0
  147.0230  139.2019  152.9705 C   0  0  0  0  0  0  0  0  0  0  0  0
  147.6388  139.8492  153.9624 N   0  0  0  0  0  0  0  0  0  0  0  0
  147.4835  139.1978  155.1508 C   0  0  0  0  0  0  0  0  0  0  0  0
  146.7690  137.9858  155.3587 C   0  0  0  0  0  0  0  0  0  0  0  0
  146.8251  137.6198  156.6973 N   0  0  0  0  0  0  0  0  0  0  0  0
  147.5393  138.5619  157.2513 C   0  0  0  0  0  0  0  0  0  0  0  0
  147.9775  139.5470  156.3952 N   0  0  0  0  0  0  0  0  0  0  0  0
  148.7830  140.7027  156.7461 C   0  0  0  0  0  0  0  0  0  0  0  0
  150.2578  140.3631  157.0890 C   0  0  1  0  0  0  0  0  0  0  0  0
  151.2049  140.5398  155.8742 C   0  0  0  0  0  0  0  0  0  0  0  0
  150.6851  139.9381  154.7059 O   0  0  0  0  0  0  0  0  0  0  0  0
  150.7390  141.2128  158.2942 C   0  0  1  0  0  0  0  0  0  0  0  0
  152.1267  140.8682  158.8102 C   0  0  0  0  0  0  0  0  0  0  0  0
  152.4858  142.1123  159.6107 C   0  0  0  0  0  0  0  0  0  0  0  0
  151.9316  143.1923  158.8727 O   0  0  0  0  0  0  0  0  0  0  0  0
  150.9094  142.7115  158.0036 C   0  0  0  0  0  0  0  0  0  0  0  0
  142.2298  137.5288  154.2448 H   0  0  0  0  0  0  0  0  0  0  0  0
  143.6676  138.5025  153.9786 H   0  0  0  0  0  0  0  0  0  0  0  0
  143.4259  137.6841  155.5231 H   0  0  0  0  0  0  0  0  0  0  0  0
  143.5605  135.4814  154.4025 H   0  0  0  0  0  0  0  0  0  0  0  0
  142.7672  136.1217  152.1645 H   0  0  0  0  0  0  0  0  0  0  0  0
  144.2451  136.9966  151.8445 H   0  0  0  0  0  0  0  0  0  0  0  0
  143.2823  135.0422  150.1756 H   0  0  0  0  0  0  0  0  0  0  0  0
  144.9917  135.0810  149.8826 H   0  0  0  0  0  0  0  0  0  0  0  0
  144.1656  133.3187  148.0031 H   0  0  0  0  0  0  0  0  0  0  0  0
  142.5853  133.1896  148.7653 H   0  0  0  0  0  0  0  0  0  0  0  0
  143.5864  131.7563  148.5650 H   0  0  0  0  0  0  0  0  0  0  0  0
  146.3326  133.0156  149.4964 H   0  0  0  0  0  0  0  0  0  0  0  0
  145.6874  131.4438  149.9502 H   0  0  0  0  0  0  0  0  0  0  0  0
  146.1362  132.5979  151.1948 H   0  0  0  0  0  0  0  0  0  0  0  0
  143.2572  132.9760  151.8265 H   0  0  0  0  0  0  0  0  0  0  0  0
  146.3236  133.8588  152.0207 H   0  0  0  0  0  0  0  0  0  0  0  0
  146.4649  135.5715  151.6980 H   0  0  0  0  0  0  0  0  0  0  0  0
  145.7597  134.2251  154.3614 H   0  0  0  0  0  0  0  0  0  0  0  0
  147.2040  135.1433  154.0168 H   0  0  0  0  0  0  0  0  0  0  0  0
  147.1019  139.6590  151.9950 H   0  0  0  0  0  0  0  0  0  0  0  0
  147.7725  138.5633  158.3063 H   0  0  0  0  0  0  0  0  0  0  0  0
  148.7448  141.4157  155.9214 H   0  0  0  0  0  0  0  0  0  0  0  0
  148.2942  141.1870  157.5912 H   0  0  0  0  0  0  0  0  0  0  0  0
  150.2997  139.3167  157.3966 H   0  0  0  0  0  0  0  0  0  0  0  0
  151.4026  141.5957  155.6864 H   0  0  0  0  0  0  0  0  0  0  0  0
  152.1707  140.0695  156.0526 H   0  0  0  0  0  0  0  0  0  0  0  0
  149.7640  139.7731  154.8381 H   0  0  0  0  0  0  0  0  0  0  0  0
  150.0329  141.0996  159.1187 H   0  0  0  0  0  0  0  0  0  0  0  0
  152.1497  139.9650  159.4206 H   0  0  0  0  0  0  0  0  0  0  0  0
  152.8248  140.7419  157.9813 H   0  0  0  0  0  0  0  0  0  0  0  0
  152.0157  142.0809  160.5943 H   0  0  0  0  0  0  0  0  0  0  0  0
  153.5606  142.2292  159.7498 H   0  0  0  0  0  0  0  0  0  0  0  0
  151.2344  142.8772  156.9756 H   0  0  0  0  0  0  0  0  0  0  0  0
  149.9844  143.2679  158.1566 H   0  0  0  0  0  0  0  0  0  0  0  0
  144.0396  134.1426  152.4439 H   0  0  0  0  0  0  0  0  0  0  0  0
  1  2  1  0  0  0  0
  1 31  1  0  0  0  0
  1 32  1  0  0  0  0
  1 33  1  0  0  0  0
  2 12  1  0  0  0  0
  2  3  1  0  0  0  0
  2 34  1  0  0  0  0
  3  4  1  0  0  0  0
  3 35  1  0  0  0  0
  3 36  1  0  0  0  0
  4  5  1  0  0  0  0
  4 10  1  0  0  0  0
  4 65  1  0  0  0  0
  5  6  1  0  0  0  0
  5 37  1  0  0  0  0
  5 38  1  0  0  0  0
  6  7  1  0  0  0  0
  6  8  1  0  0  0  0
  6  9  1  0  0  0  0
  7 39  1  0  0  0  0
  7 40  1  0  0  0  0
  7 41  1  0  0  0  0
  8 42  1  0  0  0  0
  8 43  1  0  0  0  0
  8 44  1  0  0  0  0
  9 45  1  0  0  0  0
 10 11  1  0  0  0  0
 10 46  1  0  0  0  0
 10 47  1  0  0  0  0
 11 12  1  0  0  0  0
 11 48  1  0  0  0  0
 11 49  1  0  0  0  0
 12 13  1  0  0  0  0
 13 18  1  0  0  0  0
 13 14  2  0  0  0  0
 14 15  1  0  0  0  0
 15 16  2  0  0  0  0
 15 50  1  0  0  0  0
 16 17  1  0  0  0  0
 17 21  1  0  0  0  0
 17 18  2  0  0  0  0
 18 19  1  0  0  0  0
 19 20  2  0  0  0  0
 20 21  1  0  0  0  0
 20 51  1  0  0  0  0
 21 22  1  0  0  0  0
 22 23  1  0  0  0  0
 22 52  1  0  0  0  0
 22 53  1  0  0  0  0
 23 24  1  0  0  0  0
 23 26  1  0  0  0  0
 23 54  1  0  0  0  0
 24 25  1  0  0  0  0
 24 55  1  0  0  0  0
 24 56  1  0  0  0  0
 25 57  1  0  0  0  0
 26 30  1  0  0  0  0
 26 27  1  0  0  0  0
 26 58  1  0  0  0  0
 27 28  1  0  0  0  0
 27 59  1  0  0  0  0
 27 60  1  0  0  0  0
 28 29  1  0  0  0  0
 28 61  1  0  0  0  0
 28 62  1  0  0  0  0
 29 30  1  0  0  0  0
 30 63  1  0  0  0  0
 30 64  1  0  0  0  0
M  CHG  1   4   1
M  END
> <s_m_source_file>
AV-unprocessed.smi

> <i_m_source_file_index>
212

> <i_lp_mmshare_version>
43012

> <i_f3d_flags>
0

> <s_epik_input>
W0NIM11bQ0BASF0xW0NIMl1OKFtDSDJdQyhbQ0gzXSkoW0NIM10pW09IXSlbQ0gyXVtDSDJdTjFjKG5bY0hdbjIpYyhjMjMpbltjSF1uM1tDSDJdW0NASF0oW0NIMl1bT0hdKVtDQEBIXTRbQ0gyXVtDSDJdT1tDSDJdNA==

> <s_epik_cmdline>
J2VwaWtfcHl0aG9uJywgJy1waCcsICc3LjAnLCAnLXRuJywgJzgnLCAnLW1hJywgJzIwMCcsICctbWV0YWxfYmluZGluZycsICctaW1hZScsICc8aW5maWxlLm1hZT4nLCAnLW9tYWUnLCAnPG91dGZpbGUubWFlPic=

> <r_lp_tautomer_probability>
1

> <r_epik_Ionization_Penalty>
0.00182193

> <r_epik_Ionization_Penalty_Charging>
0.00173996

> <r_epik_Ionization_Penalty_Neutral>
8.19718e-05

> <r_epik_State_Penalty>
-0

> <r_epik_Charging_Adjusted_Penalty>
0.00173996

> <i_epik_Tot_Q>
1

> <i_epik_Tot_abs_Q>
1

> <r_epik_Metal_State_Penalty>
-0

> <b_epik_Metal_Only>
0

> <s_lp_Force_Field>
OPLS_2005

> <r_lp_Energy>
59.0262

> <b_lp_Chiralities_Consistent>
1

> <s_lp_Variant>
AV-unprocessed.smi:212-16

> <Gold.Version>
5.8.1

> <Gold.Id.Protein>
6NUR|6NUR_protein|mol2

> <Gold.PLP.Fitness>
42.4257

> <Gold.PLP.PLP>
-38.7651

> <Gold.PLP.part.hbond>
-1.0000

> <Gold.PLP.part.metal>
0.0000

> <Gold.PLP.part.buried>
-7.3239

> <Gold.PLP.part.nonpolar>
-31.3499

> <Gold.PLP.part.repulsive>
0.4766

> <Gold.PLP.ligand.clash>
0.0000

> <Gold.PLP.ligand.torsion>
1.3809

> <Gold.PLP.Chemscore.Hbond>
1.0000

> <Gold.PLP.Chemscore.CHOScore>
0.7553

> <Gold.PLP.Chemscore.Metal>
0.0000

> <Gold.Chemscore.Hbonds>
donor molecule, donor type, donor heavy atom, donor atom, acceptor molecule, acceptor atom, score
      P1  H  7989  7998       L1    25  0.90
      L1  C    15    50       P1  7957  0.52

> <Gold.PLP.Chemscore.Internal.Correction>
1.1565

> <Gold.Rescore>
     Score         DG    S(hbond)    S(metal)    S(lipo)     H(rot)  DE(clash)    DE(int)     intcor
      8.91     -10.34       0.95        0.00      94.96       3.68       0.02       1.40       ----

> <Gold.Chemscore.Fitness>
8.9109

> <Gold.Chemscore.DG>
-10.3361

> <Gold.Chemscore.ZeroCoef>
-5.4800

> <Gold.Chemscore.Hbond>
0.9490

> <Gold.Chemscore.Metal>
0.0000

> <Gold.Chemscore.Lipo>
94.9620

> <Gold.Chemscore.Internal_Hbond>
0.0000

> <Gold.Chemscore.DEClash>
0.0231

> <Gold.Chemscore.DEInternal>
1.4021

> <Gold.Chemscore.Rot>
3.6812

> <Gold.Chemscore.Internal.Correction>
   9.000000E+99

> <Gold.Chemscore.Hbonds>
donor molecule, donor type, donor heavy atom, donor atom, acceptor molecule, acceptor atom, score
      P1  H  7989  7998       L1    25  0.18

> <Gold.Chemscore.Hbond.Weighted>
-3.1695

> <Gold.Chemscore.Metal.Weighted>
-0.0000

> <Gold.Chemscore.Lipo.Weighted>
-11.1106

> <Gold.Chemscore.Internal_Hbond.Weighted>
0.0000

> <Gold.Chemscore.DEClash.Weighted>
0.0231

> <Gold.Chemscore.DEInternal.Weighted>
1.4021

> <Gold.Chemscore.Rot.Weighted>
9.4239

> <Gold.Chemscore.Internal.Correction.Weighted>
   9.000000E+99

> <Gold.Protein.RotatedTorsions>
[ 6907 6896 6895 6894 ] final  177.99 input  -60.11 | X-H torsion
[ 7974 7965 7964 7962 ] final  -67.93 input  175.53 | X-H torsion
[ 8008 7997 7996 7995 ] final    5.07 input   59.86 | X-H torsion
[ 10167 10162 10161 10158 ] final  136.70 input  -65.29 | X-H torsion
[ 10718 10713 10712 10709 ] final   40.62 input   66.30 | X-H torsion
[ 10763 10752 10751 10750 ] final  -32.47 input  -60.55 | X-H torsion
[ 11005 11000 10999 10996 ] final   18.95 input  -57.11 | X-H torsion

> <Gold.Protein.ActiveResidues>
 VAL166  LYS551  ARG553  GLY616  TRP617  ASP618  TYR619  PRO620  LYS621  CYS622 
 ASP623  PHE694  ASN695  SER759  ASP760  ASP761  ALA762  ILE779  LEU786  VAL792 
 PHE793  MET794  SER795  GLU796  ALA797  LYS798  CYS799  TRP800  GLU811  SER814 

> <Gold.Protein.RotatedAtoms>
  151.6950  133.3311  159.3252 H   0  0  0  0  0  0  0  0  0  0  0  0  # atno 6907 bound_to 6896
  150.7761  134.6665  159.6378 H   0  0  0  0  0  0  0  0  0  0  0  0  # atno 6908 bound_to 6896
  152.3804  134.6602  160.0197 H   0  0  0  0  0  0  0  0  0  0  0  0  # atno 6909 bound_to 6896
  145.7230  140.9030  143.0620 H   0  0  0  0  0  0  0  0  0  0  0  0  # atno 7974 bound_to 7965
  154.7237  140.2717  155.6518 H   0  0  0  0  0  0  0  0  0  0  0  0  # atno 8008 bound_to 7997
  156.2831  140.2729  156.1841 H   0  0  0  0  0  0  0  0  0  0  0  0  # atno 8009 bound_to 7997
  155.0473  140.0371  157.2521 H   0  0  0  0  0  0  0  0  0  0  0  0  # atno 8010 bound_to 7997
  139.5170  144.6450  151.5465 H   0  0  0  0  0  0  0  0  0  0  0  0  # atno 10167 bound_to 10162
  157.3843  130.7771  149.7217 H   0  0  0  0  0  0  0  0  0  0  0  0  # atno 10718 bound_to 10713
  153.8143  135.6879  153.4836 H   0  0  0  0  0  0  0  0  0  0  0  0  # atno 10763 bound_to 10752
  153.1609  135.4580  154.9768 H   0  0  0  0  0  0  0  0  0  0  0  0  # atno 10764 bound_to 10752
  154.7954  135.3317  154.7621 H   0  0  0  0  0  0  0  0  0  0  0  0  # atno 10765 bound_to 10752
  140.4191  134.1538  155.7671 H   0  0  0  0  0  0  0  0  0  0  0  0  # atno 11005 bound_to 11000
  144.6912  139.9228  143.7468 LP  0  0  0  0  0  0  0  0  0  0  0  0  # atno 17320 bound_to 7965
  146.0608  139.3602  143.0582 LP  0  0  0  0  0  0  0  0  0  0  0  0  # atno 17321 bound_to 7965
  140.6231  143.9220  150.6542 LP  0  0  0  0  0  0  0  0  0  0  0  0  # atno 17342 bound_to 10162
  140.2500  143.3600  152.1414 LP  0  0  0  0  0  0  0  0  0  0  0  0  # atno 17343 bound_to 10162
  155.9783  130.4053  150.3658 LP  0  0  0  0  0  0  0  0  0  0  0  0  # atno 17370 bound_to 10713
  157.1766  131.0382  151.2769 LP  0  0  0  0  0  0  0  0  0  0  0  0  # atno 17371 bound_to 10713
  141.1791  133.8451  157.1320 LP  0  0  0  0  0  0  0  0  0  0  0  0  # atno 17394 bound_to 11000
  140.0213  134.9944  157.0597 LP  0  0  0  0  0  0  0  0  0  0  0  0  # atno 17395 bound_to 11000

$$$$
