AV-unprocessed.smi:2004|AV-procd|sdf|8124|dock5
  -GOLD-   2272010363D 1   1.00000     0.00000
 Structure written by MMmdl.
 40 42  0  0  0  0  0  0  0  0  2 V2000
  155.9695  138.8767  164.0304 O   0  0  0  0  0  0  0  0  0  0  0  0
  155.2663  139.0136  162.8111 C   0  0  1  0  0  0  0  0  0  0  0  0
  154.2223  137.8907  162.7210 C   0  0  0  0  0  0  0  0  0  0  0  0
  154.8320  136.6665  163.0960 O   0  0  0  0  0  0  0  0  0  0  0  0
  154.3451  136.1648  164.3300 C   0  0  0  0  0  0  0  0  0  0  0  0
  154.2397  134.6522  164.3191 C   0  0  0  0  0  0  0  0  0  0  0  0
  153.8820  133.9598  165.4952 C   0  0  0  0  0  0  0  0  0  0  0  0
  153.7988  132.5536  165.4920 C   0  0  0  0  0  0  0  0  0  0  0  0
  154.0776  131.8340  164.3140 C   0  0  0  0  0  0  0  0  0  0  0  0
  154.4416  132.5209  163.1399 C   0  0  0  0  0  0  0  0  0  0  0  0
  154.5255  133.9271  163.1427 C   0  0  0  0  0  0  0  0  0  0  0  0
  154.6158  140.4105  162.7669 C   0  0  0  0  0  0  0  0  0  0  0  0
  154.0724  140.7440  161.4437 N   0  0  0  0  0  0  0  0  0  0  0  0
  154.1522  140.0642  160.2679 C   0  0  0  0  0  0  0  0  0  0  0  0
  153.4775  140.7851  159.3297 N   0  3  0  0  0  0  0  0  0  0  0  0
  152.9591  141.9425  159.9151 C   0  0  0  0  0  0  0  0  0  0  0  0
  152.2045  142.9796  159.3751 C   0  0  0  0  0  0  0  0  0  0  0  0
  151.8333  144.0175  160.2554 C   0  0  0  0  0  0  0  0  0  0  0  0
  152.2114  143.9996  161.6139 C   0  0  0  0  0  0  0  0  0  0  0  0
  152.9768  142.9436  162.1508 C   0  0  0  0  0  0  0  0  0  0  0  0
  153.3388  141.9221  161.2738 C   0  0  0  0  0  0  0  0  0  0  0  0
  155.4703  139.3030  164.7106 H   0  0  0  0  0  0  0  0  0  0  0  0
  155.9724  138.9200  161.9853 H   0  0  0  0  0  0  0  0  0  0  0  0
  153.3508  138.1107  163.3401 H   0  0  0  0  0  0  0  0  0  0  0  0
  153.8723  137.7961  161.6917 H   0  0  0  0  0  0  0  0  0  0  0  0
  155.0041  136.4812  165.1402 H   0  0  0  0  0  0  0  0  0  0  0  0
  153.3560  136.5765  164.5356 H   0  0  0  0  0  0  0  0  0  0  0  0
  153.6704  134.5057  166.4030 H   0  0  0  0  0  0  0  0  0  0  0  0
  153.5224  132.0269  166.3936 H   0  0  0  0  0  0  0  0  0  0  0  0
  154.0144  130.7558  164.3116 H   0  0  0  0  0  0  0  0  0  0  0  0
  154.6579  131.9694  162.2369 H   0  0  0  0  0  0  0  0  0  0  0  0
  154.8087  134.4453  162.2380 H   0  0  0  0  0  0  0  0  0  0  0  0
  153.8112  140.4929  163.4987 H   0  0  0  0  0  0  0  0  0  0  0  0
  155.3477  141.1781  163.0232 H   0  0  0  0  0  0  0  0  0  0  0  0
  154.6548  139.1207  160.1103 H   0  0  0  0  0  0  0  0  0  0  0  0
  151.9129  142.9957  158.3351 H   0  0  0  0  0  0  0  0  0  0  0  0
  151.2466  144.8441  159.8813 H   0  0  0  0  0  0  0  0  0  0  0  0
  151.9077  144.8123  162.2577 H   0  0  0  0  0  0  0  0  0  0  0  0
  153.2605  142.9365  163.1928 H   0  0  0  0  0  0  0  0  0  0  0  0
  153.3778  140.5035  158.3629 H   0  0  0  0  0  0  0  0  0  0  0  0
  1  2  1  0  0  0  0
  1 22  1  0  0  0  0
  2  3  1  0  0  0  0
  2 12  1  0  0  0  0
  2 23  1  0  0  0  0
  3  4  1  0  0  0  0
  3 24  1  0  0  0  0
  3 25  1  0  0  0  0
  4  5  1  0  0  0  0
  5  6  1  0  0  0  0
  5 26  1  0  0  0  0
  5 27  1  0  0  0  0
  6 11  1  0  0  0  0
  6  7  2  0  0  0  0
  7  8  1  0  0  0  0
  7 28  1  0  0  0  0
  8  9  2  0  0  0  0
  8 29  1  0  0  0  0
  9 10  1  0  0  0  0
  9 30  1  0  0  0  0
 10 11  2  0  0  0  0
 10 31  1  0  0  0  0
 11 32  1  0  0  0  0
 12 13  1  0  0  0  0
 12 33  1  0  0  0  0
 12 34  1  0  0  0  0
 13 21  1  0  0  0  0
 13 14  1  0  0  0  0
 14 15  2  0  0  0  0
 14 35  1  0  0  0  0
 15 16  1  0  0  0  0
 15 40  1  0  0  0  0
 16 21  2  0  0  0  0
 16 17  1  0  0  0  0
 17 18  2  0  0  0  0
 17 36  1  0  0  0  0
 18 19  1  0  0  0  0
 18 37  1  0  0  0  0
 19 20  2  0  0  0  0
 19 38  1  0  0  0  0
 20 21  1  0  0  0  0
 20 39  1  0  0  0  0
M  CHG  1  15   1
M  END
> <s_m_source_file>
AV-unprocessed.smi

> <i_m_source_file_index>
2004

> <i_lp_mmshare_version>
43012

> <i_f3d_flags>
0

> <s_epik_input>
W2NIXTFbY0hdW2NIXVtjSF1jKGMxMiluKFtjSF1uMilbQ0gyXVtDQEhdKFtPSF0pW0NIMl1PW0NIMl1jM1tjSF1bY0hdW2NIXVtjSF1bY0hdMw==

> <s_epik_cmdline>
J2VwaWtfcHl0aG9uJywgJy1waCcsICc3LjAnLCAnLXRuJywgJzgnLCAnLW1hJywgJzIwMCcsICctbWV0YWxfYmluZGluZycsICctaW1hZScsICc8aW5maWxlLm1hZT4nLCAnLW9tYWUnLCAnPG91dGZpbGUubWFlPic=

> <r_epik_Ionization_Penalty>
1.28975

> <r_epik_Ionization_Penalty_Charging>
1.28975

> <r_epik_Ionization_Penalty_Neutral>
1.07667e-06

> <r_epik_State_Penalty>
1.36276

> <r_epik_Charging_Adjusted_Penalty>
2.65251

> <i_epik_Tot_Q>
1

> <i_epik_Tot_abs_Q>
1

> <r_epik_Metal_State_Penalty>
5.39298

> <b_epik_Metal_Only>
0

> <s_lp_Force_Field>
OPLS_2005

> <r_lp_Energy>
18.9764

> <b_lp_Chiralities_Consistent>
1

> <s_lp_Variant>
AV-unprocessed.smi:2004-4

> <Gold.Version>
5.8.1

> <Gold.Id.Protein>
6NUR|6NUR_protein|mol2

> <Gold.PLP.Fitness>
49.1803

> <Gold.PLP.PLP>
-50.7380

> <Gold.PLP.part.hbond>
0.0000

> <Gold.PLP.part.metal>
0.0000

> <Gold.PLP.part.buried>
-3.5509

> <Gold.PLP.part.nonpolar>
-47.0397

> <Gold.PLP.part.repulsive>
0.0981

> <Gold.PLP.ligand.clash>
0.0000

> <Gold.PLP.ligand.torsion>
0.8230

> <Gold.PLP.Chemscore.Hbond>
0.0000

> <Gold.PLP.Chemscore.CHOScore>
0.0000

> <Gold.PLP.Chemscore.Metal>
0.0000

> <Gold.PLP.Chemscore.Internal.Correction>
0.0882

> <Gold.Rescore>
     Score         DG    S(hbond)    S(metal)    S(lipo)     H(rot)  DE(clash)    DE(int)     intcor
     15.32     -16.20       0.00        0.00     144.72       2.43       0.15       0.73       ----

> <Gold.Chemscore.Fitness>
15.3157

> <Gold.Chemscore.DG>
-16.1994

> <Gold.Chemscore.ZeroCoef>
-5.4800

> <Gold.Chemscore.Hbond>
0.0000

> <Gold.Chemscore.Metal>
0.0000

> <Gold.Chemscore.Lipo>
144.7191

> <Gold.Chemscore.Internal_Hbond>
0.0000

> <Gold.Chemscore.DEClash>
0.1489

> <Gold.Chemscore.DEInternal>
0.7348

> <Gold.Chemscore.Rot>
2.4269

> <Gold.Chemscore.Internal.Correction>
   9.000000E+99

> <Gold.Chemscore.Hbond.Weighted>
-0.0000

> <Gold.Chemscore.Metal.Weighted>
-0.0000

> <Gold.Chemscore.Lipo.Weighted>
-16.9321

> <Gold.Chemscore.Internal_Hbond.Weighted>
0.0000

> <Gold.Chemscore.DEClash.Weighted>
0.1489

> <Gold.Chemscore.DEInternal.Weighted>
0.7348

> <Gold.Chemscore.Rot.Weighted>
6.2127

> <Gold.Chemscore.Internal.Correction.Weighted>
   9.000000E+99

> <Gold.Protein.RotatedTorsions>
[ 6907 6896 6895 6894 ] final   70.13 input  -60.11 | X-H torsion
[ 7974 7965 7964 7962 ] final   -5.67 input  175.53 | X-H torsion
[ 8008 7997 7996 7995 ] final   36.71 input   59.86 | X-H torsion
[ 10167 10162 10161 10158 ] final -159.18 input  -65.29 | X-H torsion
[ 10718 10713 10712 10709 ] final  -11.48 input   66.30 | X-H torsion
[ 10763 10752 10751 10750 ] final -114.76 input  -60.55 | X-H torsion
[ 11005 11000 10999 10996 ] final -158.25 input  -57.11 | X-H torsion

> <Gold.Protein.ActiveResidues>
 VAL166  LYS551  ARG553  GLY616  TRP617  ASP618  TYR619  PRO620  LYS621  CYS622 
 ASP623  PHE694  ASN695  SER759  ASP760  ASP761  ALA762  ILE779  LEU786  VAL792 
 PHE793  MET794  SER795  GLU796  ALA797  LYS798  CYS799  TRP800  GLU811  SER814 

> <Gold.Protein.RotatedAtoms>
  152.4730  134.4914  159.9696 H   0  0  0  0  0  0  0  0  0  0  0  0  # atno 6907 bound_to 6896
  151.4936  133.3513  159.2865 H   0  0  0  0  0  0  0  0  0  0  0  0  # atno 6908 bound_to 6896
  150.8751  134.8159  159.7245 H   0  0  0  0  0  0  0  0  0  0  0  0  # atno 6909 bound_to 6896
  146.2348  140.2056  142.8334 H   0  0  0  0  0  0  0  0  0  0  0  0  # atno 7974 bound_to 7965
  155.1919  140.3308  155.4357 H   0  0  0  0  0  0  0  0  0  0  0  0  # atno 8008 bound_to 7997
  156.2439  140.1909  156.6961 H   0  0  0  0  0  0  0  0  0  0  0  0  # atno 8009 bound_to 7997
  154.6200  140.0597  156.9588 H   0  0  0  0  0  0  0  0  0  0  0  0  # atno 8010 bound_to 7997
  139.6635  143.9871  152.2240 H   0  0  0  0  0  0  0  0  0  0  0  0  # atno 10167 bound_to 10162
  156.6584  130.4975  149.6038 H   0  0  0  0  0  0  0  0  0  0  0  0  # atno 10718 bound_to 10713
  154.8453  135.4406  154.1556 H   0  0  0  0  0  0  0  0  0  0  0  0  # atno 10763 bound_to 10752
  153.2706  135.6945  153.7491 H   0  0  0  0  0  0  0  0  0  0  0  0  # atno 10764 bound_to 10752
  153.6733  135.3415  155.3134 H   0  0  0  0  0  0  0  0  0  0  0  0  # atno 10765 bound_to 10752
  140.6557  134.4403  157.5235 H   0  0  0  0  0  0  0  0  0  0  0  0  # atno 11005 bound_to 11000
  144.9747  140.8402  143.5434 LP  0  0  0  0  0  0  0  0  0  0  0  0  # atno 17320 bound_to 7965
  145.2042  139.2237  143.5177 LP  0  0  0  0  0  0  0  0  0  0  0  0  # atno 17321 bound_to 7965
  139.9616  144.6554  150.8074 LP  0  0  0  0  0  0  0  0  0  0  0  0  # atno 17342 bound_to 10162
  140.7589  143.3118  151.2826 LP  0  0  0  0  0  0  0  0  0  0  0  0  # atno 17343 bound_to 10162
  156.2030  130.6631  151.1187 LP  0  0  0  0  0  0  0  0  0  0  0  0  # atno 17370 bound_to 10713
  157.7118  131.0730  150.6474 LP  0  0  0  0  0  0  0  0  0  0  0  0  # atno 17371 bound_to 10713
  139.9030  134.8512  156.1818 LP  0  0  0  0  0  0  0  0  0  0  0  0  # atno 17394 bound_to 11000
  141.0503  133.6892  156.1759 LP  0  0  0  0  0  0  0  0  0  0  0  0  # atno 17395 bound_to 11000

$$$$
