AV-unprocessed.smi:3354|AV-procd|sdf|12956|dock5
  -GOLD-   2272019393D 1   1.00000     0.00000
 Structure written by MMmdl.
 38 40  0  0  0  0  0  0  0  0  1 V2000
  151.0420  130.0226  154.2063 C   0  0  0  0  0  0  0  0  0  0  0  0
  151.7921  130.2099  155.5107 C   0  0  1  0  0  0  0  0  0  0  0  0
  152.8624  131.2690  155.6394 C   0  0  0  0  0  0  0  0  0  0  0  0
  151.5649  131.4086  156.4113 C   0  0  1  0  0  0  0  0  0  0  0  0
  150.6003  132.4034  156.0432 N   0  0  0  0  0  0  0  0  0  0  0  0
  150.5725  133.0024  154.7158 C   0  0  0  0  0  0  0  0  0  0  0  0
  149.7143  134.2724  154.8561 C   0  0  1  0  0  0  0  0  0  0  0  0
  148.7545  134.3846  153.7593 N   0  0  0  0  0  0  0  0  0  0  0  0
  147.8843  133.4372  153.3813 C   0  0  0  0  0  0  0  0  0  0  0  0
  147.7884  132.3402  153.9310 O   0  0  0  0  0  0  0  0  0  0  0  0
  147.1318  133.8566  152.3493 N   0  0  0  0  0  0  0  0  0  0  0  0
  146.1209  133.1483  151.6444 C   0  0  0  0  0  0  0  0  0  0  0  0
  146.0177  131.7365  151.6024 C   0  0  0  0  0  0  0  0  0  0  0  0
  144.9804  131.1529  150.8496 C   0  0  0  0  0  0  0  0  0  0  0  0
  144.0899  131.9994  150.1614 C   0  0  0  0  0  0  0  0  0  0  0  0
  144.1842  133.3457  150.1814 N   0  0  0  0  0  0  0  0  0  0  0  0
  145.1815  133.8979  150.9047 C   0  0  0  0  0  0  0  0  0  0  0  0
  149.0134  134.1425  156.2152 C   0  0  0  0  0  0  0  0  0  0  0  0
  149.7760  133.0198  156.8975 C   0  0  0  0  0  0  0  0  0  0  0  0
  149.6382  132.7520  158.0903 O   0  0  0  0  0  0  0  0  0  0  0  0
  150.9431  130.9654  153.6680 H   0  0  0  0  0  0  0  0  0  0  0  0
  150.0450  129.6281  154.4031 H   0  0  0  0  0  0  0  0  0  0  0  0
  151.5751  129.3180  153.5680 H   0  0  0  0  0  0  0  0  0  0  0  0
  151.9840  129.2726  156.0296 H   0  0  0  0  0  0  0  0  0  0  0  0
  153.7546  131.0085  156.2049 H   0  0  0  0  0  0  0  0  0  0  0  0
  153.0368  131.9072  154.7758 H   0  0  0  0  0  0  0  0  0  0  0  0
  151.6423  131.2166  157.4804 H   0  0  0  0  0  0  0  0  0  0  0  0
  151.5779  133.2408  154.3658 H   0  0  0  0  0  0  0  0  0  0  0  0
  150.1306  132.2924  154.0152 H   0  0  0  0  0  0  0  0  0  0  0  0
  150.3771  135.1389  154.8953 H   0  0  0  0  0  0  0  0  0  0  0  0
  148.7529  135.2559  153.2493 H   0  0  0  0  0  0  0  0  0  0  0  0
  147.2659  134.8155  152.0635 H   0  0  0  0  0  0  0  0  0  0  0  0
  146.7157  131.0929  152.1147 H   0  0  0  0  0  0  0  0  0  0  0  0
  144.8734  130.0794  150.7968 H   0  0  0  0  0  0  0  0  0  0  0  0
  143.2843  131.5841  149.5741 H   0  0  0  0  0  0  0  0  0  0  0  0
  145.2282  134.9772  150.8947 H   0  0  0  0  0  0  0  0  0  0  0  0
  149.0643  135.0660  156.7929 H   0  0  0  0  0  0  0  0  0  0  0  0
  147.9668  133.8509  156.1166 H   0  0  0  0  0  0  0  0  0  0  0  0
  1  2  1  0  0  0  0
  1 21  1  0  0  0  0
  1 22  1  0  0  0  0
  1 23  1  0  0  0  0
  2  4  1  0  0  0  0
  2  3  1  0  0  0  0
  2 24  1  0  0  0  0
  3  4  1  0  0  0  0
  3 25  1  0  0  0  0
  3 26  1  0  0  0  0
  4  5  1  0  0  0  0
  4 27  1  0  0  0  0
  5 19  1  0  0  0  0
  5  6  1  0  0  0  0
  6  7  1  0  0  0  0
  6 28  1  0  0  0  0
  6 29  1  0  0  0  0
  7  8  1  0  0  0  0
  7 18  1  0  0  0  0
  7 30  1  0  0  0  0
  8  9  1  0  0  0  0
  8 31  1  0  0  0  0
  9 10  2  0  0  0  0
  9 11  1  0  0  0  0
 11 12  1  0  0  0  0
 11 32  1  0  0  0  0
 12 17  1  0  0  0  0
 12 13  2  0  0  0  0
 13 14  1  0  0  0  0
 13 33  1  0  0  0  0
 14 15  2  0  0  0  0
 14 34  1  0  0  0  0
 15 16  1  0  0  0  0
 15 35  1  0  0  0  0
 16 17  2  0  0  0  0
 17 36  1  0  0  0  0
 18 19  1  0  0  0  0
 18 37  1  0  0  0  0
 18 38  1  0  0  0  0
 19 20  2  0  0  0  0
M  END
> <s_m_source_file>
AV-unprocessed.smi

> <i_m_source_file_index>
3354

> <i_lp_mmshare_version>
43012

> <i_f3d_flags>
0

> <s_epik_input>
W0NIM11bQ0BASF0xW0NIMl1bQ0BIXTFOMltDSDJdW0NASF0oW0NIMl1DMj1PKVtOSF1DKD1PKVtOSF1jM1tjSF1bY0hdW2NIXW5bY0hdMw==

> <s_epik_cmdline>
J2VwaWtfcHl0aG9uJywgJy1waCcsICc3LjAnLCAnLXRuJywgJzgnLCAnLW1hJywgJzIwMCcsICctbWV0YWxfYmluZGluZycsICctaW1hZScsICc8aW5maWxlLm1hZT4nLCAnLW9tYWUnLCAnPG91dGZpbGUubWFlPic=

> <r_epik_Ionization_Penalty>
0.00456191

> <r_epik_Ionization_Penalty_Charging>
0

> <r_epik_Ionization_Penalty_Neutral>
0.00456191

> <r_epik_State_Penalty>
0.00327094

> <r_epik_Charging_Adjusted_Penalty>
0.00327094

> <i_epik_Tot_Q>
0

> <i_epik_Tot_abs_Q>
0

> <r_epik_Metal_State_Penalty>
-0

> <b_epik_Metal_Only>
0

> <s_lp_Force_Field>
OPLS_2005

> <r_lp_Energy>
43.9825

> <b_lp_Chiralities_Consistent>
1

> <s_lp_Variant>
AV-unprocessed.smi:3354-2

> <Gold.Version>
5.8.1

> <Gold.Id.Protein>
6NUR|6NUR_protein|mol2

> <Gold.PLP.Fitness>
40.0023

> <Gold.PLP.PLP>
-31.1855

> <Gold.PLP.part.hbond>
-3.0000

> <Gold.PLP.part.metal>
0.0000

> <Gold.PLP.part.buried>
-4.8241

> <Gold.PLP.part.nonpolar>
-23.2523

> <Gold.PLP.part.repulsive>
0.2504

> <Gold.PLP.ligand.clash>
0.0000

> <Gold.PLP.ligand.torsion>
0.6696

> <Gold.PLP.Chemscore.Hbond>
2.6232

> <Gold.PLP.Chemscore.CHOScore>
0.6942

> <Gold.PLP.Chemscore.Metal>
0.0000

> <Gold.Chemscore.Hbonds>
donor molecule, donor type, donor heavy atom, donor atom, acceptor molecule, acceptor atom, score
      L1  H     8    31       P1  7948  1.00
      L1  H    11    32       P1  7948  0.48
      P1  H  6896  6909       L1    20  1.00
      L1  C    15    35       P1 10952  0.43

> <Gold.PLP.Chemscore.Internal.Correction>
0.2038

> <Gold.Rescore>
     Score         DG    S(hbond)    S(metal)    S(lipo)     H(rot)  DE(clash)    DE(int)     intcor
     15.85     -18.53       2.33        0.00      72.13       1.24       0.17       2.51       ----

> <Gold.Chemscore.Fitness>
15.8489

> <Gold.Chemscore.DG>
-18.5286

> <Gold.Chemscore.ZeroCoef>
-5.4800

> <Gold.Chemscore.Hbond>
2.3274

> <Gold.Chemscore.Metal>
0.0000

> <Gold.Chemscore.Lipo>
72.1299

> <Gold.Chemscore.Internal_Hbond>
0.0000

> <Gold.Chemscore.DEClash>
0.1740

> <Gold.Chemscore.DEInternal>
2.5057

> <Gold.Chemscore.Rot>
1.2361

> <Gold.Chemscore.Internal.Correction>
   9.000000E+99

> <Gold.Chemscore.Hbonds>
donor molecule, donor type, donor heavy atom, donor atom, acceptor molecule, acceptor atom, score
      L1  H     8    31       P1  7948  0.72
      L1  H    11    32       P1  7948  0.43
      P1  H  6896  6909       L1    20  0.87

> <Gold.Chemscore.Hbond.Weighted>
-7.7737

> <Gold.Chemscore.Metal.Weighted>
-0.0000

> <Gold.Chemscore.Lipo.Weighted>
-8.4392

> <Gold.Chemscore.Internal_Hbond.Weighted>
0.0000

> <Gold.Chemscore.DEClash.Weighted>
0.1740

> <Gold.Chemscore.DEInternal.Weighted>
2.5057

> <Gold.Chemscore.Rot.Weighted>
3.1643

> <Gold.Chemscore.Internal.Correction.Weighted>
   9.000000E+99

> <Gold.Protein.RotatedTorsions>
[ 6907 6896 6895 6894 ] final    2.45 input  -60.11 | X-H torsion
[ 7974 7965 7964 7962 ] final -139.91 input  175.53 | X-H torsion
[ 8008 7997 7996 7995 ] final   89.69 input   59.86 | X-H torsion
[ 10167 10162 10161 10158 ] final -173.57 input  -65.29 | X-H torsion
[ 10718 10713 10712 10709 ] final -149.77 input   66.30 | X-H torsion
[ 10763 10752 10751 10750 ] final   74.22 input  -60.55 | X-H torsion
[ 11005 11000 10999 10996 ] final  164.23 input  -57.11 | X-H torsion

> <Gold.Protein.ActiveResidues>
 VAL166  LYS551  ARG553  GLY616  TRP617  ASP618  TYR619  PRO620  LYS621  CYS622 
 ASP623  PHE694  ASN695  SER759  ASP760  ASP761  ALA762  ILE779  LEU786  VAL792 
 PHE793  MET794  SER795  GLU796  ALA797  LYS798  CYS799  TRP800  GLU811  SER814 

> <Gold.Protein.RotatedAtoms>
  151.6091  135.1041  160.0076 H   0  0  0  0  0  0  0  0  0  0  0  0  # atno 6907 bound_to 6896
  152.4218  133.7124  159.6497 H   0  0  0  0  0  0  0  0  0  0  0  0  # atno 6908 bound_to 6896
  150.8105  133.8357  159.3206 H   0  0  0  0  0  0  0  0  0  0  0  0  # atno 6909 bound_to 6896
  144.8639  140.6262  143.5311 H   0  0  0  0  0  0  0  0  0  0  0  0  # atno 7974 bound_to 7965
  156.0030  140.3358  155.6864 H   0  0  0  0  0  0  0  0  0  0  0  0  # atno 8008 bound_to 7997
  155.6264  140.0680  157.2680 H   0  0  0  0  0  0  0  0  0  0  0  0  # atno 8009 bound_to 7997
  154.4255  140.1767  156.1413 H   0  0  0  0  0  0  0  0  0  0  0  0  # atno 8010 bound_to 7997
  139.5681  144.1706  152.1343 H   0  0  0  0  0  0  0  0  0  0  0  0  # atno 10167 bound_to 10162
  156.4375  130.8105  151.2334 H   0  0  0  0  0  0  0  0  0  0  0  0  # atno 10718 bound_to 10713
  153.0572  135.5034  154.8010 H   0  0  0  0  0  0  0  0  0  0  0  0  # atno 10763 bound_to 10752
  154.6826  135.2971  154.9594 H   0  0  0  0  0  0  0  0  0  0  0  0  # atno 10764 bound_to 10752
  154.0375  135.6721  153.4839 H   0  0  0  0  0  0  0  0  0  0  0  0  # atno 10765 bound_to 10752
  140.2439  134.8030  157.3437 H   0  0  0  0  0  0  0  0  0  0  0  0  # atno 11005 bound_to 11000
  145.4260  139.1556  143.4048 LP  0  0  0  0  0  0  0  0  0  0  0  0  # atno 17320 bound_to 7965
  146.2881  140.4373  142.8750 LP  0  0  0  0  0  0  0  0  0  0  0  0  # atno 17321 bound_to 7965
  140.1234  144.5353  150.6848 LP  0  0  0  0  0  0  0  0  0  0  0  0  # atno 17342 bound_to 10162
  140.6965  143.2407  151.4985 LP  0  0  0  0  0  0  0  0  0  0  0  0  # atno 17343 bound_to 10162
  157.7507  131.0179  150.3603 LP  0  0  0  0  0  0  0  0  0  0  0  0  # atno 17370 bound_to 10713
  156.3954  130.3905  149.6999 LP  0  0  0  0  0  0  0  0  0  0  0  0  # atno 17371 bound_to 10713
  140.1626  134.4709  155.7884 LP  0  0  0  0  0  0  0  0  0  0  0  0  # atno 17394 bound_to 11000
  141.2208  133.6907  156.7570 LP  0  0  0  0  0  0  0  0  0  0  0  0  # atno 17395 bound_to 11000

$$$$
