AV-unprocessed.smi:1271|AV-procd|sdf|5333|dock3
  -GOLD-   22720 4463D 1   1.00000     0.00000
 Structure written by MMmdl.
 35 36  0  0  0  0  0  0  0  0  1 V2000
  149.7145  140.1588  157.5135 C   0  0  0  0  0  0  0  0  0  0  0  0
  150.8868  140.8508  156.8007 C   0  0  1  0  0  0  0  0  0  0  0  0
  150.3981  141.7363  155.6380 C   0  0  0  0  0  0  0  0  0  0  0  0
  149.3605  141.0905  154.8526 N   0  0  0  0  0  0  0  0  0  0  0  0
  148.1380  141.5990  154.4673 C   0  0  0  0  0  0  0  0  0  0  0  0
  147.4974  140.6234  153.7589 C   0  0  0  0  0  0  0  0  0  0  0  0
  148.4202  139.5402  153.7641 C   0  0  0  0  0  0  0  0  0  0  0  0
  149.5355  139.8232  154.4176 N   0  0  0  0  0  0  0  0  0  0  0  0
  151.6457  141.6584  157.7521 N   0  0  0  0  0  0  0  0  0  0  0  0
  152.3046  141.2008  158.8296 C   0  0  0  0  0  0  0  0  0  0  0  0
  152.2822  140.0134  159.1568 O   0  0  0  0  0  0  0  0  0  0  0  0
  152.9924  142.1493  159.5150 N   0  0  0  0  0  0  0  0  0  0  0  0
  152.9532  143.5995  159.2626 C   0  0  0  0  0  0  0  0  0  0  0  0
  151.9708  144.2527  160.2482 C   0  0  0  0  0  0  0  0  0  0  0  0
  152.5308  144.0311  161.9662 S   0  0  0  0  0  0  0  0  0  0  0  0
  152.8509  142.2386  161.9581 C   0  0  0  0  0  0  0  0  0  0  0  0
  153.7169  141.8354  160.7522 C   0  0  0  0  0  0  0  0  0  0  0  0
  149.1391  139.5479  156.8175 H   0  0  0  0  0  0  0  0  0  0  0  0
  149.0346  140.8860  157.9582 H   0  0  0  0  0  0  0  0  0  0  0  0
  150.0673  139.5022  158.3093 H   0  0  0  0  0  0  0  0  0  0  0  0
  151.5388  140.0792  156.3867 H   0  0  0  0  0  0  0  0  0  0  0  0
  149.9917  142.6716  156.0247 H   0  0  0  0  0  0  0  0  0  0  0  0
  151.2280  142.0059  154.9821 H   0  0  0  0  0  0  0  0  0  0  0  0
  147.8282  142.5997  154.7303 H   0  0  0  0  0  0  0  0  0  0  0  0
  146.5177  140.6746  153.3074 H   0  0  0  0  0  0  0  0  0  0  0  0
  148.3132  138.5632  153.3164 H   0  0  0  0  0  0  0  0  0  0  0  0
  151.7154  142.6450  157.5484 H   0  0  0  0  0  0  0  0  0  0  0  0
  153.9489  144.0257  159.3934 H   0  0  0  0  0  0  0  0  0  0  0  0
  152.6778  143.8496  158.2378 H   0  0  0  0  0  0  0  0  0  0  0  0
  151.8803  145.3198  160.0451 H   0  0  0  0  0  0  0  0  0  0  0  0
  150.9758  143.8199  160.1374 H   0  0  0  0  0  0  0  0  0  0  0  0
  153.3466  141.9675  162.8903 H   0  0  0  0  0  0  0  0  0  0  0  0
  151.8987  141.7072  161.9367 H   0  0  0  0  0  0  0  0  0  0  0  0
  153.9757  140.7776  160.8180 H   0  0  0  0  0  0  0  0  0  0  0  0
  154.6691  142.3671  160.7765 H   0  0  0  0  0  0  0  0  0  0  0  0
  1  2  1  0  0  0  0
  1 18  1  0  0  0  0
  1 19  1  0  0  0  0
  1 20  1  0  0  0  0
  2  3  1  0  0  0  0
  2  9  1  0  0  0  0
  2 21  1  0  0  0  0
  3  4  1  0  0  0  0
  3 22  1  0  0  0  0
  3 23  1  0  0  0  0
  4  8  1  0  0  0  0
  4  5  1  0  0  0  0
  5  6  2  0  0  0  0
  5 24  1  0  0  0  0
  6  7  1  0  0  0  0
  6 25  1  0  0  0  0
  7  8  2  0  0  0  0
  7 26  1  0  0  0  0
  9 10  1  0  0  0  0
  9 27  1  0  0  0  0
 10 11  2  0  0  0  0
 10 12  1  0  0  0  0
 12 17  1  0  0  0  0
 12 13  1  0  0  0  0
 13 14  1  0  0  0  0
 13 28  1  0  0  0  0
 13 29  1  0  0  0  0
 14 15  1  0  0  0  0
 14 30  1  0  0  0  0
 14 31  1  0  0  0  0
 15 16  1  0  0  0  0
 16 17  1  0  0  0  0
 16 32  1  0  0  0  0
 16 33  1  0  0  0  0
 17 34  1  0  0  0  0
 17 35  1  0  0  0  0
M  END
> <s_m_source_file>
AV-unprocessed.smi

> <i_m_source_file_index>
1271

> <i_lp_mmshare_version>
43012

> <i_f3d_flags>
0

> <s_epik_input>
bjFbY0hdW2NIXVtjSF1uMVtDSDJdW0NAQEhdKFtDSDNdKVtOSF1DKD1PKU4yW0NIMl1bQ0gyXVNbQ0gyXVtDSDJdMg==

> <s_epik_cmdline>
J2VwaWtfcHl0aG9uJywgJy1waCcsICc3LjAnLCAnLXRuJywgJzgnLCAnLW1hJywgJzIwMCcsICctbWV0YWxfYmluZGluZycsICctaW1hZScsICc8aW5maWxlLm1hZT4nLCAnLW9tYWUnLCAnPG91dGZpbGUubWFlPic=

> <r_lp_tautomer_probability>
1

> <r_epik_Ionization_Penalty>
5.86346e-05

> <r_epik_Ionization_Penalty_Charging>
0

> <r_epik_Ionization_Penalty_Neutral>
5.86346e-05

> <r_epik_State_Penalty>
-0

> <r_epik_Charging_Adjusted_Penalty>
0

> <i_epik_Tot_Q>
0

> <i_epik_Tot_abs_Q>
0

> <r_epik_Metal_State_Penalty>
-0

> <b_epik_Metal_Only>
0

> <s_lp_Force_Field>
OPLS_2005

> <r_lp_Energy>
23.1202

> <b_lp_Chiralities_Consistent>
1

> <s_lp_Variant>
AV-unprocessed.smi:1271-2

> <Gold.Version>
5.8.1

> <Gold.Id.Protein>
6NUR|6NUR_protein|mol2

> <Gold.PLP.Fitness>
44.0249

> <Gold.PLP.PLP>
-40.1721

> <Gold.PLP.part.hbond>
0.0000

> <Gold.PLP.part.metal>
0.0000

> <Gold.PLP.part.buried>
-2.5379

> <Gold.PLP.part.nonpolar>
-36.4125

> <Gold.PLP.part.repulsive>
0.1901

> <Gold.PLP.ligand.clash>
0.0000

> <Gold.PLP.ligand.torsion>
0.2600

> <Gold.PLP.Chemscore.Hbond>
0.0000

> <Gold.PLP.Chemscore.CHOScore>
1.4448

> <Gold.PLP.Chemscore.Metal>
0.0000

> <Gold.Chemscore.Hbonds>
donor molecule, donor type, donor heavy atom, donor atom, acceptor molecule, acceptor atom, score
      L1  C     5    24       P1  8028  1.00
      L1  C     7    26       P1  7948  0.32

> <Gold.PLP.Chemscore.Internal.Correction>
0.0385

> <Gold.Rescore>
     Score         DG    S(hbond)    S(metal)    S(lipo)     H(rot)  DE(clash)    DE(int)     intcor
     11.77     -13.12       0.00        0.00      96.11       1.41       0.20       1.15       ----

> <Gold.Chemscore.Fitness>
11.7701

> <Gold.Chemscore.DG>
-13.1237

> <Gold.Chemscore.ZeroCoef>
-5.4800

> <Gold.Chemscore.Hbond>
0.0000

> <Gold.Chemscore.Metal>
0.0000

> <Gold.Chemscore.Lipo>
96.1136

> <Gold.Chemscore.Internal_Hbond>
0.0000

> <Gold.Chemscore.DEClash>
0.2016

> <Gold.Chemscore.DEInternal>
1.1520

> <Gold.Chemscore.Rot>
1.4069

> <Gold.Chemscore.Internal.Correction>
   9.000000E+99

> <Gold.Chemscore.Hbond.Weighted>
-0.0002

> <Gold.Chemscore.Metal.Weighted>
-0.0000

> <Gold.Chemscore.Lipo.Weighted>
-11.2453

> <Gold.Chemscore.Internal_Hbond.Weighted>
0.0000

> <Gold.Chemscore.DEClash.Weighted>
0.2016

> <Gold.Chemscore.DEInternal.Weighted>
1.1520

> <Gold.Chemscore.Rot.Weighted>
3.6017

> <Gold.Chemscore.Internal.Correction.Weighted>
   9.000000E+99

> <Gold.Protein.RotatedTorsions>
[ 6907 6896 6895 6894 ] final   71.49 input  -60.11 | X-H torsion
[ 7974 7965 7964 7962 ] final  -54.29 input  175.53 | X-H torsion
[ 8008 7997 7996 7995 ] final  -59.75 input   59.86 | X-H torsion
[ 10167 10162 10161 10158 ] final  -81.48 input  -65.29 | X-H torsion
[ 10718 10713 10712 10709 ] final   30.24 input   66.30 | X-H torsion
[ 10763 10752 10751 10750 ] final -167.36 input  -60.55 | X-H torsion
[ 11005 11000 10999 10996 ] final   96.68 input  -57.11 | X-H torsion

> <Gold.Protein.ActiveResidues>
 VAL166  LYS551  ARG553  GLY616  TRP617  ASP618  TYR619  PRO620  LYS621  CYS622 
 ASP623  PHE694  ASN695  SER759  ASP760  ASP761  ALA762  ILE779  LEU786  VAL792 
 PHE793  MET794  SER795  GLU796  ALA797  LYS798  CYS799  TRP800  GLU811  SER814 

> <Gold.Protein.RotatedAtoms>
  152.4813  134.4713  159.9636 H   0  0  0  0  0  0  0  0  0  0  0  0  # atno 6907 bound_to 6896
  151.4718  133.3561  159.2832 H   0  0  0  0  0  0  0  0  0  0  0  0  # atno 6908 bound_to 6896
  150.8887  134.8314  159.7338 H   0  0  0  0  0  0  0  0  0  0  0  0  # atno 6909 bound_to 6896
  145.8872  140.8099  142.9810 H   0  0  0  0  0  0  0  0  0  0  0  0  # atno 7974 bound_to 7965
  154.4367  140.1054  156.6166 H   0  0  0  0  0  0  0  0  0  0  0  0  # atno 8008 bound_to 7997
  155.5753  140.3490  155.4507 H   0  0  0  0  0  0  0  0  0  0  0  0  # atno 8009 bound_to 7997
  156.0359  140.1271  157.0197 H   0  0  0  0  0  0  0  0  0  0  0  0  # atno 8010 bound_to 7997
  140.4408  143.2515  151.8628 H   0  0  0  0  0  0  0  0  0  0  0  0  # atno 10167 bound_to 10162
  157.2570  130.7142  149.6434 H   0  0  0  0  0  0  0  0  0  0  0  0  # atno 10718 bound_to 10713
  154.6740  135.2944  154.9703 H   0  0  0  0  0  0  0  0  0  0  0  0  # atno 10763 bound_to 10752
  154.0721  135.6616  153.4829 H   0  0  0  0  0  0  0  0  0  0  0  0  # atno 10764 bound_to 10752
  153.0504  135.5177  154.7750 H   0  0  0  0  0  0  0  0  0  0  0  0  # atno 10765 bound_to 10752
  139.8780  134.8963  156.4195 H   0  0  0  0  0  0  0  0  0  0  0  0  # atno 11005 bound_to 11000
  144.6729  140.1474  143.7432 LP  0  0  0  0  0  0  0  0  0  0  0  0  # atno 17320 bound_to 7965
  145.8952  139.2398  143.1526 LP  0  0  0  0  0  0  0  0  0  0  0  0  # atno 17321 bound_to 7965
  139.4789  144.5231  151.8774 LP  0  0  0  0  0  0  0  0  0  0  0  0  # atno 17342 bound_to 10162
  140.4320  144.2102  150.5888 LP  0  0  0  0  0  0  0  0  0  0  0  0  # atno 17343 bound_to 10162
  155.9665  130.4409  150.5321 LP  0  0  0  0  0  0  0  0  0  0  0  0  # atno 17370 bound_to 10713
  157.3217  131.0683  151.1927 LP  0  0  0  0  0  0  0  0  0  0  0  0  # atno 17371 bound_to 10713
  140.9144  133.7689  155.9830 LP  0  0  0  0  0  0  0  0  0  0  0  0  # atno 17394 bound_to 11000
  140.8510  134.2953  157.5275 LP  0  0  0  0  0  0  0  0  0  0  0  0  # atno 17395 bound_to 11000

$$$$
