AV-unprocessed.smi:1395|AV-procd|sdf|5671|dock6
  -GOLD-   22720 5293D 1   1.00000     0.00000
 Structure written by MMmdl.
 43 44  0  0  0  0  0  0  0  0  2 V2000
  150.9776  143.5471  158.5317 C   0  0  0  0  0  0  0  0  0  0  0  0
  151.9468  142.5658  159.1708 C   0  0  0  0  0  0  0  0  0  0  0  0
  152.8743  143.0347  160.1254 C   0  0  0  0  0  0  0  0  0  0  0  0
  153.7704  142.1266  160.7151 C   0  0  0  0  0  0  0  0  0  0  0  0
  153.7003  140.7791  160.3225 C   0  0  0  0  0  0  0  0  0  0  0  0
  152.8171  140.3224  159.4113 N   0  0  0  0  0  0  0  0  0  0  0  0
  151.9448  141.1857  158.8331 C   0  0  0  0  0  0  0  0  0  0  0  0
  150.9875  140.7747  157.8628 N   0  0  0  0  0  0  0  0  0  0  0  0
  151.2028  140.3262  156.6132 C   0  0  0  0  0  0  0  0  0  0  0  0
  152.3062  140.1736  156.0886 O   0  0  0  0  0  0  0  0  0  0  0  0
  150.0466  140.0586  155.9878 N   0  0  0  0  0  0  0  0  0  0  0  0
  149.9239  139.5456  154.6233 C   0  0  2  0  0  0  0  0  0  0  0  0
  148.4993  139.0358  154.3254 C   0  0  0  0  0  0  0  0  0  0  0  0
  148.1820  137.7343  155.0825 C   0  0  0  0  0  0  0  0  0  0  0  0
  149.1856  136.6818  154.7809 N   0  3  2  0  0  0  0  0  0  0  0  0
  148.8292  135.3711  155.3854 C   0  0  0  0  0  0  0  0  0  0  0  0
  149.6350  134.1757  154.8546 C   0  0  0  0  0  0  0  0  0  0  0  0
  149.6485  133.9309  153.5393 N   0  0  0  0  0  0  0  0  0  0  0  0
  150.2542  133.4685  155.6447 O   0  0  0  0  0  0  0  0  0  0  0  0
  150.5616  137.1265  155.1307 C   0  0  0  0  0  0  0  0  0  0  0  0
  150.9394  138.4157  154.3786 C   0  0  0  0  0  0  0  0  0  0  0  0
  151.1221  144.5564  158.9185 H   0  0  0  0  0  0  0  0  0  0  0  0
  149.9472  143.2547  158.7359 H   0  0  0  0  0  0  0  0  0  0  0  0
  151.1231  143.5782  157.4515 H   0  0  0  0  0  0  0  0  0  0  0  0
  152.9019  144.0777  160.4048 H   0  0  0  0  0  0  0  0  0  0  0  0
  154.4921  142.4543  161.4485 H   0  0  0  0  0  0  0  0  0  0  0  0
  154.3703  140.0482  160.7503 H   0  0  0  0  0  0  0  0  0  0  0  0
  150.0244  140.8351  158.1576 H   0  0  0  0  0  0  0  0  0  0  0  0
  149.1888  140.2064  156.4989 H   0  0  0  0  0  0  0  0  0  0  0  0
  150.1561  140.3627  153.9379 H   0  0  0  0  0  0  0  0  0  0  0  0
  147.7574  139.7982  154.5654 H   0  0  0  0  0  0  0  0  0  0  0  0
  148.4031  138.8541  153.2541 H   0  0  0  0  0  0  0  0  0  0  0  0
  148.1518  137.9158  156.1580 H   0  0  0  0  0  0  0  0  0  0  0  0
  147.1888  137.3896  154.7922 H   0  0  0  0  0  0  0  0  0  0  0  0
  148.9171  135.4247  156.4719 H   0  0  0  0  0  0  0  0  0  0  0  0
  147.7827  135.1468  155.1744 H   0  0  0  0  0  0  0  0  0  0  0  0
  150.1763  133.1590  153.1605 H   0  0  0  0  0  0  0  0  0  0  0  0
  149.1285  134.5368  152.9196 H   0  0  0  0  0  0  0  0  0  0  0  0
  150.6309  137.2841  156.2082 H   0  0  0  0  0  0  0  0  0  0  0  0
  151.2823  136.3465  154.8844 H   0  0  0  0  0  0  0  0  0  0  0  0
  150.9858  138.2020  153.3097 H   0  0  0  0  0  0  0  0  0  0  0  0
  151.9413  138.7379  154.6655 H   0  0  0  0  0  0  0  0  0  0  0  0
  149.1587  136.5503  153.7802 H   0  0  0  0  0  0  0  0  0  0  0  0
  1  2  1  0  0  0  0
  1 22  1  0  0  0  0
  1 23  1  0  0  0  0
  1 24  1  0  0  0  0
  2  7  1  0  0  0  0
  2  3  2  0  0  0  0
  3  4  1  0  0  0  0
  3 25  1  0  0  0  0
  4  5  2  0  0  0  0
  4 26  1  0  0  0  0
  5  6  1  0  0  0  0
  5 27  1  0  0  0  0
  6  7  2  0  0  0  0
  7  8  1  0  0  0  0
  8  9  1  0  0  0  0
  8 28  1  0  0  0  0
  9 10  2  0  0  0  0
  9 11  1  0  0  0  0
 11 12  1  0  0  0  0
 11 29  1  0  0  0  0
 12 21  1  0  0  0  0
 12 13  1  0  0  0  0
 12 30  1  0  0  0  0
 13 14  1  0  0  0  0
 13 31  1  0  0  0  0
 13 32  1  0  0  0  0
 14 15  1  0  0  0  0
 14 33  1  0  0  0  0
 14 34  1  0  0  0  0
 15 16  1  0  0  0  0
 15 20  1  0  0  0  0
 15 43  1  0  0  0  0
 16 17  1  0  0  0  0
 16 35  1  0  0  0  0
 16 36  1  0  0  0  0
 17 18  1  0  0  0  0
 17 19  2  0  0  0  0
 18 37  1  0  0  0  0
 18 38  1  0  0  0  0
 20 21  1  0  0  0  0
 20 39  1  0  0  0  0
 20 40  1  0  0  0  0
 21 41  1  0  0  0  0
 21 42  1  0  0  0  0
M  CHG  1  15   1
M  END
> <s_m_source_file>
AV-unprocessed.smi

> <i_m_source_file_index>
1395

> <i_lp_mmshare_version>
43012

> <i_f3d_flags>
0

> <s_epik_input>
W0NIM11jMVtjSF1bY0hdW2NIXW5jMVtOSF1DKD1PKVtOSF1bQ0hdMltDSDJdW0NIMl1OKFtDSDJdW0NIMl0yKVtDSDJdQyg9TylbTkgyXQ==

> <s_epik_cmdline>
J2VwaWtfcHl0aG9uJywgJy1waCcsICc3LjAnLCAnLXRuJywgJzgnLCAnLW1hJywgJzIwMCcsICctbWV0YWxfYmluZGluZycsICctaW1hZScsICc8aW5maWxlLm1hZT4nLCAnLW9tYWUnLCAnPG91dGZpbGUubWFlPic=

> <r_epik_Ionization_Penalty>
0.83893

> <r_epik_Ionization_Penalty_Charging>
0.838844

> <r_epik_Ionization_Penalty_Neutral>
8.62421e-05

> <r_epik_State_Penalty>
0.8734

> <r_epik_Charging_Adjusted_Penalty>
1.71224

> <i_epik_Tot_Q>
1

> <i_epik_Tot_abs_Q>
1

> <r_epik_Metal_State_Penalty>
0.890705

> <b_epik_Metal_Only>
0

> <s_lp_Force_Field>
OPLS_2005

> <r_lp_Energy>
18.2774

> <b_lp_Chiralities_Consistent>
1

> <s_lp_Variant>
AV-unprocessed.smi:1395-3

> <Gold.Version>
5.8.1

> <Gold.Id.Protein>
6NUR|6NUR_protein|mol2

> <Gold.PLP.Fitness>
46.6336

> <Gold.PLP.PLP>
-36.3976

> <Gold.PLP.part.hbond>
-3.0000

> <Gold.PLP.part.metal>
0.0000

> <Gold.PLP.part.buried>
-2.1464

> <Gold.PLP.part.nonpolar>
-30.7882

> <Gold.PLP.part.repulsive>
0.1404

> <Gold.PLP.ligand.clash>
0.0000

> <Gold.PLP.ligand.torsion>
0.8942

> <Gold.PLP.Chemscore.Hbond>
4.0000

> <Gold.PLP.Chemscore.CHOScore>
0.0000

> <Gold.PLP.Chemscore.Metal>
0.0000

> <Gold.Chemscore.Hbonds>
donor molecule, donor type, donor heavy atom, donor atom, acceptor molecule, acceptor atom, score
      L1  H    15    43       P1  7948  2.00
      L1  H    18    38       P1  7948  0.30
      P1  H  7997  8008       L1    10  0.98

> <Gold.PLP.Chemscore.Internal.Correction>
0.0243

> <Gold.Rescore>
     Score         DG    S(hbond)    S(metal)    S(lipo)     H(rot)  DE(clash)    DE(int)     intcor
     16.67     -19.47       2.77        0.00      83.41       1.96       0.79       2.00       ----

> <Gold.Chemscore.Fitness>
16.6692

> <Gold.Chemscore.DG>
-19.4667

> <Gold.Chemscore.ZeroCoef>
-5.4800

> <Gold.Chemscore.Hbond>
2.7697

> <Gold.Chemscore.Metal>
0.0000

> <Gold.Chemscore.Lipo>
83.4122

> <Gold.Chemscore.Internal_Hbond>
0.0000

> <Gold.Chemscore.DEClash>
0.7929

> <Gold.Chemscore.DEInternal>
2.0046

> <Gold.Chemscore.Rot>
1.9622

> <Gold.Chemscore.Internal.Correction>
   9.000000E+99

> <Gold.Chemscore.Hbonds>
donor molecule, donor type, donor heavy atom, donor atom, acceptor molecule, acceptor atom, score
      L1  H    15    43       P1  7948  0.97
      P1  H  7997  8008       L1    10  0.91

> <Gold.Chemscore.Hbond.Weighted>
-9.2507

> <Gold.Chemscore.Metal.Weighted>
-0.0000

> <Gold.Chemscore.Lipo.Weighted>
-9.7592

> <Gold.Chemscore.Internal_Hbond.Weighted>
0.0000

> <Gold.Chemscore.DEClash.Weighted>
0.7929

> <Gold.Chemscore.DEInternal.Weighted>
2.0046

> <Gold.Chemscore.Rot.Weighted>
5.0232

> <Gold.Chemscore.Internal.Correction.Weighted>
   9.000000E+99

> <Gold.Protein.RotatedTorsions>
[ 6907 6896 6895 6894 ] final   38.13 input  -60.11 | X-H torsion
[ 7974 7965 7964 7962 ] final  120.96 input  175.53 | X-H torsion
[ 8008 7997 7996 7995 ] final  -35.38 input   59.86 | X-H torsion
[ 10167 10162 10161 10158 ] final  -69.69 input  -65.29 | X-H torsion
[ 10718 10713 10712 10709 ] final   46.88 input   66.30 | X-H torsion
[ 10763 10752 10751 10750 ] final  -89.58 input  -60.55 | X-H torsion
[ 11005 11000 10999 10996 ] final   55.31 input  -57.11 | X-H torsion

> <Gold.Protein.ActiveResidues>
 VAL166  LYS551  ARG553  GLY616  TRP617  ASP618  TYR619  PRO620  LYS621  CYS622 
 ASP623  PHE694  ASN695  SER759  ASP760  ASP761  ALA762  ILE779  LEU786  VAL792 
 PHE793  MET794  SER795  GLU796  ALA797  LYS798  CYS799  TRP800  GLU811  SER814 

> <Gold.Protein.RotatedAtoms>
  152.1524  134.8978  160.0546 H   0  0  0  0  0  0  0  0  0  0  0  0  # atno 6907 bound_to 6896
  152.0005  133.3818  159.4188 H   0  0  0  0  0  0  0  0  0  0  0  0  # atno 6908 bound_to 6896
  150.6877  134.3761  159.5057 H   0  0  0  0  0  0  0  0  0  0  0  0  # atno 6909 bound_to 6896
  145.1250  139.3364  143.4695 H   0  0  0  0  0  0  0  0  0  0  0  0  # atno 7974 bound_to 7965
  154.4097  140.1659  156.2202 H   0  0  0  0  0  0  0  0  0  0  0  0  # atno 8008 bound_to 7997
  155.9370  140.3411  155.6273 H   0  0  0  0  0  0  0  0  0  0  0  0  # atno 8009 bound_to 7997
  155.7036  140.0748  157.2391 H   0  0  0  0  0  0  0  0  0  0  0  0  # atno 8010 bound_to 7997
  140.5411  143.2315  151.7087 H   0  0  0  0  0  0  0  0  0  0  0  0  # atno 10167 bound_to 10162
  157.4528  130.8148  149.7805 H   0  0  0  0  0  0  0  0  0  0  0  0  # atno 10718 bound_to 10713
  154.6567  135.5336  153.7968 H   0  0  0  0  0  0  0  0  0  0  0  0  # atno 10763 bound_to 10752
  153.0418  135.6496  154.0934 H   0  0  0  0  0  0  0  0  0  0  0  0  # atno 10764 bound_to 10752
  154.0846  135.2944  155.3263 H   0  0  0  0  0  0  0  0  0  0  0  0  # atno 10765 bound_to 10752
  140.0617  134.5593  155.9144 H   0  0  0  0  0  0  0  0  0  0  0  0  # atno 11005 bound_to 11000
  146.3518  140.1225  142.8600 LP  0  0  0  0  0  0  0  0  0  0  0  0  # atno 17320 bound_to 7965
  145.0698  140.9147  143.4888 LP  0  0  0  0  0  0  0  0  0  0  0  0  # atno 17321 bound_to 7965
  139.4989  144.3967  152.0224 LP  0  0  0  0  0  0  0  0  0  0  0  0  # atno 17342 bound_to 10162
  140.3076  144.3575  150.6043 LP  0  0  0  0  0  0  0  0  0  0  0  0  # atno 17343 bound_to 10162
  155.9994  130.3889  150.2665 LP  0  0  0  0  0  0  0  0  0  0  0  0  # atno 17370 bound_to 10713
  157.0838  131.0150  151.3147 LP  0  0  0  0  0  0  0  0  0  0  0  0  # atno 17371 bound_to 10713
  141.1976  133.6597  156.5749 LP  0  0  0  0  0  0  0  0  0  0  0  0  # atno 17394 bound_to 11000
  140.3760  134.7565  157.4630 LP  0  0  0  0  0  0  0  0  0  0  0  0  # atno 17395 bound_to 11000

$$$$
