AV-unprocessed.smi:3350|AV-procd|sdf|12940|dock4
  -GOLD-   2272019373D 1   1.00000     0.00000
 Structure written by MMmdl.
 41 42  0  0  0  0  0  0  0  0  1 V2000
  144.6749  137.2449  152.5457 C   0  0  0  0  0  0  0  0  0  0  0  0
  144.9918  135.7517  152.3680 C   0  0  1  0  0  0  0  0  0  0  0  0
  144.7394  135.2894  150.9198 C   0  0  0  0  0  0  0  0  0  0  0  0
  144.7655  133.8430  150.7885 N   0  0  0  0  0  0  0  0  0  0  0  0
  143.7048  132.9624  150.8210 C   0  0  0  0  0  0  0  0  0  0  0  0
  144.2153  131.7055  150.6655 C   0  0  0  0  0  0  0  0  0  0  0  0
  145.6163  131.9223  150.5436 C   0  0  0  0  0  0  0  0  0  0  0  0
  145.9428  133.2026  150.6166 N   0  0  0  0  0  0  0  0  0  0  0  0
  146.3788  135.4877  152.7445 N   0  0  0  0  0  0  0  0  0  0  0  0
  146.7740  134.8384  153.8476 C   0  0  0  0  0  0  0  0  0  0  0  0
  146.0074  134.4126  154.7117 O   0  0  0  0  0  0  0  0  0  0  0  0
  148.1065  134.7067  153.8907 N   0  0  0  0  0  0  0  0  0  0  0  0
  148.8580  134.0319  154.9459 C   0  0  2  0  0  0  0  0  0  0  0  0
  149.9550  134.9662  155.4807 C   0  0  0  0  0  0  0  0  0  0  0  0
  149.4396  132.7133  154.4027 C   0  0  2  0  0  0  0  0  0  0  0  0
  148.3981  131.7235  153.8757 C   0  0  0  0  0  0  0  0  0  0  0  0
  149.0784  130.3715  154.0256 C   0  0  0  0  0  0  0  0  0  0  0  0
  150.2743  130.6529  154.9394 C   0  0  0  0  0  0  0  0  0  0  0  0
  150.0586  131.9655  155.4374 O   0  0  0  0  0  0  0  0  0  0  0  0
  143.6376  137.4585  152.2862 H   0  0  0  0  0  0  0  0  0  0  0  0
  145.3113  137.8640  151.9124 H   0  0  0  0  0  0  0  0  0  0  0  0
  144.8245  137.5614  153.5784 H   0  0  0  0  0  0  0  0  0  0  0  0
  144.3277  135.1838  153.0228 H   0  0  0  0  0  0  0  0  0  0  0  0
  143.7616  135.6359  150.5828 H   0  0  0  0  0  0  0  0  0  0  0  0
  145.4737  135.7252  150.2400 H   0  0  0  0  0  0  0  0  0  0  0  0
  142.6873  133.3001  150.9527 H   0  0  0  0  0  0  0  0  0  0  0  0
  143.6709  130.7733  150.6432 H   0  0  0  0  0  0  0  0  0  0  0  0
  146.3997  131.1920  150.4050 H   0  0  0  0  0  0  0  0  0  0  0  0
  147.0891  135.7943  152.0958 H   0  0  0  0  0  0  0  0  0  0  0  0
  148.6449  135.0904  153.1280 H   0  0  0  0  0  0  0  0  0  0  0  0
  148.1820  133.7873  155.7676 H   0  0  0  0  0  0  0  0  0  0  0  0
  150.5180  134.4916  156.2849 H   0  0  0  0  0  0  0  0  0  0  0  0
  149.5289  135.8871  155.8804 H   0  0  0  0  0  0  0  0  0  0  0  0
  150.6617  135.2387  154.6961 H   0  0  0  0  0  0  0  0  0  0  0  0
  150.1790  132.9166  153.6251 H   0  0  0  0  0  0  0  0  0  0  0  0
  147.5028  131.7512  154.4989 H   0  0  0  0  0  0  0  0  0  0  0  0
  148.0981  131.9356  152.8493 H   0  0  0  0  0  0  0  0  0  0  0  0
  148.3980  129.6426  154.4672 H   0  0  0  0  0  0  0  0  0  0  0  0
  149.4119  129.9804  153.0636 H   0  0  0  0  0  0  0  0  0  0  0  0
  150.3601  129.9321  155.7527 H   0  0  0  0  0  0  0  0  0  0  0  0
  151.2045  130.6352  154.3696 H   0  0  0  0  0  0  0  0  0  0  0  0
  1  2  1  0  0  0  0
  1 20  1  0  0  0  0
  1 21  1  0  0  0  0
  1 22  1  0  0  0  0
  2  3  1  0  0  0  0
  2  9  1  0  0  0  0
  2 23  1  0  0  0  0
  3  4  1  0  0  0  0
  3 24  1  0  0  0  0
  3 25  1  0  0  0  0
  4  8  1  0  0  0  0
  4  5  1  0  0  0  0
  5  6  2  0  0  0  0
  5 26  1  0  0  0  0
  6  7  1  0  0  0  0
  6 27  1  0  0  0  0
  7  8  2  0  0  0  0
  7 28  1  0  0  0  0
  9 10  1  0  0  0  0
  9 29  1  0  0  0  0
 10 11  2  0  0  0  0
 10 12  1  0  0  0  0
 12 13  1  0  0  0  0
 12 30  1  0  0  0  0
 13 14  1  0  0  0  0
 13 15  1  0  0  0  0
 13 31  1  0  0  0  0
 14 32  1  0  0  0  0
 14 33  1  0  0  0  0
 14 34  1  0  0  0  0
 15 19  1  0  0  0  0
 15 16  1  0  0  0  0
 15 35  1  0  0  0  0
 16 17  1  0  0  0  0
 16 36  1  0  0  0  0
 16 37  1  0  0  0  0
 17 18  1  0  0  0  0
 17 38  1  0  0  0  0
 17 39  1  0  0  0  0
 18 19  1  0  0  0  0
 18 40  1  0  0  0  0
 18 41  1  0  0  0  0
M  END
> <s_m_source_file>
AV-unprocessed.smi

> <i_m_source_file_index>
3350

> <i_lp_mmshare_version>
43012

> <i_f3d_flags>
0

> <s_epik_input>
bjFbY0hdW2NIXVtjSF1uMVtDSDJdW0NAQEhdKFtDSDNdKVtOSF1DKD1PKVtOSF1bQ0BIXShbQ0gzXSlbQ0BASF0yW0NIMl1bQ0gyXVtDSDJdTzI=

> <s_epik_cmdline>
J2VwaWtfcHl0aG9uJywgJy1waCcsICc3LjAnLCAnLXRuJywgJzgnLCAnLW1hJywgJzIwMCcsICctbWV0YWxfYmluZGluZycsICctaW1hZScsICc8aW5maWxlLm1hZT4nLCAnLW9tYWUnLCAnPG91dGZpbGUubWFlPic=

> <r_lp_tautomer_probability>
1

> <r_epik_Ionization_Penalty>
6.42349e-05

> <r_epik_Ionization_Penalty_Charging>
0

> <r_epik_Ionization_Penalty_Neutral>
6.42349e-05

> <r_epik_State_Penalty>
-0

> <r_epik_Charging_Adjusted_Penalty>
0

> <i_epik_Tot_Q>
0

> <i_epik_Tot_abs_Q>
0

> <r_epik_Metal_State_Penalty>
-0

> <b_epik_Metal_Only>
0

> <s_lp_Force_Field>
OPLS_2005

> <r_lp_Energy>
16.0006

> <b_lp_Chiralities_Consistent>
1

> <s_lp_Variant>
AV-unprocessed.smi:3350-2

> <Gold.Version>
5.8.1

> <Gold.Id.Protein>
6NUR|6NUR_protein|mol2

> <Gold.PLP.Fitness>
45.9253

> <Gold.PLP.PLP>
-35.1786

> <Gold.PLP.part.hbond>
-2.0000

> <Gold.PLP.part.metal>
0.0000

> <Gold.PLP.part.buried>
-5.2074

> <Gold.PLP.part.nonpolar>
-28.3993

> <Gold.PLP.part.repulsive>
0.2566

> <Gold.PLP.ligand.clash>
0.0000

> <Gold.PLP.ligand.torsion>
0.6002

> <Gold.PLP.Chemscore.Hbond>
1.9600

> <Gold.PLP.Chemscore.CHOScore>
2.0000

> <Gold.PLP.Chemscore.Metal>
0.0000

> <Gold.Chemscore.Hbonds>
donor molecule, donor type, donor heavy atom, donor atom, acceptor molecule, acceptor atom, score
      L1  H     9    29       P1  7948  0.94
      L1  H    12    30       P1  7948  1.00
      L1  C     5    26       P1 10186  1.00
      L1  C     7    28       P1 10747  0.84

> <Gold.PLP.Chemscore.Internal.Correction>
0.0671

> <Gold.Rescore>
     Score         DG    S(hbond)    S(metal)    S(lipo)     H(rot)  DE(clash)    DE(int)     intcor
     15.15     -15.91       1.90        0.00      74.72       1.82       0.34       0.43       ----

> <Gold.Chemscore.Fitness>
15.1461

> <Gold.Chemscore.DG>
-15.9101

> <Gold.Chemscore.ZeroCoef>
-5.4800

> <Gold.Chemscore.Hbond>
1.9001

> <Gold.Chemscore.Metal>
0.0000

> <Gold.Chemscore.Lipo>
74.7188

> <Gold.Chemscore.Internal_Hbond>
0.0000

> <Gold.Chemscore.DEClash>
0.3356

> <Gold.Chemscore.DEInternal>
0.4283

> <Gold.Chemscore.Rot>
1.8197

> <Gold.Chemscore.Internal.Correction>
   9.000000E+99

> <Gold.Chemscore.Hbonds>
donor molecule, donor type, donor heavy atom, donor atom, acceptor molecule, acceptor atom, score
      L1  H     9    29       P1  7948  0.91
      L1  H    12    30       P1  7948  0.64

> <Gold.Chemscore.Hbond.Weighted>
-6.3463

> <Gold.Chemscore.Metal.Weighted>
-0.0000

> <Gold.Chemscore.Lipo.Weighted>
-8.7421

> <Gold.Chemscore.Internal_Hbond.Weighted>
0.0000

> <Gold.Chemscore.DEClash.Weighted>
0.3356

> <Gold.Chemscore.DEInternal.Weighted>
0.4283

> <Gold.Chemscore.Rot.Weighted>
4.6583

> <Gold.Chemscore.Internal.Correction.Weighted>
   9.000000E+99

> <Gold.Protein.RotatedTorsions>
[ 6907 6896 6895 6894 ] final  -38.52 input  -60.11 | X-H torsion
[ 7974 7965 7964 7962 ] final  -30.10 input  175.53 | X-H torsion
[ 8008 7997 7996 7995 ] final -162.47 input   59.86 | X-H torsion
[ 10167 10162 10161 10158 ] final  119.62 input  -65.29 | X-H torsion
[ 10718 10713 10712 10709 ] final  -97.32 input   66.30 | X-H torsion
[ 10763 10752 10751 10750 ] final    9.76 input  -60.55 | X-H torsion
[ 11005 11000 10999 10996 ] final -163.28 input  -57.11 | X-H torsion

> <Gold.Protein.ActiveResidues>
 VAL166  LYS551  ARG553  GLY616  TRP617  ASP618  TYR619  PRO620  LYS621  CYS622 
 ASP623  PHE694  ASN695  SER759  ASP760  ASP761  ALA762  ILE779  LEU786  VAL792 
 PHE793  MET794  SER795  GLU796  ALA797  LYS798  CYS799  TRP800  GLU811  SER814 

> <Gold.Protein.RotatedAtoms>
  151.0014  134.9325  159.7955 H   0  0  0  0  0  0  0  0  0  0  0  0  # atno 6907 bound_to 6896
  152.5279  134.3149  159.9137 H   0  0  0  0  0  0  0  0  0  0  0  0  # atno 6908 bound_to 6896
  151.3155  133.4021  159.2684 H   0  0  0  0  0  0  0  0  0  0  0  0  # atno 6909 bound_to 6896
  146.1168  140.5497  142.8753 H   0  0  0  0  0  0  0  0  0  0  0  0  # atno 7974 bound_to 7965
  155.8072  140.0900  157.1924 H   0  0  0  0  0  0  0  0  0  0  0  0  # atno 8008 bound_to 7997
  154.3980  140.1461  156.3404 H   0  0  0  0  0  0  0  0  0  0  0  0  # atno 8009 bound_to 7997
  155.8402  140.3439  155.5629 H   0  0  0  0  0  0  0  0  0  0  0  0  # atno 8010 bound_to 7997
  139.6034  144.7063  151.3009 H   0  0  0  0  0  0  0  0  0  0  0  0  # atno 10167 bound_to 10162
  156.0081  130.5189  150.6357 H   0  0  0  0  0  0  0  0  0  0  0  0  # atno 10718 bound_to 10713
  153.2105  135.6868  153.8120 H   0  0  0  0  0  0  0  0  0  0  0  0  # atno 10763 bound_to 10752
  153.7355  135.3246  155.3295 H   0  0  0  0  0  0  0  0  0  0  0  0  # atno 10764 bound_to 10752
  154.8219  135.4646  154.0910 H   0  0  0  0  0  0  0  0  0  0  0  0  # atno 10765 bound_to 10752
  140.5998  134.4959  157.5204 H   0  0  0  0  0  0  0  0  0  0  0  0  # atno 11005 bound_to 11000
  144.7560  140.5309  143.6768 LP  0  0  0  0  0  0  0  0  0  0  0  0  # atno 17320 bound_to 7965
  145.5550  139.1477  143.3373 LP  0  0  0  0  0  0  0  0  0  0  0  0  # atno 17321 bound_to 7965
  140.7267  143.6984  150.7865 LP  0  0  0  0  0  0  0  0  0  0  0  0  # atno 17342 bound_to 10162
  140.0565  143.5198  152.2648 LP  0  0  0  0  0  0  0  0  0  0  0  0  # atno 17343 bound_to 10162
  157.4147  131.0828  151.1188 LP  0  0  0  0  0  0  0  0  0  0  0  0  # atno 17370 bound_to 10713
  157.1809  130.6309  149.5671 LP  0  0  0  0  0  0  0  0  0  0  0  0  # atno 17371 bound_to 10713
  139.9237  134.8098  156.1133 LP  0  0  0  0  0  0  0  0  0  0  0  0  # atno 17394 bound_to 11000
  141.0879  133.6726  156.2477 LP  0  0  0  0  0  0  0  0  0  0  0  0  # atno 17395 bound_to 11000

$$$$
