AV-unprocessed.smi:373|AV-procd|sdf|2450|dock7
  -GOLD-   2262022393D 1   1.00000     0.00000
 Structure written by MMmdl.
 40 41  0  0  0  0  0  0  0  0  1 V2000
  149.5628  133.0616  154.2750 C   0  0  0  0  0  0  0  0  0  0  0  0
  148.5960  132.3981  153.2868 C   0  0  0  0  0  0  0  0  0  0  0  0
  147.5602  131.4991  153.9737 C   0  0  0  0  0  0  0  0  0  0  0  0
  146.6626  130.9917  152.9964 O   0  0  0  0  0  0  0  0  0  0  0  0
  146.1441  131.9698  152.1049 C   0  0  1  0  0  0  0  0  0  0  0  0
  145.5038  131.2227  150.9222 C   0  0  0  0  0  0  0  0  0  0  0  0
  144.8342  132.2146  149.9584 C   0  0  0  0  0  0  0  0  0  0  0  0
  143.8274  133.1069  150.7024 C   0  0  0  0  0  0  0  0  0  0  0  0
  144.4633  133.7674  151.8398 N   0  0  0  0  0  0  0  0  0  0  0  0
  143.6884  134.8125  152.3752 C   0  0  0  0  0  0  0  0  0  0  0  0
  142.4834  134.4949  152.9078 N   0  0  0  0  0  0  0  0  0  0  0  0
  141.7106  135.4835  153.4041 C   0  0  0  0  0  0  0  0  0  0  0  0
  142.0849  136.8456  153.3927 C   0  0  0  0  0  0  0  0  0  0  0  0
  141.2050  137.9130  153.9761 C   0  0  0  0  0  0  0  0  0  0  0  0
  141.5645  139.1762  153.7281 N   0  0  0  0  0  0  0  0  0  0  0  0
  140.2426  137.6292  154.6868 O   0  0  0  0  0  0  0  0  0  0  0  0
  143.3471  137.1721  152.8533 C   0  0  0  0  0  0  0  0  0  0  0  0
  144.1614  136.1477  152.3321 C   0  0  0  0  0  0  0  0  0  0  0  0
  145.7143  136.5473  151.6832 Cl  0  0  0  0  0  0  0  0  0  0  0  0
  145.0955  132.8638  152.8010 C   0  0  0  0  0  0  0  0  0  0  0  0
  150.2736  133.7011  153.7510 H   0  0  0  0  0  0  0  0  0  0  0  0
  150.1337  132.3170  154.8302 H   0  0  0  0  0  0  0  0  0  0  0  0
  149.0272  133.6798  154.9958 H   0  0  0  0  0  0  0  0  0  0  0  0
  148.0768  133.1750  152.7250 H   0  0  0  0  0  0  0  0  0  0  0  0
  149.1591  131.8163  152.5562 H   0  0  0  0  0  0  0  0  0  0  0  0
  148.0622  130.6896  154.5039 H   0  0  0  0  0  0  0  0  0  0  0  0
  147.0096  132.0820  154.7133 H   0  0  0  0  0  0  0  0  0  0  0  0
  146.9579  132.5873  151.7198 H   0  0  0  0  0  0  0  0  0  0  0  0
  146.2571  130.6370  150.3941 H   0  0  0  0  0  0  0  0  0  0  0  0
  144.7601  130.5152  151.2918 H   0  0  0  0  0  0  0  0  0  0  0  0
  145.5954  132.8384  149.4878 H   0  0  0  0  0  0  0  0  0  0  0  0
  144.3328  131.6761  149.1540 H   0  0  0  0  0  0  0  0  0  0  0  0
  143.4082  133.8414  150.0142 H   0  0  0  0  0  0  0  0  0  0  0  0
  142.9936  132.5046  151.0654 H   0  0  0  0  0  0  0  0  0  0  0  0
  140.7662  135.1668  153.8228 H   0  0  0  0  0  0  0  0  0  0  0  0
  141.0114  139.9405  154.0875 H   0  0  0  0  0  0  0  0  0  0  0  0
  142.3888  139.3614  153.1749 H   0  0  0  0  0  0  0  0  0  0  0  0
  143.6926  138.1958  152.8343 H   0  0  0  0  0  0  0  0  0  0  0  0
  144.3325  132.2403  153.2695 H   0  0  0  0  0  0  0  0  0  0  0  0
  145.5610  133.4534  153.5910 H   0  0  0  0  0  0  0  0  0  0  0  0
  1  2  1  0  0  0  0
  1 21  1  0  0  0  0
  1 22  1  0  0  0  0
  1 23  1  0  0  0  0
  2  3  1  0  0  0  0
  2 24  1  0  0  0  0
  2 25  1  0  0  0  0
  3  4  1  0  0  0  0
  3 26  1  0  0  0  0
  3 27  1  0  0  0  0
  4  5  1  0  0  0  0
  5 20  1  0  0  0  0
  5  6  1  0  0  0  0
  5 28  1  0  0  0  0
  6  7  1  0  0  0  0
  6 29  1  0  0  0  0
  6 30  1  0  0  0  0
  7  8  1  0  0  0  0
  7 31  1  0  0  0  0
  7 32  1  0  0  0  0
  8  9  1  0  0  0  0
  8 33  1  0  0  0  0
  8 34  1  0  0  0  0
  9 10  1  0  0  0  0
  9 20  1  0  0  0  0
 10 18  1  0  0  0  0
 10 11  2  0  0  0  0
 11 12  1  0  0  0  0
 12 13  2  0  0  0  0
 12 35  1  0  0  0  0
 13 14  1  0  0  0  0
 13 17  1  0  0  0  0
 14 15  1  0  0  0  0
 14 16  2  0  0  0  0
 15 36  1  0  0  0  0
 15 37  1  0  0  0  0
 17 18  2  0  0  0  0
 17 38  1  0  0  0  0
 18 19  1  0  0  0  0
 20 39  1  0  0  0  0
 20 40  1  0  0  0  0
M  END
> <s_m_source_file>
AV-unprocessed.smi

> <i_m_source_file_index>
373

> <i_lp_mmshare_version>
43012

> <i_f3d_flags>
0

> <s_epik_input>
W0NIM11bQ0gyXVtDSDJdT1tDQEBIXTFbQ0gyXVtDSDJdW0NIMl1OKFtDSDJdMSljMm5bY0hdYyhDKD1PKVtOSDJdKVtjSF1jMkNs

> <s_epik_cmdline>
J2VwaWtfcHl0aG9uJywgJy1waCcsICc3LjAnLCAnLXRuJywgJzgnLCAnLW1hJywgJzIwMCcsICctbWV0YWxfYmluZGluZycsICctaW1hZScsICc8aW5maWxlLm1hZT4nLCAnLW9tYWUnLCAnPG91dGZpbGUubWFlPic=

> <r_lp_tautomer_probability>
1

> <r_epik_Ionization_Penalty>
3.23666e-05

> <r_epik_Ionization_Penalty_Charging>
0

> <r_epik_Ionization_Penalty_Neutral>
3.23666e-05

> <r_epik_State_Penalty>
-0

> <r_epik_Charging_Adjusted_Penalty>
0

> <i_epik_Tot_Q>
0

> <i_epik_Tot_abs_Q>
0

> <r_epik_Metal_State_Penalty>
-0

> <b_epik_Metal_Only>
0

> <s_lp_Force_Field>
OPLS_2005

> <r_lp_Energy>
19.6268

> <b_lp_Chiralities_Consistent>
1

> <s_lp_Variant>
AV-unprocessed.smi:373-2

> <Gold.Version>
5.8.1

> <Gold.Id.Protein>
6NUR|6NUR_protein|mol2

> <Gold.PLP.Fitness>
38.7589

> <Gold.PLP.PLP>
-36.2783

> <Gold.PLP.part.hbond>
-2.0000

> <Gold.PLP.part.metal>
0.0000

> <Gold.PLP.part.buried>
-5.9906

> <Gold.PLP.part.nonpolar>
-29.4909

> <Gold.PLP.part.repulsive>
0.5502

> <Gold.PLP.ligand.clash>
0.0000

> <Gold.PLP.ligand.torsion>
0.3649

> <Gold.PLP.Chemscore.Hbond>
0.9760

> <Gold.PLP.Chemscore.CHOScore>
0.0000

> <Gold.PLP.Chemscore.Metal>
0.0000

> <Gold.Chemscore.Hbonds>
donor molecule, donor type, donor heavy atom, donor atom, acceptor molecule, acceptor atom, score
      L1  H    15    37       P1 10175  1.00

> <Gold.PLP.Chemscore.Internal.Correction>
0.2823

> <Gold.Rescore>
     Score         DG    S(hbond)    S(metal)    S(lipo)     H(rot)  DE(clash)    DE(int)     intcor
     14.04     -14.33       0.97        0.00      82.29       1.57       0.01       0.28       ----

> <Gold.Chemscore.Fitness>
14.0386

> <Gold.Chemscore.DG>
-14.3334

> <Gold.Chemscore.ZeroCoef>
-5.4800

> <Gold.Chemscore.Hbond>
0.9703

> <Gold.Chemscore.Metal>
0.0000

> <Gold.Chemscore.Lipo>
82.2940

> <Gold.Chemscore.Internal_Hbond>
0.0000

> <Gold.Chemscore.DEClash>
0.0126

> <Gold.Chemscore.DEInternal>
0.2822

> <Gold.Chemscore.Rot>
1.5687

> <Gold.Chemscore.Internal.Correction>
   9.000000E+99

> <Gold.Chemscore.Hbonds>
donor molecule, donor type, donor heavy atom, donor atom, acceptor molecule, acceptor atom, score
      L1  H    15    37       P1 10175  0.96

> <Gold.Chemscore.Hbond.Weighted>
-3.2407

> <Gold.Chemscore.Metal.Weighted>
-0.0000

> <Gold.Chemscore.Lipo.Weighted>
-9.6284

> <Gold.Chemscore.Internal_Hbond.Weighted>
0.0000

> <Gold.Chemscore.DEClash.Weighted>
0.0126

> <Gold.Chemscore.DEInternal.Weighted>
0.2822

> <Gold.Chemscore.Rot.Weighted>
4.0158

> <Gold.Chemscore.Internal.Correction.Weighted>
   9.000000E+99

> <Gold.Protein.RotatedTorsions>
[ 6907 6896 6895 6894 ] final -119.13 input  -60.11 | X-H torsion
[ 7974 7965 7964 7962 ] final  -19.05 input  175.53 | X-H torsion
[ 8008 7997 7996 7995 ] final  -37.87 input   59.86 | X-H torsion
[ 10167 10162 10161 10158 ] final    5.22 input  -65.29 | X-H torsion
[ 10718 10713 10712 10709 ] final   76.09 input   66.30 | X-H torsion
[ 10763 10752 10751 10750 ] final   71.28 input  -60.55 | X-H torsion
[ 11005 11000 10999 10996 ] final -103.79 input  -57.11 | X-H torsion

> <Gold.Protein.ActiveResidues>
 VAL166  LYS551  ARG553  GLY616  TRP617  ASP618  TYR619  PRO620  LYS621  CYS622 
 ASP623  PHE694  ASN695  SER759  ASP760  ASP761  ALA762  ILE779  LEU786  VAL792 
 PHE793  MET794  SER795  GLU796  ALA797  LYS798  CYS799  TRP800  GLU811  SER814 

> <Gold.Protein.RotatedAtoms>
  150.8279  133.8141  159.3110 H   0  0  0  0  0  0  0  0  0  0  0  0  # atno 6907 bound_to 6896
  151.5880  135.1053  160.0042 H   0  0  0  0  0  0  0  0  0  0  0  0  # atno 6908 bound_to 6896
  152.4362  133.7323  159.6651 H   0  0  0  0  0  0  0  0  0  0  0  0  # atno 6909 bound_to 6896
  146.1861  140.4008  142.8476 H   0  0  0  0  0  0  0  0  0  0  0  0  # atno 7974 bound_to 7965
  154.4046  140.1593  156.2607 H   0  0  0  0  0  0  0  0  0  0  0  0  # atno 8008 bound_to 7997
  155.9039  140.3431  155.6025 H   0  0  0  0  0  0  0  0  0  0  0  0  # atno 8009 bound_to 7997
  155.7416  140.0793  157.2234 H   0  0  0  0  0  0  0  0  0  0  0  0  # atno 8010 bound_to 7997
  140.6494  143.7583  150.7550 H   0  0  0  0  0  0  0  0  0  0  0  0  # atno 10167 bound_to 10162
  157.6660  130.9758  150.1447 H   0  0  0  0  0  0  0  0  0  0  0  0  # atno 10718 bound_to 10713
  153.0390  135.5143  154.7569 H   0  0  0  0  0  0  0  0  0  0  0  0  # atno 10763 bound_to 10752
  154.6522  135.2926  154.9975 H   0  0  0  0  0  0  0  0  0  0  0  0  # atno 10764 bound_to 10752
  154.0855  135.6658  153.4897 H   0  0  0  0  0  0  0  0  0  0  0  0  # atno 10765 bound_to 10752
  141.1130  133.8669  157.1529 H   0  0  0  0  0  0  0  0  0  0  0  0  # atno 11005 bound_to 11000
  144.8400  140.6842  143.6235 LP  0  0  0  0  0  0  0  0  0  0  0  0  # atno 17320 bound_to 7965
  145.3934  139.1612  143.4216 LP  0  0  0  0  0  0  0  0  0  0  0  0  # atno 17321 bound_to 7965
  140.1231  143.4594  152.2301 LP  0  0  0  0  0  0  0  0  0  0  0  0  # atno 17342 bound_to 10162
  139.5707  144.7461  151.3899 LP  0  0  0  0  0  0  0  0  0  0  0  0  # atno 17343 bound_to 10162
  156.2261  130.3678  149.8499 LP  0  0  0  0  0  0  0  0  0  0  0  0  # atno 17370 bound_to 10713
  156.6339  130.8677  151.3501 LP  0  0  0  0  0  0  0  0  0  0  0  0  # atno 17371 bound_to 10713
  140.0035  135.0018  157.0241 LP  0  0  0  0  0  0  0  0  0  0  0  0  # atno 17394 bound_to 11000
  140.4723  134.1374  155.7205 LP  0  0  0  0  0  0  0  0  0  0  0  0  # atno 17395 bound_to 11000

$$$$
