AV-unprocessed.smi:2061|AV-procd|sdf|8360|dock7
  -GOLD-   2272011 33D 1   1.00000     0.00000
 Structure written by MMmdl.
 45 46  0  0  0  0  0  0  0  0  1 V2000
  150.5945  141.7018  156.3643 C   0  0  0  0  0  0  0  0  0  0  0  0
  150.6080  140.3891  155.6591 C   0  0  0  0  0  0  0  0  0  0  0  0
  149.6590  139.4239  155.4695 C   0  0  0  0  0  0  0  0  0  0  0  0
  150.3488  138.4417  154.7099 C   0  0  0  0  0  0  0  0  0  0  0  0
  149.6986  137.2501  154.2981 N   0  0  0  0  0  0  0  0  0  0  0  0
  149.0744  136.3478  155.0745 C   0  0  0  0  0  0  0  0  0  0  0  0
  148.9664  136.4229  156.2988 O   0  0  0  0  0  0  0  0  0  0  0  0
  148.5702  135.3421  154.3431 N   0  0  0  0  0  0  0  0  0  0  0  0
  147.8297  134.1972  154.8699 C   0  0  0  0  0  0  0  0  0  0  0  0
  147.6291  133.0652  153.8224 C   0  0  2  0  0  0  0  0  0  0  0  0
  148.8665  133.0100  152.8903 C   0  0  0  0  0  0  0  0  0  0  0  0
  146.3538  133.1853  153.0761 N   0  0  0  0  0  0  0  0  0  0  0  0
  146.4060  132.5501  151.7546 C   0  0  0  0  0  0  0  0  0  0  0  0
  145.0889  132.6897  150.9669 C   0  0  2  0  0  0  0  0  0  0  0  0
  145.1905  132.0955  149.5582 C   0  0  0  0  0  0  0  0  0  0  0  0
  144.7599  134.0676  150.8445 O   0  0  0  0  0  0  0  0  0  0  0  0
  144.6162  134.7089  152.1050 C   0  0  2  0  0  0  0  0  0  0  0  0
  144.2279  136.1708  151.8598 C   0  0  0  0  0  0  0  0  0  0  0  0
  145.9354  134.5789  152.8896 C   0  0  0  0  0  0  0  0  0  0  0  0
  151.6047  138.7775  154.4581 N   0  0  0  0  0  0  0  0  0  0  0  0
  151.7772  140.0271  155.0649 O   0  0  0  0  0  0  0  0  0  0  0  0
  149.6303  141.8786  156.8410 H   0  0  0  0  0  0  0  0  0  0  0  0
  150.7808  142.5174  155.6656 H   0  0  0  0  0  0  0  0  0  0  0  0
  151.3643  141.7342  157.1356 H   0  0  0  0  0  0  0  0  0  0  0  0
  148.6374  139.4232  155.8198 H   0  0  0  0  0  0  0  0  0  0  0  0
  149.7093  137.0663  153.3061 H   0  0  0  0  0  0  0  0  0  0  0  0
  148.7071  135.3683  153.3434 H   0  0  0  0  0  0  0  0  0  0  0  0
  148.4251  133.8526  155.7133 H   0  0  0  0  0  0  0  0  0  0  0  0
  146.8640  134.4977  155.2798 H   0  0  0  0  0  0  0  0  0  0  0  0
  147.6070  132.1236  154.3734 H   0  0  0  0  0  0  0  0  0  0  0  0
  149.8020  132.9482  153.4445 H   0  0  0  0  0  0  0  0  0  0  0  0
  148.9200  133.8936  152.2536 H   0  0  0  0  0  0  0  0  0  0  0  0
  148.8656  132.1301  152.2486 H   0  0  0  0  0  0  0  0  0  0  0  0
  147.2255  132.9763  151.1738 H   0  0  0  0  0  0  0  0  0  0  0  0
  146.6042  131.4844  151.8491 H   0  0  0  0  0  0  0  0  0  0  0  0
  144.2870  132.1797  151.5039 H   0  0  0  0  0  0  0  0  0  0  0  0
  145.4269  131.0319  149.5969 H   0  0  0  0  0  0  0  0  0  0  0  0
  145.9680  132.5908  148.9758 H   0  0  0  0  0  0  0  0  0  0  0  0
  144.2489  132.2068  149.0200 H   0  0  0  0  0  0  0  0  0  0  0  0
  143.8116  134.2238  152.6606 H   0  0  0  0  0  0  0  0  0  0  0  0
  144.0934  136.7040  152.8013 H   0  0  0  0  0  0  0  0  0  0  0  0
  143.2920  136.2374  151.3046 H   0  0  0  0  0  0  0  0  0  0  0  0
  144.9938  136.6926  151.2856 H   0  0  0  0  0  0  0  0  0  0  0  0
  145.7799  135.0634  153.8515 H   0  0  0  0  0  0  0  0  0  0  0  0
  146.7226  135.1344  152.3773 H   0  0  0  0  0  0  0  0  0  0  0  0
  1  2  1  0  0  0  0
  1 22  1  0  0  0  0
  1 23  1  0  0  0  0
  1 24  1  0  0  0  0
  2 21  1  0  0  0  0
  2  3  2  0  0  0  0
  3  4  1  0  0  0  0
  3 25  1  0  0  0  0
  4  5  1  0  0  0  0
  4 20  2  0  0  0  0
  5  6  1  0  0  0  0
  5 26  1  0  0  0  0
  6  7  2  0  0  0  0
  6  8  1  0  0  0  0
  8  9  1  0  0  0  0
  8 27  1  0  0  0  0
  9 10  1  0  0  0  0
  9 28  1  0  0  0  0
  9 29  1  0  0  0  0
 10 11  1  0  0  0  0
 10 12  1  0  0  0  0
 10 30  1  0  0  0  0
 11 31  1  0  0  0  0
 11 32  1  0  0  0  0
 11 33  1  0  0  0  0
 12 19  1  0  0  0  0
 12 13  1  0  0  0  0
 13 14  1  0  0  0  0
 13 34  1  0  0  0  0
 13 35  1  0  0  0  0
 14 15  1  0  0  0  0
 14 16  1  0  0  0  0
 14 36  1  0  0  0  0
 15 37  1  0  0  0  0
 15 38  1  0  0  0  0
 15 39  1  0  0  0  0
 16 17  1  0  0  0  0
 17 18  1  0  0  0  0
 17 19  1  0  0  0  0
 17 40  1  0  0  0  0
 18 41  1  0  0  0  0
 18 42  1  0  0  0  0
 18 43  1  0  0  0  0
 19 44  1  0  0  0  0
 19 45  1  0  0  0  0
 20 21  1  0  0  0  0
M  END
> <s_m_source_file>
AV-unprocessed.smi

> <i_m_source_file_index>
2061

> <i_lp_mmshare_version>
43012

> <i_f3d_flags>
0

> <s_epik_input>
W0NIM11jMVtjSF1jKG5vMSlbTkhdQyg9TylbTkhdW0NIMl1bQ0BIXShbQ0gzXSlOMltDSDJdW0NAQEhdKFtDSDNdKU9bQ0BASF0oW0NIM10pW0NIMl0y

> <s_epik_cmdline>
J2VwaWtfcHl0aG9uJywgJy1waCcsICc3LjAnLCAnLXRuJywgJzgnLCAnLW1hJywgJzIwMCcsICctbWV0YWxfYmluZGluZycsICctaW1hZScsICc8aW5maWxlLm1hZT4nLCAnLW9tYWUnLCAnPG91dGZpbGUubWFlPic=

> <r_epik_Ionization_Penalty>
0.214073

> <r_epik_Ionization_Penalty_Charging>
0

> <r_epik_Ionization_Penalty_Neutral>
0.214073

> <r_epik_State_Penalty>
0.204211

> <r_epik_Charging_Adjusted_Penalty>
0.204211

> <i_epik_Tot_Q>
0

> <i_epik_Tot_abs_Q>
0

> <r_epik_Metal_State_Penalty>
0.217067

> <b_epik_Metal_Only>
0

> <s_lp_Force_Field>
OPLS_2005

> <r_lp_Energy>
26.137

> <b_lp_Chiralities_Consistent>
1

> <s_lp_Variant>
AV-unprocessed.smi:2061-1

> <Gold.Version>
5.8.1

> <Gold.Id.Protein>
6NUR|6NUR_protein|mol2

> <Gold.PLP.Fitness>
36.0063

> <Gold.PLP.PLP>
-31.3685

> <Gold.PLP.part.hbond>
-3.4653

> <Gold.PLP.part.metal>
0.0000

> <Gold.PLP.part.buried>
-4.8641

> <Gold.PLP.part.nonpolar>
-23.6366

> <Gold.PLP.part.repulsive>
0.4668

> <Gold.PLP.ligand.clash>
0.0460

> <Gold.PLP.ligand.torsion>
1.6489

> <Gold.PLP.Chemscore.Hbond>
2.6496

> <Gold.PLP.Chemscore.CHOScore>
0.0000

> <Gold.PLP.Chemscore.Metal>
0.0000

> <Gold.Chemscore.Hbonds>
donor molecule, donor type, donor heavy atom, donor atom, acceptor molecule, acceptor atom, score
      L1  H     5    26       P1  7948  1.00
      L1  H     8    27       P1  7948  1.00
      P1  H  7989  7998       L1    21  0.57

> <Gold.PLP.Chemscore.Internal.Correction>
0.0328

> <Gold.Rescore>
     Score         DG    S(hbond)    S(metal)    S(lipo)     H(rot)  DE(clash)    DE(int)     intcor
     14.12     -15.63       1.88        0.00      66.84       1.55       0.01       1.50       ----

> <Gold.Chemscore.Fitness>
14.1246

> <Gold.Chemscore.DG>
-15.6339

> <Gold.Chemscore.ZeroCoef>
-5.4800

> <Gold.Chemscore.Hbond>
1.8847

> <Gold.Chemscore.Metal>
0.0000

> <Gold.Chemscore.Lipo>
66.8399

> <Gold.Chemscore.Internal_Hbond>
0.0000

> <Gold.Chemscore.DEClash>
0.0106

> <Gold.Chemscore.DEInternal>
1.4987

> <Gold.Chemscore.Rot>
1.5474

> <Gold.Chemscore.Internal.Correction>
   9.000000E+99

> <Gold.Chemscore.Hbonds>
donor molecule, donor type, donor heavy atom, donor atom, acceptor molecule, acceptor atom, score
      L1  H     5    26       P1  7948  0.57
      L1  H     8    27       P1  7948  0.85
      P1  H  7989  7998       L1    21  0.01

> <Gold.Chemscore.Hbond.Weighted>
-6.2949

> <Gold.Chemscore.Metal.Weighted>
-0.0000

> <Gold.Chemscore.Lipo.Weighted>
-7.8203

> <Gold.Chemscore.Internal_Hbond.Weighted>
0.0000

> <Gold.Chemscore.DEClash.Weighted>
0.0106

> <Gold.Chemscore.DEInternal.Weighted>
1.4987

> <Gold.Chemscore.Rot.Weighted>
3.9612

> <Gold.Chemscore.Internal.Correction.Weighted>
   9.000000E+99

> <Gold.Protein.RotatedTorsions>
[ 6907 6896 6895 6894 ] final   28.02 input  -60.11 | X-H torsion
[ 7974 7965 7964 7962 ] final  -56.35 input  175.53 | X-H torsion
[ 8008 7997 7996 7995 ] final  -22.22 input   59.86 | X-H torsion
[ 10167 10162 10161 10158 ] final   98.51 input  -65.29 | X-H torsion
[ 10718 10713 10712 10709 ] final  -84.05 input   66.30 | X-H torsion
[ 10763 10752 10751 10750 ] final  -78.64 input  -60.55 | X-H torsion
[ 11005 11000 10999 10996 ] final  134.94 input  -57.11 | X-H torsion

> <Gold.Protein.ActiveResidues>
 VAL166  LYS551  ARG553  GLY616  TRP617  ASP618  TYR619  PRO620  LYS621  CYS622 
 ASP623  PHE694  ASN695  SER759  ASP760  ASP761  ALA762  ILE779  LEU786  VAL792 
 PHE793  MET794  SER795  GLU796  ALA797  LYS798  CYS799  TRP800  GLU811  SER814 

> <Gold.Protein.RotatedAtoms>
  152.0109  134.9877  160.0567 H   0  0  0  0  0  0  0  0  0  0  0  0  # atno 6907 bound_to 6896
  152.1430  133.4470  159.4784 H   0  0  0  0  0  0  0  0  0  0  0  0  # atno 6908 bound_to 6896
  150.6867  134.2200  159.4436 H   0  0  0  0  0  0  0  0  0  0  0  0  # atno 6909 bound_to 6896
  145.8637  140.8266  142.9923 H   0  0  0  0  0  0  0  0  0  0  0  0  # atno 7974 bound_to 7965
  154.4657  140.2013  156.0125 H   0  0  0  0  0  0  0  0  0  0  0  0  # atno 8008 bound_to 7997
  156.0922  140.3256  155.7802 H   0  0  0  0  0  0  0  0  0  0  0  0  # atno 8009 bound_to 7997
  155.4937  140.0548  157.2940 H   0  0  0  0  0  0  0  0  0  0  0  0  # atno 8010 bound_to 7997
  139.7702  144.6925  151.0167 H   0  0  0  0  0  0  0  0  0  0  0  0  # atno 10167 bound_to 10162
  156.0011  130.4685  150.4351 H   0  0  0  0  0  0  0  0  0  0  0  0  # atno 10718 bound_to 10713
  154.5285  135.5723  153.6739 H   0  0  0  0  0  0  0  0  0  0  0  0  # atno 10763 bound_to 10752
  152.9933  135.6199  154.2660 H   0  0  0  0  0  0  0  0  0  0  0  0  # atno 10764 bound_to 10752
  154.2585  135.2857  155.2767 H   0  0  0  0  0  0  0  0  0  0  0  0  # atno 10765 bound_to 10752
  139.9947  134.9502  156.9937 H   0  0  0  0  0  0  0  0  0  0  0  0  # atno 11005 bound_to 11000
  144.6726  140.1134  143.7454 LP  0  0  0  0  0  0  0  0  0  0  0  0  # atno 17320 bound_to 7965
  145.9218  139.2550  143.1377 LP  0  0  0  0  0  0  0  0  0  0  0  0  # atno 17321 bound_to 7965
  140.7813  143.4597  151.0295 LP  0  0  0  0  0  0  0  0  0  0  0  0  # atno 17342 bound_to 10162
  139.8281  143.7728  152.3179 LP  0  0  0  0  0  0  0  0  0  0  0  0  # atno 17343 bound_to 10162
  157.2397  131.0522  151.2444 LP  0  0  0  0  0  0  0  0  0  0  0  0  # atno 17370 bound_to 10713
  157.3632  130.7142  149.6516 LP  0  0  0  0  0  0  0  0  0  0  0  0  # atno 17371 bound_to 10713
  140.4841  134.1260  155.7221 LP  0  0  0  0  0  0  0  0  0  0  0  0  # atno 17394 bound_to 11000
  141.1595  133.8820  157.1887 LP  0  0  0  0  0  0  0  0  0  0  0  0  # atno 17395 bound_to 11000

$$$$
