AV-unprocessed.smi:3009|AV-procd|sdf|11454|dock6
  -GOLD-   2272016383D 1   1.00000     0.00000
 Structure written by MMmdl.
 43 44  0  0  0  0  0  0  0  0  1 V2000
  153.0922  138.4662  155.2342 C   0  0  0  0  0  0  0  0  0  0  0  0
  151.9370  139.4766  155.1426 C   0  0  0  0  0  0  0  0  0  0  0  0
  151.9365  140.4061  156.3647 C   0  0  0  0  0  0  0  0  0  0  0  0
  150.5698  138.7731  155.0018 C   0  0  0  0  0  0  0  0  0  0  0  0
  149.5836  139.4562  154.1629 N   0  0  0  0  0  0  0  0  0  0  0  0
  149.1157  140.7115  154.7469 C   0  0  0  0  0  0  0  0  0  0  0  0
  148.0649  141.4000  153.8590 C   0  0  0  0  0  0  0  0  0  0  0  0
  146.9785  140.5122  153.6188 O   0  0  0  0  0  0  0  0  0  0  0  0
  147.3822  139.2875  153.0119 C   0  0  2  0  0  0  0  0  0  0  0  0
  146.1387  138.4215  152.7328 C   0  0  0  0  0  0  0  0  0  0  0  0
  146.4701  137.1305  152.1358 N   0  0  0  0  0  0  0  0  0  0  0  0
  145.5888  136.1610  151.8540 C   0  0  0  0  0  0  0  0  0  0  0  0
  144.3783  136.2589  152.0561 O   0  0  0  0  0  0  0  0  0  0  0  0
  146.1989  135.0855  151.3297 N   0  0  0  0  0  0  0  0  0  0  0  0
  145.5954  133.8744  150.9064 C   0  0  0  0  0  0  0  0  0  0  0  0
  146.2558  132.6169  150.8513 C   0  0  0  0  0  0  0  0  0  0  0  0
  145.4447  131.6632  150.4161 N   0  0  0  0  0  0  0  0  0  0  0  0
  144.2728  132.2999  150.1931 N   0  0  0  0  0  0  0  0  0  0  0  0
  144.3175  133.6467  150.4783 C   0  0  0  0  0  0  0  0  0  0  0  0
  148.4320  138.5975  153.9094 C   0  0  0  0  0  0  0  0  0  0  0  0
  143.4606  131.8073  149.8492 H   0  0  0  0  0  0  0  0  0  0  0  0
  152.9744  137.8053  156.0934 H   0  0  0  0  0  0  0  0  0  0  0  0
  154.0512  138.9751  155.3340 H   0  0  0  0  0  0  0  0  0  0  0  0
  153.1466  137.8439  154.3406 H   0  0  0  0  0  0  0  0  0  0  0  0
  152.1096  140.1085  154.2721 H   0  0  0  0  0  0  0  0  0  0  0  0
  151.7777  139.8483  157.2883 H   0  0  0  0  0  0  0  0  0  0  0  0
  151.1474  141.1546  156.2881 H   0  0  0  0  0  0  0  0  0  0  0  0
  152.8842  140.9377  156.4555 H   0  0  0  0  0  0  0  0  0  0  0  0
  150.7507  137.7774  154.5943 H   0  0  0  0  0  0  0  0  0  0  0  0
  150.1444  138.6115  155.9936 H   0  0  0  0  0  0  0  0  0  0  0  0
  148.6888  140.5255  155.7336 H   0  0  0  0  0  0  0  0  0  0  0  0
  149.9483  141.3990  154.8894 H   0  0  0  0  0  0  0  0  0  0  0  0
  147.6880  142.2997  154.3456 H   0  0  0  0  0  0  0  0  0  0  0  0
  148.5059  141.7095  152.9103 H   0  0  0  0  0  0  0  0  0  0  0  0
  147.8423  139.5247  152.0510 H   0  0  0  0  0  0  0  0  0  0  0  0
  145.5596  138.2866  153.6477 H   0  0  0  0  0  0  0  0  0  0  0  0
  145.4838  138.9459  152.0367 H   0  0  0  0  0  0  0  0  0  0  0  0
  147.4443  136.9608  151.9330 H   0  0  0  0  0  0  0  0  0  0  0  0
  147.2007  135.1400  151.2184 H   0  0  0  0  0  0  0  0  0  0  0  0
  147.2760  132.3698  151.1062 H   0  0  0  0  0  0  0  0  0  0  0  0
  143.4619  134.2934  150.3519 H   0  0  0  0  0  0  0  0  0  0  0  0
  148.7602  137.6737  153.4313 H   0  0  0  0  0  0  0  0  0  0  0  0
  147.9768  138.3115  154.8589 H   0  0  0  0  0  0  0  0  0  0  0  0
  1  2  1  0  0  0  0
  1 22  1  0  0  0  0
  1 23  1  0  0  0  0
  1 24  1  0  0  0  0
  2  3  1  0  0  0  0
  2  4  1  0  0  0  0
  2 25  1  0  0  0  0
  3 26  1  0  0  0  0
  3 27  1  0  0  0  0
  3 28  1  0  0  0  0
  4  5  1  0  0  0  0
  4 29  1  0  0  0  0
  4 30  1  0  0  0  0
  5 20  1  0  0  0  0
  5  6  1  0  0  0  0
  6  7  1  0  0  0  0
  6 31  1  0  0  0  0
  6 32  1  0  0  0  0
  7  8  1  0  0  0  0
  7 33  1  0  0  0  0
  7 34  1  0  0  0  0
  8  9  1  0  0  0  0
  9 10  1  0  0  0  0
  9 20  1  0  0  0  0
  9 35  1  0  0  0  0
 10 11  1  0  0  0  0
 10 36  1  0  0  0  0
 10 37  1  0  0  0  0
 11 12  1  0  0  0  0
 11 38  1  0  0  0  0
 12 13  2  0  0  0  0
 12 14  1  0  0  0  0
 14 15  1  0  0  0  0
 14 39  1  0  0  0  0
 15 19  2  0  0  0  0
 15 16  1  0  0  0  0
 16 17  2  0  0  0  0
 16 40  1  0  0  0  0
 17 18  1  0  0  0  0
 18 21  1  0  0  0  0
 18 19  1  0  0  0  0
 19 41  1  0  0  0  0
 20 42  1  0  0  0  0
 20 43  1  0  0  0  0
M  END
> <s_m_source_file>
AV-unprocessed.smi

> <i_m_source_file_index>
3009

> <i_lp_mmshare_version>
43012

> <i_f3d_flags>
0

> <s_epik_input>
W0NIM11bQ0hdKFtDSDNdKVtDSDJdTjFbQ0gyXVtDSDJdT1tDQEhdKFtDSDJdMSlbQ0gyXVtOSF1DKD1PKVtOSF1jMltjSF1uW25IXVtjSF0y

> <s_epik_cmdline>
J2VwaWtfcHl0aG9uJywgJy1waCcsICc3LjAnLCAnLXRuJywgJzgnLCAnLW1hJywgJzIwMCcsICctbWV0YWxfYmluZGluZycsICctaW1hZScsICc8aW5maWxlLm1hZT4nLCAnLW9tYWUnLCAnPG91dGZpbGUubWFlPic=

> <r_lp_tautomer_probability>
0.5

> <r_epik_Ionization_Penalty>
1.11801

> <r_epik_Ionization_Penalty_Charging>
0

> <r_epik_Ionization_Penalty_Neutral>
1.11801

> <r_epik_State_Penalty>
1.17654

> <r_epik_Charging_Adjusted_Penalty>
1.17654

> <i_epik_Tot_Q>
0

> <i_epik_Tot_abs_Q>
0

> <r_epik_Metal_State_Penalty>
1.17654

> <b_epik_Metal_Only>
0

> <s_lp_Force_Field>
OPLS_2005

> <r_lp_Energy>
28.7191

> <b_lp_Chiralities_Consistent>
1

> <s_lp_Variant>
AV-unprocessed.smi:3009-6

> <Gold.Version>
5.8.1

> <Gold.Id.Protein>
6NUR|6NUR_protein|mol2

> <Gold.PLP.Fitness>
42.8771

> <Gold.PLP.PLP>
-32.9010

> <Gold.PLP.part.hbond>
-2.0000

> <Gold.PLP.part.metal>
0.0000

> <Gold.PLP.part.buried>
-1.9293

> <Gold.PLP.part.nonpolar>
-29.8012

> <Gold.PLP.part.repulsive>
1.2692

> <Gold.PLP.ligand.clash>
0.0000

> <Gold.PLP.ligand.torsion>
0.6287

> <Gold.PLP.Chemscore.Hbond>
1.7280

> <Gold.PLP.Chemscore.CHOScore>
1.9932

> <Gold.PLP.Chemscore.Metal>
0.0000

> <Gold.Chemscore.Hbonds>
donor molecule, donor type, donor heavy atom, donor atom, acceptor molecule, acceptor atom, score
      L1  H    11    38       P1  7948  1.00
      L1  H    14    39       P1  7948  0.73
      L1  C    16    40       P1 10747  1.00
      L1  C    19    41       P1 10186  0.88

> <Gold.PLP.Chemscore.Internal.Correction>
0.0698

> <Gold.Rescore>
     Score         DG    S(hbond)    S(metal)    S(lipo)     H(rot)  DE(clash)    DE(int)     intcor
     15.42     -16.43       1.77        0.00      81.48       1.76       0.27       0.74       ----

> <Gold.Chemscore.Fitness>
15.4162

> <Gold.Chemscore.DG>
-16.4270

> <Gold.Chemscore.ZeroCoef>
-5.4800

> <Gold.Chemscore.Hbond>
1.7698

> <Gold.Chemscore.Metal>
0.0000

> <Gold.Chemscore.Lipo>
81.4819

> <Gold.Chemscore.Internal_Hbond>
0.0000

> <Gold.Chemscore.DEClash>
0.2723

> <Gold.Chemscore.DEInternal>
0.7385

> <Gold.Chemscore.Rot>
1.7568

> <Gold.Chemscore.Internal.Correction>
   9.000000E+99

> <Gold.Chemscore.Hbonds>
donor molecule, donor type, donor heavy atom, donor atom, acceptor molecule, acceptor atom, score
      L1  H    11    38       P1  7948  1.00
      L1  H    14    39       P1  7948  0.50

> <Gold.Chemscore.Hbond.Weighted>
-5.9111

> <Gold.Chemscore.Metal.Weighted>
-0.0000

> <Gold.Chemscore.Lipo.Weighted>
-9.5334

> <Gold.Chemscore.Internal_Hbond.Weighted>
0.0000

> <Gold.Chemscore.DEClash.Weighted>
0.2723

> <Gold.Chemscore.DEInternal.Weighted>
0.7385

> <Gold.Chemscore.Rot.Weighted>
4.4974

> <Gold.Chemscore.Internal.Correction.Weighted>
   9.000000E+99

> <Gold.Protein.RotatedTorsions>
[ 6907 6896 6895 6894 ] final   63.58 input  -60.11 | X-H torsion
[ 7974 7965 7964 7962 ] final   76.35 input  175.53 | X-H torsion
[ 8008 7997 7996 7995 ] final  157.52 input   59.86 | X-H torsion
[ 10167 10162 10161 10158 ] final  134.62 input  -65.29 | X-H torsion
[ 10718 10713 10712 10709 ] final -176.31 input   66.30 | X-H torsion
[ 10763 10752 10751 10750 ] final   52.26 input  -60.55 | X-H torsion
[ 11005 11000 10999 10996 ] final -176.61 input  -57.11 | X-H torsion

> <Gold.Protein.ActiveResidues>
 VAL166  LYS551  ARG553  GLY616  TRP617  ASP618  TYR619  PRO620  LYS621  CYS622 
 ASP623  PHE694  ASN695  SER759  ASP760  ASP761  ALA762  ILE779  LEU786  VAL792 
 PHE793  MET794  SER795  GLU796  ALA797  LYS798  CYS799  TRP800  GLU811  SER814 

> <Gold.Protein.RotatedAtoms>
  152.4264  134.5860  159.9960 H   0  0  0  0  0  0  0  0  0  0  0  0  # atno 6907 bound_to 6896
  151.5996  133.3352  159.3052 H   0  0  0  0  0  0  0  0  0  0  0  0  # atno 6908 bound_to 6896
  150.8154  134.7369  159.6790 H   0  0  0  0  0  0  0  0  0  0  0  0  # atno 6909 bound_to 6896
  145.7040  139.2592  143.1689 H   0  0  0  0  0  0  0  0  0  0  0  0  # atno 7974 bound_to 7965
  156.2359  140.1883  156.7121 H   0  0  0  0  0  0  0  0  0  0  0  0  # atno 8008 bound_to 7997
  154.6105  140.0622  156.9514 H   0  0  0  0  0  0  0  0  0  0  0  0  # atno 8009 bound_to 7997
  155.2024  140.3293  155.4343 H   0  0  0  0  0  0  0  0  0  0  0  0  # atno 8010 bound_to 7997
  139.5249  144.6558  151.5166 H   0  0  0  0  0  0  0  0  0  0  0  0  # atno 10167 bound_to 10162
  156.8127  130.9592  151.3115 H   0  0  0  0  0  0  0  0  0  0  0  0  # atno 10718 bound_to 10713
  152.9788  135.5818  154.4549 H   0  0  0  0  0  0  0  0  0  0  0  0  # atno 10763 bound_to 10752
  154.4133  135.2770  155.2025 H   0  0  0  0  0  0  0  0  0  0  0  0  # atno 10764 bound_to 10752
  154.3805  135.6148  153.5842 H   0  0  0  0  0  0  0  0  0  0  0  0  # atno 10765 bound_to 10752
  140.4502  134.6350  157.4797 H   0  0  0  0  0  0  0  0  0  0  0  0  # atno 11005 bound_to 11000
  146.0772  140.7804  142.9659 LP  0  0  0  0  0  0  0  0  0  0  0  0  # atno 17320 bound_to 7965
  144.6960  140.3433  143.7195 LP  0  0  0  0  0  0  0  0  0  0  0  0  # atno 17321 bound_to 7965
  140.6383  143.8939  150.6668 LP  0  0  0  0  0  0  0  0  0  0  0  0  # atno 17342 bound_to 10162
  140.2266  143.3768  152.1600 LP  0  0  0  0  0  0  0  0  0  0  0  0  # atno 17343 bound_to 10162
  157.6497  130.8874  149.9609 LP  0  0  0  0  0  0  0  0  0  0  0  0  # atno 17370 bound_to 10713
  156.1035  130.3654  150.0176 LP  0  0  0  0  0  0  0  0  0  0  0  0  # atno 17371 bound_to 10713
  140.0012  134.6834  155.9528 LP  0  0  0  0  0  0  0  0  0  0  0  0  # atno 17394 bound_to 11000
  141.1667  133.6537  156.4506 LP  0  0  0  0  0  0  0  0  0  0  0  0  # atno 17395 bound_to 11000

$$$$
