#       Name:                AV-unprocessed.smi:2760
#       Creating user name   scv26
#       Creation time:       Fri Mar 27 15:07:38 2020


#       File generated by GOLD software.
#

@<TRIPOS>MOLECULE
AV-unprocessed.smi:2760
    37    38     1
SMALL
NO_CHARGES


@<TRIPOS>ATOM
      1 ****        -3.8079   1.5448  -2.5136 O.2            1 S1                 0.0000
      2 ****        -3.1024   1.1681  -1.5804 C.2            1 S1                 0.0000
      3 ****        -3.6219   0.7283  -0.2859 C.2            1 S1                 0.0000
      4 ****        -2.7761   0.3252   0.6963 C.2            1 S1                 0.0000
      5 ****        -3.2350  -0.1341   2.0411 C.3            1 S1                 0.0000
      6 ****        -4.5308  -0.8909   2.2381 C.3            1 S1                 0.0000
      7 ****        -4.3975   0.5212   2.7545 C.3            1 S1                 0.0000
      8 ****        -1.3903   0.3246   0.4836 N.2            1 S1                 0.0000
      9 ****        -0.9049   0.7122  -0.6548 C.2            1 S1                 0.0000
     10 ****         0.8282   0.8171  -1.1882 S.3            1 S1                 0.0000
     11 ****         1.6945   0.2272   0.2947 C.3            1 S1                 0.0000
     12 ****         3.2163   0.2779   0.1224 C.3            1 S1                 0.0000
     13 ****         3.6054  -0.6186  -0.9055 O.3            1 S1                 0.0000
     14 ****         5.0059  -0.6191  -1.1339 C.3            1 S1                 0.0000
     15 ****         5.3415  -1.5999  -2.2642 C.3            1 S1                 0.0000
     16 ****         6.6556  -1.5843  -2.4844 F              1 S1                 0.0000
     17 ****         4.9796  -2.8365  -1.9236 F              1 S1                 0.0000
     18 ****         4.7157  -1.2429  -3.3855 F              1 S1                 0.0000
     19 ****        -1.7543   1.1314  -1.6842 N.am           1 S1                 0.0000
     20 ****        -1.3437   1.4247  -2.5586 H              1 S1                 0.0000
     21 ****        -4.6897   0.7320  -0.1251 H              1 S1                 0.0000
     22 ****        -2.4057  -0.4469   2.6738 H              1 S1                 0.0000
     23 ****        -5.1727  -1.0522   1.3746 H              1 S1                 0.0000
     24 ****        -4.5336  -1.6942   2.9720 H              1 S1                 0.0000
     25 ****        -4.3110   0.6561   3.8305 H              1 S1                 0.0000
     26 ****        -4.9480   1.3015   2.2329 H              1 S1                 0.0000
     27 ****         1.3740  -0.7907   0.5186 H              1 S1                 0.0000
     28 ****         1.4023   0.8501   1.1404 H              1 S1                 0.0000
     29 ****         3.5324   1.2941  -0.1182 H              1 S1                 0.0000
     30 ****         3.7010  -0.0024   1.0588 H              1 S1                 0.0000
     31 ****         5.3413   0.3842  -1.4022 H              1 S1                 0.0000
     32 ****         5.5327  -0.9072  -0.2229 H              1 S1                 0.0000
     33 ****        -3.3872   1.8330  -3.3738 LP             1 S1                 0.0000
     34 ****        -4.8027   1.5631  -2.4127 LP             1 S1                 0.0000
     35 ****        -0.7743   0.0244   1.2119 LP             1 S1                 0.0000
     36 ****         3.1437  -0.3538  -1.7521 LP             1 S1                 0.0000
     37 ****         3.3235  -1.5426  -0.6472 LP             1 S1                 0.0000
@<TRIPOS>BOND
    1    1    2 2     
    2    2   19 am    
    3    2    3 1     
    4    3   21 1     
    5    3    4 2     
    6    4    5 1     
    7    4    8 1     
    8    5    7 1     
    9    5    6 1     
   10    5   22 1     
   11    6    7 1     
   12    6   23 1     
   13    6   24 1     
   14    7   25 1     
   15    7   26 1     
   16    8    9 2     
   17    9   10 1     
   18    9   19 1     
   19   10   11 1     
   20   11   12 1     
   21   11   27 1     
   22   11   28 1     
   23   12   13 1     
   24   12   29 1     
   25   12   30 1     
   26   13   14 1     
   27   14   15 1     
   28   14   31 1     
   29   14   32 1     
   30   15   16 1     
   31   15   17 1     
   32   15   18 1     
   33   19   20 1     
   34    1   33 1     
   35    1   34 1     
   36    8   35 1     
   37   13   36 1     
   38   13   37 1     
@<TRIPOS>SUBSTRUCTURE
      1 S1             1
@<TRIPOS>SET
LONE_PAIRS      STATIC     ATOMS    <user>   **** ""
5 33 34 35 36 37
DONOR_HYDROGENS      STATIC     ATOMS    <user>   **** ""
1 20
ATOM$BLUE        STATIC     ATOMS    COLORGROUP SYSTEM
5 33 34 35 36 37
ATOM$RED        STATIC     ATOMS    COLORGROUP SYSTEM
1 20
