#       Name:                AV-unprocessed.smi:1389
#       Creating user name   scv26
#       Creation time:       Fri Mar 27 05:27:28 2020


#       File generated by GOLD software.
#

@<TRIPOS>MOLECULE
AV-unprocessed.smi:1389
    58    60     1
SMALL
NO_CHARGES


@<TRIPOS>ATOM
      1 ****        -2.8230  -0.1458  -1.5630 C.3            1 S1                 0.0000
      2 ****        -2.0329  -1.4756  -1.6476 C.3            1 S1                 0.0000
      3 ****        -0.5024  -1.2079  -1.5999 C.3            1 S1                 0.0000
      4 ****        -0.0846  -0.4253  -0.4378 N.am           1 S1                 0.0000
      5 ****         0.3206   0.8529  -0.4686 C.2            1 S1                 0.0000
      6 ****         0.3553   1.5309  -1.4952 O.2            1 S1                 0.0000
      7 ****         0.6907   1.2796   0.7505 N.am           1 S1                 0.0000
      8 ****         1.1988   2.5605   1.1102 C.ar           1 S1                 0.0000
      9 ****         0.8141   3.7483   0.4372 C.ar           1 S1                 0.0000
     10 ****         1.3378   4.9882   0.8534 C.ar           1 S1                 0.0000
     11 ****         2.2292   5.0246   1.9412 C.ar           1 S1                 0.0000
     12 ****         2.5631   3.8787   2.5710 N.pl3          1 S1                 1.0000
     13 ****         2.0896   2.6607   2.2095 C.ar           1 S1                 0.0000
     14 ****         2.4966   1.5290   2.9373 N.3            1 S1                 0.0000
     15 ****         3.9315   1.3105   3.0243 C.3            1 S1                 0.0000
     16 ****         4.1204   0.2939   4.1528 C.3            1 S1                 0.0000
     17 ****         2.8510   0.4121   5.0053 C.3            1 S1                 0.0000
     18 ****         1.9986   1.4716   4.3012 C.3            1 S1                 0.0000
     19 ****        -2.4074  -2.2870  -2.8559 N.4            1 S1                 1.0000
     20 ****        -1.7896  -3.6432  -2.8714 C.3            1 S1                 0.0000
     21 ****        -2.1761  -4.4252  -4.1375 C.3            1 S1                 0.0000
     22 ****        -3.5882  -4.5281  -4.2205 O.3            1 S1                 0.0000
     23 ****        -4.1886  -3.2482  -4.3357 C.3            1 S1                 0.0000
     24 ****        -3.8757  -2.4080  -3.0854 C.3            1 S1                 0.0000
     25 ****        -2.5266   0.4529  -0.7029 H              1 S1                 0.0000
     26 ****        -3.8928  -0.3064  -1.4343 H              1 S1                 0.0000
     27 ****        -2.6719   0.4635  -2.4546 H              1 S1                 0.0000
     28 ****        -2.2996  -2.0616  -0.7666 H              1 S1                 0.0000
     29 ****         0.0564  -2.1378  -1.5174 H              1 S1                 0.0000
     30 ****        -0.1752  -0.7388  -2.5295 H              1 S1                 0.0000
     31 ****        -0.0820  -0.9028   0.4519 H              1 S1                 0.0000
     32 ****         0.7006   0.5852   1.4833 H              1 S1                 0.0000
     33 ****         0.1142   3.7314  -0.3842 H              1 S1                 0.0000
     34 ****         1.0548   5.8998   0.3473 H              1 S1                 0.0000
     35 ****         2.6768   5.9286   2.3281 H              1 S1                 0.0000
     36 ****         4.3303   0.9396   2.0796 H              1 S1                 0.0000
     37 ****         4.4512   2.2380   3.2684 H              1 S1                 0.0000
     38 ****         4.2005  -0.7145   3.7449 H              1 S1                 0.0000
     39 ****         5.0263   0.4929   4.7261 H              1 S1                 0.0000
     40 ****         2.3280  -0.5448   5.0273 H              1 S1                 0.0000
     41 ****         3.0690   0.6945   6.0356 H              1 S1                 0.0000
     42 ****         2.1203   2.4386   4.7914 H              1 S1                 0.0000
     43 ****         0.9393   1.2138   4.3224 H              1 S1                 0.0000
     44 ****        -0.7036  -3.5861  -2.8494 H              1 S1                 0.0000
     45 ****        -2.1016  -4.1964  -1.9842 H              1 S1                 0.0000
     46 ****        -1.7765  -3.9440  -5.0320 H              1 S1                 0.0000
     47 ****        -1.7521  -5.4288  -4.1017 H              1 S1                 0.0000
     48 ****        -3.8396  -2.7474  -5.2403 H              1 S1                 0.0000
     49 ****        -5.2663  -3.3752  -4.4405 H              1 S1                 0.0000
     50 ****        -4.3471  -2.8536  -2.2081 H              1 S1                 0.0000
     51 ****        -4.3292  -1.4303  -3.2404 H              1 S1                 0.0000
     52 ****        -2.0397  -1.7931  -3.6568 H              1 S1                 0.0000
     53 ****         3.2063   3.9330   3.3611 H              1 S1                 0.0000
     54 ****         0.0717   1.1325  -2.3674 LP             1 S1                 0.0000
     55 ****         0.6672   2.4803  -1.4571 LP             1 S1                 0.0000
     56 ****         2.0831   0.8116   2.3767 LP             1 S1                 0.0000
     57 ****        -3.9318  -4.9767  -3.3955 LP             1 S1                 0.0000
     58 ****        -3.8290  -5.0749  -5.0223 LP             1 S1                 0.0000
@<TRIPOS>BOND
    1    1    2 1     
    2    1   25 1     
    3    1   26 1     
    4    1   27 1     
    5    2    3 1     
    6    2   19 1     
    7    2   28 1     
    8    3    4 1     
    9    3   29 1     
   10    3   30 1     
   11    4    5 am    
   12    4   31 1     
   13    5    6 2     
   14    5    7 am    
   15    7    8 1     
   16    7   32 1     
   17    8   13 ar    
   18    8    9 ar    
   19    9   10 ar    
   20    9   33 1     
   21   10   11 ar    
   22   10   34 1     
   23   11   12 ar    
   24   11   35 1     
   25   12   13 ar    
   26   12   53 1     
   27   13   14 1     
   28   14   18 1     
   29   14   15 1     
   30   15   16 1     
   31   15   36 1     
   32   15   37 1     
   33   16   17 1     
   34   16   38 1     
   35   16   39 1     
   36   17   18 1     
   37   17   40 1     
   38   17   41 1     
   39   18   42 1     
   40   18   43 1     
   41   19   24 1     
   42   19   20 1     
   43   19   52 1     
   44   20   21 1     
   45   20   44 1     
   46   20   45 1     
   47   21   22 1     
   48   21   46 1     
   49   21   47 1     
   50   22   23 1     
   51   23   24 1     
   52   23   48 1     
   53   23   49 1     
   54   24   50 1     
   55   24   51 1     
   56    6   54 1     
   57    6   55 1     
   58   14   56 1     
   59   22   57 1     
   60   22   58 1     
@<TRIPOS>SUBSTRUCTURE
      1 S1             1
@<TRIPOS>SET
LONE_PAIRS      STATIC     ATOMS    <user>   **** ""
5 54 55 56 57 58
DONOR_HYDROGENS      STATIC     ATOMS    <user>   **** ""
4 31 32 53 52
ATOM$BLUE        STATIC     ATOMS    COLORGROUP SYSTEM
5 54 55 56 57 58
ATOM$RED        STATIC     ATOMS    COLORGROUP SYSTEM
4 31 32 53 52
