AV-unprocessed.smi:3056|AV-procd|sdf|11648|dock7
  -GOLD-   2272017 43D 1   1.00000     0.00000
 Structure written by MMmdl.
 48 49  0  0  0  0  0  0  0  0  2 V2000
  145.4982  131.9905  150.5894 C   0  0  0  0  0  0  0  0  0  0  0  0
  145.2599  133.4448  150.8773 C   0  0  0  0  0  0  0  0  0  0  0  0
  144.0662  134.1920  150.6740 C   0  0  0  0  0  0  0  0  0  0  0  0
  144.1873  135.4573  151.0385 N   0  0  0  0  0  0  0  0  0  0  0  0
  145.4611  135.5717  151.4787 N   0  0  0  0  0  0  0  0  0  0  0  0
  145.9726  136.8382  151.9972 C   0  0  1  0  0  0  0  0  0  0  0  0
  146.1361  137.9132  150.8987 C   0  0  0  0  0  0  0  0  0  0  0  0
  145.1746  137.3220  153.2403 C   0  0  1  0  0  0  0  0  0  0  0  0
  145.9073  138.4412  153.9977 C   0  0  0  0  0  0  0  0  0  0  0  0
  143.8026  137.7739  152.9064 N   0  3  0  0  0  0  0  0  0  0  0  0
  142.8757  137.9113  154.0501 C   0  0  0  0  0  0  0  0  0  0  0  0
  141.5024  137.3084  153.7367 C   0  0  0  0  0  0  0  0  0  0  0  0
  141.4400  136.0917  153.5627 O   0  0  0  0  0  0  0  0  0  0  0  0
  140.4141  138.1111  153.6517 N   0  0  0  0  0  0  0  0  0  0  0  0
  140.4443  139.5390  153.9763 C   0  0  0  0  0  0  0  0  0  0  0  0
  139.5656  139.7627  155.2207 C   0  0  0  0  0  0  0  0  0  0  0  0
  138.2421  139.2934  154.9690 O   0  0  0  0  0  0  0  0  0  0  0  0
  138.1822  137.9134  154.6100 C   0  0  1  0  0  0  0  0  0  0  0  0
  136.7135  137.5415  154.3797 C   0  0  0  0  0  0  0  0  0  0  0  0
  139.0434  137.6897  153.3520 C   0  0  0  0  0  0  0  0  0  0  0  0
  146.1261  134.3652  151.3955 C   0  0  0  0  0  0  0  0  0  0  0  0
  144.6850  131.5529  150.0098 H   0  0  0  0  0  0  0  0  0  0  0  0
  145.5879  131.4090  151.5070 H   0  0  0  0  0  0  0  0  0  0  0  0
  146.4150  131.8379  150.0197 H   0  0  0  0  0  0  0  0  0  0  0  0
  143.1196  133.8535  150.2792 H   0  0  0  0  0  0  0  0  0  0  0  0
  146.9817  136.6102  152.3441 H   0  0  0  0  0  0  0  0  0  0  0  0
  146.6554  138.7944  151.2738 H   0  0  0  0  0  0  0  0  0  0  0  0
  145.1759  138.2412  150.4993 H   0  0  0  0  0  0  0  0  0  0  0  0
  146.7265  137.5305  150.0655 H   0  0  0  0  0  0  0  0  0  0  0  0
  145.0993  136.4911  153.9437 H   0  0  0  0  0  0  0  0  0  0  0  0
  146.9158  138.1340  154.2766 H   0  0  0  0  0  0  0  0  0  0  0  0
  145.3804  138.6977  154.9174 H   0  0  0  0  0  0  0  0  0  0  0  0
  145.9875  139.3522  153.4045 H   0  0  0  0  0  0  0  0  0  0  0  0
  143.8830  138.6914  152.4916 H   0  0  0  0  0  0  0  0  0  0  0  0
  143.2798  137.4627  154.9555 H   0  0  0  0  0  0  0  0  0  0  0  0
  142.7427  138.9715  154.2705 H   0  0  0  0  0  0  0  0  0  0  0  0
  141.4514  139.9128  154.1649 H   0  0  0  0  0  0  0  0  0  0  0  0
  140.0596  140.1145  153.1332 H   0  0  0  0  0  0  0  0  0  0  0  0
  139.9828  139.2481  156.0879 H   0  0  0  0  0  0  0  0  0  0  0  0
  139.5231  140.8234  155.4685 H   0  0  0  0  0  0  0  0  0  0  0  0
  138.5706  137.3121  155.4340 H   0  0  0  0  0  0  0  0  0  0  0  0
  136.6107  136.4918  154.1054 H   0  0  0  0  0  0  0  0  0  0  0  0
  136.2756  138.1399  153.5804 H   0  0  0  0  0  0  0  0  0  0  0  0
  136.1237  137.7079  155.2815 H   0  0  0  0  0  0  0  0  0  0  0  0
  138.6595  138.2864  152.5231 H   0  0  0  0  0  0  0  0  0  0  0  0
  138.9687  136.6565  153.0240 H   0  0  0  0  0  0  0  0  0  0  0  0
  147.1538  134.2608  151.7111 H   0  0  0  0  0  0  0  0  0  0  0  0
  143.4051  137.1489  152.2197 H   0  0  0  0  0  0  0  0  0  0  0  0
  1  2  1  0  0  0  0
  1 22  1  0  0  0  0
  1 23  1  0  0  0  0
  1 24  1  0  0  0  0
  2 21  2  0  0  0  0
  2  3  1  0  0  0  0
  3  4  2  0  0  0  0
  3 25  1  0  0  0  0
  4  5  1  0  0  0  0
  5  6  1  0  0  0  0
  5 21  1  0  0  0  0
  6  7  1  0  0  0  0
  6  8  1  0  0  0  0
  6 26  1  0  0  0  0
  7 27  1  0  0  0  0
  7 28  1  0  0  0  0
  7 29  1  0  0  0  0
  8  9  1  0  0  0  0
  8 10  1  0  0  0  0
  8 30  1  0  0  0  0
  9 31  1  0  0  0  0
  9 32  1  0  0  0  0
  9 33  1  0  0  0  0
 10 11  1  0  0  0  0
 10 34  1  0  0  0  0
 10 48  1  0  0  0  0
 11 12  1  0  0  0  0
 11 35  1  0  0  0  0
 11 36  1  0  0  0  0
 12 13  2  0  0  0  0
 12 14  1  0  0  0  0
 14 20  1  0  0  0  0
 14 15  1  0  0  0  0
 15 16  1  0  0  0  0
 15 37  1  0  0  0  0
 15 38  1  0  0  0  0
 16 17  1  0  0  0  0
 16 39  1  0  0  0  0
 16 40  1  0  0  0  0
 17 18  1  0  0  0  0
 18 19  1  0  0  0  0
 18 20  1  0  0  0  0
 18 41  1  0  0  0  0
 19 42  1  0  0  0  0
 19 43  1  0  0  0  0
 19 44  1  0  0  0  0
 20 45  1  0  0  0  0
 20 46  1  0  0  0  0
 21 47  1  0  0  0  0
M  CHG  1  10   1
M  END
> <s_m_source_file>
AV-unprocessed.smi

> <i_m_source_file_index>
3056

> <i_lp_mmshare_version>
43012

> <i_f3d_flags>
0

> <s_epik_input>
W0NIM11jMVtjSF1ubihbY0hdMSlbQ0BIXShbQ0gzXSlbQ0BIXShbQ0gzXSlbTkhdW0NIMl1DKD1PKU4yW0NIMl1bQ0gyXU9bQ0BASF0oW0NIM10pW0NIMl0y

> <s_epik_cmdline>
J2VwaWtfcHl0aG9uJywgJy1waCcsICc3LjAnLCAnLXRuJywgJzgnLCAnLW1hJywgJzIwMCcsICctbWV0YWxfYmluZGluZycsICctaW1hZScsICc8aW5maWxlLm1hZT4nLCAnLW9tYWUnLCAnPG91dGZpbGUubWFlPic=

> <r_lp_tautomer_probability>
1

> <r_epik_Ionization_Penalty>
0.233715

> <r_epik_Ionization_Penalty_Charging>
0.233698

> <r_epik_Ionization_Penalty_Neutral>
1.68157e-05

> <r_epik_State_Penalty>
0.225221

> <r_epik_Charging_Adjusted_Penalty>
0.458919

> <i_epik_Tot_Q>
1

> <i_epik_Tot_abs_Q>
1

> <r_epik_Metal_State_Penalty>
0.225535

> <b_epik_Metal_Only>
0

> <s_lp_Force_Field>
OPLS_2005

> <r_lp_Energy>
30.0079

> <b_lp_Chiralities_Consistent>
1

> <s_lp_Variant>
AV-unprocessed.smi:3056-4

> <Gold.Version>
5.8.1

> <Gold.Id.Protein>
6NUR|6NUR_protein|mol2

> <Gold.PLP.Fitness>
42.4173

> <Gold.PLP.PLP>
-31.3839

> <Gold.PLP.part.hbond>
-1.7586

> <Gold.PLP.part.metal>
0.0000

> <Gold.PLP.part.buried>
1.7497

> <Gold.PLP.part.nonpolar>
-31.9221

> <Gold.PLP.part.repulsive>
0.4028

> <Gold.PLP.ligand.clash>
0.0000

> <Gold.PLP.ligand.torsion>
0.6002

> <Gold.PLP.Chemscore.Hbond>
2.0000

> <Gold.PLP.Chemscore.CHOScore>
1.9913

> <Gold.PLP.Chemscore.Metal>
0.0000

> <Gold.Chemscore.Hbonds>
donor molecule, donor type, donor heavy atom, donor atom, acceptor molecule, acceptor atom, score
      L1  H    10    34       P1 10175  2.00
      L1  C     3    25       P1 10186  1.00
      L1  C    21    47       P1  7948  0.72

> <Gold.PLP.Chemscore.Internal.Correction>
0.2600

> <Gold.Rescore>
     Score         DG    S(hbond)    S(metal)    S(lipo)     H(rot)  DE(clash)    DE(int)     intcor
     12.24     -14.82       1.00        0.00      89.33       1.74       1.88       0.70       ----

> <Gold.Chemscore.Fitness>
12.2425

> <Gold.Chemscore.DG>
-14.8183

> <Gold.Chemscore.ZeroCoef>
-5.4800

> <Gold.Chemscore.Hbond>
0.9968

> <Gold.Chemscore.Metal>
0.0000

> <Gold.Chemscore.Lipo>
89.3289

> <Gold.Chemscore.Internal_Hbond>
0.0000

> <Gold.Chemscore.DEClash>
1.8804

> <Gold.Chemscore.DEInternal>
0.6954

> <Gold.Chemscore.Rot>
1.7354

> <Gold.Chemscore.Internal.Correction>
   9.000000E+99

> <Gold.Chemscore.Hbonds>
donor molecule, donor type, donor heavy atom, donor atom, acceptor molecule, acceptor atom, score
      L1  H    10    34       P1 10175  0.98

> <Gold.Chemscore.Hbond.Weighted>
-3.3294

> <Gold.Chemscore.Metal.Weighted>
-0.0000

> <Gold.Chemscore.Lipo.Weighted>
-10.4515

> <Gold.Chemscore.Internal_Hbond.Weighted>
0.0000

> <Gold.Chemscore.DEClash.Weighted>
1.8804

> <Gold.Chemscore.DEInternal.Weighted>
0.6954

> <Gold.Chemscore.Rot.Weighted>
4.4426

> <Gold.Chemscore.Internal.Correction.Weighted>
   9.000000E+99

> <Gold.Protein.RotatedTorsions>
[ 6907 6896 6895 6894 ] final -152.90 input  -60.11 | X-H torsion
[ 7974 7965 7964 7962 ] final  153.76 input  175.53 | X-H torsion
[ 8008 7997 7996 7995 ] final  -63.08 input   59.86 | X-H torsion
[ 10167 10162 10161 10158 ] final   95.17 input  -65.29 | X-H torsion
[ 10718 10713 10712 10709 ] final   40.81 input   66.30 | X-H torsion
[ 10763 10752 10751 10750 ] final  -33.71 input  -60.55 | X-H torsion
[ 11005 11000 10999 10996 ] final  108.66 input  -57.11 | X-H torsion

> <Gold.Protein.ActiveResidues>
 VAL166  LYS551  ARG553  GLY616  TRP617  ASP618  TYR619  PRO620  LYS621  CYS622 
 ASP623  PHE694  ASN695  SER759  ASP760  ASP761  ALA762  ILE779  LEU786  VAL792 
 PHE793  MET794  SER795  GLU796  ALA797  LYS798  CYS799  TRP800  GLU811  SER814 

> <Gold.Protein.RotatedAtoms>
  151.2346  133.4432  159.2604 H   0  0  0  0  0  0  0  0  0  0  0  0  # atno 6907 bound_to 6896
  151.0762  134.9830  159.8343 H   0  0  0  0  0  0  0  0  0  0  0  0  # atno 6908 bound_to 6896
  152.5418  134.2289  159.8870 H   0  0  0  0  0  0  0  0  0  0  0  0  # atno 6909 bound_to 6896
  144.8133  139.6844  143.6132 H   0  0  0  0  0  0  0  0  0  0  0  0  # atno 7974 bound_to 7965
  154.4534  140.0982  156.6686 H   0  0  0  0  0  0  0  0  0  0  0  0  # atno 8008 bound_to 7997
  155.5213  140.3479  155.4389 H   0  0  0  0  0  0  0  0  0  0  0  0  # atno 8009 bound_to 7997
  156.0729  140.1354  156.9796 H   0  0  0  0  0  0  0  0  0  0  0  0  # atno 8010 bound_to 7997
  139.8013  144.6812  150.9761 H   0  0  0  0  0  0  0  0  0  0  0  0  # atno 10167 bound_to 10162
  157.3864  130.7782  149.7234 H   0  0  0  0  0  0  0  0  0  0  0  0  # atno 10718 bound_to 10713
  153.8347  135.6863  153.4810 H   0  0  0  0  0  0  0  0  0  0  0  0  # atno 10763 bound_to 10752
  153.1490  135.4626  154.9606 H   0  0  0  0  0  0  0  0  0  0  0  0  # atno 10764 bound_to 10752
  154.7871  135.3288  154.7807 H   0  0  0  0  0  0  0  0  0  0  0  0  # atno 10765 bound_to 10752
  139.8848  134.9437  156.6006 H   0  0  0  0  0  0  0  0  0  0  0  0  # atno 11005 bound_to 11000
  146.2434  139.6047  142.9476 LP  0  0  0  0  0  0  0  0  0  0  0  0  # atno 17320 bound_to 7965
  145.5273  141.0429  143.2402 LP  0  0  0  0  0  0  0  0  0  0  0  0  # atno 17321 bound_to 7965
  140.7820  143.4278  151.0741 LP  0  0  0  0  0  0  0  0  0  0  0  0  # atno 17342 bound_to 10162
  139.7950  143.8164  152.3156 LP  0  0  0  0  0  0  0  0  0  0  0  0  # atno 17343 bound_to 10162
  155.9788  130.4047  150.3628 LP  0  0  0  0  0  0  0  0  0  0  0  0  # atno 17370 bound_to 10713
  157.1739  131.0375  151.2782 LP  0  0  0  0  0  0  0  0  0  0  0  0  # atno 17371 bound_to 10713
  140.7886  133.8601  155.8627 LP  0  0  0  0  0  0  0  0  0  0  0  0  # atno 17394 bound_to 11000
  140.9697  134.1547  157.4586 LP  0  0  0  0  0  0  0  0  0  0  0  0  # atno 17395 bound_to 11000

$$$$
