AV-unprocessed.smi:1703|AV-procd|sdf|6869|dock5
  -GOLD-   22720 8 63D 1   1.00000     0.00000
 Structure written by MMmdl.
 49 51  0  0  0  0  0  0  0  0  2 V2000
  147.8477  136.6077  161.7590 C   0  0  0  0  0  0  0  0  0  0  0  0
  147.8453  136.0647  160.3215 C   0  0  2  0  0  0  0  0  0  0  0  0
  148.9733  136.6425  159.4417 C   0  0  0  0  0  0  0  0  0  0  0  0
  148.7171  138.0148  159.0079 N   0  0  0  0  0  0  0  0  0  0  0  0
  149.7687  138.5276  158.1285 C   0  0  0  0  0  0  0  0  0  0  0  0
  151.1145  138.8668  158.8084 C   0  0  1  0  0  0  0  0  0  0  0  0
  151.7760  137.6480  159.0724 O   0  0  0  0  0  0  0  0  0  0  0  0
  152.0752  139.7160  157.9469 C   0  0  0  0  0  0  0  0  0  0  0  0
  151.5711  141.0645  157.6447 N   0  0  0  0  0  0  0  0  0  0  0  0
  150.7387  141.5047  156.6555 C   0  0  0  0  0  0  0  0  0  0  0  0
  150.0832  140.6827  155.5926 C   0  0  0  0  0  0  0  0  0  0  0  0
  151.0121  140.0035  154.7749 O   0  0  0  0  0  0  0  0  0  0  0  0
  150.6080  142.8529  156.8118 N   0  3  0  0  0  0  0  0  0  0  0  0
  151.3504  143.2769  157.9137 C   0  0  0  0  0  0  0  0  0  0  0  0
  151.5179  144.5424  158.4670 C   0  0  0  0  0  0  0  0  0  0  0  0
  152.3417  144.6292  159.6085 C   0  0  0  0  0  0  0  0  0  0  0  0
  152.9638  143.4870  160.1538 C   0  0  0  0  0  0  0  0  0  0  0  0
  152.7892  142.2099  159.5807 C   0  0  0  0  0  0  0  0  0  0  0  0
  151.9697  142.1327  158.4554 C   0  0  0  0  0  0  0  0  0  0  0  0
  147.4176  138.0696  158.3517 C   0  0  0  0  0  0  0  0  0  0  0  0
  146.2891  137.5786  159.2741 C   0  0  1  0  0  0  0  0  0  0  0  0
  144.9286  137.5755  158.5700 C   0  0  0  0  0  0  0  0  0  0  0  0
  146.5749  136.2460  159.6944 O   0  0  0  0  0  0  0  0  0  0  0  0
  148.7971  136.4000  162.2532 H   0  0  0  0  0  0  0  0  0  0  0  0
  147.0581  136.1445  162.3504 H   0  0  0  0  0  0  0  0  0  0  0  0
  147.6925  137.6845  161.7857 H   0  0  0  0  0  0  0  0  0  0  0  0
  148.0005  134.9879  160.3924 H   0  0  0  0  0  0  0  0  0  0  0  0
  149.9127  136.5809  159.9893 H   0  0  0  0  0  0  0  0  0  0  0  0
  149.0887  136.0046  158.5638 H   0  0  0  0  0  0  0  0  0  0  0  0
  149.9415  137.7993  157.3342 H   0  0  0  0  0  0  0  0  0  0  0  0
  149.4146  139.4269  157.6227 H   0  0  0  0  0  0  0  0  0  0  0  0
  150.9539  139.3455  159.7731 H   0  0  0  0  0  0  0  0  0  0  0  0
  152.6147  137.6602  158.6371 H   0  0  0  0  0  0  0  0  0  0  0  0
  153.0423  139.8224  158.4403 H   0  0  0  0  0  0  0  0  0  0  0  0
  152.2768  139.2162  156.9989 H   0  0  0  0  0  0  0  0  0  0  0  0
  149.4204  139.9557  156.0619 H   0  0  0  0  0  0  0  0  0  0  0  0
  149.4690  141.3193  154.9569 H   0  0  0  0  0  0  0  0  0  0  0  0
  150.7905  139.0846  154.7684 H   0  0  0  0  0  0  0  0  0  0  0  0
  151.0407  145.4179  158.0514 H   0  0  0  0  0  0  0  0  0  0  0  0
  152.4992  145.5909  160.0751 H   0  0  0  0  0  0  0  0  0  0  0  0
  153.5888  143.5923  161.0287 H   0  0  0  0  0  0  0  0  0  0  0  0
  153.2702  141.3409  160.0047 H   0  0  0  0  0  0  0  0  0  0  0  0
  147.2047  139.0935  158.0421 H   0  0  0  0  0  0  0  0  0  0  0  0
  147.4365  137.4669  157.4420 H   0  0  0  0  0  0  0  0  0  0  0  0
  146.2216  138.2308  160.1454 H   0  0  0  0  0  0  0  0  0  0  0  0
  144.6563  138.5775  158.2381 H   0  0  0  0  0  0  0  0  0  0  0  0
  144.1442  137.2224  159.2400 H   0  0  0  0  0  0  0  0  0  0  0  0
  144.9379  136.9241  157.6955 H   0  0  0  0  0  0  0  0  0  0  0  0
  150.0398  143.4342  156.2092 H   0  0  0  0  0  0  0  0  0  0  0  0
  1  2  1  0  0  0  0
  1 24  1  0  0  0  0
  1 25  1  0  0  0  0
  1 26  1  0  0  0  0
  2 23  1  0  0  0  0
  2  3  1  0  0  0  0
  2 27  1  0  0  0  0
  3  4  1  0  0  0  0
  3 28  1  0  0  0  0
  3 29  1  0  0  0  0
  4  5  1  0  0  0  0
  4 20  1  0  0  0  0
  5  6  1  0  0  0  0
  5 30  1  0  0  0  0
  5 31  1  0  0  0  0
  6  7  1  0  0  0  0
  6  8  1  0  0  0  0
  6 32  1  0  0  0  0
  7 33  1  0  0  0  0
  8  9  1  0  0  0  0
  8 34  1  0  0  0  0
  8 35  1  0  0  0  0
  9 19  1  0  0  0  0
  9 10  1  0  0  0  0
 10 11  1  0  0  0  0
 10 13  2  0  0  0  0
 11 12  1  0  0  0  0
 11 36  1  0  0  0  0
 11 37  1  0  0  0  0
 12 38  1  0  0  0  0
 13 14  1  0  0  0  0
 13 49  1  0  0  0  0
 14 19  2  0  0  0  0
 14 15  1  0  0  0  0
 15 16  2  0  0  0  0
 15 39  1  0  0  0  0
 16 17  1  0  0  0  0
 16 40  1  0  0  0  0
 17 18  2  0  0  0  0
 17 41  1  0  0  0  0
 18 19  1  0  0  0  0
 18 42  1  0  0  0  0
 20 21  1  0  0  0  0
 20 43  1  0  0  0  0
 20 44  1  0  0  0  0
 21 22  1  0  0  0  0
 21 23  1  0  0  0  0
 21 45  1  0  0  0  0
 22 46  1  0  0  0  0
 22 47  1  0  0  0  0
 22 48  1  0  0  0  0
M  CHG  1  13   1
M  END
> <s_m_source_file>
AV-unprocessed.smi

> <i_m_source_file_index>
1703

> <i_lp_mmshare_version>
43012

> <i_f3d_flags>
0

> <s_epik_input>
W0NIM11bQ0BASF0xW0NIMl1OKFtDSDJdW0NASF0oTzEpW0NIM10pW0NIMl1bQ0BIXShbT0hdKVtDSDJdbihjKG4yKVtDSDJdW09IXSljKGMyMylbY0hdW2NIXVtjSF1bY0hdMw==

> <s_epik_cmdline>
J2VwaWtfcHl0aG9uJywgJy1waCcsICc3LjAnLCAnLXRuJywgJzgnLCAnLW1hJywgJzIwMCcsICctbWV0YWxfYmluZGluZycsICctaW1hZScsICc8aW5maWxlLm1hZT4nLCAnLW9tYWUnLCAnPG91dGZpbGUubWFlPic=

> <r_epik_Ionization_Penalty>
1.7682

> <r_epik_Ionization_Penalty_Charging>
1.55298

> <r_epik_Ionization_Penalty_Neutral>
0.215215

> <r_epik_State_Penalty>
1.83821

> <r_epik_Charging_Adjusted_Penalty>
3.39119

> <i_epik_Tot_Q>
1

> <i_epik_Tot_abs_Q>
1

> <r_epik_Metal_State_Penalty>
5.89206

> <b_epik_Metal_Only>
0

> <s_lp_Force_Field>
OPLS_2005

> <r_lp_Energy>
30.0096

> <b_lp_Chiralities_Consistent>
1

> <s_lp_Variant>
AV-unprocessed.smi:1703-17

> <Gold.Version>
5.8.1

> <Gold.Id.Protein>
6NUR|6NUR_protein|mol2

> <Gold.PLP.Fitness>
51.2852

> <Gold.PLP.PLP>
-43.4013

> <Gold.PLP.part.hbond>
-2.6341

> <Gold.PLP.part.metal>
0.0000

> <Gold.PLP.part.buried>
-6.1648

> <Gold.PLP.part.nonpolar>
-35.1261

> <Gold.PLP.part.repulsive>
0.0499

> <Gold.PLP.ligand.clash>
0.0000

> <Gold.PLP.ligand.torsion>
0.5633

> <Gold.PLP.Chemscore.Hbond>
3.0000

> <Gold.PLP.Chemscore.CHOScore>
0.0000

> <Gold.PLP.Chemscore.Metal>
0.0000

> <Gold.Chemscore.Hbonds>
donor molecule, donor type, donor heavy atom, donor atom, acceptor molecule, acceptor atom, score
      L1  H    13    49       P1  8028  2.00
      P1  H  7989  7998       L1    12  1.00

> <Gold.PLP.Chemscore.Internal.Correction>
0.0105

> <Gold.Rescore>
     Score         DG    S(hbond)    S(metal)    S(lipo)     H(rot)  DE(clash)    DE(int)     intcor
     16.40     -17.10       1.99        0.00     107.15       2.96       0.05       0.65       ----

> <Gold.Chemscore.Fitness>
16.3999

> <Gold.Chemscore.DG>
-17.1024

> <Gold.Chemscore.ZeroCoef>
-5.4800

> <Gold.Chemscore.Hbond>
1.9915

> <Gold.Chemscore.Metal>
0.0000

> <Gold.Chemscore.Lipo>
107.1504

> <Gold.Chemscore.Internal_Hbond>
0.0000

> <Gold.Chemscore.DEClash>
0.0527

> <Gold.Chemscore.DEInternal>
0.6498

> <Gold.Chemscore.Rot>
2.9555

> <Gold.Chemscore.Internal.Correction>
   9.000000E+99

> <Gold.Chemscore.Hbonds>
donor molecule, donor type, donor heavy atom, donor atom, acceptor molecule, acceptor atom, score
      L1  H    13    49       P1  8028  1.00
      P1  H  7989  7998       L1    12  0.92

> <Gold.Chemscore.Hbond.Weighted>
-6.6518

> <Gold.Chemscore.Metal.Weighted>
-0.0000

> <Gold.Chemscore.Lipo.Weighted>
-12.5366

> <Gold.Chemscore.Internal_Hbond.Weighted>
0.0000

> <Gold.Chemscore.DEClash.Weighted>
0.0527

> <Gold.Chemscore.DEInternal.Weighted>
0.6498

> <Gold.Chemscore.Rot.Weighted>
7.5660

> <Gold.Chemscore.Internal.Correction.Weighted>
   9.000000E+99

> <Gold.Protein.RotatedTorsions>
[ 6907 6896 6895 6894 ] final -147.73 input  -60.11 | X-H torsion
[ 7974 7965 7964 7962 ] final -163.11 input  175.53 | X-H torsion
[ 8008 7997 7996 7995 ] final -172.60 input   59.86 | X-H torsion
[ 10167 10162 10161 10158 ] final  -98.07 input  -65.29 | X-H torsion
[ 10718 10713 10712 10709 ] final   84.32 input   66.30 | X-H torsion
[ 10763 10752 10751 10750 ] final  -53.60 input  -60.55 | X-H torsion
[ 11005 11000 10999 10996 ] final  159.93 input  -57.11 | X-H torsion

> <Gold.Protein.ActiveResidues>
 VAL166  LYS551  ARG553  GLY616  TRP617  ASP618  TYR619  PRO620  LYS621  CYS622 
 ASP623  PHE694  ASN695  SER759  ASP760  ASP761  ALA762  ILE779  LEU786  VAL792 
 PHE793  MET794  SER795  GLU796  ALA797  LYS798  CYS799  TRP800  GLU811  SER814 

> <Gold.Protein.RotatedAtoms>
  151.1598  133.4852  159.2594 H   0  0  0  0  0  0  0  0  0  0  0  0  # atno 6907 bound_to 6896
  151.1466  135.0206  159.8660 H   0  0  0  0  0  0  0  0  0  0  0  0  # atno 6908 bound_to 6896
  152.5463  134.1486  159.8562 H   0  0  0  0  0  0  0  0  0  0  0  0  # atno 6909 bound_to 6896
  144.7336  140.3154  143.6180 H   0  0  0  0  0  0  0  0  0  0  0  0  # atno 7974 bound_to 7965
  155.9467  140.1119  157.1011 H   0  0  0  0  0  0  0  0  0  0  0  0  # atno 8008 bound_to 7997
  154.4101  140.1208  156.5065 H   0  0  0  0  0  0  0  0  0  0  0  0  # atno 8009 bound_to 7997
  155.6893  140.3472  155.4889 H   0  0  0  0  0  0  0  0  0  0  0  0  # atno 8010 bound_to 7997
  140.2768  143.3308  152.0480 H   0  0  0  0  0  0  0  0  0  0  0  0  # atno 10167 bound_to 10162
  157.6896  131.0128  150.2655 H   0  0  0  0  0  0  0  0  0  0  0  0  # atno 10718 bound_to 10713
  154.1614  135.6474  153.4987 H   0  0  0  0  0  0  0  0  0  0  0  0  # atno 10763 bound_to 10752
  153.0109  135.5361  154.6707 H   0  0  0  0  0  0  0  0  0  0  0  0  # atno 10764 bound_to 10752
  154.6021  135.2945  155.0495 H   0  0  0  0  0  0  0  0  0  0  0  0  # atno 10765 bound_to 10752
  140.2010  134.8338  157.3018 H   0  0  0  0  0  0  0  0  0  0  0  0  # atno 11005 bound_to 11000
  145.7622  139.1828  143.2260 LP  0  0  0  0  0  0  0  0  0  0  0  0  # atno 17320 bound_to 7965
  146.0977  140.7581  142.9564 LP  0  0  0  0  0  0  0  0  0  0  0  0  # atno 17321 bound_to 7965
  139.4973  144.6619  151.6445 LP  0  0  0  0  0  0  0  0  0  0  0  0  # atno 17342 bound_to 10162
  140.5844  143.9889  150.6287 LP  0  0  0  0  0  0  0  0  0  0  0  0  # atno 17343 bound_to 10162
  156.3227  130.3788  149.7561 LP  0  0  0  0  0  0  0  0  0  0  0  0  # atno 17370 bound_to 10713
  156.5126  130.8179  151.3174 LP  0  0  0  0  0  0  0  0  0  0  0  0  # atno 17371 bound_to 10713
  140.2054  134.4203  155.7640 LP  0  0  0  0  0  0  0  0  0  0  0  0  # atno 17394 bound_to 11000
  141.2227  133.7092  156.8252 LP  0  0  0  0  0  0  0  0  0  0  0  0  # atno 17395 bound_to 11000

$$$$
