#       Name:                AV-unprocessed.smi:2995
#       Creating user name   scv26
#       Creation time:       Fri Mar 27 16:33:12 2020


#       File generated by GOLD software.
#

@<TRIPOS>MOLECULE
AV-unprocessed.smi:2995
    52    54     1
SMALL
NO_CHARGES


@<TRIPOS>ATOM
      1 ****        -4.5060  -3.8999   0.5615 C.3            1 S1                 0.0000
      2 ****        -5.3554  -2.6406   0.5726 C.ar           1 S1                 0.0000
      3 ****        -6.7634  -2.7517   0.6034 C.ar           1 S1                 0.0000
      4 ****        -7.5501  -1.5838   0.6187 C.ar           1 S1                 0.0000
      5 ****        -6.9529  -0.3742   0.6074 N.pl3          1 S1                 1.0000
      6 ****        -5.6123  -0.2181   0.5765 C.ar           1 S1                 0.0000
      7 ****        -4.7614  -1.3523   0.5480 C.ar           1 S1                 0.0000
      8 ****        -3.3405  -1.2526   0.5371 N.am           1 S1                 0.0000
      9 ****        -2.5768  -0.2171   0.1478 C.2            1 S1                 0.0000
     10 ****        -3.0008   0.8395  -0.3194 O.2            1 S1                 0.0000
     11 ****        -1.2734  -0.4866   0.3138 N.am           1 S1                 0.0000
     12 ****        -0.1692   0.4107  -0.0191 C.3            1 S1                 0.0000
     13 ****         0.6715  -0.1828  -1.1579 C.3            1 S1                 0.0000
     14 ****         1.8952   0.6978  -1.4637 C.3            1 S1                 0.0000
     15 ****         2.7413   0.9057  -0.2547 N.4            1 S1                 1.0000
     16 ****         3.9901   1.6708  -0.5419 C.3            1 S1                 0.0000
     17 ****         4.8810   1.0271  -1.6159 C.3            1 S1                 0.0000
     18 ****         6.2839   1.6024  -1.3894 C.3            1 S1                 0.0000
     19 ****         6.3070   2.1245   0.0532 C.3            1 S1                 0.0000
     20 ****         4.9463   1.7655   0.6559 C.3            1 S1                 0.0000
     21 ****         1.9461   1.4952   0.8590 C.3            1 S1                 0.0000
     22 ****         0.7257   0.6271   1.2088 C.3            1 S1                 0.0000
     23 ****        -5.1250  -4.7975   0.5711 H              1 S1                 0.0000
     24 ****        -3.8576  -3.9295   1.4375 H              1 S1                 0.0000
     25 ****        -3.8824  -3.9316  -0.3324 H              1 S1                 0.0000
     26 ****        -7.2398  -3.7211   0.6179 H              1 S1                 0.0000
     27 ****        -8.6300  -1.5806   0.6457 H              1 S1                 0.0000
     28 ****        -5.2801   0.8088   0.5904 H              1 S1                 0.0000
     29 ****        -2.8469  -2.0884   0.8147 H              1 S1                 0.0000
     30 ****        -1.0237  -1.3855   0.6999 H              1 S1                 0.0000
     31 ****        -0.5486   1.3829  -0.3396 H              1 S1                 0.0000
     32 ****         1.0059  -1.1864  -0.8901 H              1 S1                 0.0000
     33 ****         0.0615  -0.2894  -2.0560 H              1 S1                 0.0000
     34 ****         2.4679   0.2139  -2.2541 H              1 S1                 0.0000
     35 ****         1.5738   1.6650  -1.8534 H              1 S1                 0.0000
     36 ****         3.7254   2.6802  -0.8631 H              1 S1                 0.0000
     37 ****         4.9104  -0.0547  -1.4768 H              1 S1                 0.0000
     38 ****         4.5277   1.2209  -2.6291 H              1 S1                 0.0000
     39 ****         7.0507   0.8457  -1.5584 H              1 S1                 0.0000
     40 ****         6.4770   2.4214  -2.0833 H              1 S1                 0.0000
     41 ****         7.1279   1.6998   0.6321 H              1 S1                 0.0000
     42 ****         6.4369   3.2076   0.0483 H              1 S1                 0.0000
     43 ****         4.6312   2.5011   1.3965 H              1 S1                 0.0000
     44 ****         5.0158   0.7979   1.1555 H              1 S1                 0.0000
     45 ****         2.5563   1.5942   1.7559 H              1 S1                 0.0000
     46 ****         1.6248   2.5011   0.5836 H              1 S1                 0.0000
     47 ****         0.1548   1.1017   2.0082 H              1 S1                 0.0000
     48 ****         1.0644  -0.3340   1.5988 H              1 S1                 0.0000
     49 ****         3.0331  -0.0111   0.0529 H              1 S1                 0.0000
     50 ****        -7.5396   0.4603   0.6266 H              1 S1                 0.0000
     51 ****        -3.9847   0.9764  -0.4340 LP             1 S1                 0.0000
     52 ****        -2.3613   1.5612  -0.5845 LP             1 S1                 0.0000
@<TRIPOS>BOND
    1    1    2 1     
    2    1   23 1     
    3    1   24 1     
    4    1   25 1     
    5    2    7 ar    
    6    2    3 ar    
    7    3    4 ar    
    8    3   26 1     
    9    4    5 ar    
   10    4   27 1     
   11    5    6 ar    
   12    5   50 1     
   13    6    7 ar    
   14    6   28 1     
   15    7    8 1     
   16    8    9 am    
   17    8   29 1     
   18    9   10 2     
   19    9   11 am    
   20   11   12 1     
   21   11   30 1     
   22   12   22 1     
   23   12   13 1     
   24   12   31 1     
   25   13   14 1     
   26   13   32 1     
   27   13   33 1     
   28   14   15 1     
   29   14   34 1     
   30   14   35 1     
   31   15   16 1     
   32   15   21 1     
   33   15   49 1     
   34   16   20 1     
   35   16   17 1     
   36   16   36 1     
   37   17   18 1     
   38   17   37 1     
   39   17   38 1     
   40   18   19 1     
   41   18   39 1     
   42   18   40 1     
   43   19   20 1     
   44   19   41 1     
   45   19   42 1     
   46   20   43 1     
   47   20   44 1     
   48   21   22 1     
   49   21   45 1     
   50   21   46 1     
   51   22   47 1     
   52   22   48 1     
   53   10   51 1     
   54   10   52 1     
@<TRIPOS>SUBSTRUCTURE
      1 S1             1
@<TRIPOS>SET
LONE_PAIRS      STATIC     ATOMS    <user>   **** ""
2 51 52
DONOR_HYDROGENS      STATIC     ATOMS    <user>   **** ""
4 50 29 30 49
ATOM$BLUE        STATIC     ATOMS    COLORGROUP SYSTEM
2 51 52
ATOM$RED        STATIC     ATOMS    COLORGROUP SYSTEM
4 50 29 30 49
