#       Name:                AV-unprocessed.smi:1543
#       Creating user name   scv26
#       Creation time:       Fri Mar 27 06:37:58 2020


#       File generated by GOLD software.
#

@<TRIPOS>MOLECULE
AV-unprocessed.smi:1543
    54    55     1
SMALL
NO_CHARGES


@<TRIPOS>ATOM
      1 ****        -4.5789  -0.8250  -3.1008 C.3            1 S1                 0.0000
      2 ****        -3.9900  -0.0761  -1.9000 C.3            1 S1                 0.0000
      3 ****        -2.4595  -0.2217  -1.8249 C.3            1 S1                 0.0000
      4 ****        -1.9301   0.4515  -0.6069 N.4            1 S1                 1.0000
      5 ****        -0.4308   0.5895  -0.5287 C.3            1 S1                 0.0000
      6 ****         0.0953   1.3398  -1.7782 C.3            1 S1                 0.0000
      7 ****        -0.0598   1.4746   0.6881 C.3            1 S1                 0.0000
      8 ****         0.2596  -0.8037  -0.4243 C.3            1 S1                 0.0000
      9 ****         1.7198  -0.7310  -0.3797 N.am           1 S1                 0.0000
     10 ****         2.4707  -0.8104   0.7283 C.2            1 S1                 0.0000
     11 ****         2.0010  -0.9490   1.8573 O.2            1 S1                 0.0000
     12 ****         3.7796  -0.7315   0.4339 N.am           1 S1                 0.0000
     13 ****         4.8899  -0.7511   1.3207 C.ar           1 S1                 0.0000
     14 ****         4.8179  -0.4275   2.6976 C.ar           1 S1                 0.0000
     15 ****         5.9967  -0.4657   3.4669 C.ar           1 S1                 0.0000
     16 ****         7.2036  -0.8179   2.8324 C.ar           1 S1                 0.0000
     17 ****         7.2891  -1.1157   1.5188 N.ar           1 S1                 0.0000
     18 ****         6.1552  -1.0767   0.7874 C.ar           1 S1                 0.0000
     19 ****        -2.5928  -0.1231   0.5983 C.3            1 S1                 0.0000
     20 ****        -4.1265  -0.0182   0.4945 C.3            1 S1                 0.0000
     21 ****        -4.6593   1.4138   0.6813 C.3            1 S1                 0.0000
     22 ****        -4.5796  -0.6123  -0.7202 O.3            1 S1                 0.0000
     23 ****        -4.1714  -0.4467  -4.0386 H              1 S1                 0.0000
     24 ****        -5.6622  -0.7081  -3.1395 H              1 S1                 0.0000
     25 ****        -4.3611  -1.8921  -3.0472 H              1 S1                 0.0000
     26 ****        -4.2534   0.9771  -1.9989 H              1 S1                 0.0000
     27 ****        -2.1904  -1.2785  -1.8156 H              1 S1                 0.0000
     28 ****        -2.0426   0.2075  -2.7338 H              1 S1                 0.0000
     29 ****         1.1361   1.6431  -1.6588 H              1 S1                 0.0000
     30 ****        -0.4805   2.2460  -1.9696 H              1 S1                 0.0000
     31 ****         0.0646   0.7240  -2.6767 H              1 S1                 0.0000
     32 ****         0.9858   1.7827   0.6615 H              1 S1                 0.0000
     33 ****        -0.1961   0.9558   1.6366 H              1 S1                 0.0000
     34 ****        -0.6581   2.3862   0.7139 H              1 S1                 0.0000
     35 ****        -0.1045  -1.3582   0.4409 H              1 S1                 0.0000
     36 ****         0.0122  -1.4145  -1.2918 H              1 S1                 0.0000
     37 ****         2.1943  -0.6216  -1.2643 H              1 S1                 0.0000
     38 ****         4.0135  -0.7028  -0.5478 H              1 S1                 0.0000
     39 ****         3.8938  -0.1393   3.1737 H              1 S1                 0.0000
     40 ****         5.9767  -0.2258   4.5196 H              1 S1                 0.0000
     41 ****         8.1254  -0.8561   3.3935 H              1 S1                 0.0000
     42 ****         6.2623  -1.3177  -0.2603 H              1 S1                 0.0000
     43 ****        -2.3198  -1.1735   0.7009 H              1 S1                 0.0000
     44 ****        -2.2809   0.3736   1.5148 H              1 S1                 0.0000
     45 ****        -4.5535  -0.6186   1.2984 H              1 S1                 0.0000
     46 ****        -4.4123   1.7910   1.6740 H              1 S1                 0.0000
     47 ****        -5.7446   1.4412   0.5803 H              1 S1                 0.0000
     48 ****        -4.2381   2.1109  -0.0425 H              1 S1                 0.0000
     49 ****        -2.2678   1.4017  -0.6645 H              1 S1                 0.0000
     50 ****         1.0107  -1.0083   1.9830 LP             1 S1                 0.0000
     51 ****         2.6096  -1.0024   2.6490 LP             1 S1                 0.0000
     52 ****         8.1647  -1.3576   1.1006 LP             1 S1                 0.0000
     53 ****        -4.3726  -1.5900  -0.6851 LP             1 S1                 0.0000
     54 ****        -5.5694  -0.4831  -0.7801 LP             1 S1                 0.0000
@<TRIPOS>BOND
    1    1    2 1     
    2    1   23 1     
    3    1   24 1     
    4    1   25 1     
    5    2   22 1     
    6    2    3 1     
    7    2   26 1     
    8    3    4 1     
    9    3   27 1     
   10    3   28 1     
   11    4    5 1     
   12    4   19 1     
   13    4   49 1     
   14    5    6 1     
   15    5    7 1     
   16    5    8 1     
   17    6   29 1     
   18    6   30 1     
   19    6   31 1     
   20    7   32 1     
   21    7   33 1     
   22    7   34 1     
   23    8    9 1     
   24    8   35 1     
   25    8   36 1     
   26    9   10 am    
   27    9   37 1     
   28   10   11 2     
   29   10   12 am    
   30   12   13 1     
   31   12   38 1     
   32   13   18 ar    
   33   13   14 ar    
   34   14   15 ar    
   35   14   39 1     
   36   15   16 ar    
   37   15   40 1     
   38   16   17 ar    
   39   16   41 1     
   40   17   18 ar    
   41   18   42 1     
   42   19   20 1     
   43   19   43 1     
   44   19   44 1     
   45   20   21 1     
   46   20   22 1     
   47   20   45 1     
   48   21   46 1     
   49   21   47 1     
   50   21   48 1     
   51   11   50 1     
   52   11   51 1     
   53   17   52 1     
   54   22   53 1     
   55   22   54 1     
@<TRIPOS>SUBSTRUCTURE
      1 S1             1
@<TRIPOS>SET
LONE_PAIRS      STATIC     ATOMS    <user>   **** ""
5 50 51 52 53 54
DONOR_HYDROGENS      STATIC     ATOMS    <user>   **** ""
3 49 37 38
ATOM$BLUE        STATIC     ATOMS    COLORGROUP SYSTEM
5 50 51 52 53 54
ATOM$RED        STATIC     ATOMS    COLORGROUP SYSTEM
3 49 37 38
