AV-unprocessed.smi:1202|AV-procd|sdf|5029|dock4
  -GOLD-   22720 4 53D 1   1.00000     0.00000
 Structure written by MMmdl.
 45 46  0  0  0  0  0  0  0  0  2 V2000
  146.3938  132.3624  149.9848 C   0  0  0  0  0  0  0  0  0  0  0  0
  145.8195  133.6881  150.1566 N   0  0  0  0  0  0  0  0  0  0  0  0
  145.6894  134.3052  151.3393 C   0  0  0  0  0  0  0  0  0  0  0  0
  146.0542  133.8063  152.4046 O   0  0  0  0  0  0  0  0  0  0  0  0
  145.0680  135.7054  151.3071 C   0  0  0  0  0  0  0  0  0  0  0  0
  145.9894  136.7637  151.7957 N   0  3  2  0  0  0  0  0  0  0  0  0
  145.8374  137.0471  153.2482 C   0  0  0  0  0  0  0  0  0  0  0  0
  146.9056  138.0409  153.7336 C   0  0  0  0  0  0  0  0  0  0  0  0
  146.8589  139.3476  152.9201 C   0  0  1  0  0  0  0  0  0  0  0  0
  147.9375  140.2482  153.3149 N   0  0  0  0  0  0  0  0  0  0  0  0
  148.2351  140.5929  154.5771 C   0  0  0  0  0  0  0  0  0  0  0  0
  147.6300  140.1531  155.5557 O   0  0  0  0  0  0  0  0  0  0  0  0
  149.4084  141.5683  154.7483 C   0  0  0  0  0  0  0  0  0  0  0  0
  150.3127  141.2064  155.8528 N   0  0  0  0  0  0  0  0  0  0  0  0
  150.2023  141.9515  157.0437 C   0  0  0  0  0  0  0  0  0  0  0  0
  150.9772  141.7025  158.1112 C   0  0  0  0  0  0  0  0  0  0  0  0
  151.9461  140.6361  158.0180 C   0  0  0  0  0  0  0  0  0  0  0  0
  152.0626  139.9197  156.8822 C   0  0  0  0  0  0  0  0  0  0  0  0
  151.2195  140.1904  155.7119 C   0  0  0  0  0  0  0  0  0  0  0  0
  151.3215  139.5438  154.6689 O   0  0  0  0  0  0  0  0  0  0  0  0
  146.9732  139.0247  151.4217 C   0  0  0  0  0  0  0  0  0  0  0  0
  145.9056  138.0067  150.9872 C   0  0  0  0  0  0  0  0  0  0  0  0
  146.4061  132.0968  148.9278 H   0  0  0  0  0  0  0  0  0  0  0  0
  145.8069  131.6132  150.5178 H   0  0  0  0  0  0  0  0  0  0  0  0
  147.4188  132.3307  150.3560 H   0  0  0  0  0  0  0  0  0  0  0  0
  145.5041  134.1644  149.3236 H   0  0  0  0  0  0  0  0  0  0  0  0
  144.8012  135.9018  150.2677 H   0  0  0  0  0  0  0  0  0  0  0  0
  144.1381  135.7250  151.8780 H   0  0  0  0  0  0  0  0  0  0  0  0
  144.8404  137.4474  153.4397 H   0  0  0  0  0  0  0  0  0  0  0  0
  145.9210  136.1245  153.8233 H   0  0  0  0  0  0  0  0  0  0  0  0
  146.7546  138.2494  154.7933 H   0  0  0  0  0  0  0  0  0  0  0  0
  147.8924  137.5833  153.6465 H   0  0  0  0  0  0  0  0  0  0  0  0
  145.9002  139.8415  153.0914 H   0  0  0  0  0  0  0  0  0  0  0  0
  148.4901  140.6532  152.5729 H   0  0  0  0  0  0  0  0  0  0  0  0
  149.9535  141.6114  153.8043 H   0  0  0  0  0  0  0  0  0  0  0  0
  149.0223  142.5781  154.9005 H   0  0  0  0  0  0  0  0  0  0  0  0
  149.4585  142.7349  157.0302 H   0  0  0  0  0  0  0  0  0  0  0  0
  150.8808  142.2868  159.0147 H   0  0  0  0  0  0  0  0  0  0  0  0
  152.5812  140.4123  158.8624 H   0  0  0  0  0  0  0  0  0  0  0  0
  152.7935  139.1262  156.8302 H   0  0  0  0  0  0  0  0  0  0  0  0
  146.8720  139.9379  150.8338 H   0  0  0  0  0  0  0  0  0  0  0  0
  147.9640  138.6238  151.2017 H   0  0  0  0  0  0  0  0  0  0  0  0
  146.0476  137.7707  149.9319 H   0  0  0  0  0  0  0  0  0  0  0  0
  144.9086  138.4394  151.0852 H   0  0  0  0  0  0  0  0  0  0  0  0
  146.9235  136.4017  151.6632 H   0  0  0  0  0  0  0  0  0  0  0  0
  1  2  1  0  0  0  0
  1 23  1  0  0  0  0
  1 24  1  0  0  0  0
  1 25  1  0  0  0  0
  2  3  1  0  0  0  0
  2 26  1  0  0  0  0
  3  4  2  0  0  0  0
  3  5  1  0  0  0  0
  5  6  1  0  0  0  0
  5 27  1  0  0  0  0
  5 28  1  0  0  0  0
  6 22  1  0  0  0  0
  6  7  1  0  0  0  0
  6 45  1  0  0  0  0
  7  8  1  0  0  0  0
  7 29  1  0  0  0  0
  7 30  1  0  0  0  0
  8  9  1  0  0  0  0
  8 31  1  0  0  0  0
  8 32  1  0  0  0  0
  9 10  1  0  0  0  0
  9 21  1  0  0  0  0
  9 33  1  0  0  0  0
 10 11  1  0  0  0  0
 10 34  1  0  0  0  0
 11 12  2  0  0  0  0
 11 13  1  0  0  0  0
 13 14  1  0  0  0  0
 13 35  1  0  0  0  0
 13 36  1  0  0  0  0
 14 19  1  0  0  0  0
 14 15  1  0  0  0  0
 15 16  2  0  0  0  0
 15 37  1  0  0  0  0
 16 17  1  0  0  0  0
 16 38  1  0  0  0  0
 17 18  2  0  0  0  0
 17 39  1  0  0  0  0
 18 19  1  0  0  0  0
 18 40  1  0  0  0  0
 19 20  2  0  0  0  0
 21 22  1  0  0  0  0
 21 41  1  0  0  0  0
 21 42  1  0  0  0  0
 22 43  1  0  0  0  0
 22 44  1  0  0  0  0
M  CHG  1   6   1
M  END
> <s_m_source_file>
AV-unprocessed.smi

> <i_m_source_file_index>
1202

> <i_lp_mmshare_version>
43012

> <i_f3d_flags>
0

> <s_epik_input>
W0NIM11bTkhdQyg9TylbQ0gyXU4xW0NIMl1bQ0gyXVtDSF0oW0NIMl1bQ0gyXTEpW05IXUMoPU8pW0NIMl1uMltjSF1bY0hdW2NIXVtjSF1jMj1P

> <s_epik_cmdline>
J2VwaWtfcHl0aG9uJywgJy1waCcsICc3LjAnLCAnLXRuJywgJzgnLCAnLW1hJywgJzIwMCcsICctbWV0YWxfYmluZGluZycsICctaW1hZScsICc8aW5maWxlLm1hZT4nLCAnLW9tYWUnLCAnPG91dGZpbGUubWFlPic=

> <r_lp_tautomer_probability>
1

> <r_epik_Ionization_Penalty>
0.983979

> <r_epik_Ionization_Penalty_Charging>
0.983957

> <r_epik_Ionization_Penalty_Neutral>
2.18432e-05

> <r_epik_State_Penalty>
1.03106

> <r_epik_Charging_Adjusted_Penalty>
2.01502

> <i_epik_Tot_Q>
1

> <i_epik_Tot_abs_Q>
1

> <r_epik_Metal_State_Penalty>
1.03477

> <b_epik_Metal_Only>
0

> <s_lp_Force_Field>
OPLS_2005

> <r_lp_Energy>
22.8296

> <b_lp_Chiralities_Consistent>
1

> <s_lp_Variant>
AV-unprocessed.smi:1202-2

> <Gold.Version>
5.8.1

> <Gold.Id.Protein>
6NUR|6NUR_protein|mol2

> <Gold.PLP.Fitness>
51.2751

> <Gold.PLP.PLP>
-36.4019

> <Gold.PLP.part.hbond>
-4.0000

> <Gold.PLP.part.metal>
0.0000

> <Gold.PLP.part.buried>
5.6652

> <Gold.PLP.part.nonpolar>
-38.4280

> <Gold.PLP.part.repulsive>
0.4404

> <Gold.PLP.ligand.clash>
0.0000

> <Gold.PLP.ligand.torsion>
1.0440

> <Gold.PLP.Chemscore.Hbond>
4.6320

> <Gold.PLP.Chemscore.CHOScore>
1.0000

> <Gold.PLP.Chemscore.Metal>
0.0000

> <Gold.Chemscore.Hbonds>
donor molecule, donor type, donor heavy atom, donor atom, acceptor molecule, acceptor atom, score
      L1  H     2    26       P1  7921  0.82
      L1  H     6    45       P1  7948  2.00
      L1  H    10    34       P1  7957  0.77
      P1  H  7989  7998       L1    20  1.00
      L1  C    15    37       P1  8028  1.00

> <Gold.PLP.Chemscore.Internal.Correction>
0.0653

> <Gold.Rescore>
     Score         DG    S(hbond)    S(metal)    S(lipo)     H(rot)  DE(clash)    DE(int)     intcor
     15.94     -21.28       3.51        0.00      83.67       2.23       3.11       2.23       ----

> <Gold.Chemscore.Fitness>
15.9396

> <Gold.Chemscore.DG>
-21.2773

> <Gold.Chemscore.ZeroCoef>
-5.4800

> <Gold.Chemscore.Hbond>
3.5114

> <Gold.Chemscore.Metal>
0.0000

> <Gold.Chemscore.Lipo>
83.6713

> <Gold.Chemscore.Internal_Hbond>
0.0000

> <Gold.Chemscore.DEClash>
3.1073

> <Gold.Chemscore.DEInternal>
2.2304

> <Gold.Chemscore.Rot>
2.2346

> <Gold.Chemscore.Internal.Correction>
   9.000000E+99

> <Gold.Chemscore.Hbonds>
donor molecule, donor type, donor heavy atom, donor atom, acceptor molecule, acceptor atom, score
      L1  H     2    26       P1  7921  0.67
      L1  H     6    45       P1  7948  0.94
      L1  H    10    34       P1  7957  0.76
      P1  H  7989  7998       L1    20  0.30

> <Gold.Chemscore.Hbond.Weighted>
-11.7282

> <Gold.Chemscore.Metal.Weighted>
-0.0000

> <Gold.Chemscore.Lipo.Weighted>
-9.7895

> <Gold.Chemscore.Internal_Hbond.Weighted>
0.0000

> <Gold.Chemscore.DEClash.Weighted>
3.1073

> <Gold.Chemscore.DEInternal.Weighted>
2.2304

> <Gold.Chemscore.Rot.Weighted>
5.7205

> <Gold.Chemscore.Internal.Correction.Weighted>
   9.000000E+99

> <Gold.Protein.RotatedTorsions>
[ 6907 6896 6895 6894 ] final   35.05 input  -60.11 | X-H torsion
[ 7974 7965 7964 7962 ] final    1.24 input  175.53 | X-H torsion
[ 8008 7997 7996 7995 ] final   81.84 input   59.86 | X-H torsion
[ 10167 10162 10161 10158 ] final   12.20 input  -65.29 | X-H torsion
[ 10718 10713 10712 10709 ] final  160.34 input   66.30 | X-H torsion
[ 10763 10752 10751 10750 ] final  -58.40 input  -60.55 | X-H torsion
[ 11005 11000 10999 10996 ] final  -99.09 input  -57.11 | X-H torsion

> <Gold.Protein.ActiveResidues>
 VAL166  LYS551  ARG553  GLY616  TRP617  ASP618  TYR619  PRO620  LYS621  CYS622 
 ASP623  PHE694  ASN695  SER759  ASP760  ASP761  ALA762  ILE779  LEU786  VAL792 
 PHE793  MET794  SER795  GLU796  ALA797  LYS798  CYS799  TRP800  GLU811  SER814 

> <Gold.Protein.RotatedAtoms>
  152.1108  134.9276  160.0566 H   0  0  0  0  0  0  0  0  0  0  0  0  # atno 6907 bound_to 6896
  152.0454  133.3990  159.4362 H   0  0  0  0  0  0  0  0  0  0  0  0  # atno 6908 bound_to 6896
  150.6843  134.3289  159.4862 H   0  0  0  0  0  0  0  0  0  0  0  0  # atno 6909 bound_to 6896
  146.2439  140.1017  142.8347 H   0  0  0  0  0  0  0  0  0  0  0  0  # atno 7974 bound_to 7965
  155.9026  140.3432  155.6038 H   0  0  0  0  0  0  0  0  0  0  0  0  # atno 8008 bound_to 7997
  155.7482  140.0816  157.2232 H   0  0  0  0  0  0  0  0  0  0  0  0  # atno 8009 bound_to 7997
  154.4045  140.1558  156.2681 H   0  0  0  0  0  0  0  0  0  0  0  0  # atno 8010 bound_to 7997
  140.6083  143.8462  150.7037 H   0  0  0  0  0  0  0  0  0  0  0  0  # atno 10167 bound_to 10162
  157.1518  131.0566  151.2276 H   0  0  0  0  0  0  0  0  0  0  0  0  # atno 10718 bound_to 10713
  154.2375  135.6349  153.5196 H   0  0  0  0  0  0  0  0  0  0  0  0  # atno 10763 bound_to 10752
  152.9936  135.5534  154.5946 H   0  0  0  0  0  0  0  0  0  0  0  0  # atno 10764 bound_to 10752
  154.5443  135.2897  155.1041 H   0  0  0  0  0  0  0  0  0  0  0  0  # atno 10765 bound_to 10752
  141.1321  133.8295  157.0926 H   0  0  0  0  0  0  0  0  0  0  0  0  # atno 11005 bound_to 11000
  145.0562  140.9054  143.4966 LP  0  0  0  0  0  0  0  0  0  0  0  0  # atno 17320 bound_to 7965
  145.1124  139.2748  143.5630 LP  0  0  0  0  0  0  0  0  0  0  0  0  # atno 17321 bound_to 7965
  140.2024  143.3949  152.1781 LP  0  0  0  0  0  0  0  0  0  0  0  0  # atno 17342 bound_to 10162
  139.5341  144.7191  151.4952 LP  0  0  0  0  0  0  0  0  0  0  0  0  # atno 17343 bound_to 10162
  157.4214  130.7439  149.6916 LP  0  0  0  0  0  0  0  0  0  0  0  0  # atno 17370 bound_to 10713
  155.9769  130.4069  150.3747 LP  0  0  0  0  0  0  0  0  0  0  0  0  # atno 17371 bound_to 10713
  140.0383  134.9867  157.0912 LP  0  0  0  0  0  0  0  0  0  0  0  0  # atno 17394 bound_to 11000
  140.4176  134.1915  155.7164 LP  0  0  0  0  0  0  0  0  0  0  0  0  # atno 17395 bound_to 11000

$$$$
