#       Name:                AV-unprocessed.smi:1995
#       Creating user name   scv26
#       Creation time:       Fri Mar 27 10:29:42 2020


#       File generated by GOLD software.
#

@<TRIPOS>MOLECULE
AV-unprocessed.smi:1995
    48    49     1
SMALL
NO_CHARGES


@<TRIPOS>ATOM
      1 ****        -2.2838   0.2392   3.7088 C.3            1 S1                 0.0000
      2 ****        -1.8120  -0.5589   2.4804 C.3            1 S1                 0.0000
      3 ****        -1.2204   0.2726   1.3014 C.3            1 S1                 0.0000
      4 ****        -2.2304   1.3800   0.8961 C.3            1 S1                 0.0000
      5 ****         0.0877   0.9927   1.7488 C.3            1 S1                 0.0000
      6 ****         0.7340   1.7043   0.6443 N.am           1 S1                 0.0000
      7 ****         1.7872   1.2872  -0.0727 C.2            1 S1                 0.0000
      8 ****         2.3839   0.2566   0.2445 O.2            1 S1                 0.0000
      9 ****         2.0643   2.0764  -1.1331 N.pl3          1 S1                -1.0000
     10 ****         3.0414   1.7300  -1.9865 C.2            1 S1                 0.0000
     11 ****         2.8141   1.0478  -3.1150 N.2            1 S1                 0.0000
     12 ****         3.9723   0.7944  -3.8523 C.2            1 S1                 0.0000
     13 ****         5.1059   1.3018  -3.2749 C.2            1 S1                 0.0000
     14 ****         4.7510   2.1167  -1.7784 S.3            1 S1                 0.0000
     15 ****        -0.9071  -0.6171   0.1224 N.4            1 S1                 1.0000
     16 ****        -0.1110  -1.8371   0.4309 C.3            1 S1                 0.0000
     17 ****         0.3881  -2.4817  -0.8702 C.3            1 S1                 0.0000
     18 ****        -0.7339  -2.8360  -1.6674 O.3            1 S1                 0.0000
     19 ****        -1.5030  -1.6974  -2.0324 C.3            1 S1                 0.0000
     20 ****        -2.0370  -0.9855  -0.7753 C.3            1 S1                 0.0000
     21 ****        -2.6450  -0.4379   4.4830 H              1 S1                 0.0000
     22 ****        -3.1049   0.9135   3.4675 H              1 S1                 0.0000
     23 ****        -1.4772   0.8262   4.1466 H              1 S1                 0.0000
     24 ****        -1.0735  -1.2770   2.8364 H              1 S1                 0.0000
     25 ****        -2.6547  -1.1501   2.1209 H              1 S1                 0.0000
     26 ****        -2.3073   2.1551   1.6589 H              1 S1                 0.0000
     27 ****        -3.2361   0.9835   0.7527 H              1 S1                 0.0000
     28 ****        -1.9331   1.8818  -0.0257 H              1 S1                 0.0000
     29 ****        -0.1305   1.7365   2.5148 H              1 S1                 0.0000
     30 ****         0.7818   0.2980   2.2224 H              1 S1                 0.0000
     31 ****         0.3008   2.5687   0.3532 H              1 S1                 0.0000
     32 ****         3.8968   0.2464  -4.7798 H              1 S1                 0.0000
     33 ****         6.1218   1.2478  -3.6360 H              1 S1                 0.0000
     34 ****         0.7421  -1.6079   1.0663 H              1 S1                 0.0000
     35 ****        -0.7223  -2.5599   0.9725 H              1 S1                 0.0000
     36 ****         1.0492  -1.8065  -1.4167 H              1 S1                 0.0000
     37 ****         0.9614  -3.3818  -0.6486 H              1 S1                 0.0000
     38 ****        -0.8967  -1.0167  -2.6327 H              1 S1                 0.0000
     39 ****        -2.3327  -2.0204  -2.6614 H              1 S1                 0.0000
     40 ****        -2.7407  -1.6279  -0.2445 H              1 S1                 0.0000
     41 ****        -2.5898  -0.1121  -1.1162 H              1 S1                 0.0000
     42 ****        -0.3027  -0.0460  -0.4529 H              1 S1                 0.0000
     43 ****         2.0829  -0.2711   1.0387 LP             1 S1                 0.0000
     44 ****         3.1692  -0.0519  -0.2924 LP             1 S1                 0.0000
     45 ****         1.5431   2.9167  -1.2823 LP             1 S1                 0.0000
     46 ****         1.9041   0.7489  -3.4021 LP             1 S1                 0.0000
     47 ****        -1.3131  -3.4654  -1.1494 LP             1 S1                 0.0000
     48 ****        -0.4105  -3.2881  -2.4986 LP             1 S1                 0.0000
@<TRIPOS>BOND
    1    1    2 1     
    2    1   21 1     
    3    1   22 1     
    4    1   23 1     
    5    2    3 1     
    6    2   24 1     
    7    2   25 1     
    8    3    4 1     
    9    3    5 1     
   10    3   15 1     
   11    4   26 1     
   12    4   27 1     
   13    4   28 1     
   14    5    6 1     
   15    5   29 1     
   16    5   30 1     
   17    6    7 am    
   18    6   31 1     
   19    7    8 2     
   20    7    9 1     
   21    9   10 1     
   22   10   14 1     
   23   10   11 2     
   24   11   12 1     
   25   12   13 2     
   26   12   32 1     
   27   13   14 1     
   28   13   33 1     
   29   15   20 1     
   30   15   16 1     
   31   15   42 1     
   32   16   17 1     
   33   16   34 1     
   34   16   35 1     
   35   17   18 1     
   36   17   36 1     
   37   17   37 1     
   38   18   19 1     
   39   19   20 1     
   40   19   38 1     
   41   19   39 1     
   42   20   40 1     
   43   20   41 1     
   44    8   43 1     
   45    8   44 1     
   46    9   45 1     
   47   11   46 1     
   48   18   47 1     
   49   18   48 1     
@<TRIPOS>SUBSTRUCTURE
      1 S1             1
@<TRIPOS>SET
LONE_PAIRS      STATIC     ATOMS    <user>   **** ""
6 43 44 45 46 47 48
DONOR_HYDROGENS      STATIC     ATOMS    <user>   **** ""
2 31 42
ATOM$BLUE        STATIC     ATOMS    COLORGROUP SYSTEM
6 43 44 45 46 47 48
ATOM$RED        STATIC     ATOMS    COLORGROUP SYSTEM
2 31 42
