AV-unprocessed.smi:1473|AV-procd|sdf|5970|dock7
  -GOLD-   22720 6 63D 1   1.00000     0.00000
 Structure written by MMmdl.
 33 34  0  0  0  0  0  0  0  0  2 V2000
  149.2658  135.1739  154.6553 N   0  5  0  0  0  0  0  0  0  0  0  0
  150.4068  136.0555  155.3770 S   0  0  0  0  0  0  0  0  0  0  0  0
  149.8996  136.9080  156.4635 O   0  0  0  0  0  0  0  0  0  0  0  0
  151.6653  135.3263  155.5952 O   0  0  0  0  0  0  0  0  0  0  0  0
  150.6998  137.1065  154.0481 N   0  0  0  0  0  0  0  0  0  0  0  0
  151.5830  138.2605  154.1798 C   0  0  0  0  0  0  0  0  0  0  0  0
  150.9194  139.4011  154.9220 C   0  0  0  0  0  0  0  0  0  0  0  0
  149.6401  139.8557  154.5444 C   0  0  0  0  0  0  0  0  0  0  0  0
  149.0738  140.9300  155.2574 C   0  0  0  0  0  0  0  0  0  0  0  0
  149.6962  141.5486  156.2836 N   0  0  0  0  0  0  0  0  0  0  0  0
  150.9292  141.1147  156.6415 C   0  0  0  0  0  0  0  0  0  0  0  0
  151.5833  141.7619  157.6994 N   0  0  0  0  0  0  0  0  0  0  0  0
  150.8737  142.9369  158.1901 C   0  0  0  0  0  0  0  0  0  0  0  0
  151.7178  143.6529  159.2584 C   0  0  0  0  0  0  0  0  0  0  0  0
  152.0390  142.7391  160.3035 O   0  0  0  0  0  0  0  0  0  0  0  0
  152.7964  141.6291  159.8293 C   0  0  0  0  0  0  0  0  0  0  0  0
  151.9817  140.8610  158.7737 C   0  0  0  0  0  0  0  0  0  0  0  0
  151.5774  140.0445  155.9898 C   0  0  0  0  0  0  0  0  0  0  0  0
  149.3454  135.3146  153.6409 H   0  0  0  0  0  0  0  0  0  0  0  0
  149.9535  137.1699  153.3565 H   0  0  0  0  0  0  0  0  0  0  0  0
  152.4846  137.9632  154.7166 H   0  0  0  0  0  0  0  0  0  0  0  0
  151.8973  138.5850  153.1874 H   0  0  0  0  0  0  0  0  0  0  0  0
  149.1060  139.3953  153.7261 H   0  0  0  0  0  0  0  0  0  0  0  0
  148.0954  141.3046  154.9951 H   0  0  0  0  0  0  0  0  0  0  0  0
  150.6637  143.6142  157.3614 H   0  0  0  0  0  0  0  0  0  0  0  0
  149.9144  142.6395  158.6164 H   0  0  0  0  0  0  0  0  0  0  0  0
  152.6321  144.0606  158.8238 H   0  0  0  0  0  0  0  0  0  0  0  0
  151.1619  144.4918  159.6768 H   0  0  0  0  0  0  0  0  0  0  0  0
  153.7445  141.9743  159.4138 H   0  0  0  0  0  0  0  0  0  0  0  0
  153.0350  140.9763  160.6690 H   0  0  0  0  0  0  0  0  0  0  0  0
  151.0959  140.4236  159.2366 H   0  0  0  0  0  0  0  0  0  0  0  0
  152.5737  140.0399  158.3674 H   0  0  0  0  0  0  0  0  0  0  0  0
  152.5632  139.7270  156.2986 H   0  0  0  0  0  0  0  0  0  0  0  0
  1  2  1  0  0  0  0
  1 19  1  0  0  0  0
  2  3  2  0  0  0  0
  2  4  2  0  0  0  0
  2  5  1  0  0  0  0
  5  6  1  0  0  0  0
  5 20  1  0  0  0  0
  6  7  1  0  0  0  0
  6 21  1  0  0  0  0
  6 22  1  0  0  0  0
  7 18  1  0  0  0  0
  7  8  2  0  0  0  0
  8  9  1  0  0  0  0
  8 23  1  0  0  0  0
  9 10  2  0  0  0  0
  9 24  1  0  0  0  0
 10 11  1  0  0  0  0
 11 12  1  0  0  0  0
 11 18  2  0  0  0  0
 12 17  1  0  0  0  0
 12 13  1  0  0  0  0
 13 14  1  0  0  0  0
 13 25  1  0  0  0  0
 13 26  1  0  0  0  0
 14 15  1  0  0  0  0
 14 27  1  0  0  0  0
 14 28  1  0  0  0  0
 15 16  1  0  0  0  0
 16 17  1  0  0  0  0
 16 29  1  0  0  0  0
 16 30  1  0  0  0  0
 17 31  1  0  0  0  0
 17 32  1  0  0  0  0
 18 33  1  0  0  0  0
M  CHG  1   1  -1
M  END
> <s_m_source_file>
AV-unprocessed.smi

> <i_m_source_file_index>
1473

> <i_lp_mmshare_version>
43012

> <i_f3d_flags>
0

> <s_epik_input>
W05IMl1TKD1PKSg9TylbTkhdW0NIMl1jMVtjSF1bY0hdbmMoW2NIXTEpTjJbQ0gyXVtDSDJdT1tDSDJdW0NIMl0y

> <s_epik_cmdline>
J2VwaWtfcHl0aG9uJywgJy1waCcsICc3LjAnLCAnLXRuJywgJzgnLCAnLW1hJywgJzIwMCcsICctbWV0YWxfYmluZGluZycsICctaW1hZScsICc8aW5maWxlLm1hZT4nLCAnLW9tYWUnLCAnPG91dGZpbGUubWFlPic=

> <r_lp_tautomer_probability>
1

> <r_epik_Ionization_Penalty>
2.7939

> <r_epik_Ionization_Penalty_Charging>
2.75358

> <r_epik_Ionization_Penalty_Neutral>
0.0403146

> <r_epik_State_Penalty>
2.98411

> <r_epik_Charging_Adjusted_Penalty>
5.73769

> <i_epik_Tot_Q>
-1

> <i_epik_Tot_abs_Q>
1

> <r_epik_Metal_State_Penalty>
0.875881

> <b_epik_Metal_Only>
1

> <s_lp_Force_Field>
OPLS_2005

> <r_lp_Energy>
15.423

> <b_lp_Chiralities_Consistent>
1

> <s_lp_Variant>
AV-unprocessed.smi:1473-5

> <Gold.Version>
5.8.1

> <Gold.Id.Protein>
6NUR|6NUR_protein|mol2

> <Gold.PLP.Fitness>
42.5883

> <Gold.PLP.PLP>
-34.2555

> <Gold.PLP.part.hbond>
-4.0000

> <Gold.PLP.part.metal>
0.0000

> <Gold.PLP.part.buried>
-3.3469

> <Gold.PLP.part.nonpolar>
-27.4122

> <Gold.PLP.part.repulsive>
0.2752

> <Gold.PLP.ligand.clash>
0.0000

> <Gold.PLP.ligand.torsion>
0.8559

> <Gold.PLP.Chemscore.Hbond>
2.9600

> <Gold.PLP.Chemscore.CHOScore>
0.0000

> <Gold.PLP.Chemscore.Metal>
0.0000

> <Gold.Chemscore.Hbonds>
donor molecule, donor type, donor heavy atom, donor atom, acceptor molecule, acceptor atom, score
      L1  H     1    19       P1  7948  1.00
      L1  H     5    20       P1  7948  0.91
      P1  H 10752 10765       L1     4  1.00

> <Gold.PLP.Chemscore.Internal.Correction>
1.1647

> <Gold.Rescore>
     Score         DG    S(hbond)    S(metal)    S(lipo)     H(rot)  DE(clash)    DE(int)     intcor
     16.24     -17.21       2.33        0.00      74.77       1.88       0.10       0.87       ----

> <Gold.Chemscore.Fitness>
16.2406

> <Gold.Chemscore.DG>
-17.2060

> <Gold.Chemscore.ZeroCoef>
-5.4800

> <Gold.Chemscore.Hbond>
2.3337

> <Gold.Chemscore.Metal>
0.0000

> <Gold.Chemscore.Lipo>
74.7700

> <Gold.Chemscore.Internal_Hbond>
0.0000

> <Gold.Chemscore.DEClash>
0.0981

> <Gold.Chemscore.DEInternal>
0.8673

> <Gold.Chemscore.Rot>
1.8814

> <Gold.Chemscore.Internal.Correction>
   9.000000E+99

> <Gold.Chemscore.Hbonds>
donor molecule, donor type, donor heavy atom, donor atom, acceptor molecule, acceptor atom, score
      L1  H     1    19       P1  7948  0.24
      L1  H     5    20       P1  7948  0.26
      P1  H 10752 10765       L1     4  0.92

> <Gold.Chemscore.Hbond.Weighted>
-7.7944

> <Gold.Chemscore.Metal.Weighted>
-0.0000

> <Gold.Chemscore.Lipo.Weighted>
-8.7481

> <Gold.Chemscore.Internal_Hbond.Weighted>
0.0000

> <Gold.Chemscore.DEClash.Weighted>
0.0981

> <Gold.Chemscore.DEInternal.Weighted>
0.8673

> <Gold.Chemscore.Rot.Weighted>
4.8165

> <Gold.Chemscore.Internal.Correction.Weighted>
   9.000000E+99

> <Gold.Protein.RotatedTorsions>
[ 6907 6896 6895 6894 ] final  -35.38 input  -60.11 | X-H torsion
[ 7974 7965 7964 7962 ] final   -9.26 input  175.53 | X-H torsion
[ 8008 7997 7996 7995 ] final   63.31 input   59.86 | X-H torsion
[ 10167 10162 10161 10158 ] final  164.05 input  -65.29 | X-H torsion
[ 10718 10713 10712 10709 ] final   -5.13 input   66.30 | X-H torsion
[ 10763 10752 10751 10750 ] final -161.91 input  -60.55 | X-H torsion
[ 11005 11000 10999 10996 ] final   90.99 input  -57.11 | X-H torsion

> <Gold.Protein.ActiveResidues>
 VAL166  LYS551  ARG553  GLY616  TRP617  ASP618  TYR619  PRO620  LYS621  CYS622 
 ASP623  PHE694  ASN695  SER759  ASP760  ASP761  ALA762  ILE779  LEU786  VAL792 
 PHE793  MET794  SER795  GLU796  ALA797  LYS798  CYS799  TRP800  GLU811  SER814 

> <Gold.Protein.RotatedAtoms>
  151.0405  134.9604  159.8158 H   0  0  0  0  0  0  0  0  0  0  0  0  # atno 6907 bound_to 6896
  152.5363  134.2664  159.8965 H   0  0  0  0  0  0  0  0  0  0  0  0  # atno 6908 bound_to 6896
  151.2676  133.4228  159.2653 H   0  0  0  0  0  0  0  0  0  0  0  0  # atno 6909 bound_to 6896
  146.2257  140.2590  142.8351 H   0  0  0  0  0  0  0  0  0  0  0  0  # atno 7974 bound_to 7965
  155.6281  140.3496  155.4674 H   0  0  0  0  0  0  0  0  0  0  0  0  # atno 8008 bound_to 7997
  156.0025  140.1216  157.0557 H   0  0  0  0  0  0  0  0  0  0  0  0  # atno 8009 bound_to 7997
  154.4253  140.1097  156.5703 H   0  0  0  0  0  0  0  0  0  0  0  0  # atno 8010 bound_to 7997
  139.4883  144.4275  151.9111 H   0  0  0  0  0  0  0  0  0  0  0  0  # atno 10167 bound_to 10162
  156.7510  130.5239  149.5804 H   0  0  0  0  0  0  0  0  0  0  0  0  # atno 10718 bound_to 10713
  154.7261  135.3036  154.8968 H   0  0  0  0  0  0  0  0  0  0  0  0  # atno 10763 bound_to 10752
  153.9825  135.6728  153.4754 H   0  0  0  0  0  0  0  0  0  0  0  0  # atno 10764 bound_to 10752
  153.0877  135.4976  154.8547 H   0  0  0  0  0  0  0  0  0  0  0  0  # atno 10765 bound_to 10752
  139.8846  134.8647  156.3364 H   0  0  0  0  0  0  0  0  0  0  0  0  # atno 11005 bound_to 11000
  144.9354  140.8020  143.5663 LP  0  0  0  0  0  0  0  0  0  0  0  0  # atno 17320 bound_to 7965
  145.2537  139.2021  143.4929 LP  0  0  0  0  0  0  0  0  0  0  0  0  # atno 17321 bound_to 7965
  140.3721  144.2842  150.5918 LP  0  0  0  0  0  0  0  0  0  0  0  0  # atno 17342 bound_to 10162
  140.5309  143.2243  151.8240 LP  0  0  0  0  0  0  0  0  0  0  0  0  # atno 17343 bound_to 10162
  156.1401  130.6238  151.0455 LP  0  0  0  0  0  0  0  0  0  0  0  0  # atno 17370 bound_to 10713
  157.6777  131.0846  150.7452 LP  0  0  0  0  0  0  0  0  0  0  0  0  # atno 17371 bound_to 10713
  140.9688  133.7340  156.0505 LP  0  0  0  0  0  0  0  0  0  0  0  0  # atno 17394 bound_to 11000
  140.7896  134.3632  157.5468 LP  0  0  0  0  0  0  0  0  0  0  0  0  # atno 17395 bound_to 11000

$$$$
