AV-unprocessed.smi:1684|AV-procd|sdf|6755|dock4
  -GOLD-   22720 7513D 1   1.00000     0.00000
 Structure written by MMmdl.
 43 44  0  0  0  0  0  0  0  0  2 V2000
  151.4939  144.8958  158.5823 C   0  0  0  0  0  0  0  0  0  0  0  0
  152.0342  143.5937  159.1509 C   0  0  0  0  0  0  0  0  0  0  0  0
  152.9406  143.6364  160.2317 C   0  0  0  0  0  0  0  0  0  0  0  0
  153.4381  142.4318  160.7574 C   0  0  0  0  0  0  0  0  0  0  0  0
  153.0052  141.2277  160.1764 C   0  0  0  0  0  0  0  0  0  0  0  0
  152.1390  141.1776  159.1439 N   0  0  0  0  0  0  0  0  0  0  0  0
  151.6518  142.3317  158.6225 C   0  0  0  0  0  0  0  0  0  0  0  0
  150.7319  142.3547  157.5359 N   0  0  0  0  0  0  0  0  0  0  0  0
  150.2346  141.3162  156.8421 C   0  0  0  0  0  0  0  0  0  0  0  0
  150.5493  140.1366  157.0009 O   0  0  0  0  0  0  0  0  0  0  0  0
  149.3236  141.7217  155.9441 N   0  0  0  0  0  0  0  0  0  0  0  0
  148.5871  140.8605  155.0170 C   0  0  2  0  0  0  0  0  0  0  0  0
  149.5605  139.8505  154.3944 C   0  0  0  0  0  0  0  0  0  0  0  0
  147.8650  141.6871  153.9269 C   0  0  0  0  0  0  0  0  0  0  0  0
  146.9112  142.6790  154.4848 N   0  3  0  0  0  0  0  0  0  0  0  0
  145.9189  143.1593  153.4957 C   0  0  0  0  0  0  0  0  0  0  0  0
  145.0321  144.2488  154.1230 C   0  0  0  0  0  0  0  0  0  0  0  0
  144.3995  143.7395  155.2912 O   0  0  0  0  0  0  0  0  0  0  0  0
  145.3427  143.3424  156.2798 C   0  0  0  0  0  0  0  0  0  0  0  0
  146.2303  142.2193  155.7192 C   0  0  0  0  0  0  0  0  0  0  0  0
  151.8799  145.7579  159.1272 H   0  0  0  0  0  0  0  0  0  0  0  0
  150.4056  144.9193  158.6468 H   0  0  0  0  0  0  0  0  0  0  0  0
  151.7825  145.0037  157.5363 H   0  0  0  0  0  0  0  0  0  0  0  0
  153.2527  144.5794  160.6560 H   0  0  0  0  0  0  0  0  0  0  0  0
  154.1331  142.4308  161.5840 H   0  0  0  0  0  0  0  0  0  0  0  0
  153.3621  140.2795  160.5502 H   0  0  0  0  0  0  0  0  0  0  0  0
  150.3998  143.2707  157.2730 H   0  0  0  0  0  0  0  0  0  0  0  0
  149.1318  142.7114  155.8847 H   0  0  0  0  0  0  0  0  0  0  0  0
  147.8510  140.2828  155.5777 H   0  0  0  0  0  0  0  0  0  0  0  0
  149.0379  139.1600  153.7317 H   0  0  0  0  0  0  0  0  0  0  0  0
  150.0550  139.2550  155.1628 H   0  0  0  0  0  0  0  0  0  0  0  0
  150.3346  140.3496  153.8104 H   0  0  0  0  0  0  0  0  0  0  0  0
  148.6231  142.2106  153.3423 H   0  0  0  0  0  0  0  0  0  0  0  0
  147.3432  141.0326  153.2270 H   0  0  0  0  0  0  0  0  0  0  0  0
  146.4304  143.5640  152.6216 H   0  0  0  0  0  0  0  0  0  0  0  0
  145.3062  142.3235  153.1539 H   0  0  0  0  0  0  0  0  0  0  0  0
  145.6205  145.1337  154.3712 H   0  0  0  0  0  0  0  0  0  0  0  0
  144.2656  144.5642  153.4151 H   0  0  0  0  0  0  0  0  0  0  0  0
  145.9461  144.1971  156.5909 H   0  0  0  0  0  0  0  0  0  0  0  0
  144.8054  142.9930  157.1614 H   0  0  0  0  0  0  0  0  0  0  0  0
  145.6252  141.3380  155.5008 H   0  0  0  0  0  0  0  0  0  0  0  0
  146.9614  141.9254  156.4718 H   0  0  0  0  0  0  0  0  0  0  0  0
  147.4629  143.4856  154.7416 H   0  0  0  0  0  0  0  0  0  0  0  0
  1  2  1  0  0  0  0
  1 21  1  0  0  0  0
  1 22  1  0  0  0  0
  1 23  1  0  0  0  0
  2  7  1  0  0  0  0
  2  3  2  0  0  0  0
  3  4  1  0  0  0  0
  3 24  1  0  0  0  0
  4  5  2  0  0  0  0
  4 25  1  0  0  0  0
  5  6  1  0  0  0  0
  5 26  1  0  0  0  0
  6  7  2  0  0  0  0
  7  8  1  0  0  0  0
  8  9  1  0  0  0  0
  8 27  1  0  0  0  0
  9 10  2  0  0  0  0
  9 11  1  0  0  0  0
 11 12  1  0  0  0  0
 11 28  1  0  0  0  0
 12 13  1  0  0  0  0
 12 14  1  0  0  0  0
 12 29  1  0  0  0  0
 13 30  1  0  0  0  0
 13 31  1  0  0  0  0
 13 32  1  0  0  0  0
 14 15  1  0  0  0  0
 14 33  1  0  0  0  0
 14 34  1  0  0  0  0
 15 20  1  0  0  0  0
 15 16  1  0  0  0  0
 15 43  1  0  0  0  0
 16 17  1  0  0  0  0
 16 35  1  0  0  0  0
 16 36  1  0  0  0  0
 17 18  1  0  0  0  0
 17 37  1  0  0  0  0
 17 38  1  0  0  0  0
 18 19  1  0  0  0  0
 19 20  1  0  0  0  0
 19 39  1  0  0  0  0
 19 40  1  0  0  0  0
 20 41  1  0  0  0  0
 20 42  1  0  0  0  0
M  CHG  1  15   1
M  END
> <s_m_source_file>
AV-unprocessed.smi

> <i_m_source_file_index>
1684

> <i_lp_mmshare_version>
43012

> <i_f3d_flags>
0

> <s_epik_input>
W0NIM11jMVtjSF1bY0hdW2NIXW5jMVtOSF1DKD1PKVtOSF1bQ0BIXShbQ0gzXSlbQ0gyXU4yW0NIMl1bQ0gyXU9bQ0gyXVtDSDJdMg==

> <s_epik_cmdline>
J2VwaWtfcHl0aG9uJywgJy1waCcsICc3LjAnLCAnLXRuJywgJzgnLCAnLW1hJywgJzIwMCcsICctbWV0YWxfYmluZGluZycsICctaW1hZScsICc8aW5maWxlLm1hZT4nLCAnLW9tYWUnLCAnPG91dGZpbGUubWFlPic=

> <r_epik_Ionization_Penalty>
0.602571

> <r_epik_Ionization_Penalty_Charging>
0.602531

> <r_epik_Ionization_Penalty_Neutral>
4.09763e-05

> <r_epik_State_Penalty>
0.617039

> <r_epik_Charging_Adjusted_Penalty>
1.21957

> <i_epik_Tot_Q>
1

> <i_epik_Tot_abs_Q>
1

> <r_epik_Metal_State_Penalty>
0.617043

> <b_epik_Metal_Only>
0

> <s_lp_Force_Field>
OPLS_2005

> <r_lp_Energy>
24.8117

> <b_lp_Chiralities_Consistent>
1

> <s_lp_Variant>
AV-unprocessed.smi:1684-3

> <Gold.Version>
5.8.1

> <Gold.Id.Protein>
6NUR|6NUR_protein|mol2

> <Gold.PLP.Fitness>
48.3946

> <Gold.PLP.PLP>
-40.4612

> <Gold.PLP.part.hbond>
-1.9742

> <Gold.PLP.part.metal>
0.0000

> <Gold.PLP.part.buried>
-7.6730

> <Gold.PLP.part.nonpolar>
-31.0868

> <Gold.PLP.part.repulsive>
0.3907

> <Gold.PLP.ligand.clash>
0.0000

> <Gold.PLP.ligand.torsion>
0.3988

> <Gold.PLP.Chemscore.Hbond>
2.9000

> <Gold.PLP.Chemscore.CHOScore>
0.0000

> <Gold.PLP.Chemscore.Metal>
0.0000

> <Gold.Chemscore.Hbonds>
donor molecule, donor type, donor heavy atom, donor atom, acceptor molecule, acceptor atom, score
      L1  H    11    28       P1  8028  0.99
      L1  H    15    43       P1  8028  1.76

> <Gold.PLP.Chemscore.Internal.Correction>
0.0309

> <Gold.Rescore>
     Score         DG    S(hbond)    S(metal)    S(lipo)     H(rot)  DE(clash)    DE(int)     intcor
     15.45     -18.74       1.57        0.00     101.55       1.51       0.30       2.99       ----

> <Gold.Chemscore.Fitness>
15.4458

> <Gold.Chemscore.DG>
-18.7419

> <Gold.Chemscore.ZeroCoef>
-5.4800

> <Gold.Chemscore.Hbond>
1.5678

> <Gold.Chemscore.Metal>
0.0000

> <Gold.Chemscore.Lipo>
101.5487

> <Gold.Chemscore.Internal_Hbond>
0.0000

> <Gold.Chemscore.DEClash>
0.3012

> <Gold.Chemscore.DEInternal>
2.9950

> <Gold.Chemscore.Rot>
1.5061

> <Gold.Chemscore.Internal.Correction>
   9.000000E+99

> <Gold.Chemscore.Hbonds>
donor molecule, donor type, donor heavy atom, donor atom, acceptor molecule, acceptor atom, score
      L1  H    11    28       P1  8028  0.92
      L1  H    15    43       P1  8028  0.16

> <Gold.Chemscore.Hbond.Weighted>
-5.2365

> <Gold.Chemscore.Metal.Weighted>
-0.0000

> <Gold.Chemscore.Lipo.Weighted>
-11.8812

> <Gold.Chemscore.Internal_Hbond.Weighted>
0.0000

> <Gold.Chemscore.DEClash.Weighted>
0.3012

> <Gold.Chemscore.DEInternal.Weighted>
2.9950

> <Gold.Chemscore.Rot.Weighted>
3.8557

> <Gold.Chemscore.Internal.Correction.Weighted>
   9.000000E+99

> <Gold.Protein.RotatedTorsions>
[ 6907 6896 6895 6894 ] final  -88.07 input  -60.11 | X-H torsion
[ 7974 7965 7964 7962 ] final  -60.43 input  175.53 | X-H torsion
[ 8008 7997 7996 7995 ] final   10.80 input   59.86 | X-H torsion
[ 10167 10162 10161 10158 ] final  119.29 input  -65.29 | X-H torsion
[ 10718 10713 10712 10709 ] final  -22.81 input   66.30 | X-H torsion
[ 10763 10752 10751 10750 ] final  -41.86 input  -60.55 | X-H torsion
[ 11005 11000 10999 10996 ] final  154.88 input  -57.11 | X-H torsion

> <Gold.Protein.ActiveResidues>
 VAL166  LYS551  ARG553  GLY616  TRP617  ASP618  TYR619  PRO620  LYS621  CYS622 
 ASP623  PHE694  ASN695  SER759  ASP760  ASP761  ALA762  ILE779  LEU786  VAL792 
 PHE793  MET794  SER795  GLU796  ALA797  LYS798  CYS799  TRP800  GLU811  SER814 

> <Gold.Protein.RotatedAtoms>
  150.6867  134.2798  159.4622 H   0  0  0  0  0  0  0  0  0  0  0  0  # atno 6907 bound_to 6896
  152.0713  134.9529  160.0583 H   0  0  0  0  0  0  0  0  0  0  0  0  # atno 6908 bound_to 6896
  152.0918  133.4169  159.4584 H   0  0  0  0  0  0  0  0  0  0  0  0  # atno 6909 bound_to 6896
  145.8155  140.8572  143.0159 H   0  0  0  0  0  0  0  0  0  0  0  0  # atno 7974 bound_to 7965
  154.7983  140.2847  155.5940 H   0  0  0  0  0  0  0  0  0  0  0  0  # atno 8008 bound_to 7997
  156.2974  140.2591  156.2775 H   0  0  0  0  0  0  0  0  0  0  0  0  # atno 8009 bound_to 7997
  154.9588  140.0378  157.2169 H   0  0  0  0  0  0  0  0  0  0  0  0  # atno 8010 bound_to 7997
  139.6055  144.7069  151.2963 H   0  0  0  0  0  0  0  0  0  0  0  0  # atno 10167 bound_to 10162
  156.4996  130.4585  149.6709 H   0  0  0  0  0  0  0  0  0  0  0  0  # atno 10718 bound_to 10713
  153.9696  135.6730  153.4747 H   0  0  0  0  0  0  0  0  0  0  0  0  # atno 10763 bound_to 10752
  153.0799  135.4929  154.8478 H   0  0  0  0  0  0  0  0  0  0  0  0  # atno 10764 bound_to 10752
  154.7227  135.3120  154.8982 H   0  0  0  0  0  0  0  0  0  0  0  0  # atno 10765 bound_to 10752
  140.1530  134.8662  157.2478 H   0  0  0  0  0  0  0  0  0  0  0  0  # atno 11005 bound_to 11000
  144.6753  140.0458  143.7480 LP  0  0  0  0  0  0  0  0  0  0  0  0  # atno 17320 bound_to 7965
  145.9731  139.2884  143.1087 LP  0  0  0  0  0  0  0  0  0  0  0  0  # atno 17321 bound_to 7965
  140.7282  143.6943  150.7897 LP  0  0  0  0  0  0  0  0  0  0  0  0  # atno 17342 bound_to 10162
  140.0527  143.5233  152.2666 LP  0  0  0  0  0  0  0  0  0  0  0  0  # atno 17343 bound_to 10162
  156.3346  130.7350  151.2285 LP  0  0  0  0  0  0  0  0  0  0  0  0  # atno 17370 bound_to 10713
  157.7464  131.0420  150.4675 LP  0  0  0  0  0  0  0  0  0  0  0  0  # atno 17371 bound_to 10713
  140.2582  134.3602  155.7416 LP  0  0  0  0  0  0  0  0  0  0  0  0  # atno 17394 bound_to 11000
  141.2201  133.7354  156.9040 LP  0  0  0  0  0  0  0  0  0  0  0  0  # atno 17395 bound_to 11000

$$$$
