AV-unprocessed.smi:2949|AV-procd|sdf|11285|dock2
  -GOLD-   2272016173D 1   1.00000     0.00000
 Structure written by MMmdl.
 35 36  0  0  0  0  0  0  0  0  2 V2000
  143.2941  134.2626  153.8786 N   0  0  0  0  0  0  0  0  0  0  0  0
  143.7041  134.3346  152.6099 C   0  0  0  0  0  0  0  0  0  0  0  0
  143.7928  132.9813  151.5229 S   0  0  0  0  0  0  0  0  0  0  0  0
  144.3701  134.0232  150.2576 C   0  0  0  0  0  0  0  0  0  0  0  0
  144.4727  135.3209  150.6843 C   0  0  0  0  0  0  0  0  0  0  0  0
  144.0947  135.4820  152.0160 N   0  3  0  0  0  0  0  0  0  0  0  0
  144.1096  136.7912  152.6997 C   0  0  0  0  0  0  0  0  0  0  0  0
  145.5260  137.3209  152.9656 C   0  0  0  0  0  0  0  0  0  0  0  0
  146.4730  136.5341  153.0487 O   0  0  0  0  0  0  0  0  0  0  0  0
  145.6071  138.6658  153.0861 N   0  0  0  0  0  0  0  0  0  0  0  0
  146.6655  139.4767  153.3254 C   0  0  0  0  0  0  0  0  0  0  0  0
  147.7686  139.0024  153.5911 O   0  0  0  0  0  0  0  0  0  0  0  0
  146.4505  140.8040  153.2579 N   0  0  0  0  0  0  0  0  0  0  0  0
  147.4181  141.8375  153.6146 C   0  0  0  0  0  0  0  0  0  0  0  0
  148.7967  141.5788  152.9710 C   0  0  0  0  0  0  0  0  0  0  0  0
  149.8195  141.6717  154.1051 C   0  0  0  0  0  0  0  0  0  0  0  0
  149.0432  141.2522  155.3491 C   0  0  0  0  0  0  0  0  0  0  0  0
  147.6524  141.8492  155.1359 C   0  0  0  0  0  0  0  0  0  0  0  0
  143.2503  135.0726  154.4800 H   0  0  0  0  0  0  0  0  0  0  0  0
  144.5946  133.6199  149.2810 H   0  0  0  0  0  0  0  0  0  0  0  0
  144.7942  136.1903  150.1286 H   0  0  0  0  0  0  0  0  0  0  0  0
  143.5405  137.5102  152.1087 H   0  0  0  0  0  0  0  0  0  0  0  0
  143.5841  136.6813  153.6494 H   0  0  0  0  0  0  0  0  0  0  0  0
  144.7284  139.1525  152.9828 H   0  0  0  0  0  0  0  0  0  0  0  0
  145.5503  141.1199  152.9256 H   0  0  0  0  0  0  0  0  0  0  0  0
  147.0336  142.8125  153.3091 H   0  0  0  0  0  0  0  0  0  0  0  0
  148.8388  140.5786  152.5366 H   0  0  0  0  0  0  0  0  0  0  0  0
  149.0140  142.2858  152.1698 H   0  0  0  0  0  0  0  0  0  0  0  0
  150.6995  141.0524  153.9290 H   0  0  0  0  0  0  0  0  0  0  0  0
  150.1547  142.7039  154.2140 H   0  0  0  0  0  0  0  0  0  0  0  0
  148.9747  140.1643  155.3903 H   0  0  0  0  0  0  0  0  0  0  0  0
  149.5107  141.5934  156.2731 H   0  0  0  0  0  0  0  0  0  0  0  0
  147.6488  142.8808  155.4908 H   0  0  0  0  0  0  0  0  0  0  0  0
  146.8848  141.3155  155.6984 H   0  0  0  0  0  0  0  0  0  0  0  0
  142.9831  133.3978  154.2977 H   0  0  0  0  0  0  0  0  0  0  0  0
  1  2  1  0  0  0  0
  1 19  1  0  0  0  0
  1 35  1  0  0  0  0
  2  6  2  0  0  0  0
  2  3  1  0  0  0  0
  3  4  1  0  0  0  0
  4  5  2  0  0  0  0
  4 20  1  0  0  0  0
  5  6  1  0  0  0  0
  5 21  1  0  0  0  0
  6  7  1  0  0  0  0
  7  8  1  0  0  0  0
  7 22  1  0  0  0  0
  7 23  1  0  0  0  0
  8  9  2  0  0  0  0
  8 10  1  0  0  0  0
 10 11  1  0  0  0  0
 10 24  1  0  0  0  0
 11 12  2  0  0  0  0
 11 13  1  0  0  0  0
 13 14  1  0  0  0  0
 13 25  1  0  0  0  0
 14 18  1  0  0  0  0
 14 15  1  0  0  0  0
 14 26  1  0  0  0  0
 15 16  1  0  0  0  0
 15 27  1  0  0  0  0
 15 28  1  0  0  0  0
 16 17  1  0  0  0  0
 16 29  1  0  0  0  0
 16 30  1  0  0  0  0
 17 18  1  0  0  0  0
 17 31  1  0  0  0  0
 17 32  1  0  0  0  0
 18 33  1  0  0  0  0
 18 34  1  0  0  0  0
M  CHG  1   6   1
M  END
> <s_m_source_file>
AV-unprocessed.smi

> <i_m_source_file_index>
2949

> <i_lp_mmshare_version>
43012

> <i_f3d_flags>
0

> <s_epik_input>
W0hdL049YzFcc1tjSF1bY0hdbjFbQ0gyXUMoPU8pW05IXUMoPU8pW05IXVtDSF0yW0NIMl1bQ0gyXVtDSDJdW0NIMl0y

> <s_epik_cmdline>
J2VwaWtfcHl0aG9uJywgJy1waCcsICc3LjAnLCAnLXRuJywgJzgnLCAnLW1hJywgJzIwMCcsICctbWV0YWxfYmluZGluZycsICctaW1hZScsICc8aW5maWxlLm1hZT4nLCAnLW9tYWUnLCAnPG91dGZpbGUubWFlPic=

> <r_lp_tautomer_probability>
1

> <r_epik_Ionization_Penalty>
0.019454

> <r_epik_Ionization_Penalty_Charging>
0

> <r_epik_Ionization_Penalty_Neutral>
0.019454

> <r_epik_State_Penalty>
0.0306361

> <r_epik_Charging_Adjusted_Penalty>
0.0306361

> <i_epik_Tot_Q>
1

> <i_epik_Tot_abs_Q>
1

> <r_epik_Metal_State_Penalty>
0.0306361

> <b_epik_Metal_Only>
0

> <s_lp_Force_Field>
OPLS_2005

> <r_lp_Energy>
26.5716

> <b_lp_Chiralities_Consistent>
1

> <s_lp_Variant>
AV-unprocessed.smi:2949-1

> <Gold.Version>
5.8.1

> <Gold.Id.Protein>
6NUR|6NUR_protein|mol2

> <Gold.PLP.Fitness>
42.5078

> <Gold.PLP.PLP>
-28.9767

> <Gold.PLP.part.hbond>
-3.0000

> <Gold.PLP.part.metal>
0.0000

> <Gold.PLP.part.buried>
-2.2113

> <Gold.PLP.part.nonpolar>
-24.4544

> <Gold.PLP.part.repulsive>
0.2739

> <Gold.PLP.ligand.clash>
0.0000

> <Gold.PLP.ligand.torsion>
0.5638

> <Gold.PLP.Chemscore.Hbond>
3.8800

> <Gold.PLP.Chemscore.CHOScore>
0.9974

> <Gold.PLP.Chemscore.Metal>
0.0000

> <Gold.Chemscore.Hbonds>
donor molecule, donor type, donor heavy atom, donor atom, acceptor molecule, acceptor atom, score
      L1  H     1    35       P1 10957  2.00
      L1  H    10    24       P1 10175  1.00
      L1  H    13    25       P1 10175  0.75
      L1  C     4    20       P1  7921  0.83

> <Gold.PLP.Chemscore.Internal.Correction>
0.0265

> <Gold.Rescore>
     Score         DG    S(hbond)    S(metal)    S(lipo)     H(rot)  DE(clash)    DE(int)     intcor
     12.48     -15.83       2.63        0.00      51.11       1.73       0.08       3.26       ----

> <Gold.Chemscore.Fitness>
12.4786

> <Gold.Chemscore.DG>
-15.8269

> <Gold.Chemscore.ZeroCoef>
-5.4800

> <Gold.Chemscore.Hbond>
2.6328

> <Gold.Chemscore.Metal>
0.0000

> <Gold.Chemscore.Lipo>
51.1108

> <Gold.Chemscore.Internal_Hbond>
0.0000

> <Gold.Chemscore.DEClash>
0.0840

> <Gold.Chemscore.DEInternal>
3.2643

> <Gold.Chemscore.Rot>
1.7291

> <Gold.Chemscore.Internal.Correction>
   9.000000E+99

> <Gold.Chemscore.Hbonds>
donor molecule, donor type, donor heavy atom, donor atom, acceptor molecule, acceptor atom, score
      L1  H     1    35       P1 10957  1.00
      L1  H    10    24       P1 10175  0.99
      L1  H    13    25       P1 10175  0.12

> <Gold.Chemscore.Hbond.Weighted>
-8.7934

> <Gold.Chemscore.Metal.Weighted>
-0.0000

> <Gold.Chemscore.Lipo.Weighted>
-5.9800

> <Gold.Chemscore.Internal_Hbond.Weighted>
0.0000

> <Gold.Chemscore.DEClash.Weighted>
0.0840

> <Gold.Chemscore.DEInternal.Weighted>
3.2643

> <Gold.Chemscore.Rot.Weighted>
4.4265

> <Gold.Chemscore.Internal.Correction.Weighted>
   9.000000E+99

> <Gold.Protein.RotatedTorsions>
[ 6907 6896 6895 6894 ] final  -13.26 input  -60.11 | X-H torsion
[ 7974 7965 7964 7962 ] final   75.75 input  175.53 | X-H torsion
[ 8008 7997 7996 7995 ] final   77.12 input   59.86 | X-H torsion
[ 10167 10162 10161 10158 ] final   34.15 input  -65.29 | X-H torsion
[ 10718 10713 10712 10709 ] final  -75.90 input   66.30 | X-H torsion
[ 10763 10752 10751 10750 ] final   41.10 input  -60.55 | X-H torsion
[ 11005 11000 10999 10996 ] final  -13.36 input  -57.11 | X-H torsion

> <Gold.Protein.ActiveResidues>
 VAL166  LYS551  ARG553  GLY616  TRP617  ASP618  TYR619  PRO620  LYS621  CYS622 
 ASP623  PHE694  ASN695  SER759  ASP760  ASP761  ALA762  ILE779  LEU786  VAL792 
 PHE793  MET794  SER795  GLU796  ALA797  LYS798  CYS799  TRP800  GLU811  SER814 

> <Gold.Protein.RotatedAtoms>
  151.3577  135.0897  159.9423 H   0  0  0  0  0  0  0  0  0  0  0  0  # atno 6907 bound_to 6896
  152.5170  133.9289  159.7581 H   0  0  0  0  0  0  0  0  0  0  0  0  # atno 6908 bound_to 6896
  150.9677  133.6323  159.2772 H   0  0  0  0  0  0  0  0  0  0  0  0  # atno 6909 bound_to 6896
  145.7116  139.2617  143.1647 H   0  0  0  0  0  0  0  0  0  0  0  0  # atno 7974 bound_to 7965
  155.8371  140.3464  155.5608 H   0  0  0  0  0  0  0  0  0  0  0  0  # atno 8008 bound_to 7997
  155.8180  140.0908  157.1885 H   0  0  0  0  0  0  0  0  0  0  0  0  # atno 8009 bound_to 7997
  154.4004  140.1435  156.3454 H   0  0  0  0  0  0  0  0  0  0  0  0  # atno 8010 bound_to 7997
  140.4342  144.1281  150.6164 H   0  0  0  0  0  0  0  0  0  0  0  0  # atno 10167 bound_to 10162
  156.0192  130.4452  150.3112 H   0  0  0  0  0  0  0  0  0  0  0  0  # atno 10718 bound_to 10713
  152.9917  135.6172  154.2733 H   0  0  0  0  0  0  0  0  0  0  0  0  # atno 10763 bound_to 10752
  154.2465  135.2787  155.2835 H   0  0  0  0  0  0  0  0  0  0  0  0  # atno 10764 bound_to 10752
  154.5325  135.5784  153.6828 H   0  0  0  0  0  0  0  0  0  0  0  0  # atno 10765 bound_to 10752
  140.7753  133.8406  155.9243 H   0  0  0  0  0  0  0  0  0  0  0  0  # atno 11005 bound_to 11000
  146.0707  140.7872  142.9689 LP  0  0  0  0  0  0  0  0  0  0  0  0  # atno 17320 bound_to 7965
  144.6940  140.3337  143.7211 LP  0  0  0  0  0  0  0  0  0  0  0  0  # atno 17321 bound_to 7965
  140.4393  143.2533  151.9494 LP  0  0  0  0  0  0  0  0  0  0  0  0  # atno 17342 bound_to 10162
  139.4786  144.5670  151.8149 LP  0  0  0  0  0  0  0  0  0  0  0  0  # atno 17343 bound_to 10162
  157.1214  131.0248  151.3007 LP  0  0  0  0  0  0  0  0  0  0  0  0  # atno 17370 bound_to 10713
  157.4625  130.7661  149.7249 LP  0  0  0  0  0  0  0  0  0  0  0  0  # atno 17371 bound_to 10713
  140.9534  134.1749  157.4710 LP  0  0  0  0  0  0  0  0  0  0  0  0  # atno 17394 bound_to 11000
  139.8750  134.9918  156.5565 LP  0  0  0  0  0  0  0  0  0  0  0  0  # atno 17395 bound_to 11000

$$$$
