#       Name:                AV-unprocessed.smi:2924
#       Creating user name   scv26
#       Creation time:       Fri Mar 27 16:11:07 2020


#       File generated by GOLD software.
#

@<TRIPOS>MOLECULE
AV-unprocessed.smi:2924
    33    35     1
SMALL
NO_CHARGES


@<TRIPOS>ATOM
      1 ****        -1.0533  -4.3958  -0.4152 N.1            1 S1                 0.0000
      2 ****        -1.5733  -3.3658  -0.3297 C.1            1 S1                 0.0000
      3 ****        -2.2282  -2.0678  -0.2217 C.ar           1 S1                 0.0000
      4 ****        -3.6240  -2.0221  -0.0216 C.ar           1 S1                 0.0000
      5 ****        -4.2612  -0.7727   0.0857 C.ar           1 S1                 0.0000
      6 ****        -3.4723   0.3876  -0.0130 C.ar           1 S1                 0.0000
      7 ****        -2.1372   0.3583  -0.2044 N.ar           1 S1                 0.0000
      8 ****        -1.5148  -0.8418  -0.3066 C.ar           1 S1                 0.0000
      9 ****        -0.1221  -0.8395  -0.5075 N.pl3          1 S1                 0.0000
     10 ****         0.6686   0.3784  -0.3615 C.3            1 S1                 0.0000
     11 ****         0.8275   0.8215   1.0989 C.3            1 S1                 0.0000
     12 ****         2.3526   0.8831   1.2477 C.3            1 S1                 0.0000
     13 ****         2.9706   2.0307   0.4374 C.3            1 S1                 0.0000
     14 ****         2.8475   1.5048  -0.9923 C.3            1 S1                 0.0000
     15 ****         2.1341   0.1633  -0.7757 C.3            1 S1                 0.0000
     16 ****         2.7230  -0.2298   0.4536 O.3            1 S1                 0.0000
     17 ****        -4.2042  -2.9310   0.0501 H              1 S1                 0.0000
     18 ****        -5.3280  -0.7054   0.2398 H              1 S1                 0.0000
     19 ****        -3.9244   1.3653   0.0635 H              1 S1                 0.0000
     20 ****         0.3692  -1.7210  -0.5505 H              1 S1                 0.0000
     21 ****         0.2279   1.1671  -0.9728 H              1 S1                 0.0000
     22 ****         0.3498   1.7806   1.3006 H              1 S1                 0.0000
     23 ****         0.4128   0.0867   1.7907 H              1 S1                 0.0000
     24 ****         2.6978   0.8331   2.2805 H              1 S1                 0.0000
     25 ****         2.4442   2.9734   0.5897 H              1 S1                 0.0000
     26 ****         4.0185   2.1762   0.7023 H              1 S1                 0.0000
     27 ****         2.2884   2.1759  -1.6449 H              1 S1                 0.0000
     28 ****         3.8352   1.3499  -1.4279 H              1 S1                 0.0000
     29 ****         2.2757  -0.5422  -1.5954 H              1 S1                 0.0000
     30 ****        -0.6039  -5.2861  -0.4891 LP             1 S1                 0.0000
     31 ****        -1.6148   1.2084  -0.2699 LP             1 S1                 0.0000
     32 ****         2.3327  -1.0830   0.7997 LP             1 S1                 0.0000
     33 ****         3.7159  -0.3232   0.3800 LP             1 S1                 0.0000
@<TRIPOS>BOND
    1    1    2 3     
    2    2    3 1     
    3    3    8 ar    
    4    3    4 ar    
    5    4    5 ar    
    6    4   17 1     
    7    5    6 ar    
    8    5   18 1     
    9    6    7 ar    
   10    6   19 1     
   11    7    8 ar    
   12    8    9 1     
   13    9   10 1     
   14    9   20 1     
   15   10   15 1     
   16   10   11 1     
   17   10   21 1     
   18   11   12 1     
   19   11   22 1     
   20   11   23 1     
   21   12   16 1     
   22   12   13 1     
   23   12   24 1     
   24   13   14 1     
   25   13   25 1     
   26   13   26 1     
   27   14   15 1     
   28   14   27 1     
   29   14   28 1     
   30   15   16 1     
   31   15   29 1     
   32    1   30 1     
   33    7   31 1     
   34   16   32 1     
   35   16   33 1     
@<TRIPOS>SUBSTRUCTURE
      1 S1             1
@<TRIPOS>SET
LONE_PAIRS      STATIC     ATOMS    <user>   **** ""
4 30 31 32 33
DONOR_HYDROGENS      STATIC     ATOMS    <user>   **** ""
1 20
ATOM$BLUE        STATIC     ATOMS    COLORGROUP SYSTEM
4 30 31 32 33
ATOM$RED        STATIC     ATOMS    COLORGROUP SYSTEM
1 20
