#       Name:                AV-unprocessed.smi:1385
#       Creating user name   scv26
#       Creation time:       Fri Mar 27 05:24:27 2020


#       File generated by GOLD software.
#

@<TRIPOS>MOLECULE
AV-unprocessed.smi:1385
    45    46     1
SMALL
NO_CHARGES


@<TRIPOS>ATOM
      1 ****        -7.5339   3.0977   0.8775 C.3            1 S1                 0.0000
      2 ****        -6.1067   2.6708   0.8303 C.2            1 S1                 0.0000
      3 ****        -5.0893   3.5405   0.8438 N.2            1 S1                 0.0000
      4 ****        -3.8551   2.9068   0.7997 N.2            1 S1                 0.0000
      5 ****        -3.9795   1.5732   0.7550 C.2            1 S1                 0.0000
      6 ****        -2.8781   0.6784   0.7064 N.am           1 S1                 0.0000
      7 ****        -1.5661   0.9719   0.6853 C.2            1 S1                 0.0000
      8 ****        -1.0899   2.1072   0.7046 O.2            1 S1                 0.0000
      9 ****        -0.8206  -0.1417   0.6367 N.am           1 S1                 0.0000
     10 ****         0.6386  -0.1750   0.5994 C.3            1 S1                 0.0000
     11 ****         1.1580   0.0456  -0.8308 C.3            1 S1                 0.0000
     12 ****         2.6860  -0.1237  -0.9033 C.3            1 S1                 0.0000
     13 ****         3.0837  -1.4564  -0.4248 N.3            1 S1                 0.0000
     14 ****         4.5433  -1.6860  -0.5375 C.3            1 S1                 0.0000
     15 ****         5.0929  -1.6406  -1.9681 C.2            1 S1                 0.0000
     16 ****         4.5687  -2.4973  -2.8484 N.am           1 S1                 0.0000
     17 ****         5.9823  -0.8481  -2.2701 O.2            1 S1                 0.0000
     18 ****         2.6754  -1.6353   0.9725 C.3            1 S1                 0.0000
     19 ****         1.1462  -1.5312   1.1082 C.3            1 S1                 0.0000
     20 ****        -5.6309   0.9785   0.7622 S.3            1 S1                 0.0000
     21 ****        -7.6359   4.1311   0.5449 H              1 S1                 0.0000
     22 ****        -7.9111   3.0182   1.8971 H              1 S1                 0.0000
     23 ****        -8.1377   2.4623   0.2293 H              1 S1                 0.0000
     24 ****        -3.1183  -0.3017   0.6833 H              1 S1                 0.0000
     25 ****        -1.2954  -1.0325   0.6226 H              1 S1                 0.0000
     26 ****         1.0351   0.6069   1.2503 H              1 S1                 0.0000
     27 ****         0.6836  -0.6613  -1.5133 H              1 S1                 0.0000
     28 ****         0.8841   1.0418  -1.1804 H              1 S1                 0.0000
     29 ****         2.9918   0.0271  -1.9385 H              1 S1                 0.0000
     30 ****         3.1800   0.6503  -0.3133 H              1 S1                 0.0000
     31 ****         5.0789  -0.9540   0.0703 H              1 S1                 0.0000
     32 ****         4.7901  -2.6669  -0.1286 H              1 S1                 0.0000
     33 ****         4.9067  -2.5081  -3.7997 H              1 S1                 0.0000
     34 ****         3.8431  -3.1358  -2.5564 H              1 S1                 0.0000
     35 ****         2.9932  -2.6163   1.3286 H              1 S1                 0.0000
     36 ****         3.1626  -0.8945   1.6094 H              1 S1                 0.0000
     37 ****         0.8596  -1.6702   2.1512 H              1 S1                 0.0000
     38 ****         0.6773  -2.3415   0.5476 H              1 S1                 0.0000
     39 ****        -5.2051   4.5330   0.8814 LP             1 S1                 0.0000
     40 ****        -2.9783   3.3877   0.8011 LP             1 S1                 0.0000
     41 ****        -1.6949   2.9026   0.7387 LP             1 S1                 0.0000
     42 ****        -0.0981   2.2337   0.6862 LP             1 S1                 0.0000
     43 ****         2.6213  -2.1234  -1.0091 LP             1 S1                 0.0000
     44 ****         6.3532  -0.2263  -1.5804 LP             1 S1                 0.0000
     45 ****         6.3350  -0.8251  -3.2055 LP             1 S1                 0.0000
@<TRIPOS>BOND
    1    1    2 1     
    2    1   21 1     
    3    1   22 1     
    4    1   23 1     
    5    2   20 1     
    6    2    3 2     
    7    3    4 1     
    8    4    5 2     
    9    5    6 1     
   10    5   20 1     
   11    6    7 am    
   12    6   24 1     
   13    7    8 2     
   14    7    9 am    
   15    9   10 1     
   16    9   25 1     
   17   10   19 1     
   18   10   11 1     
   19   10   26 1     
   20   11   12 1     
   21   11   27 1     
   22   11   28 1     
   23   12   13 1     
   24   12   29 1     
   25   12   30 1     
   26   13   14 1     
   27   13   18 1     
   28   14   15 1     
   29   14   31 1     
   30   14   32 1     
   31   15   16 am    
   32   15   17 2     
   33   16   33 1     
   34   16   34 1     
   35   18   19 1     
   36   18   35 1     
   37   18   36 1     
   38   19   37 1     
   39   19   38 1     
   40    3   39 1     
   41    4   40 1     
   42    8   41 1     
   43    8   42 1     
   44   13   43 1     
   45   17   44 1     
   46   17   45 1     
@<TRIPOS>SUBSTRUCTURE
      1 S1             1
@<TRIPOS>SET
LONE_PAIRS      STATIC     ATOMS    <user>   **** ""
7 39 40 41 42 43 44 45
DONOR_HYDROGENS      STATIC     ATOMS    <user>   **** ""
4 24 25 33 34
ATOM$BLUE        STATIC     ATOMS    COLORGROUP SYSTEM
7 39 40 41 42 43 44 45
ATOM$RED        STATIC     ATOMS    COLORGROUP SYSTEM
4 24 25 33 34
