AV-unprocessed.smi:3193|AV-procd|sdf|12203|dock2
  -GOLD-   2272018 33D 1   1.00000     0.00000
 Structure written by MMmdl.
 40 41  0  0  0  0  0  0  0  0  2 V2000
  152.6769  142.7478  158.9848 C   0  0  0  0  0  0  0  0  0  0  0  0
  151.8042  143.7982  158.2674 C   0  0  2  0  0  0  0  0  0  0  0  0
  152.1876  145.2348  158.6829 C   0  0  0  0  0  0  0  0  0  0  0  0
  151.7228  145.5763  160.1088 C   0  0  0  0  0  0  0  0  0  0  0  0
  150.2135  145.3453  160.2706 C   0  0  0  0  0  0  0  0  0  0  0  0
  149.8164  143.9153  159.8707 C   0  0  0  0  0  0  0  0  0  0  0  0
  150.2764  143.5782  158.4340 C   0  0  2  0  0  0  0  0  0  0  0  0
  149.8262  142.1717  157.9900 C   0  0  0  0  0  0  0  0  0  0  0  0
  149.5096  142.1313  156.5483 N   0  3  0  0  0  0  0  0  0  0  0  0
  150.5361  141.4593  155.7259 C   0  0  0  0  0  0  0  0  0  0  0  0
  150.0053  140.1558  155.1090 C   0  0  0  0  0  0  0  0  0  0  0  0
  151.0615  139.1879  154.8790 N   0  0  0  0  0  0  0  0  0  0  0  0
  152.3754  139.2590  155.3233 C   0  0  0  0  0  0  0  0  0  0  0  0
  153.0077  138.1259  154.8634 C   0  0  0  0  0  0  0  0  0  0  0  0
  152.1060  137.3465  154.1425 N   0  0  0  0  0  0  0  0  0  0  0  0
  150.9741  138.0354  154.2004 C   0  0  0  0  0  0  0  0  0  0  0  0
  152.4895  142.7192  160.0578 H   0  0  0  0  0  0  0  0  0  0  0  0
  153.7365  142.9628  158.8446 H   0  0  0  0  0  0  0  0  0  0  0  0
  152.5045  141.7463  158.5910 H   0  0  0  0  0  0  0  0  0  0  0  0
  152.0325  143.7077  157.2045 H   0  0  0  0  0  0  0  0  0  0  0  0
  153.2655  145.3787  158.5990 H   0  0  0  0  0  0  0  0  0  0  0  0
  151.7366  145.9419  157.9855 H   0  0  0  0  0  0  0  0  0  0  0  0
  152.2675  144.9713  160.8340 H   0  0  0  0  0  0  0  0  0  0  0  0
  151.9642  146.6148  160.3372 H   0  0  0  0  0  0  0  0  0  0  0  0
  149.9163  145.5397  161.3016 H   0  0  0  0  0  0  0  0  0  0  0  0
  149.6682  146.0600  159.6534 H   0  0  0  0  0  0  0  0  0  0  0  0
  150.2416  143.2049  160.5801 H   0  0  0  0  0  0  0  0  0  0  0  0
  148.7339  143.8146  159.9537 H   0  0  0  0  0  0  0  0  0  0  0  0
  149.7908  144.2914  157.7652 H   0  0  0  0  0  0  0  0  0  0  0  0
  150.6201  141.4499  158.1868 H   0  0  0  0  0  0  0  0  0  0  0  0
  148.9522  141.8513  158.5584 H   0  0  0  0  0  0  0  0  0  0  0  0
  148.6307  141.6490  156.4263 H   0  0  0  0  0  0  0  0  0  0  0  0
  150.8751  142.1367  154.9410 H   0  0  0  0  0  0  0  0  0  0  0  0
  151.4017  141.2387  156.3518 H   0  0  0  0  0  0  0  0  0  0  0  0
  149.2691  139.7026  155.7740 H   0  0  0  0  0  0  0  0  0  0  0  0
  149.4946  140.3569  154.1662 H   0  0  0  0  0  0  0  0  0  0  0  0
  152.7434  140.0865  155.9121 H   0  0  0  0  0  0  0  0  0  0  0  0
  154.0330  137.8129  154.9961 H   0  0  0  0  0  0  0  0  0  0  0  0
  150.0618  137.6959  153.7318 H   0  0  0  0  0  0  0  0  0  0  0  0
  149.4061  143.0802  156.2173 H   0  0  0  0  0  0  0  0  0  0  0  0
  1  2  1  0  0  0  0
  1 17  1  0  0  0  0
  1 18  1  0  0  0  0
  1 19  1  0  0  0  0
  2  7  1  0  0  0  0
  2  3  1  0  0  0  0
  2 20  1  0  0  0  0
  3  4  1  0  0  0  0
  3 21  1  0  0  0  0
  3 22  1  0  0  0  0
  4  5  1  0  0  0  0
  4 23  1  0  0  0  0
  4 24  1  0  0  0  0
  5  6  1  0  0  0  0
  5 25  1  0  0  0  0
  5 26  1  0  0  0  0
  6  7  1  0  0  0  0
  6 27  1  0  0  0  0
  6 28  1  0  0  0  0
  7  8  1  0  0  0  0
  7 29  1  0  0  0  0
  8  9  1  0  0  0  0
  8 30  1  0  0  0  0
  8 31  1  0  0  0  0
  9 10  1  0  0  0  0
  9 32  1  0  0  0  0
  9 40  1  0  0  0  0
 10 11  1  0  0  0  0
 10 33  1  0  0  0  0
 10 34  1  0  0  0  0
 11 12  1  0  0  0  0
 11 35  1  0  0  0  0
 11 36  1  0  0  0  0
 12 16  1  0  0  0  0
 12 13  1  0  0  0  0
 13 14  2  0  0  0  0
 13 37  1  0  0  0  0
 14 15  1  0  0  0  0
 14 38  1  0  0  0  0
 15 16  2  0  0  0  0
 16 39  1  0  0  0  0
M  CHG  1   9   1
M  END
> <s_m_source_file>
AV-unprocessed.smi

> <i_m_source_file_index>
3193

> <i_lp_mmshare_version>
43012

> <i_f3d_flags>
0

> <s_epik_input>
W0NIM11bQ0BASF0xW0NIMl1bQ0gyXVtDSDJdW0NIMl1bQ0BIXTFbQ0gyXVtOSF1bQ0gyXVtDSDJdbjJbY0hdW2NIXW5bY0hdMg==

> <s_epik_cmdline>
J2VwaWtfcHl0aG9uJywgJy1waCcsICc3LjAnLCAnLXRuJywgJzgnLCAnLW1hJywgJzIwMCcsICctbWV0YWxfYmluZGluZycsICctaW1hZScsICc8aW5maWxlLm1hZT4nLCAnLW9tYWUnLCAnPG91dGZpbGUubWFlPic=

> <r_lp_tautomer_probability>
1

> <r_epik_Ionization_Penalty>
0.0503046

> <r_epik_Ionization_Penalty_Charging>
0.0503046

> <r_epik_Ionization_Penalty_Neutral>
0

> <r_epik_State_Penalty>
0.0981804

> <r_epik_Charging_Adjusted_Penalty>
0.148485

> <i_epik_Tot_Q>
1

> <i_epik_Tot_abs_Q>
1

> <r_epik_Metal_State_Penalty>
0.000105854

> <b_epik_Metal_Only>
0

> <s_lp_Force_Field>
OPLS_2005

> <r_lp_Energy>
20.9297

> <b_lp_Chiralities_Consistent>
1

> <s_lp_Variant>
AV-unprocessed.smi:3193-3

> <Gold.Version>
5.8.1

> <Gold.Id.Protein>
6NUR|6NUR_protein|mol2

> <Gold.PLP.Fitness>
47.7551

> <Gold.PLP.PLP>
-38.7283

> <Gold.PLP.part.hbond>
-2.0000

> <Gold.PLP.part.metal>
0.0000

> <Gold.PLP.part.buried>
-0.7696

> <Gold.PLP.part.nonpolar>
-37.1487

> <Gold.PLP.part.repulsive>
0.6971

> <Gold.PLP.ligand.clash>
0.0000

> <Gold.PLP.ligand.torsion>
1.3395

> <Gold.PLP.Chemscore.Hbond>
2.9440

> <Gold.PLP.Chemscore.CHOScore>
0.9405

> <Gold.PLP.Chemscore.Metal>
0.0000

> <Gold.Chemscore.Hbonds>
donor molecule, donor type, donor heavy atom, donor atom, acceptor molecule, acceptor atom, score
      L1  H     9    40       P1  8028  2.00
      P1  H 10752 10765       L1    15  0.91
      L1  C    16    39       P1  7948  0.87

> <Gold.PLP.Chemscore.Internal.Correction>
0.0523

> <Gold.Rescore>
     Score         DG    S(hbond)    S(metal)    S(lipo)     H(rot)  DE(clash)    DE(int)     intcor
     17.30     -19.02       1.67        0.00     109.50       1.89       0.36       1.37       ----

> <Gold.Chemscore.Fitness>
17.2976

> <Gold.Chemscore.DG>
-19.0193

> <Gold.Chemscore.ZeroCoef>
-5.4800

> <Gold.Chemscore.Hbond>
1.6660

> <Gold.Chemscore.Metal>
0.0000

> <Gold.Chemscore.Lipo>
109.5033

> <Gold.Chemscore.Internal_Hbond>
0.0000

> <Gold.Chemscore.DEClash>
0.3560

> <Gold.Chemscore.DEInternal>
1.3657

> <Gold.Chemscore.Rot>
1.8895

> <Gold.Chemscore.Internal.Correction>
   9.000000E+99

> <Gold.Chemscore.Hbonds>
donor molecule, donor type, donor heavy atom, donor atom, acceptor molecule, acceptor atom, score
      L1  H     9    40       P1  8028  1.00
      P1  H 10752 10765       L1    15  0.27

> <Gold.Chemscore.Hbond.Weighted>
-5.5645

> <Gold.Chemscore.Metal.Weighted>
-0.0000

> <Gold.Chemscore.Lipo.Weighted>
-12.8119

> <Gold.Chemscore.Internal_Hbond.Weighted>
0.0000

> <Gold.Chemscore.DEClash.Weighted>
0.3560

> <Gold.Chemscore.DEInternal.Weighted>
1.3657

> <Gold.Chemscore.Rot.Weighted>
4.8371

> <Gold.Chemscore.Internal.Correction.Weighted>
   9.000000E+99

> <Gold.Protein.RotatedTorsions>
[ 6907 6896 6895 6894 ] final  -48.77 input  -60.11 | X-H torsion
[ 7974 7965 7964 7962 ] final  -37.40 input  175.53 | X-H torsion
[ 8008 7997 7996 7995 ] final  -33.04 input   59.86 | X-H torsion
[ 10167 10162 10161 10158 ] final  153.35 input  -65.29 | X-H torsion
[ 10718 10713 10712 10709 ] final  -86.65 input   66.30 | X-H torsion
[ 10763 10752 10751 10750 ] final  149.71 input  -60.55 | X-H torsion
[ 11005 11000 10999 10996 ] final  -17.89 input  -57.11 | X-H torsion

> <Gold.Protein.ActiveResidues>
 VAL166  LYS551  ARG553  GLY616  TRP617  ASP618  TYR619  PRO620  LYS621  CYS622 
 ASP623  PHE694  ASN695  SER759  ASP760  ASP761  ALA762  ILE779  LEU786  VAL792 
 PHE793  MET794  SER795  GLU796  ALA797  LYS798  CYS799  TRP800  GLU811  SER814 

> <Gold.Protein.RotatedAtoms>
  150.8872  134.8271  159.7267 H   0  0  0  0  0  0  0  0  0  0  0  0  # atno 6907 bound_to 6896
  152.4815  134.4704  159.9643 H   0  0  0  0  0  0  0  0  0  0  0  0  # atno 6908 bound_to 6896
  151.4771  133.3516  159.2868 H   0  0  0  0  0  0  0  0  0  0  0  0  # atno 6909 bound_to 6896
  146.0578  140.6391  142.9011 H   0  0  0  0  0  0  0  0  0  0  0  0  # atno 7974 bound_to 7965
  154.4161  140.1721  156.1825 H   0  0  0  0  0  0  0  0  0  0  0  0  # atno 8008 bound_to 7997
  155.9671  140.3389  155.6518 H   0  0  0  0  0  0  0  0  0  0  0  0  # atno 8009 bound_to 7997
  155.6674  140.0708  157.2523 H   0  0  0  0  0  0  0  0  0  0  0  0  # atno 8010 bound_to 7997
  139.4827  144.5280  151.7769 H   0  0  0  0  0  0  0  0  0  0  0  0  # atno 10167 bound_to 10162
  155.9989  130.4772  150.4747 H   0  0  0  0  0  0  0  0  0  0  0  0  # atno 10718 bound_to 10713
  154.0756  135.2863  155.3300 H   0  0  0  0  0  0  0  0  0  0  0  0  # atno 10763 bound_to 10752
  154.6718  135.5296  153.8151 H   0  0  0  0  0  0  0  0  0  0  0  0  # atno 10764 bound_to 10752
  153.0468  135.6559  154.0934 H   0  0  0  0  0  0  0  0  0  0  0  0  # atno 10765 bound_to 10752
  140.8213  133.8066  155.9662 H   0  0  0  0  0  0  0  0  0  0  0  0  # atno 11005 bound_to 11000
  144.7158  140.4203  143.7046 LP  0  0  0  0  0  0  0  0  0  0  0  0  # atno 17320 bound_to 7965
  145.6613  139.1582  143.2807 LP  0  0  0  0  0  0  0  0  0  0  0  0  # atno 17321 bound_to 7965
  140.4802  144.1460  150.5931 LP  0  0  0  0  0  0  0  0  0  0  0  0  # atno 17342 bound_to 10162
  140.4286  143.2578  151.9625 LP  0  0  0  0  0  0  0  0  0  0  0  0  # atno 17343 bound_to 10162
  157.2758  131.0596  151.2230 LP  0  0  0  0  0  0  0  0  0  0  0  0  # atno 17370 bound_to 10713
  157.3294  130.6977  149.6315 LP  0  0  0  0  0  0  0  0  0  0  0  0  # atno 17371 bound_to 10713
  140.9096  134.2277  157.4994 LP  0  0  0  0  0  0  0  0  0  0  0  0  # atno 17394 bound_to 11000
  139.8708  134.9744  156.4844 LP  0  0  0  0  0  0  0  0  0  0  0  0  # atno 17395 bound_to 11000

$$$$
