AV-unprocessed.smi:1755|AV-procd|sdf|7070|dock1
  -GOLD-   22720 8293D 1   1.00000     0.00000
 Structure written by MMmdl.
 46 47  0  0  0  0  0  0  0  0  2 V2000
  149.7617  129.8454  154.1915 C   0  0  0  0  0  0  0  0  0  0  0  0
  149.6616  131.3261  154.4108 C   0  0  0  0  0  0  0  0  0  0  0  0
  148.8211  132.2581  153.7355 C   0  0  0  0  0  0  0  0  0  0  0  0
  149.1437  133.4445  154.3361 C   0  0  0  0  0  0  0  0  0  0  0  0
  148.6443  134.6867  154.0992 N   0  0  0  0  0  0  0  0  0  0  0  0
  148.0572  135.5334  154.9629 C   0  0  0  0  0  0  0  0  0  0  0  0
  147.8199  135.2949  156.1468 O   0  0  0  0  0  0  0  0  0  0  0  0
  147.7536  136.6969  154.3695 N   0  0  0  0  0  0  0  0  0  0  0  0
  147.1043  137.8362  155.0183 C   0  0  0  0  0  0  0  0  0  0  0  0
  145.8147  138.3199  154.2815 C   0  0  0  0  0  0  0  0  0  0  0  0
  146.1967  139.2928  153.1952 N   0  3  0  0  0  0  0  0  0  0  0  0
  146.8073  138.7182  151.9700 C   0  0  0  0  0  0  0  0  0  0  0  0
  146.9795  140.4619  153.6709 C   0  0  0  0  0  0  0  0  0  0  0  0
  145.0266  137.1026  153.7518 C   0  0  0  0  0  0  0  0  0  0  0  0
  144.2617  136.5298  154.9548 C   0  0  0  0  0  0  0  0  0  0  0  0
  144.1764  137.6607  155.9891 C   0  0  0  0  0  0  0  0  0  0  0  0
  144.7991  138.8844  155.3094 C   0  0  0  0  0  0  0  0  0  0  0  0
  150.1043  133.2110  155.2948 N   0  0  0  0  0  0  0  0  0  0  0  0
  150.7586  134.1451  156.1900 C   0  0  0  0  0  0  0  0  0  0  0  0
  150.4226  131.8994  155.3364 N   0  0  0  0  0  0  0  0  0  0  0  0
  149.0742  129.5151  153.4125 H   0  0  0  0  0  0  0  0  0  0  0  0
  149.5191  129.2966  155.1017 H   0  0  0  0  0  0  0  0  0  0  0  0
  150.7691  129.5604  153.8869 H   0  0  0  0  0  0  0  0  0  0  0  0
  148.1081  132.0654  152.9481 H   0  0  0  0  0  0  0  0  0  0  0  0
  148.7454  135.0144  153.1501 H   0  0  0  0  0  0  0  0  0  0  0  0
  147.9684  136.7949  153.3880 H   0  0  0  0  0  0  0  0  0  0  0  0
  146.8625  137.5210  156.0327 H   0  0  0  0  0  0  0  0  0  0  0  0
  147.8179  138.6493  155.1553 H   0  0  0  0  0  0  0  0  0  0  0  0
  147.6954  138.1292  152.2008 H   0  0  0  0  0  0  0  0  0  0  0  0
  147.1036  139.5078  151.2788 H   0  0  0  0  0  0  0  0  0  0  0  0
  146.0970  138.0944  151.4278 H   0  0  0  0  0  0  0  0  0  0  0  0
  147.9859  140.1707  153.9728 H   0  0  0  0  0  0  0  0  0  0  0  0
  146.5020  140.9640  154.5108 H   0  0  0  0  0  0  0  0  0  0  0  0
  147.0746  141.2027  152.8764 H   0  0  0  0  0  0  0  0  0  0  0  0
  144.3010  137.4197  153.0019 H   0  0  0  0  0  0  0  0  0  0  0  0
  145.6632  136.3529  153.2805 H   0  0  0  0  0  0  0  0  0  0  0  0
  143.2730  136.1772  154.6590 H   0  0  0  0  0  0  0  0  0  0  0  0
  144.7964  135.6787  155.3782 H   0  0  0  0  0  0  0  0  0  0  0  0
  143.1496  137.8531  156.3022 H   0  0  0  0  0  0  0  0  0  0  0  0
  144.7414  137.3949  156.8835 H   0  0  0  0  0  0  0  0  0  0  0  0
  145.2330  139.5863  156.0201 H   0  0  0  0  0  0  0  0  0  0  0  0
  143.9715  139.4008  154.8259 H   0  0  0  0  0  0  0  0  0  0  0  0
  150.0083  134.6935  156.7605 H   0  0  0  0  0  0  0  0  0  0  0  0
  151.3528  134.8516  155.6096 H   0  0  0  0  0  0  0  0  0  0  0  0
  151.4140  133.6172  156.8846 H   0  0  0  0  0  0  0  0  0  0  0  0
  145.3169  139.6739  152.8779 H   0  0  0  0  0  0  0  0  0  0  0  0
  1  2  1  0  0  0  0
  1 21  1  0  0  0  0
  1 22  1  0  0  0  0
  1 23  1  0  0  0  0
  2 20  2  0  0  0  0
  2  3  1  0  0  0  0
  3  4  2  0  0  0  0
  3 24  1  0  0  0  0
  4  5  1  0  0  0  0
  4 18  1  0  0  0  0
  5  6  1  0  0  0  0
  5 25  1  0  0  0  0
  6  7  2  0  0  0  0
  6  8  1  0  0  0  0
  8  9  1  0  0  0  0
  8 26  1  0  0  0  0
  9 10  1  0  0  0  0
  9 27  1  0  0  0  0
  9 28  1  0  0  0  0
 10 17  1  0  0  0  0
 10 11  1  0  0  0  0
 10 14  1  0  0  0  0
 11 12  1  0  0  0  0
 11 13  1  0  0  0  0
 11 46  1  0  0  0  0
 12 29  1  0  0  0  0
 12 30  1  0  0  0  0
 12 31  1  0  0  0  0
 13 32  1  0  0  0  0
 13 33  1  0  0  0  0
 13 34  1  0  0  0  0
 14 15  1  0  0  0  0
 14 35  1  0  0  0  0
 14 36  1  0  0  0  0
 15 16  1  0  0  0  0
 15 37  1  0  0  0  0
 15 38  1  0  0  0  0
 16 17  1  0  0  0  0
 16 39  1  0  0  0  0
 16 40  1  0  0  0  0
 17 41  1  0  0  0  0
 17 42  1  0  0  0  0
 18 19  1  0  0  0  0
 18 20  1  0  0  0  0
 19 43  1  0  0  0  0
 19 44  1  0  0  0  0
 19 45  1  0  0  0  0
M  CHG  1  11   1
M  END
> <s_m_source_file>
AV-unprocessed.smi

> <i_m_source_file_index>
1755

> <i_lp_mmshare_version>
43012

> <i_f3d_flags>
0

> <s_epik_input>
W0NIM11jMVtjSF1jKG4objEpW0NIM10pW05IXUMoPU8pW05IXVtDSDJdQzIoTihbQ0gzXSlbQ0gzXSlbQ0gyXVtDSDJdW0NIMl1bQ0gyXTI=

> <s_epik_cmdline>
J2VwaWtfcHl0aG9uJywgJy1waCcsICc3LjAnLCAnLXRuJywgJzgnLCAnLW1hJywgJzIwMCcsICctbWV0YWxfYmluZGluZycsICctaW1hZScsICc8aW5maWxlLm1hZT4nLCAnLW9tYWUnLCAnPG91dGZpbGUubWFlPic=

> <r_lp_tautomer_probability>
1

> <r_epik_Ionization_Penalty>
0.00248705

> <r_epik_Ionization_Penalty_Charging>
0.00240703

> <r_epik_Ionization_Penalty_Neutral>
8.00151e-05

> <r_epik_State_Penalty>
0.00166499

> <r_epik_Charging_Adjusted_Penalty>
0.00407202

> <i_epik_Tot_Q>
1

> <i_epik_Tot_abs_Q>
1

> <r_epik_Metal_State_Penalty>
-0

> <b_epik_Metal_Only>
0

> <s_lp_Force_Field>
OPLS_2005

> <r_lp_Energy>
45.253

> <b_lp_Chiralities_Consistent>
1

> <s_lp_Variant>
AV-unprocessed.smi:1755-1

> <Gold.Version>
5.8.1

> <Gold.Id.Protein>
6NUR|6NUR_protein|mol2

> <Gold.PLP.Fitness>
36.1135

> <Gold.PLP.PLP>
-26.3379

> <Gold.PLP.part.hbond>
-3.0000

> <Gold.PLP.part.metal>
0.0000

> <Gold.PLP.part.buried>
-3.2928

> <Gold.PLP.part.nonpolar>
-20.6179

> <Gold.PLP.part.repulsive>
0.0233

> <Gold.PLP.ligand.clash>
0.0000

> <Gold.PLP.ligand.torsion>
1.1874

> <Gold.PLP.Chemscore.Hbond>
3.9920

> <Gold.PLP.Chemscore.CHOScore>
0.0000

> <Gold.PLP.Chemscore.Metal>
0.0000

> <Gold.Chemscore.Hbonds>
donor molecule, donor type, donor heavy atom, donor atom, acceptor molecule, acceptor atom, score
      L1  H     5    25       P1  7948  1.00
      L1  H     8    26       P1  7948  0.99
      L1  H    11    46       P1 10175  2.00

> <Gold.PLP.Chemscore.Internal.Correction>
0.1745

> <Gold.Rescore>
     Score         DG    S(hbond)    S(metal)    S(lipo)     H(rot)  DE(clash)    DE(int)     intcor
     14.89     -15.82       2.65        0.00      45.25       1.49       0.02       0.90       ----

> <Gold.Chemscore.Fitness>
14.8897

> <Gold.Chemscore.DG>
-15.8161

> <Gold.Chemscore.ZeroCoef>
-5.4800

> <Gold.Chemscore.Hbond>
2.6479

> <Gold.Chemscore.Metal>
0.0000

> <Gold.Chemscore.Lipo>
45.2457

> <Gold.Chemscore.Internal_Hbond>
0.0000

> <Gold.Chemscore.DEClash>
0.0234

> <Gold.Chemscore.DEInternal>
0.9030

> <Gold.Chemscore.Rot>
1.4851

> <Gold.Chemscore.Internal.Correction>
   9.000000E+99

> <Gold.Chemscore.Hbonds>
donor molecule, donor type, donor heavy atom, donor atom, acceptor molecule, acceptor atom, score
      L1  H     5    25       P1  7948  0.44
      L1  H     8    26       P1  7948  0.93
      L1  H    11    46       P1 10175  1.00

> <Gold.Chemscore.Hbond.Weighted>
-8.8441

> <Gold.Chemscore.Metal.Weighted>
-0.0000

> <Gold.Chemscore.Lipo.Weighted>
-5.2937

> <Gold.Chemscore.Internal_Hbond.Weighted>
0.0000

> <Gold.Chemscore.DEClash.Weighted>
0.0234

> <Gold.Chemscore.DEInternal.Weighted>
0.9030

> <Gold.Chemscore.Rot.Weighted>
3.8018

> <Gold.Chemscore.Internal.Correction.Weighted>
   9.000000E+99

> <Gold.Protein.RotatedTorsions>
[ 6907 6896 6895 6894 ] final  -79.44 input  -60.11 | X-H torsion
[ 7974 7965 7964 7962 ] final -123.27 input  175.53 | X-H torsion
[ 8008 7997 7996 7995 ] final  -64.38 input   59.86 | X-H torsion
[ 10167 10162 10161 10158 ] final   61.07 input  -65.29 | X-H torsion
[ 10718 10713 10712 10709 ] final -141.61 input   66.30 | X-H torsion
[ 10763 10752 10751 10750 ] final   85.55 input  -60.55 | X-H torsion
[ 11005 11000 10999 10996 ] final -154.95 input  -57.11 | X-H torsion

> <Gold.Protein.ActiveResidues>
 VAL166  LYS551  ARG553  GLY616  TRP617  ASP618  TYR619  PRO620  LYS621  CYS622 
 ASP623  PHE694  ASN695  SER759  ASP760  ASP761  ALA762  ILE779  LEU786  VAL792 
 PHE793  MET794  SER795  GLU796  ALA797  LYS798  CYS799  TRP800  GLU811  SER814 

> <Gold.Protein.RotatedAtoms>
  150.6950  134.4120  159.5165 H   0  0  0  0  0  0  0  0  0  0  0  0  # atno 6907 bound_to 6896
  152.1877  134.8696  160.0529 H   0  0  0  0  0  0  0  0  0  0  0  0  # atno 6908 bound_to 6896
  151.9663  133.3676  159.4091 H   0  0  0  0  0  0  0  0  0  0  0  0  # atno 6909 bound_to 6896
  145.0205  140.7984  143.4384 H   0  0  0  0  0  0  0  0  0  0  0  0  # atno 7974 bound_to 7965
  154.4608  140.0955  156.6888 H   0  0  0  0  0  0  0  0  0  0  0  0  # atno 8008 bound_to 7997
  155.5000  140.3473  155.4351 H   0  0  0  0  0  0  0  0  0  0  0  0  # atno 8009 bound_to 7997
  156.0867  140.1386  156.9633 H   0  0  0  0  0  0  0  0  0  0  0  0  # atno 8010 bound_to 7997
  140.1588  144.4391  150.6720 H   0  0  0  0  0  0  0  0  0  0  0  0  # atno 10167 bound_to 10162
  156.3361  130.7612  151.1739 H   0  0  0  0  0  0  0  0  0  0  0  0  # atno 10718 bound_to 10713
  153.1485  135.4613  154.9602 H   0  0  0  0  0  0  0  0  0  0  0  0  # atno 10763 bound_to 10752
  154.7806  135.3187  154.8000 H   0  0  0  0  0  0  0  0  0  0  0  0  # atno 10764 bound_to 10752
  153.8510  135.6921  153.4846 H   0  0  0  0  0  0  0  0  0  0  0  0  # atno 10765 bound_to 10752
  140.6917  134.4034  157.5218 H   0  0  0  0  0  0  0  0  0  0  0  0  # atno 11005 bound_to 11000
  145.1902  139.2305  143.5247 LP  0  0  0  0  0  0  0  0  0  0  0  0  # atno 17320 bound_to 7965
  146.3484  140.1696  142.8590 LP  0  0  0  0  0  0  0  0  0  0  0  0  # atno 17321 bound_to 7965
  140.6656  143.2267  151.5750 LP  0  0  0  0  0  0  0  0  0  0  0  0  # atno 17342 bound_to 10162
  139.5391  144.2698  152.1313 LP  0  0  0  0  0  0  0  0  0  0  0  0  # atno 17343 bound_to 10162
  157.7439  131.0468  150.4910 LP  0  0  0  0  0  0  0  0  0  0  0  0  # atno 17370 bound_to 10713
  156.5083  130.4133  149.6315 LP  0  0  0  0  0  0  0  0  0  0  0  0  # atno 17371 bound_to 10713
  139.8921  134.8762  156.2285 LP  0  0  0  0  0  0  0  0  0  0  0  0  # atno 17394 bound_to 11000
  141.0236  133.7028  156.1309 LP  0  0  0  0  0  0  0  0  0  0  0  0  # atno 17395 bound_to 11000

$$$$
