AV-unprocessed.smi:2996|AV-procd|sdf|11410|dock7
  -GOLD-   2272016333D 1   1.00000     0.00000
 Structure written by MMmdl.
 46 47  0  0  0  0  0  0  0  0  1 V2000
  148.7905  141.3126  154.4244 C   0  0  0  0  0  0  0  0  0  0  0  0
  149.0734  139.8147  154.2657 C   0  0  0  0  0  0  0  0  0  0  0  0
  150.4687  139.4552  154.6969 C   0  0  0  0  0  0  0  0  0  0  0  0
  151.2906  140.3935  155.1392 N   0  0  0  0  0  0  0  0  0  0  0  0
  152.5009  139.7486  155.4356 O   0  0  0  0  0  0  0  0  0  0  0  0
  152.3832  138.4219  155.1574 C   0  0  0  0  0  0  0  0  0  0  0  0
  153.6112  137.5969  155.3601 C   0  0  0  0  0  0  0  0  0  0  0  0
  151.1096  138.1886  154.7111 C   0  0  0  0  0  0  0  0  0  0  0  0
  150.5122  136.9828  154.2633 N   0  0  0  0  0  0  0  0  0  0  0  0
  150.6501  135.7587  154.7946 C   0  0  0  0  0  0  0  0  0  0  0  0
  151.3201  135.4926  155.7914 O   0  0  0  0  0  0  0  0  0  0  0  0
  149.9358  134.8519  154.1151 N   0  0  0  0  0  0  0  0  0  0  0  0
  149.8339  133.4341  154.4543 C   0  0  2  0  0  0  0  0  0  0  0  0
  148.9310  132.6939  153.4875 C   0  0  0  0  0  0  0  0  0  0  0  0
  148.4733  131.4761  154.2997 C   0  0  0  0  0  0  0  0  0  0  0  0
  147.0176  131.0881  153.9983 C   0  0  0  0  0  0  0  0  0  0  0  0
  149.4139  130.2737  154.1111 C   0  0  0  0  0  0  0  0  0  0  0  0
  148.5624  131.8738  155.6674 O   0  0  0  0  0  0  0  0  0  0  0  0
  149.1561  133.1628  155.8148 C   0  0  0  0  0  0  0  0  0  0  0  0
  150.1687  133.0847  156.9684 C   0  0  0  0  0  0  0  0  0  0  0  0
  148.0107  134.1377  156.1603 C   0  0  0  0  0  0  0  0  0  0  0  0
  147.7755  141.5521  154.1073 H   0  0  0  0  0  0  0  0  0  0  0  0
  149.4775  141.9076  153.8218 H   0  0  0  0  0  0  0  0  0  0  0  0
  148.8974  141.6265  155.4632 H   0  0  0  0  0  0  0  0  0  0  0  0
  148.3461  139.2460  154.8459 H   0  0  0  0  0  0  0  0  0  0  0  0
  148.9178  139.5258  153.2259 H   0  0  0  0  0  0  0  0  0  0  0  0
  153.6919  136.8237  154.5961 H   0  0  0  0  0  0  0  0  0  0  0  0
  153.5959  137.1139  156.3371 H   0  0  0  0  0  0  0  0  0  0  0  0
  154.5089  138.2132  155.3045 H   0  0  0  0  0  0  0  0  0  0  0  0
  149.8417  137.0762  153.5147 H   0  0  0  0  0  0  0  0  0  0  0  0
  149.4102  135.1646  153.3121 H   0  0  0  0  0  0  0  0  0  0  0  0
  150.8190  132.9639  154.4240 H   0  0  0  0  0  0  0  0  0  0  0  0
  148.0748  133.3177  153.2250 H   0  0  0  0  0  0  0  0  0  0  0  0
  149.4347  132.4258  152.5580 H   0  0  0  0  0  0  0  0  0  0  0  0
  146.8958  130.7953  152.9552 H   0  0  0  0  0  0  0  0  0  0  0  0
  146.3378  131.9182  154.1927 H   0  0  0  0  0  0  0  0  0  0  0  0
  146.6969  130.2510  154.6191 H   0  0  0  0  0  0  0  0  0  0  0  0
  149.4043  129.9241  153.0784 H   0  0  0  0  0  0  0  0  0  0  0  0
  149.1160  129.4388  154.7462 H   0  0  0  0  0  0  0  0  0  0  0  0
  150.4433  130.5267  154.3664 H   0  0  0  0  0  0  0  0  0  0  0  0
  150.6523  134.0469  157.1374 H   0  0  0  0  0  0  0  0  0  0  0  0
  150.9485  132.3517  156.7608 H   0  0  0  0  0  0  0  0  0  0  0  0
  149.6829  132.7911  157.8992 H   0  0  0  0  0  0  0  0  0  0  0  0
  148.3816  135.1478  156.3359 H   0  0  0  0  0  0  0  0  0  0  0  0
  147.4913  133.8216  157.0655 H   0  0  0  0  0  0  0  0  0  0  0  0
  147.2696  134.1887  155.3625 H   0  0  0  0  0  0  0  0  0  0  0  0
  1  2  1  0  0  0  0
  1 22  1  0  0  0  0
  1 23  1  0  0  0  0
  1 24  1  0  0  0  0
  2  3  1  0  0  0  0
  2 25  1  0  0  0  0
  2 26  1  0  0  0  0
  3  8  1  0  0  0  0
  3  4  2  0  0  0  0
  4  5  1  0  0  0  0
  5  6  1  0  0  0  0
  6  7  1  0  0  0  0
  6  8  2  0  0  0  0
  7 27  1  0  0  0  0
  7 28  1  0  0  0  0
  7 29  1  0  0  0  0
  8  9  1  0  0  0  0
  9 10  1  0  0  0  0
  9 30  1  0  0  0  0
 10 11  2  0  0  0  0
 10 12  1  0  0  0  0
 12 13  1  0  0  0  0
 12 31  1  0  0  0  0
 13 19  1  0  0  0  0
 13 14  1  0  0  0  0
 13 32  1  0  0  0  0
 14 15  1  0  0  0  0
 14 33  1  0  0  0  0
 14 34  1  0  0  0  0
 15 16  1  0  0  0  0
 15 17  1  0  0  0  0
 15 18  1  0  0  0  0
 16 35  1  0  0  0  0
 16 36  1  0  0  0  0
 16 37  1  0  0  0  0
 17 38  1  0  0  0  0
 17 39  1  0  0  0  0
 17 40  1  0  0  0  0
 18 19  1  0  0  0  0
 19 20  1  0  0  0  0
 19 21  1  0  0  0  0
 20 41  1  0  0  0  0
 20 42  1  0  0  0  0
 20 43  1  0  0  0  0
 21 44  1  0  0  0  0
 21 45  1  0  0  0  0
 21 46  1  0  0  0  0
M  END
> <s_m_source_file>
AV-unprocessed.smi

> <i_m_source_file_index>
2996

> <i_lp_mmshare_version>
43012

> <i_f3d_flags>
0

> <s_epik_input>
W0NIM11bQ0gyXWMxbm9jKFtDSDNdKWMxW05IXUMoPU8pW05IXVtDQEBIXShDKE8yKShbQ0gzXSlbQ0gzXSlbQ0gyXUMyKFtDSDNdKVtDSDNd

> <s_epik_cmdline>
J2VwaWtfcHl0aG9uJywgJy1waCcsICc3LjAnLCAnLXRuJywgJzgnLCAnLW1hJywgJzIwMCcsICctbWV0YWxfYmluZGluZycsICctaW1hZScsICc8aW5maWxlLm1hZT4nLCAnLW9tYWUnLCAnPG91dGZpbGUubWFlPic=

> <r_lp_tautomer_probability>
1

> <r_epik_Ionization_Penalty>
3.17207e-05

> <r_epik_Ionization_Penalty_Charging>
0

> <r_epik_Ionization_Penalty_Neutral>
3.17207e-05

> <r_epik_State_Penalty>
-0

> <r_epik_Charging_Adjusted_Penalty>
0

> <i_epik_Tot_Q>
0

> <i_epik_Tot_abs_Q>
0

> <r_epik_Metal_State_Penalty>
-0

> <b_epik_Metal_Only>
0

> <s_lp_Force_Field>
OPLS_2005

> <r_lp_Energy>
17.7476

> <b_lp_Chiralities_Consistent>
1

> <s_lp_Variant>
AV-unprocessed.smi:2996-1

> <Gold.Version>
5.8.1

> <Gold.Id.Protein>
6NUR|6NUR_protein|mol2

> <Gold.PLP.Fitness>
43.3927

> <Gold.PLP.PLP>
-31.5198

> <Gold.PLP.part.hbond>
-7.3648

> <Gold.PLP.part.metal>
0.0000

> <Gold.PLP.part.buried>
2.6937

> <Gold.PLP.part.nonpolar>
-29.1245

> <Gold.PLP.part.repulsive>
0.2115

> <Gold.PLP.ligand.clash>
0.0000

> <Gold.PLP.ligand.torsion>
0.3108

> <Gold.PLP.Chemscore.Hbond>
4.1123

> <Gold.PLP.Chemscore.CHOScore>
0.0000

> <Gold.PLP.Chemscore.Metal>
0.0000

> <Gold.Chemscore.Hbonds>
donor molecule, donor type, donor heavy atom, donor atom, acceptor molecule, acceptor atom, score
      L1  H     9    30       P1  7948  0.93
      L1  H    12    31       P1  7948  0.60
      P1  H  7989  7998       L1     4  0.52
      P1  H  7997  8008       L1     5  1.00
      P1  H 10752 10763       L1    11  1.00

> <Gold.PLP.Chemscore.Internal.Correction>
0.1574

> <Gold.Rescore>
     Score         DG    S(hbond)    S(metal)    S(lipo)     H(rot)  DE(clash)    DE(int)     intcor
     17.69     -20.85       2.67        0.00      80.55       1.16       2.10       1.06       ----

> <Gold.Chemscore.Fitness>
17.6878

> <Gold.Chemscore.DG>
-20.8473

> <Gold.Chemscore.ZeroCoef>
-5.4800

> <Gold.Chemscore.Hbond>
2.6677

> <Gold.Chemscore.Metal>
0.0000

> <Gold.Chemscore.Lipo>
80.5475

> <Gold.Chemscore.Internal_Hbond>
0.0000

> <Gold.Chemscore.DEClash>
2.0991

> <Gold.Chemscore.DEInternal>
1.0604

> <Gold.Chemscore.Rot>
1.1590

> <Gold.Chemscore.Internal.Correction>
   9.000000E+99

> <Gold.Chemscore.Hbonds>
donor molecule, donor type, donor heavy atom, donor atom, acceptor molecule, acceptor atom, score
      L1  H     9    30       P1  7948  0.43
      L1  H    12    31       P1  7948  0.04
      P1  H  7989  7998       L1     4  0.01
      P1  H  7997  8008       L1     5  0.70
      P1  H 10752 10763       L1    11  0.37

> <Gold.Chemscore.Hbond.Weighted>
-8.9103

> <Gold.Chemscore.Metal.Weighted>
-0.0000

> <Gold.Chemscore.Lipo.Weighted>
-9.4241

> <Gold.Chemscore.Internal_Hbond.Weighted>
0.0000

> <Gold.Chemscore.DEClash.Weighted>
2.0991

> <Gold.Chemscore.DEInternal.Weighted>
1.0604

> <Gold.Chemscore.Rot.Weighted>
2.9671

> <Gold.Chemscore.Internal.Correction.Weighted>
   9.000000E+99

> <Gold.Protein.RotatedTorsions>
[ 6907 6896 6895 6894 ] final   27.96 input  -60.11 | X-H torsion
[ 7974 7965 7964 7962 ] final  -98.27 input  175.53 | X-H torsion
[ 8008 7997 7996 7995 ] final  -30.16 input   59.86 | X-H torsion
[ 10167 10162 10161 10158 ] final -155.41 input  -65.29 | X-H torsion
[ 10718 10713 10712 10709 ] final  -66.76 input   66.30 | X-H torsion
[ 10763 10752 10751 10750 ] final   93.27 input  -60.55 | X-H torsion
[ 11005 11000 10999 10996 ] final -156.36 input  -57.11 | X-H torsion

> <Gold.Protein.ActiveResidues>
 VAL166  LYS551  ARG553  GLY616  TRP617  ASP618  TYR619  PRO620  LYS621  CYS622 
 ASP623  PHE694  ASN695  SER759  ASP760  ASP761  ALA762  ILE779  LEU786  VAL792 
 PHE793  MET794  SER795  GLU796  ALA797  LYS798  CYS799  TRP800  GLU811  SER814 

> <Gold.Protein.RotatedAtoms>
  152.0099  134.9882  160.0567 H   0  0  0  0  0  0  0  0  0  0  0  0  # atno 6907 bound_to 6896
  152.1439  133.4476  159.4788 H   0  0  0  0  0  0  0  0  0  0  0  0  # atno 6908 bound_to 6896
  150.6868  134.2190  159.4432 H   0  0  0  0  0  0  0  0  0  0  0  0  # atno 6909 bound_to 6896
  145.3228  140.9425  143.2706 H   0  0  0  0  0  0  0  0  0  0  0  0  # atno 7974 bound_to 7965
  154.4261  140.1799  156.1363 H   0  0  0  0  0  0  0  0  0  0  0  0  # atno 8008 bound_to 7997
  156.0027  140.3358  155.6837 H   0  0  0  0  0  0  0  0  0  0  0  0  # atno 8009 bound_to 7997
  155.6220  140.0661  157.2666 H   0  0  0  0  0  0  0  0  0  0  0  0  # atno 8010 bound_to 7997
  139.6933  143.9384  152.2395 H   0  0  0  0  0  0  0  0  0  0  0  0  # atno 10167 bound_to 10162
  156.0594  130.4267  150.1756 H   0  0  0  0  0  0  0  0  0  0  0  0  # atno 10718 bound_to 10713
  153.2284  135.4331  155.0568 H   0  0  0  0  0  0  0  0  0  0  0  0  # atno 10763 bound_to 10752
  154.8285  135.3373  154.6823 H   0  0  0  0  0  0  0  0  0  0  0  0  # atno 10764 bound_to 10752
  153.7251  135.7014  153.5059 H   0  0  0  0  0  0  0  0  0  0  0  0  # atno 10765 bound_to 10752
  140.6764  134.4191  157.5229 H   0  0  0  0  0  0  0  0  0  0  0  0  # atno 11005 bound_to 11000
  144.8926  139.4755  143.6671 LP  0  0  0  0  0  0  0  0  0  0  0  0  # atno 17320 bound_to 7965
  146.3076  139.7632  142.9044 LP  0  0  0  0  0  0  0  0  0  0  0  0  # atno 17321 bound_to 7965
  139.9206  144.6802  150.8465 LP  0  0  0  0  0  0  0  0  0  0  0  0  # atno 17342 bound_to 10162
  140.7689  143.3378  151.2273 LP  0  0  0  0  0  0  0  0  0  0  0  0  # atno 17343 bound_to 10162
  156.9826  130.9869  151.3434 LP  0  0  0  0  0  0  0  0  0  0  0  0  # atno 17370 bound_to 10713
  157.5591  130.8234  149.8243 LP  0  0  0  0  0  0  0  0  0  0  0  0  # atno 17371 bound_to 10713
  139.8965  134.8658  156.2084 LP  0  0  0  0  0  0  0  0  0  0  0  0  # atno 17394 bound_to 11000
  141.0352  133.6967  156.1499 LP  0  0  0  0  0  0  0  0  0  0  0  0  # atno 17395 bound_to 11000

$$$$
