AV-unprocessed.smi:232|AV-procd|sdf|1774|dock7
  -GOLD-   2262020313D 1   1.00000     0.00000
 Structure written by MMmdl.
 52 55  0  0  0  0  0  0  0  0  1 V2000
  154.2968  140.6400  160.8796 C   0  0  0  0  0  0  0  0  0  0  0  0
  153.8109  140.8870  159.4459 C   0  0  0  0  0  0  0  0  0  0  0  0
  152.4363  141.5890  159.3849 C   0  0  1  0  0  0  0  0  0  0  0  0
  152.4411  142.9868  160.0344 C   0  0  0  0  0  0  0  0  0  0  0  0
  151.7770  143.9202  159.0157 C   0  0  0  0  0  0  0  0  0  0  0  0
  151.1096  142.9858  158.0055 C   0  0  2  0  0  0  0  0  0  0  0  0
  149.6497  142.6742  158.3960 C   0  0  0  0  0  0  0  0  0  0  0  0
  151.9699  141.8075  158.0155 N   0  0  0  0  0  0  0  0  0  0  0  0
  151.6035  140.7674  157.2195 C   0  0  0  0  0  0  0  0  0  0  0  0
  151.1060  141.0048  155.9761 N   0  0  0  0  0  0  0  0  0  0  0  0
  150.7595  139.9896  155.1799 C   0  0  0  0  0  0  0  0  0  0  0  0
  150.8291  138.6796  155.4207 N   0  0  0  0  0  0  0  0  0  0  0  0
  151.3264  138.4330  156.6663 C   0  0  0  0  0  0  0  0  0  0  0  0
  151.7355  139.4075  157.6205 C   0  0  0  0  0  0  0  0  0  0  0  0
  152.1796  138.7763  158.7770 N   0  0  0  0  0  0  0  0  0  0  0  0
  152.0450  137.5041  158.5201 C   0  0  0  0  0  0  0  0  0  0  0  0
  151.5363  137.2092  157.2764 N   0  0  0  0  0  0  0  0  0  0  0  0
  151.2747  135.8860  156.7383 C   0  0  0  0  0  0  0  0  0  0  0  0
  150.3104  135.9207  155.5357 C   0  0  1  0  0  0  0  0  0  0  0  0
  151.0406  136.1638  154.3474 O   0  0  0  0  0  0  0  0  0  0  0  0
  149.5055  134.6119  155.4020 C   0  0  2  0  0  0  0  0  0  0  0  0
  150.3027  133.3468  155.0338 C   0  0  0  0  0  0  0  0  0  0  0  0
  149.6679  132.8887  153.7335 C   0  0  0  0  0  0  0  0  0  0  0  0
  148.2717  133.4918  153.8138 C   0  0  0  0  0  0  0  0  0  0  0  0
  148.5053  134.7623  154.3992 O   0  0  0  0  0  0  0  0  0  0  0  0
  155.2616  140.1329  160.8784 H   0  0  0  0  0  0  0  0  0  0  0  0
  153.5934  140.0134  161.4285 H   0  0  0  0  0  0  0  0  0  0  0  0
  154.4154  141.5729  161.4305 H   0  0  0  0  0  0  0  0  0  0  0  0
  154.5504  141.4784  158.9050 H   0  0  0  0  0  0  0  0  0  0  0  0
  153.7684  139.9251  158.9357 H   0  0  0  0  0  0  0  0  0  0  0  0
  151.6985  140.9735  159.9020 H   0  0  0  0  0  0  0  0  0  0  0  0
  151.8808  142.9670  160.9698 H   0  0  0  0  0  0  0  0  0  0  0  0
  153.4476  143.3384  160.2648 H   0  0  0  0  0  0  0  0  0  0  0  0
  151.0832  144.6253  159.4746 H   0  0  0  0  0  0  0  0  0  0  0  0
  152.5472  144.5040  158.5100 H   0  0  0  0  0  0  0  0  0  0  0  0
  151.1228  143.4607  157.0250 H   0  0  0  0  0  0  0  0  0  0  0  0
  149.0550  143.5874  158.4278 H   0  0  0  0  0  0  0  0  0  0  0  0
  149.5836  142.2024  159.3767 H   0  0  0  0  0  0  0  0  0  0  0  0
  149.1767  142.0080  157.6739 H   0  0  0  0  0  0  0  0  0  0  0  0
  150.3720  140.2667  154.2108 H   0  0  0  0  0  0  0  0  0  0  0  0
  152.3091  136.7405  159.2373 H   0  0  0  0  0  0  0  0  0  0  0  0
  152.2241  135.4286  156.4576 H   0  0  0  0  0  0  0  0  0  0  0  0
  150.8585  135.2712  157.5371 H   0  0  0  0  0  0  0  0  0  0  0  0
  149.6137  136.7482  155.6760 H   0  0  0  0  0  0  0  0  0  0  0  0
  150.4257  136.3287  153.6489 H   0  0  0  0  0  0  0  0  0  0  0  0
  148.9736  134.4274  156.3369 H   0  0  0  0  0  0  0  0  0  0  0  0
  151.3747  133.5144  154.9251 H   0  0  0  0  0  0  0  0  0  0  0  0
  150.1686  132.5888  155.8063 H   0  0  0  0  0  0  0  0  0  0  0  0
  150.2061  133.3169  152.8869 H   0  0  0  0  0  0  0  0  0  0  0  0
  149.6598  131.8046  153.6195 H   0  0  0  0  0  0  0  0  0  0  0  0
  147.7917  133.5785  152.8388 H   0  0  0  0  0  0  0  0  0  0  0  0
  147.6279  132.9000  154.4666 H   0  0  0  0  0  0  0  0  0  0  0  0
  1  2  1  0  0  0  0
  1 26  1  0  0  0  0
  1 27  1  0  0  0  0
  1 28  1  0  0  0  0
  2  3  1  0  0  0  0
  2 29  1  0  0  0  0
  2 30  1  0  0  0  0
  3  8  1  0  0  0  0
  3  4  1  0  0  0  0
  3 31  1  0  0  0  0
  4  5  1  0  0  0  0
  4 32  1  0  0  0  0
  4 33  1  0  0  0  0
  5  6  1  0  0  0  0
  5 34  1  0  0  0  0
  5 35  1  0  0  0  0
  6  7  1  0  0  0  0
  6  8  1  0  0  0  0
  6 36  1  0  0  0  0
  7 37  1  0  0  0  0
  7 38  1  0  0  0  0
  7 39  1  0  0  0  0
  8  9  1  0  0  0  0
  9 14  1  0  0  0  0
  9 10  2  0  0  0  0
 10 11  1  0  0  0  0
 11 12  2  0  0  0  0
 11 40  1  0  0  0  0
 12 13  1  0  0  0  0
 13 17  1  0  0  0  0
 13 14  2  0  0  0  0
 14 15  1  0  0  0  0
 15 16  2  0  0  0  0
 16 17  1  0  0  0  0
 16 41  1  0  0  0  0
 17 18  1  0  0  0  0
 18 19  1  0  0  0  0
 18 42  1  0  0  0  0
 18 43  1  0  0  0  0
 19 20  1  0  0  0  0
 19 21  1  0  0  0  0
 19 44  1  0  0  0  0
 20 45  1  0  0  0  0
 21 25  1  0  0  0  0
 21 22  1  0  0  0  0
 21 46  1  0  0  0  0
 22 23  1  0  0  0  0
 22 47  1  0  0  0  0
 22 48  1  0  0  0  0
 23 24  1  0  0  0  0
 23 49  1  0  0  0  0
 23 50  1  0  0  0  0
 24 25  1  0  0  0  0
 24 51  1  0  0  0  0
 24 52  1  0  0  0  0
M  END
> <s_m_source_file>
AV-unprocessed.smi

> <i_m_source_file_index>
232

> <i_lp_mmshare_version>
43012

> <i_f3d_flags>
0

> <s_epik_input>
W0NIM11bQ0gyXVtDQEBIXTFbQ0gyXVtDSDJdW0NAQEhdKFtDSDNdKU4xYyhuW2NIXW4yKWMoYzIzKW5bY0hdbjNbQ0gyXVtDQEhdKFtPSF0pW0NAQEhdNFtDSDJdW0NIMl1bQ0gyXU80

> <s_epik_cmdline>
J2VwaWtfcHl0aG9uJywgJy1waCcsICc3LjAnLCAnLXRuJywgJzgnLCAnLW1hJywgJzIwMCcsICctbWV0YWxfYmluZGluZycsICctaW1hZScsICc8aW5maWxlLm1hZT4nLCAnLW9tYWUnLCAnPG91dGZpbGUubWFlPic=

> <r_lp_tautomer_probability>
1

> <r_epik_Ionization_Penalty>
0.00258048

> <r_epik_Ionization_Penalty_Charging>
0

> <r_epik_Ionization_Penalty_Neutral>
0.00258048

> <r_epik_State_Penalty>
0.00168551

> <r_epik_Charging_Adjusted_Penalty>
0.00168551

> <i_epik_Tot_Q>
0

> <i_epik_Tot_abs_Q>
0

> <r_epik_Metal_State_Penalty>
-0

> <b_epik_Metal_Only>
0

> <s_lp_Force_Field>
OPLS_2005

> <r_lp_Energy>
56.0552

> <b_lp_Chiralities_Consistent>
1

> <s_lp_Variant>
AV-unprocessed.smi:232-8

> <Gold.Version>
5.8.1

> <Gold.Id.Protein>
6NUR|6NUR_protein|mol2

> <Gold.PLP.Fitness>
43.5941

> <Gold.PLP.PLP>
-41.5016

> <Gold.PLP.part.hbond>
-2.6366

> <Gold.PLP.part.metal>
0.0000

> <Gold.PLP.part.buried>
-5.6741

> <Gold.PLP.part.nonpolar>
-33.5479

> <Gold.PLP.part.repulsive>
1.2685

> <Gold.PLP.ligand.clash>
0.0000

> <Gold.PLP.ligand.torsion>
0.9097

> <Gold.PLP.Chemscore.Hbond>
1.1960

> <Gold.PLP.Chemscore.CHOScore>
0.0000

> <Gold.PLP.Chemscore.Metal>
0.0000

> <Gold.Chemscore.Hbonds>
donor molecule, donor type, donor heavy atom, donor atom, acceptor molecule, acceptor atom, score
      L1  H    20    45       P1  7948  0.15
      P1  H 10752 10764       L1    20  1.00

> <Gold.PLP.Chemscore.Internal.Correction>
0.3239

> <Gold.Rescore>
     Score         DG    S(hbond)    S(metal)    S(lipo)     H(rot)  DE(clash)    DE(int)     intcor
      8.89     -14.03       1.00        0.00      97.71       2.43       0.22       4.91       ----

> <Gold.Chemscore.Fitness>
8.8948

> <Gold.Chemscore.DG>
-14.0278

> <Gold.Chemscore.ZeroCoef>
-5.4800

> <Gold.Chemscore.Hbond>
0.9958

> <Gold.Chemscore.Metal>
0.0000

> <Gold.Chemscore.Lipo>
97.7141

> <Gold.Chemscore.Internal_Hbond>
0.0000

> <Gold.Chemscore.DEClash>
0.2211

> <Gold.Chemscore.DEInternal>
4.9119

> <Gold.Chemscore.Rot>
2.4260

> <Gold.Chemscore.Internal.Correction>
   9.000000E+99

> <Gold.Chemscore.Hbonds>
donor molecule, donor type, donor heavy atom, donor atom, acceptor molecule, acceptor atom, score
      P1  H 10752 10764       L1    20  0.93

> <Gold.Chemscore.Hbond.Weighted>
-3.3260

> <Gold.Chemscore.Metal.Weighted>
-0.0000

> <Gold.Chemscore.Lipo.Weighted>
-11.4326

> <Gold.Chemscore.Internal_Hbond.Weighted>
0.0000

> <Gold.Chemscore.DEClash.Weighted>
0.2211

> <Gold.Chemscore.DEInternal.Weighted>
4.9119

> <Gold.Chemscore.Rot.Weighted>
6.2107

> <Gold.Chemscore.Internal.Correction.Weighted>
   9.000000E+99

> <Gold.Protein.RotatedTorsions>
[ 6907 6896 6895 6894 ] final  176.62 input  -60.11 | X-H torsion
[ 7974 7965 7964 7962 ] final   51.15 input  175.53 | X-H torsion
[ 8008 7997 7996 7995 ] final -168.25 input   59.86 | X-H torsion
[ 10167 10162 10161 10158 ] final   -7.07 input  -65.29 | X-H torsion
[ 10718 10713 10712 10709 ] final   81.24 input   66.30 | X-H torsion
[ 10763 10752 10751 10750 ] final  -74.70 input  -60.55 | X-H torsion
[ 11005 11000 10999 10996 ] final  -65.36 input  -57.11 | X-H torsion

> <Gold.Protein.ActiveResidues>
 VAL166  LYS551  ARG553  GLY616  TRP617  ASP618  TYR619  PRO620  LYS621  CYS622 
 ASP623  PHE694  ASN695  SER759  ASP760  ASP761  ALA762  ILE779  LEU786  VAL792 
 PHE793  MET794  SER795  GLU796  ALA797  LYS798  CYS799  TRP800  GLU811  SER814 

> <Gold.Protein.RotatedAtoms>
  151.7171  133.3313  159.3305 H   0  0  0  0  0  0  0  0  0  0  0  0  # atno 6907 bound_to 6896
  150.7669  134.6481  159.6282 H   0  0  0  0  0  0  0  0  0  0  0  0  # atno 6908 bound_to 6896
  152.3675  134.6785  160.0239 H   0  0  0  0  0  0  0  0  0  0  0  0  # atno 6909 bound_to 6896
  145.9941  139.4370  143.0055 H   0  0  0  0  0  0  0  0  0  0  0  0  # atno 7974 bound_to 7965
  155.8889  140.1021  157.1433 H   0  0  0  0  0  0  0  0  0  0  0  0  # atno 8008 bound_to 7997
  154.4013  140.1314  156.4354 H   0  0  0  0  0  0  0  0  0  0  0  0  # atno 8009 bound_to 7997
  155.7557  140.3464  155.5175 H   0  0  0  0  0  0  0  0  0  0  0  0  # atno 8010 bound_to 7997
  140.7017  143.6122  150.8693 H   0  0  0  0  0  0  0  0  0  0  0  0  # atno 10167 bound_to 10162
  157.6827  130.9995  150.2197 H   0  0  0  0  0  0  0  0  0  0  0  0  # atno 10718 bound_to 10713
  154.4767  135.5855  153.6360 H   0  0  0  0  0  0  0  0  0  0  0  0  # atno 10763 bound_to 10752
  152.9842  135.6080  154.3298 H   0  0  0  0  0  0  0  0  0  0  0  0  # atno 10764 bound_to 10752
  154.3186  135.2844  155.2510 H   0  0  0  0  0  0  0  0  0  0  0  0  # atno 10765 bound_to 10752
  141.1452  133.6680  156.5974 H   0  0  0  0  0  0  0  0  0  0  0  0  # atno 11005 bound_to 11000
  145.7586  140.9944  143.1212 LP  0  0  0  0  0  0  0  0  0  0  0  0  # atno 17320 bound_to 7965
  144.6898  139.9302  143.7471 LP  0  0  0  0  0  0  0  0  0  0  0  0  # atno 17321 bound_to 7965
  139.9845  143.5915  152.2932 LP  0  0  0  0  0  0  0  0  0  0  0  0  # atno 17342 bound_to 10162
  139.6548  144.7662  151.2078 LP  0  0  0  0  0  0  0  0  0  0  0  0  # atno 17343 bound_to 10162
  156.2851  130.3738  149.7896 LP  0  0  0  0  0  0  0  0  0  0  0  0  # atno 17370 bound_to 10713
  156.5573  130.8368  151.3318 LP  0  0  0  0  0  0  0  0  0  0  0  0  # atno 17371 bound_to 10713
  140.3715  134.7602  157.4602 LP  0  0  0  0  0  0  0  0  0  0  0  0  # atno 17394 bound_to 11000
  140.0707  134.5867  155.8645 LP  0  0  0  0  0  0  0  0  0  0  0  0  # atno 17395 bound_to 11000

$$$$
