AV-unprocessed.smi:367|AV-procd|sdf|2431|dock3
  -GOLD-   2262022373D 1   1.00000     0.00000
 Structure written by MMmdl.
 22 22  0  0  0  0  0  0  0  0  2 V2000
  150.6149  143.8483  158.5438 C   0  0  0  0  0  0  0  0  0  0  0  0
  150.6843  142.5320  157.7983 C   0  0  0  0  0  0  0  0  0  0  0  0
  151.1136  141.4303  158.3199 N   0  0  0  0  0  0  0  0  0  0  0  0
  151.1275  140.2720  157.5298 C   0  0  0  0  0  0  0  0  0  0  0  0
  151.6390  139.0167  158.2151 C   0  0  0  0  0  0  0  0  0  0  0  0
  150.7053  140.2855  156.2312 C   0  0  0  0  0  0  0  0  0  0  0  0
  150.7047  139.0386  155.3447 C   0  0  0  0  0  0  0  0  0  0  0  0
  152.0956  138.4775  155.0252 C   0  0  0  0  0  0  0  0  0  0  0  0
  153.0717  139.1663  155.3935 O   0  0  0  0  0  0  0  0  0  0  0  0
  152.1715  137.3844  154.4206 O   0  5  0  0  0  0  0  0  0  0  0  0
  150.2224  141.5508  155.6448 C   0  0  0  0  0  0  0  0  0  0  0  0
  149.8229  141.6786  154.4883 O   0  0  0  0  0  0  0  0  0  0  0  0
  150.2398  142.6137  156.4800 N   0  0  0  0  0  0  0  0  0  0  0  0
  149.9147  143.5013  156.1265 H   0  0  0  0  0  0  0  0  0  0  0  0
  149.9648  143.7527  159.4137 H   0  0  0  0  0  0  0  0  0  0  0  0
  150.2262  144.6491  157.9134 H   0  0  0  0  0  0  0  0  0  0  0  0
  151.6083  144.1367  158.8880 H   0  0  0  0  0  0  0  0  0  0  0  0
  152.5554  138.6679  157.7390 H   0  0  0  0  0  0  0  0  0  0  0  0
  150.8961  138.2204  158.1641 H   0  0  0  0  0  0  0  0  0  0  0  0
  151.8572  139.2006  159.2677 H   0  0  0  0  0  0  0  0  0  0  0  0
  150.1066  138.2454  155.7946 H   0  0  0  0  0  0  0  0  0  0  0  0
  150.2058  139.2709  154.4037 H   0  0  0  0  0  0  0  0  0  0  0  0
  1  2  1  0  0  0  0
  1 15  1  0  0  0  0
  1 16  1  0  0  0  0
  1 17  1  0  0  0  0
  2 13  1  0  0  0  0
  2  3  2  0  0  0  0
  3  4  1  0  0  0  0
  4  5  1  0  0  0  0
  4  6  2  0  0  0  0
  5 18  1  0  0  0  0
  5 19  1  0  0  0  0
  5 20  1  0  0  0  0
  6  7  1  0  0  0  0
  6 11  1  0  0  0  0
  7  8  1  0  0  0  0
  7 21  1  0  0  0  0
  7 22  1  0  0  0  0
  8  9  2  0  0  0  0
  8 10  1  0  0  0  0
 11 12  2  0  0  0  0
 11 13  1  0  0  0  0
 13 14  1  0  0  0  0
M  CHG  1  10  -1
M  END
> <s_m_source_file>
AV-unprocessed.smi

> <i_m_source_file_index>
367

> <i_lp_mmshare_version>
43012

> <i_f3d_flags>
0

> <s_epik_input>
W0NIM11jMW5jKFtDSDNdKWMoYyg9TylbbkhdMSlbQ0gyXUMoPU8pW09IXQ==

> <s_epik_cmdline>
J2VwaWtfcHl0aG9uJywgJy1waCcsICc3LjAnLCAnLXRuJywgJzgnLCAnLW1hJywgJzIwMCcsICctbWV0YWxfYmluZGluZycsICctaW1hZScsICc8aW5maWxlLm1hZT4nLCAnLW9tYWUnLCAnPG91dGZpbGUubWFlPic=

> <r_lp_tautomer_probability>
0.839158

> <r_epik_Ionization_Penalty>
0.000902249

> <r_epik_Ionization_Penalty_Charging>
0.000677242

> <r_epik_Ionization_Penalty_Neutral>
0.000225007

> <r_epik_State_Penalty>
0.09125

> <r_epik_Charging_Adjusted_Penalty>
0.0919273

> <i_epik_Tot_Q>
-1

> <i_epik_Tot_abs_Q>
1

> <r_epik_Metal_State_Penalty>
0.14165

> <b_epik_Metal_Only>
0

> <s_lp_Force_Field>
OPLS_2005

> <r_lp_Energy>
4.26247

> <b_lp_Chiralities_Consistent>
1

> <s_lp_Variant>
AV-unprocessed.smi:367-1

> <Gold.Version>
5.8.1

> <Gold.Id.Protein>
6NUR|6NUR_protein|mol2

> <Gold.PLP.Fitness>
41.3004

> <Gold.PLP.PLP>
-26.6476

> <Gold.PLP.part.hbond>
-5.9605

> <Gold.PLP.part.metal>
0.0000

> <Gold.PLP.part.buried>
-3.2793

> <Gold.PLP.part.nonpolar>
-17.7893

> <Gold.PLP.part.repulsive>
0.4732

> <Gold.PLP.ligand.clash>
0.0000

> <Gold.PLP.ligand.torsion>
0.0848

> <Gold.PLP.Chemscore.Hbond>
4.9408

> <Gold.PLP.Chemscore.CHOScore>
0.0000

> <Gold.PLP.Chemscore.Metal>
0.0000

> <Gold.Chemscore.Hbonds>
donor molecule, donor type, donor heavy atom, donor atom, acceptor molecule, acceptor atom, score
      L1  H    13    14       P1  8028  1.00
      P1  H  7989  7998       L1    12  0.15
      P1  H  7997  8008       L1     9  2.00
      P1  H  8011  8017       L1    12  0.18
      P1  H 10752 10765       L1    10  1.60

> <Gold.PLP.Chemscore.Internal.Correction>
0.0001

> <Gold.Rescore>
     Score         DG    S(hbond)    S(metal)    S(lipo)     H(rot)  DE(clash)    DE(int)     intcor
     15.76     -16.13       3.15        0.00      35.03       1.55       0.27       0.10       ----

> <Gold.Chemscore.Fitness>
15.7574

> <Gold.Chemscore.DG>
-16.1313

> <Gold.Chemscore.ZeroCoef>
-5.4800

> <Gold.Chemscore.Hbond>
3.1480

> <Gold.Chemscore.Metal>
0.0000

> <Gold.Chemscore.Lipo>
35.0341

> <Gold.Chemscore.Internal_Hbond>
0.0000

> <Gold.Chemscore.DEClash>
0.2745

> <Gold.Chemscore.DEInternal>
0.0994

> <Gold.Chemscore.Rot>
1.5477

> <Gold.Chemscore.Internal.Correction>
   9.000000E+99

> <Gold.Chemscore.Hbonds>
donor molecule, donor type, donor heavy atom, donor atom, acceptor molecule, acceptor atom, score
      L1  H    13    14       P1  8028  1.00
      P1  H  7989  7998       L1    12  0.03
      P1  H  7997  8008       L1     9  1.00
      P1  H  8011  8017       L1    12  0.18
      P1  H 10752 10765       L1    10  0.79

> <Gold.Chemscore.Hbond.Weighted>
-10.5145

> <Gold.Chemscore.Metal.Weighted>
-0.0000

> <Gold.Chemscore.Lipo.Weighted>
-4.0990

> <Gold.Chemscore.Internal_Hbond.Weighted>
0.0000

> <Gold.Chemscore.DEClash.Weighted>
0.2745

> <Gold.Chemscore.DEInternal.Weighted>
0.0994

> <Gold.Chemscore.Rot.Weighted>
3.9621

> <Gold.Chemscore.Internal.Correction.Weighted>
   9.000000E+99

> <Gold.Protein.RotatedTorsions>
[ 6907 6896 6895 6894 ] final   50.45 input  -60.11 | X-H torsion
[ 7974 7965 7964 7962 ] final   41.67 input  175.53 | X-H torsion
[ 8008 7997 7996 7995 ] final  -22.59 input   59.86 | X-H torsion
[ 10167 10162 10161 10158 ] final -158.98 input  -65.29 | X-H torsion
[ 10718 10713 10712 10709 ] final   61.71 input   66.30 | X-H torsion
[ 10763 10752 10751 10750 ] final  152.22 input  -60.55 | X-H torsion
[ 11005 11000 10999 10996 ] final   13.33 input  -57.11 | X-H torsion

> <Gold.Protein.ActiveResidues>
 VAL166  LYS551  ARG553  GLY616  TRP617  ASP618  TYR619  PRO620  LYS621  CYS622 
 ASP623  PHE694  ASN695  SER759  ASP760  ASP761  ALA762  ILE779  LEU786  VAL792 
 PHE793  MET794  SER795  GLU796  ALA797  LYS798  CYS799  TRP800  GLU811  SER814 

> <Gold.Protein.RotatedAtoms>
  152.3020  134.7600  160.0355 H   0  0  0  0  0  0  0  0  0  0  0  0  # atno 6907 bound_to 6896
  151.8110  133.3376  159.3563 H   0  0  0  0  0  0  0  0  0  0  0  0  # atno 6908 bound_to 6896
  150.7278  134.5594  159.5879 H   0  0  0  0  0  0  0  0  0  0  0  0  # atno 6909 bound_to 6896
  146.0804  139.5389  142.9540 H   0  0  0  0  0  0  0  0  0  0  0  0  # atno 7974 bound_to 7965
  154.4635  140.2003  156.0181 H   0  0  0  0  0  0  0  0  0  0  0  0  # atno 8008 bound_to 7997
  156.0884  140.3261  155.7754 H   0  0  0  0  0  0  0  0  0  0  0  0  # atno 8009 bound_to 7997
  155.4997  140.0553  157.2932 H   0  0  0  0  0  0  0  0  0  0  0  0  # atno 8010 bound_to 7997
  139.6650  143.9845  152.2249 H   0  0  0  0  0  0  0  0  0  0  0  0  # atno 10167 bound_to 10162
  157.5848  130.9010  149.9495 H   0  0  0  0  0  0  0  0  0  0  0  0  # atno 10718 bound_to 10713
  154.1165  135.2835  155.3218 H   0  0  0  0  0  0  0  0  0  0  0  0  # atno 10763 bound_to 10752
  154.6453  135.5388  153.7841 H   0  0  0  0  0  0  0  0  0  0  0  0  # atno 10764 bound_to 10752
  153.0327  135.6496  154.1321 H   0  0  0  0  0  0  0  0  0  0  0  0  # atno 10765 bound_to 10752
  140.4819  134.0926  155.7753 H   0  0  0  0  0  0  0  0  0  0  0  0  # atno 11005 bound_to 11000
  145.6228  141.0319  143.1905 LP  0  0  0  0  0  0  0  0  0  0  0  0  # atno 17320 bound_to 7965
  144.7289  139.7786  143.7354 LP  0  0  0  0  0  0  0  0  0  0  0  0  # atno 17321 bound_to 7965
  139.9594  144.6568  150.8094 LP  0  0  0  0  0  0  0  0  0  0  0  0  # atno 17342 bound_to 10162
  140.7596  143.3132  151.2796 LP  0  0  0  0  0  0  0  0  0  0  0  0  # atno 17343 bound_to 10162
  156.0896  130.3664  150.0421 LP  0  0  0  0  0  0  0  0  0  0  0  0  # atno 17370 bound_to 10713
  156.8554  130.9473  151.3622 LP  0  0  0  0  0  0  0  0  0  0  0  0  # atno 17371 bound_to 10713
  141.1527  133.8940  157.2057 LP  0  0  0  0  0  0  0  0  0  0  0  0  # atno 17394 bound_to 11000
  139.9821  135.0094  156.9775 LP  0  0  0  0  0  0  0  0  0  0  0  0  # atno 17395 bound_to 11000

$$$$
