AV-unprocessed.smi:163|AV-procd|sdf|1381|dock7
  -GOLD-   2262019113D 1   1.00000     0.00000
 Structure written by MMmdl.
 48 51  0  0  0  0  0  0  0  0  1 V2000
  153.0149  142.4010  160.3402 N   0  0  0  0  0  0  0  0  0  0  0  0
  152.2288  142.1581  159.5263 C   0  0  0  0  0  0  0  0  0  0  0  0
  151.2269  141.8467  158.4931 C   0  0  0  0  0  0  0  0  0  0  0  0
  151.7215  140.8471  157.4392 C   0  0  0  0  0  0  0  0  0  0  0  0
  152.8227  140.3168  157.5915 O   0  0  0  0  0  0  0  0  0  0  0  0
  150.9283  140.5798  156.3755 N   0  0  0  0  0  0  0  0  0  0  0  0
  151.2262  139.6036  155.3207 C   0  0  0  0  0  0  0  0  0  0  0  0
  150.2138  138.4470  155.4091 C   0  0  0  0  0  0  0  0  0  0  0  0
  148.8411  138.9559  155.3691 N   0  0  0  0  0  0  0  0  0  0  0  0
  147.8779  138.0267  155.1382 C   0  0  0  0  0  0  0  0  0  0  0  0
  147.5882  137.1024  156.0932 N   0  0  0  0  0  0  0  0  0  0  0  0
  146.6471  136.1785  155.8778 C   0  0  0  0  0  0  0  0  0  0  0  0
  145.8828  136.0019  154.7987 N   0  0  0  0  0  0  0  0  0  0  0  0
  146.1592  136.9319  153.8402 C   0  0  0  0  0  0  0  0  0  0  0  0
  147.1320  137.9684  153.9261 C   0  0  0  0  0  0  0  0  0  0  0  0
  147.1171  138.7248  152.7599 N   0  0  0  0  0  0  0  0  0  0  0  0
  146.1996  138.1608  152.0236 C   0  0  0  0  0  0  0  0  0  0  0  0
  145.5665  137.0821  152.5984 N   0  0  0  0  0  0  0  0  0  0  0  0
  144.5128  136.2722  152.0056 C   0  0  0  0  0  0  0  0  0  0  0  0
  144.9782  135.4066  150.8071 C   0  0  2  0  0  0  0  0  0  0  0  0
  145.2987  136.2535  149.7184 O   0  0  0  0  0  0  0  0  0  0  0  0
  143.9523  134.3678  150.3498 C   0  0  0  0  0  0  0  0  0  0  0  0
  144.4213  133.1004  151.0484 C   0  0  0  0  0  0  0  0  0  0  0  0
  145.8297  133.1938  150.9278 O   0  0  0  0  0  0  0  0  0  0  0  0
  146.2039  134.5444  151.1737 C   0  0  0  0  0  0  0  0  0  0  0  0
  148.5397  140.0401  156.3084 C   0  0  0  0  0  0  0  0  0  0  0  0
  149.5911  141.1609  156.2052 C   0  0  0  0  0  0  0  0  0  0  0  0
  150.3493  141.4479  159.0024 H   0  0  0  0  0  0  0  0  0  0  0  0
  150.9498  142.7873  158.0161 H   0  0  0  0  0  0  0  0  0  0  0  0
  151.1438  140.0944  154.3499 H   0  0  0  0  0  0  0  0  0  0  0  0
  152.2393  139.2074  155.3630 H   0  0  0  0  0  0  0  0  0  0  0  0
  150.4051  137.7426  154.6014 H   0  0  0  0  0  0  0  0  0  0  0  0
  150.3564  137.8985  156.3412 H   0  0  0  0  0  0  0  0  0  0  0  0
  146.4837  135.4809  156.6861 H   0  0  0  0  0  0  0  0  0  0  0  0
  145.9523  138.5225  151.0358 H   0  0  0  0  0  0  0  0  0  0  0  0
  144.0959  135.6362  152.7878 H   0  0  0  0  0  0  0  0  0  0  0  0
  143.7061  136.9373  151.6949 H   0  0  0  0  0  0  0  0  0  0  0  0
  145.3870  135.7217  148.9421 H   0  0  0  0  0  0  0  0  0  0  0  0
  142.9179  134.6179  150.5811 H   0  0  0  0  0  0  0  0  0  0  0  0
  144.0140  134.2128  149.2713 H   0  0  0  0  0  0  0  0  0  0  0  0
  144.1357  133.1016  152.1016 H   0  0  0  0  0  0  0  0  0  0  0  0
  144.0354  132.1930  150.5835 H   0  0  0  0  0  0  0  0  0  0  0  0
  147.0950  134.7957  150.5967 H   0  0  0  0  0  0  0  0  0  0  0  0
  146.4614  134.6470  152.2289 H   0  0  0  0  0  0  0  0  0  0  0  0
  147.5504  140.4503  156.1008 H   0  0  0  0  0  0  0  0  0  0  0  0
  148.5193  139.6426  157.3244 H   0  0  0  0  0  0  0  0  0  0  0  0
  149.3699  141.9420  156.9336 H   0  0  0  0  0  0  0  0  0  0  0  0
  149.5324  141.6394  155.2265 H   0  0  0  0  0  0  0  0  0  0  0  0
  1  2  3  0  0  0  0
  2  3  1  0  0  0  0
  3  4  1  0  0  0  0
  3 28  1  0  0  0  0
  3 29  1  0  0  0  0
  4  5  2  0  0  0  0
  4  6  1  0  0  0  0
  6 27  1  0  0  0  0
  6  7  1  0  0  0  0
  7  8  1  0  0  0  0
  7 30  1  0  0  0  0
  7 31  1  0  0  0  0
  8  9  1  0  0  0  0
  8 32  1  0  0  0  0
  8 33  1  0  0  0  0
  9 10  1  0  0  0  0
  9 26  1  0  0  0  0
 10 15  1  0  0  0  0
 10 11  2  0  0  0  0
 11 12  1  0  0  0  0
 12 13  2  0  0  0  0
 12 34  1  0  0  0  0
 13 14  1  0  0  0  0
 14 18  1  0  0  0  0
 14 15  2  0  0  0  0
 15 16  1  0  0  0  0
 16 17  2  0  0  0  0
 17 18  1  0  0  0  0
 17 35  1  0  0  0  0
 18 19  1  0  0  0  0
 19 20  1  0  0  0  0
 19 36  1  0  0  0  0
 19 37  1  0  0  0  0
 20 25  1  0  0  0  0
 20 21  1  0  0  0  0
 20 22  1  0  0  0  0
 21 38  1  0  0  0  0
 22 23  1  0  0  0  0
 22 39  1  0  0  0  0
 22 40  1  0  0  0  0
 23 24  1  0  0  0  0
 23 41  1  0  0  0  0
 23 42  1  0  0  0  0
 24 25  1  0  0  0  0
 25 43  1  0  0  0  0
 25 44  1  0  0  0  0
 26 27  1  0  0  0  0
 26 45  1  0  0  0  0
 26 46  1  0  0  0  0
 27 47  1  0  0  0  0
 27 48  1  0  0  0  0
M  END
> <s_m_source_file>
AV-unprocessed.smi

> <i_m_source_file_index>
163

> <i_lp_mmshare_version>
43012

> <i_f3d_flags>
0

> <s_epik_input>
TiNDW0NIMl1DKD1PKU4xW0NIMl1bQ0gyXU4oW0NIMl1bQ0gyXTEpYyhuW2NIXW4yKWMoYzIzKW5bY0hdbjNbQ0gyXVtDQEBdNChbT0hdKVtDSDJdW0NIMl1PW0NIMl00

> <s_epik_cmdline>
J2VwaWtfcHl0aG9uJywgJy1waCcsICc3LjAnLCAnLXRuJywgJzgnLCAnLW1hJywgJzIwMCcsICctbWV0YWxfYmluZGluZycsICctaW1hZScsICc8aW5maWxlLm1hZT4nLCAnLW9tYWUnLCAnPG91dGZpbGUubWFlPic=

> <r_lp_tautomer_probability>
1

> <r_epik_Ionization_Penalty>
0.000981096

> <r_epik_Ionization_Penalty_Charging>
0

> <r_epik_Ionization_Penalty_Neutral>
0.000981096

> <r_epik_State_Penalty>
0.000482875

> <r_epik_Charging_Adjusted_Penalty>
0.000482875

> <i_epik_Tot_Q>
0

> <i_epik_Tot_abs_Q>
0

> <r_epik_Metal_State_Penalty>
-0

> <b_epik_Metal_Only>
0

> <s_lp_Force_Field>
OPLS_2005

> <r_lp_Energy>
51.4692

> <b_lp_Chiralities_Consistent>
1

> <s_lp_Variant>
AV-unprocessed.smi:163-2

> <Gold.Version>
5.8.1

> <Gold.Id.Protein>
6NUR|6NUR_protein|mol2

> <Gold.PLP.Fitness>
43.5364

> <Gold.PLP.PLP>
-34.8712

> <Gold.PLP.part.hbond>
-3.0000

> <Gold.PLP.part.metal>
0.0000

> <Gold.PLP.part.buried>
-3.6709

> <Gold.PLP.part.nonpolar>
-29.2509

> <Gold.PLP.part.repulsive>
0.5378

> <Gold.PLP.ligand.clash>
0.0000

> <Gold.PLP.ligand.torsion>
0.4134

> <Gold.PLP.Chemscore.Hbond>
1.9920

> <Gold.PLP.Chemscore.CHOScore>
1.0000

> <Gold.PLP.Chemscore.Metal>
0.0000

> <Gold.Chemscore.Hbonds>
donor molecule, donor type, donor heavy atom, donor atom, acceptor molecule, acceptor atom, score
      L1  H    21    38       P1  7921  1.00
      P1  H  7997  8008       L1     5  0.94
      L1  C    17    35       P1 10171  1.00

> <Gold.PLP.Chemscore.Internal.Correction>
0.5160

> <Gold.Rescore>
     Score         DG    S(hbond)    S(metal)    S(lipo)     H(rot)  DE(clash)    DE(int)     intcor
     11.25     -11.96       1.95        0.00      59.33       2.72       0.27       0.44       ----

> <Gold.Chemscore.Fitness>
11.2516

> <Gold.Chemscore.DG>
-11.9605

> <Gold.Chemscore.ZeroCoef>
-5.4800

> <Gold.Chemscore.Hbond>
1.9489

> <Gold.Chemscore.Metal>
0.0000

> <Gold.Chemscore.Lipo>
59.3330

> <Gold.Chemscore.Internal_Hbond>
0.0000

> <Gold.Chemscore.DEClash>
0.2731

> <Gold.Chemscore.DEInternal>
0.4358

> <Gold.Chemscore.Rot>
2.7230

> <Gold.Chemscore.Internal.Correction>
   9.000000E+99

> <Gold.Chemscore.Hbonds>
donor molecule, donor type, donor heavy atom, donor atom, acceptor molecule, acceptor atom, score
      L1  H    21    38       P1  7921  1.00
      P1  H  7997  8008       L1     5  0.91

> <Gold.Chemscore.Hbond.Weighted>
-6.5095

> <Gold.Chemscore.Metal.Weighted>
-0.0000

> <Gold.Chemscore.Lipo.Weighted>
-6.9420

> <Gold.Chemscore.Internal_Hbond.Weighted>
0.0000

> <Gold.Chemscore.DEClash.Weighted>
0.2731

> <Gold.Chemscore.DEInternal.Weighted>
0.4358

> <Gold.Chemscore.Rot.Weighted>
6.9709

> <Gold.Chemscore.Internal.Correction.Weighted>
   9.000000E+99

> <Gold.Protein.RotatedTorsions>
[ 6907 6896 6895 6894 ] final  163.90 input  -60.11 | X-H torsion
[ 7974 7965 7964 7962 ] final -151.67 input  175.53 | X-H torsion
[ 8008 7997 7996 7995 ] final  -68.82 input   59.86 | X-H torsion
[ 10167 10162 10161 10158 ] final -141.27 input  -65.29 | X-H torsion
[ 10718 10713 10712 10709 ] final -156.35 input   66.30 | X-H torsion
[ 10763 10752 10751 10750 ] final   94.83 input  -60.55 | X-H torsion
[ 11005 11000 10999 10996 ] final  -52.80 input  -57.11 | X-H torsion

> <Gold.Protein.ActiveResidues>
 VAL166  LYS551  ARG553  GLY616  TRP617  ASP618  TYR619  PRO620  LYS621  CYS622 
 ASP623  PHE694  ASN695  SER759  ASP760  ASP761  ALA762  ILE779  LEU786  VAL792 
 PHE793  MET794  SER795  GLU796  ALA797  LYS798  CYS799  TRP800  GLU811  SER814 

> <Gold.Protein.RotatedAtoms>
  151.9181  133.3578  159.3886 H   0  0  0  0  0  0  0  0  0  0  0  0  # atno 6907 bound_to 6896
  150.7043  134.4663  159.5413 H   0  0  0  0  0  0  0  0  0  0  0  0  # atno 6908 bound_to 6896
  152.2282  134.8348  160.0528 H   0  0  0  0  0  0  0  0  0  0  0  0  # atno 6909 bound_to 6896
  144.7837  140.4766  143.5821 H   0  0  0  0  0  0  0  0  0  0  0  0  # atno 7974 bound_to 7965
  154.4894  140.0865  156.7561 H   0  0  0  0  0  0  0  0  0  0  0  0  # atno 8008 bound_to 7997
  155.4267  140.3448  155.4258 H   0  0  0  0  0  0  0  0  0  0  0  0  # atno 8009 bound_to 7997
  156.1309  140.1501  156.9055 H   0  0  0  0  0  0  0  0  0  0  0  0  # atno 8010 bound_to 7997
  139.8201  143.7586  152.2666 H   0  0  0  0  0  0  0  0  0  0  0  0  # atno 10167 bound_to 10162
  156.5254  130.8496  151.2697 H   0  0  0  0  0  0  0  0  0  0  0  0  # atno 10718 bound_to 10713
  153.2461  135.4276  155.0749 H   0  0  0  0  0  0  0  0  0  0  0  0  # atno 10763 bound_to 10752
  154.8362  135.3414  154.6579 H   0  0  0  0  0  0  0  0  0  0  0  0  # atno 10764 bound_to 10752
  153.7002  135.7029  153.5122 H   0  0  0  0  0  0  0  0  0  0  0  0  # atno 10765 bound_to 10752
  141.0943  133.6627  156.4078 H   0  0  0  0  0  0  0  0  0  0  0  0  # atno 11005 bound_to 11000
  145.5981  139.1501  143.3144 LP  0  0  0  0  0  0  0  0  0  0  0  0  # atno 17320 bound_to 7965
  146.2058  140.6104  142.9082 LP  0  0  0  0  0  0  0  0  0  0  0  0  # atno 17321 bound_to 7965
  139.7761  144.7460  151.0154 LP  0  0  0  0  0  0  0  0  0  0  0  0  # atno 17342 bound_to 10162
  140.7814  143.4592  151.0302 LP  0  0  0  0  0  0  0  0  0  0  0  0  # atno 17343 bound_to 10162
  157.7430  130.9903  150.2561 LP  0  0  0  0  0  0  0  0  0  0  0  0  # atno 17370 bound_to 10713
  156.3110  130.3772  149.7661 LP  0  0  0  0  0  0  0  0  0  0  0  0  # atno 17371 bound_to 10713
  140.5177  134.6334  157.5307 LP  0  0  0  0  0  0  0  0  0  0  0  0  # atno 17394 bound_to 11000
  139.9776  134.7190  155.9920 LP  0  0  0  0  0  0  0  0  0  0  0  0  # atno 17395 bound_to 11000

$$$$
