AV-unprocessed.smi:1042|AV-procd|sdf|4537|dock1
  -GOLD-   22720 2563D 1   1.00000     0.00000
 Structure written by MMmdl.
 40 42  0  0  0  0  0  0  0  0  2 V2000
  146.2242  139.1752  154.0070 O   0  0  0  0  0  0  0  0  0  0  0  0
  146.9590  138.3622  153.4457 C   0  0  0  0  0  0  0  0  0  0  0  0
  146.5016  137.3757  152.6606 N   0  0  0  0  0  0  0  0  0  0  0  0
  145.0955  137.1294  152.3552 C   0  0  0  0  0  0  0  0  0  0  0  0
  144.7986  135.6366  152.1089 C   0  0  1  0  0  0  0  0  0  0  0  0
  143.4597  135.1666  152.6683 C   0  0  0  0  0  0  0  0  0  0  0  0
  143.2252  133.8641  151.9073 C   0  0  0  0  0  0  0  0  0  0  0  0
  143.7715  134.0921  150.5514 N   0  3  2  0  0  0  0  0  0  0  0  0
  144.3349  132.8785  149.9220 C   0  0  0  0  0  0  0  0  0  0  0  0
  144.8184  131.8513  150.9176 C   0  0  0  0  0  0  0  0  0  0  0  0
  145.8152  132.7036  150.1628 C   0  0  0  0  0  0  0  0  0  0  0  0
  144.7209  135.2273  150.6309 C   0  0  0  0  0  0  0  0  0  0  0  0
  148.3007  138.3360  153.5312 N   0  0  0  0  0  0  0  0  0  0  0  0
  149.1474  139.1824  154.2962 C   0  0  0  0  0  0  0  0  0  0  0  0
  150.4065  138.6312  154.6251 C   0  0  0  0  0  0  0  0  0  0  0  0
  151.3174  139.3898  155.3859 C   0  0  0  0  0  0  0  0  0  0  0  0
  150.9448  140.6812  155.7995 C   0  0  0  0  0  0  0  0  0  0  0  0
  149.6724  141.1542  155.4301 C   0  0  0  0  0  0  0  0  0  0  0  0
  148.7975  140.4287  154.7017 N   0  0  0  0  0  0  0  0  0  0  0  0
  147.1759  136.7579  152.2325 H   0  0  0  0  0  0  0  0  0  0  0  0
  144.4726  137.5087  153.1670 H   0  0  0  0  0  0  0  0  0  0  0  0
  144.8372  137.7130  151.4712 H   0  0  0  0  0  0  0  0  0  0  0  0
  145.5759  135.0346  152.5826 H   0  0  0  0  0  0  0  0  0  0  0  0
  143.4771  135.0270  153.7497 H   0  0  0  0  0  0  0  0  0  0  0  0
  142.6731  135.8848  152.4316 H   0  0  0  0  0  0  0  0  0  0  0  0
  143.7723  133.0564  152.3968 H   0  0  0  0  0  0  0  0  0  0  0  0
  142.1725  133.5815  151.8725 H   0  0  0  0  0  0  0  0  0  0  0  0
  143.8852  132.5659  148.9810 H   0  0  0  0  0  0  0  0  0  0  0  0
  144.6826  132.0566  151.9780 H   0  0  0  0  0  0  0  0  0  0  0  0
  144.7440  130.8032  150.6340 H   0  0  0  0  0  0  0  0  0  0  0  0
  146.3972  132.2166  149.3829 H   0  0  0  0  0  0  0  0  0  0  0  0
  146.3410  133.4759  150.7213 H   0  0  0  0  0  0  0  0  0  0  0  0
  144.3198  136.0399  150.0241 H   0  0  0  0  0  0  0  0  0  0  0  0
  145.7070  134.9789  150.2348 H   0  0  0  0  0  0  0  0  0  0  0  0
  148.7720  137.6225  152.9953 H   0  0  0  0  0  0  0  0  0  0  0  0
  150.6774  137.6373  154.2992 H   0  0  0  0  0  0  0  0  0  0  0  0
  152.2848  138.9868  155.6472 H   0  0  0  0  0  0  0  0  0  0  0  0
  151.6160  141.2932  156.3839 H   0  0  0  0  0  0  0  0  0  0  0  0
  149.3476  142.1404  155.7272 H   0  0  0  0  0  0  0  0  0  0  0  0
  143.0043  134.4038  149.9733 H   0  0  0  0  0  0  0  0  0  0  0  0
  1  2  2  0  0  0  0
  2  3  1  0  0  0  0
  2 13  1  0  0  0  0
  3  4  1  0  0  0  0
  3 20  1  0  0  0  0
  4  5  1  0  0  0  0
  4 21  1  0  0  0  0
  4 22  1  0  0  0  0
  5 12  1  0  0  0  0
  5  6  1  0  0  0  0
  5 23  1  0  0  0  0
  6  7  1  0  0  0  0
  6 24  1  0  0  0  0
  6 25  1  0  0  0  0
  7  8  1  0  0  0  0
  7 26  1  0  0  0  0
  7 27  1  0  0  0  0
  8  9  1  0  0  0  0
  8 12  1  0  0  0  0
  8 40  1  0  0  0  0
  9 11  1  0  0  0  0
  9 10  1  0  0  0  0
  9 28  1  0  0  0  0
 10 11  1  0  0  0  0
 10 29  1  0  0  0  0
 10 30  1  0  0  0  0
 11 31  1  0  0  0  0
 11 32  1  0  0  0  0
 12 33  1  0  0  0  0
 12 34  1  0  0  0  0
 13 14  1  0  0  0  0
 13 35  1  0  0  0  0
 14 19  1  0  0  0  0
 14 15  2  0  0  0  0
 15 16  1  0  0  0  0
 15 36  1  0  0  0  0
 16 17  2  0  0  0  0
 16 37  1  0  0  0  0
 17 18  1  0  0  0  0
 17 38  1  0  0  0  0
 18 19  2  0  0  0  0
 18 39  1  0  0  0  0
M  CHG  1   8   1
M  END
> <s_m_source_file>
AV-unprocessed.smi

> <i_m_source_file_index>
1042

> <i_lp_mmshare_version>
43012

> <i_f3d_flags>
0

> <s_epik_input>
bjFbY0hdW2NIXVtjSF1bY0hdYzFbTkhdQyg9TylbTkhdW0NIMl1bQ0BASF0yW0NIMl1bQ0gyXU4oW0NIMl0yKVtDSF0zW0NIMl1bQ0gyXTM=

> <s_epik_cmdline>
J2VwaWtfcHl0aG9uJywgJy1waCcsICc3LjAnLCAnLXRuJywgJzgnLCAnLW1hJywgJzIwMCcsICctbWV0YWxfYmluZGluZycsICctaW1hZScsICc8aW5maWxlLm1hZT4nLCAnLW9tYWUnLCAnPG91dGZpbGUubWFlPic=

> <r_lp_tautomer_probability>
1

> <r_epik_Ionization_Penalty>
0.000244736

> <r_epik_Ionization_Penalty_Charging>
0.000203384

> <r_epik_Ionization_Penalty_Neutral>
4.13519e-05

> <r_epik_State_Penalty>
-0

> <r_epik_Charging_Adjusted_Penalty>
0.000203384

> <i_epik_Tot_Q>
1

> <i_epik_Tot_abs_Q>
1

> <r_epik_Metal_State_Penalty>
-0

> <b_epik_Metal_Only>
0

> <s_lp_Force_Field>
OPLS_2005

> <r_lp_Energy>
38.5501

> <b_lp_Chiralities_Consistent>
1

> <s_lp_Variant>
AV-unprocessed.smi:1042-2

> <Gold.Version>
5.8.1

> <Gold.Id.Protein>
6NUR|6NUR_protein|mol2

> <Gold.PLP.Fitness>
50.5573

> <Gold.PLP.PLP>
-37.7220

> <Gold.PLP.part.hbond>
-3.8191

> <Gold.PLP.part.metal>
0.0000

> <Gold.PLP.part.buried>
-3.2997

> <Gold.PLP.part.nonpolar>
-31.5850

> <Gold.PLP.part.repulsive>
0.3436

> <Gold.PLP.ligand.clash>
0.0000

> <Gold.PLP.ligand.torsion>
1.7218

> <Gold.PLP.Chemscore.Hbond>
4.0000

> <Gold.PLP.Chemscore.CHOScore>
1.0000

> <Gold.PLP.Chemscore.Metal>
0.0000

> <Gold.Chemscore.Hbonds>
donor molecule, donor type, donor heavy atom, donor atom, acceptor molecule, acceptor atom, score
      L1  H     3    20       P1  7948  1.00
      L1  H     8    40       P1 10186  1.98
      L1  H    13    35       P1  7948  1.00
      L1  C    18    39       P1  8028  0.78

> <Gold.PLP.Chemscore.Internal.Correction>
1.2788

> <Gold.Rescore>
     Score         DG    S(hbond)    S(metal)    S(lipo)     H(rot)  DE(clash)    DE(int)     intcor
     18.07     -21.06       2.85        0.00      83.91       1.47       0.10       2.89       ----

> <Gold.Chemscore.Fitness>
18.0741

> <Gold.Chemscore.DG>
-21.0637

> <Gold.Chemscore.ZeroCoef>
-5.4800

> <Gold.Chemscore.Hbond>
2.8536

> <Gold.Chemscore.Metal>
0.0000

> <Gold.Chemscore.Lipo>
83.9125

> <Gold.Chemscore.Internal_Hbond>
0.0000

> <Gold.Chemscore.DEClash>
0.1005

> <Gold.Chemscore.DEInternal>
2.8891

> <Gold.Chemscore.Rot>
1.4707

> <Gold.Chemscore.Internal.Correction>
   9.000000E+99

> <Gold.Chemscore.Hbonds>
donor molecule, donor type, donor heavy atom, donor atom, acceptor molecule, acceptor atom, score
      L1  H     3    20       P1  7948  0.97
      L1  H     8    40       P1 10186  0.81
      L1  H    13    35       P1  7948  0.99

> <Gold.Chemscore.Hbond.Weighted>
-9.5309

> <Gold.Chemscore.Metal.Weighted>
-0.0000

> <Gold.Chemscore.Lipo.Weighted>
-9.8178

> <Gold.Chemscore.Internal_Hbond.Weighted>
0.0000

> <Gold.Chemscore.DEClash.Weighted>
0.1005

> <Gold.Chemscore.DEInternal.Weighted>
2.8891

> <Gold.Chemscore.Rot.Weighted>
3.7650

> <Gold.Chemscore.Internal.Correction.Weighted>
   9.000000E+99

> <Gold.Protein.RotatedTorsions>
[ 6907 6896 6895 6894 ] final   -2.35 input  -60.11 | X-H torsion
[ 7974 7965 7964 7962 ] final  -36.88 input  175.53 | X-H torsion
[ 8008 7997 7996 7995 ] final -166.01 input   59.86 | X-H torsion
[ 10167 10162 10161 10158 ] final  -80.54 input  -65.29 | X-H torsion
[ 10718 10713 10712 10709 ] final  -53.63 input   66.30 | X-H torsion
[ 10763 10752 10751 10750 ] final  157.98 input  -60.55 | X-H torsion
[ 11005 11000 10999 10996 ] final  135.90 input  -57.11 | X-H torsion

> <Gold.Protein.ActiveResidues>
 VAL166  LYS551  ARG553  GLY616  TRP617  ASP618  TYR619  PRO620  LYS621  CYS622 
 ASP623  PHE694  ASN695  SER759  ASP760  ASP761  ALA762  ILE779  LEU786  VAL792 
 PHE793  MET794  SER795  GLU796  ALA797  LYS798  CYS799  TRP800  GLU811  SER814 

> <Gold.Protein.RotatedAtoms>
  151.5313  135.1068  159.9903 H   0  0  0  0  0  0  0  0  0  0  0  0  # atno 6907 bound_to 6896
  152.4577  133.7753  159.6831 H   0  0  0  0  0  0  0  0  0  0  0  0  # atno 6908 bound_to 6896
  150.8527  133.7697  159.3045 H   0  0  0  0  0  0  0  0  0  0  0  0  # atno 6909 bound_to 6896
  146.0623  140.6330  142.8991 H   0  0  0  0  0  0  0  0  0  0  0  0  # atno 7974 bound_to 7965
  155.8578  140.0973  157.1633 H   0  0  0  0  0  0  0  0  0  0  0  0  # atno 8008 bound_to 7997
  154.3989  140.1371  156.3986 H   0  0  0  0  0  0  0  0  0  0  0  0  # atno 8009 bound_to 7997
  155.7890  140.3456  155.5341 H   0  0  0  0  0  0  0  0  0  0  0  0  # atno 8010 bound_to 7997
  140.4494  143.2488  151.8511 H   0  0  0  0  0  0  0  0  0  0  0  0  # atno 10167 bound_to 10162
  156.1519  130.4151  149.9931 H   0  0  0  0  0  0  0  0  0  0  0  0  # atno 10718 bound_to 10713
  154.2088  135.2787  155.2965 H   0  0  0  0  0  0  0  0  0  0  0  0  # atno 10763 bound_to 10752
  154.5795  135.5594  153.7175 H   0  0  0  0  0  0  0  0  0  0  0  0  # atno 10764 bound_to 10752
  153.0069  135.6341  154.2227 H   0  0  0  0  0  0  0  0  0  0  0  0  # atno 10765 bound_to 10752
  140.0010  134.9478  157.0072 H   0  0  0  0  0  0  0  0  0  0  0  0  # atno 11005 bound_to 11000
  144.7182  140.4283  143.7028 LP  0  0  0  0  0  0  0  0  0  0  0  0  # atno 17320 bound_to 7965
  145.6538  139.1569  143.2847 LP  0  0  0  0  0  0  0  0  0  0  0  0  # atno 17321 bound_to 7965
  139.4795  144.5138  151.8897 LP  0  0  0  0  0  0  0  0  0  0  0  0  # atno 17342 bound_to 10162
  140.4225  144.2224  150.5887 LP  0  0  0  0  0  0  0  0  0  0  0  0  # atno 17343 bound_to 10162
  156.7787  130.9213  151.3645 LP  0  0  0  0  0  0  0  0  0  0  0  0  # atno 17370 bound_to 10713
  157.6664  130.9011  149.9941 LP  0  0  0  0  0  0  0  0  0  0  0  0  # atno 17371 bound_to 10713
  140.4728  134.1369  155.7205 LP  0  0  0  0  0  0  0  0  0  0  0  0  # atno 17394 bound_to 11000
  141.1642  133.8735  157.1763 LP  0  0  0  0  0  0  0  0  0  0  0  0  # atno 17395 bound_to 11000

$$$$
