AV-unprocessed.smi:170|AV-procd|sdf|1410|dock2
  -GOLD-   2262019163D 1   1.00000     0.00000
 Structure written by MMmdl.
 57 61  0  0  0  0  0  0  0  0  1 V2000
  153.9627  141.1265  160.4700 O   0  0  0  0  0  0  0  0  0  0  0  0
  152.6608  141.5404  160.0999 C   0  0  2  0  0  0  0  0  0  0  0  0
  152.2658  140.9486  158.7329 C   0  0  0  0  0  0  0  0  0  0  0  0
  151.7124  139.6114  158.8516 N   0  0  0  0  0  0  0  0  0  0  0  0
  152.3195  138.5194  159.4283 C   0  0  0  0  0  0  0  0  0  0  0  0
  151.6199  137.4181  159.4036 N   0  0  0  0  0  0  0  0  0  0  0  0
  150.4425  137.7775  158.7575 C   0  0  0  0  0  0  0  0  0  0  0  0
  149.2575  137.0822  158.3816 C   0  0  0  0  0  0  0  0  0  0  0  0
  149.0270  135.7668  158.5943 N   0  0  0  0  0  0  0  0  0  0  0  0
  149.0478  135.0282  157.3375 C   0  0  0  0  0  0  0  0  0  0  0  0
  148.9796  133.5193  157.6080 C   0  0  0  0  0  0  0  0  0  0  0  0
  147.8151  133.2383  158.3732 O   0  0  0  0  0  0  0  0  0  0  0  0
  147.8385  133.8898  159.6387 C   0  0  0  0  0  0  0  0  0  0  0  0
  147.8878  135.4247  159.4555 C   0  0  1  0  0  0  0  0  0  0  0  0
  147.9354  136.1612  160.8206 C   0  0  0  0  0  0  0  0  0  0  0  0
  146.6712  136.0078  161.6697 C   0  0  0  0  0  0  0  0  0  0  0  0
  146.7012  135.0897  162.9045 C   0  0  0  0  0  0  0  0  0  0  0  0
  146.0451  133.9983  162.0570 C   0  0  0  0  0  0  0  0  0  0  0  0
  145.5424  135.1113  161.1350 C   0  0  0  0  0  0  0  0  0  0  0  0
  148.2791  137.7832  157.7577 N   0  0  0  0  0  0  0  0  0  0  0  0
  148.4508  139.0826  157.4968 C   0  0  0  0  0  0  0  0  0  0  0  0
  149.5016  139.8586  157.7725 N   0  0  0  0  0  0  0  0  0  0  0  0
  150.4819  139.1573  158.4113 C   0  0  0  0  0  0  0  0  0  0  0  0
  152.5565  143.0782  160.1399 C   0  0  1  0  0  0  0  0  0  0  0  0
  153.0043  143.8227  158.8705 C   0  0  0  0  0  0  0  0  0  0  0  0
  151.8621  144.7867  158.5896 C   0  0  0  0  0  0  0  0  0  0  0  0
  151.0990  144.8271  159.9083 C   0  0  0  0  0  0  0  0  0  0  0  0
  151.2203  143.4988  160.3878 O   0  0  0  0  0  0  0  0  0  0  0  0
  154.3463  141.8007  161.0103 H   0  0  0  0  0  0  0  0  0  0  0  0
  151.9838  141.1406  160.8557 H   0  0  0  0  0  0  0  0  0  0  0  0
  151.5240  141.5836  158.2472 H   0  0  0  0  0  0  0  0  0  0  0  0
  153.1274  140.9113  158.0654 H   0  0  0  0  0  0  0  0  0  0  0  0
  153.3056  138.5652  159.8670 H   0  0  0  0  0  0  0  0  0  0  0  0
  148.2015  135.3328  156.7198 H   0  0  0  0  0  0  0  0  0  0  0  0
  149.9553  135.2622  156.7790 H   0  0  0  0  0  0  0  0  0  0  0  0
  148.9297  132.9696  156.6681 H   0  0  0  0  0  0  0  0  0  0  0  0
  149.8710  133.1748  158.1347 H   0  0  0  0  0  0  0  0  0  0  0  0
  146.9395  133.5932  160.1779 H   0  0  0  0  0  0  0  0  0  0  0  0
  148.6907  133.5372  160.2222 H   0  0  0  0  0  0  0  0  0  0  0  0
  146.9782  135.7149  158.9314 H   0  0  0  0  0  0  0  0  0  0  0  0
  148.7997  135.8098  161.3852 H   0  0  0  0  0  0  0  0  0  0  0  0
  148.1087  137.2258  160.6651 H   0  0  0  0  0  0  0  0  0  0  0  0
  146.2578  136.9799  161.9396 H   0  0  0  0  0  0  0  0  0  0  0  0
  147.6937  134.8317  163.2742 H   0  0  0  0  0  0  0  0  0  0  0  0
  146.0542  135.4432  163.7091 H   0  0  0  0  0  0  0  0  0  0  0  0
  146.7727  133.3433  161.5742 H   0  0  0  0  0  0  0  0  0  0  0  0
  145.2623  133.4335  162.5634 H   0  0  0  0  0  0  0  0  0  0  0  0
  144.5492  135.4695  161.4106 H   0  0  0  0  0  0  0  0  0  0  0  0
  145.6043  134.8796  160.0711 H   0  0  0  0  0  0  0  0  0  0  0  0
  147.6297  139.5696  156.9915 H   0  0  0  0  0  0  0  0  0  0  0  0
  153.1565  143.4442  160.9750 H   0  0  0  0  0  0  0  0  0  0  0  0
  153.9336  144.3613  159.0586 H   0  0  0  0  0  0  0  0  0  0  0  0
  153.1765  143.1640  158.0190 H   0  0  0  0  0  0  0  0  0  0  0  0
  152.2023  145.7710  158.2670 H   0  0  0  0  0  0  0  0  0  0  0  0
  151.2206  144.3782  157.8079 H   0  0  0  0  0  0  0  0  0  0  0  0
  151.5692  145.5161  160.6116 H   0  0  0  0  0  0  0  0  0  0  0  0
  150.0558  145.1176  159.7842 H   0  0  0  0  0  0  0  0  0  0  0  0
  1  2  1  0  0  0  0
  1 29  1  0  0  0  0
  2  3  1  0  0  0  0
  2 24  1  0  0  0  0
  2 30  1  0  0  0  0
  3  4  1  0  0  0  0
  3 31  1  0  0  0  0
  3 32  1  0  0  0  0
  4 23  1  0  0  0  0
  4  5  1  0  0  0  0
  5  6  2  0  0  0  0
  5 33  1  0  0  0  0
  6  7  1  0  0  0  0
  7 23  2  0  0  0  0
  7  8  1  0  0  0  0
  8  9  1  0  0  0  0
  8 20  2  0  0  0  0
  9 14  1  0  0  0  0
  9 10  1  0  0  0  0
 10 11  1  0  0  0  0
 10 34  1  0  0  0  0
 10 35  1  0  0  0  0
 11 12  1  0  0  0  0
 11 36  1  0  0  0  0
 11 37  1  0  0  0  0
 12 13  1  0  0  0  0
 13 14  1  0  0  0  0
 13 38  1  0  0  0  0
 13 39  1  0  0  0  0
 14 15  1  0  0  0  0
 14 40  1  0  0  0  0
 15 16  1  0  0  0  0
 15 41  1  0  0  0  0
 15 42  1  0  0  0  0
 16 19  1  0  0  0  0
 16 17  1  0  0  0  0
 16 43  1  0  0  0  0
 17 18  1  0  0  0  0
 17 44  1  0  0  0  0
 17 45  1  0  0  0  0
 18 19  1  0  0  0  0
 18 46  1  0  0  0  0
 18 47  1  0  0  0  0
 19 48  1  0  0  0  0
 19 49  1  0  0  0  0
 20 21  1  0  0  0  0
 21 22  2  0  0  0  0
 21 50  1  0  0  0  0
 22 23  1  0  0  0  0
 24 28  1  0  0  0  0
 24 25  1  0  0  0  0
 24 51  1  0  0  0  0
 25 26  1  0  0  0  0
 25 52  1  0  0  0  0
 25 53  1  0  0  0  0
 26 27  1  0  0  0  0
 26 54  1  0  0  0  0
 26 55  1  0  0  0  0
 27 28  1  0  0  0  0
 27 56  1  0  0  0  0
 27 57  1  0  0  0  0
M  END
> <s_m_source_file>
AV-unprocessed.smi

> <i_m_source_file_index>
170

> <i_lp_mmshare_version>
43012

> <i_f3d_flags>
0

> <s_epik_input>
TzFbQ0gyXVtDSDJdW0NIMl1bQ0BIXTFbQ0BIXShbT0hdKVtDSDJdbihbY0hdbjIpYyhjMjMpbltjSF1uYzNONFtDSDJdW0NIMl1PW0NIMl1bQ0BIXTRbQ0gyXVtDSF01W0NIMl1bQ0gyXVtDSDJdNQ==

> <s_epik_cmdline>
J2VwaWtfcHl0aG9uJywgJy1waCcsICc3LjAnLCAnLXRuJywgJzgnLCAnLW1hJywgJzIwMCcsICctbWV0YWxfYmluZGluZycsICctaW1hZScsICc8aW5maWxlLm1hZT4nLCAnLW9tYWUnLCAnPG91dGZpbGUubWFlPic=

> <r_lp_tautomer_probability>
1

> <r_epik_Ionization_Penalty>
4.98275e-05

> <r_epik_Ionization_Penalty_Charging>
0

> <r_epik_Ionization_Penalty_Neutral>
4.98275e-05

> <r_epik_State_Penalty>
-0

> <r_epik_Charging_Adjusted_Penalty>
0

> <i_epik_Tot_Q>
0

> <i_epik_Tot_abs_Q>
0

> <r_epik_Metal_State_Penalty>
-0

> <b_epik_Metal_Only>
0

> <s_lp_Force_Field>
OPLS_2005

> <r_lp_Energy>
54.4618

> <b_lp_Chiralities_Consistent>
1

> <s_lp_Variant>
AV-unprocessed.smi:170-5

> <Gold.Version>
5.8.1

> <Gold.Id.Protein>
6NUR|6NUR_protein|mol2

> <Gold.PLP.Fitness>
50.5637

> <Gold.PLP.PLP>
-50.6283

> <Gold.PLP.part.hbond>
-1.7989

> <Gold.PLP.part.metal>
0.0000

> <Gold.PLP.part.buried>
-7.8335

> <Gold.PLP.part.nonpolar>
-41.8908

> <Gold.PLP.part.repulsive>
0.0855

> <Gold.PLP.ligand.clash>
0.0000

> <Gold.PLP.ligand.torsion>
1.6807

> <Gold.PLP.Chemscore.Hbond>
0.9913

> <Gold.PLP.Chemscore.CHOScore>
0.0000

> <Gold.PLP.Chemscore.Metal>
0.0000

> <Gold.Chemscore.Hbonds>
donor molecule, donor type, donor heavy atom, donor atom, acceptor molecule, acceptor atom, score
      P1  H  6896  6907       L1     9  0.40

> <Gold.PLP.Chemscore.Internal.Correction>
0.3230

> <Gold.Rescore>
     Score         DG    S(hbond)    S(metal)    S(lipo)     H(rot)  DE(clash)    DE(int)     intcor
     12.48     -14.41       0.04        0.00     132.56       2.61       0.07       1.87       ----

> <Gold.Chemscore.Fitness>
12.4771

> <Gold.Chemscore.DG>
-14.4150

> <Gold.Chemscore.ZeroCoef>
-5.4800

> <Gold.Chemscore.Hbond>
0.0356

> <Gold.Chemscore.Metal>
0.0000

> <Gold.Chemscore.Lipo>
132.5563

> <Gold.Chemscore.Internal_Hbond>
0.0000

> <Gold.Chemscore.DEClash>
0.0650

> <Gold.Chemscore.DEInternal>
1.8728

> <Gold.Chemscore.Rot>
2.6144

> <Gold.Chemscore.Internal.Correction>
   9.000000E+99

> <Gold.Chemscore.Hbonds>
donor molecule, donor type, donor heavy atom, donor atom, acceptor molecule, acceptor atom, score
      P1  H  6896  6907       L1     9  0.03

> <Gold.Chemscore.Hbond.Weighted>
-0.1189

> <Gold.Chemscore.Metal.Weighted>
-0.0000

> <Gold.Chemscore.Lipo.Weighted>
-15.5091

> <Gold.Chemscore.Internal_Hbond.Weighted>
0.0000

> <Gold.Chemscore.DEClash.Weighted>
0.0650

> <Gold.Chemscore.DEInternal.Weighted>
1.8728

> <Gold.Chemscore.Rot.Weighted>
6.6929

> <Gold.Chemscore.Internal.Correction.Weighted>
   9.000000E+99

> <Gold.Protein.RotatedTorsions>
[ 6907 6896 6895 6894 ] final  -56.50 input  -60.11 | X-H torsion
[ 7974 7965 7964 7962 ] final  113.06 input  175.53 | X-H torsion
[ 8008 7997 7996 7995 ] final  -22.26 input   59.86 | X-H torsion
[ 10167 10162 10161 10158 ] final -139.47 input  -65.29 | X-H torsion
[ 10718 10713 10712 10709 ] final   -8.70 input   66.30 | X-H torsion
[ 10763 10752 10751 10750 ] final -124.62 input  -60.55 | X-H torsion
[ 11005 11000 10999 10996 ] final  -87.12 input  -57.11 | X-H torsion

> <Gold.Protein.ActiveResidues>
 VAL166  LYS551  ARG553  GLY616  TRP617  ASP618  TYR619  PRO620  LYS621  CYS622 
 ASP623  PHE694  ASN695  SER759  ASP760  ASP761  ALA762  ILE779  LEU786  VAL792 
 PHE793  MET794  SER795  GLU796  ALA797  LYS798  CYS799  TRP800  GLU811  SER814 

> <Gold.Protein.RotatedAtoms>
  150.8162  134.7345  159.6731 H   0  0  0  0  0  0  0  0  0  0  0  0  # atno 6907 bound_to 6896
  152.4281  134.5827  159.9962 H   0  0  0  0  0  0  0  0  0  0  0  0  # atno 6908 bound_to 6896
  151.6023  133.3318  159.3086 H   0  0  0  0  0  0  0  0  0  0  0  0  # atno 6909 bound_to 6896
  145.2217  139.2859  143.4215 H   0  0  0  0  0  0  0  0  0  0  0  0  # atno 7974 bound_to 7965
  154.4655  140.2012  156.0130 H   0  0  0  0  0  0  0  0  0  0  0  0  # atno 8008 bound_to 7997
  156.0919  140.3257  155.7798 H   0  0  0  0  0  0  0  0  0  0  0  0  # atno 8009 bound_to 7997
  155.4942  140.0548  157.2940 H   0  0  0  0  0  0  0  0  0  0  0  0  # atno 8010 bound_to 7997
  139.8376  143.7364  152.2664 H   0  0  0  0  0  0  0  0  0  0  0  0  # atno 10167 bound_to 10162
  156.6988  130.5087  149.5923 H   0  0  0  0  0  0  0  0  0  0  0  0  # atno 10718 bound_to 10713
  154.8726  135.4057  154.3136 H   0  0  0  0  0  0  0  0  0  0  0  0  # atno 10763 bound_to 10752
  153.3975  135.7017  153.6455 H   0  0  0  0  0  0  0  0  0  0  0  0  # atno 10764 bound_to 10752
  153.5211  135.3687  155.2603 H   0  0  0  0  0  0  0  0  0  0  0  0  # atno 10765 bound_to 10752
  141.1621  133.7493  156.9261 H   0  0  0  0  0  0  0  0  0  0  0  0  # atno 11005 bound_to 11000
  146.3374  140.2524  142.8599 LP  0  0  0  0  0  0  0  0  0  0  0  0  # atno 17320 bound_to 7965
  144.9760  140.8414  143.5426 LP  0  0  0  0  0  0  0  0  0  0  0  0  # atno 17321 bound_to 7965
  139.7591  144.7512  151.0391 LP  0  0  0  0  0  0  0  0  0  0  0  0  # atno 17342 bound_to 10162
  140.7801  143.4771  151.0067 LP  0  0  0  0  0  0  0  0  0  0  0  0  # atno 17343 bound_to 10162
  156.1743  130.6458  151.0876 LP  0  0  0  0  0  0  0  0  0  0  0  0  # atno 17370 bound_to 10713
  157.6981  131.0786  150.6907 LP  0  0  0  0  0  0  0  0  0  0  0  0  # atno 17371 bound_to 10713
  140.1418  134.9288  157.2477 LP  0  0  0  0  0  0  0  0  0  0  0  0  # atno 17394 bound_to 11000
  140.2827  134.3331  155.7338 LP  0  0  0  0  0  0  0  0  0  0  0  0  # atno 17395 bound_to 11000

$$$$
