AV-unprocessed.smi:2385|AV-procd|sdf|9464|dock4
  -GOLD-   2272013 93D 1   1.00000     0.00000
 Structure written by MMmdl.
 50 52  0  0  0  0  0  0  0  0  2 V2000
  152.7665  144.2239  159.2468 C   0  0  0  0  0  0  0  0  0  0  0  0
  151.9901  143.0530  158.6824 C   0  0  0  0  0  0  0  0  0  0  0  0
  152.2670  141.7360  159.0947 C   0  0  0  0  0  0  0  0  0  0  0  0
  151.5213  140.6793  158.5378 C   0  0  0  0  0  0  0  0  0  0  0  0
  150.5193  140.9626  157.5826 C   0  0  0  0  0  0  0  0  0  0  0  0
  149.8305  139.8273  157.0778 N   0  0  0  0  0  0  0  0  0  0  0  0
  148.8088  139.7973  156.2040 C   0  0  0  0  0  0  0  0  0  0  0  0
  148.2657  140.7848  155.7077 O   0  0  0  0  0  0  0  0  0  0  0  0
  148.4392  138.5378  155.9273 N   0  0  0  0  0  0  0  0  0  0  0  0
  147.3812  138.1650  154.9924 C   0  0  2  0  0  0  0  0  0  0  0  0
  147.2889  136.6364  154.8382 C   0  0  0  0  0  0  0  0  0  0  0  0
  146.2280  136.2494  153.7940 C   0  0  0  0  0  0  0  0  0  0  0  0
  146.4989  136.8924  152.4812 N   0  3  1  0  0  0  0  0  0  0  0  0
  145.5620  136.4407  151.4188 C   0  0  0  0  0  0  0  0  0  0  0  0
  145.2967  134.9236  151.4763 C   0  0  1  0  0  0  0  0  0  0  0  0
  144.3781  134.4356  150.3733 C   0  0  0  0  0  0  0  0  0  0  0  0
  144.6467  132.9340  150.3679 C   0  0  0  0  0  0  0  0  0  0  0  0
  146.0006  132.7818  150.7826 O   0  0  0  0  0  0  0  0  0  0  0  0
  146.5146  134.0281  151.2398 C   0  0  0  0  0  0  0  0  0  0  0  0
  146.5673  138.3730  152.6045 C   0  0  0  0  0  0  0  0  0  0  0  0
  147.6418  138.7998  153.6181 C   0  0  0  0  0  0  0  0  0  0  0  0
  150.2594  142.2355  157.1921 N   0  0  0  0  0  0  0  0  0  0  0  0
  150.9740  143.2478  157.7265 C   0  0  0  0  0  0  0  0  0  0  0  0
  152.9626  144.0784  160.3094 H   0  0  0  0  0  0  0  0  0  0  0  0
  152.2113  145.1551  159.1290 H   0  0  0  0  0  0  0  0  0  0  0  0
  153.7214  144.3257  158.7308 H   0  0  0  0  0  0  0  0  0  0  0  0
  153.0381  141.5357  159.8241 H   0  0  0  0  0  0  0  0  0  0  0  0
  151.7222  139.6626  158.8428 H   0  0  0  0  0  0  0  0  0  0  0  0
  150.1681  138.9351  157.4070 H   0  0  0  0  0  0  0  0  0  0  0  0
  148.9366  137.7852  156.3804 H   0  0  0  0  0  0  0  0  0  0  0  0
  146.4280  138.5435  155.3671 H   0  0  0  0  0  0  0  0  0  0  0  0
  148.2578  136.2332  154.5394 H   0  0  0  0  0  0  0  0  0  0  0  0
  147.0440  136.1737  155.7949 H   0  0  0  0  0  0  0  0  0  0  0  0
  146.2243  135.1647  153.6790 H   0  0  0  0  0  0  0  0  0  0  0  0
  145.2347  136.5365  154.1429 H   0  0  0  0  0  0  0  0  0  0  0  0
  144.6015  136.9411  151.5508 H   0  0  0  0  0  0  0  0  0  0  0  0
  145.9167  136.7453  150.4329 H   0  0  0  0  0  0  0  0  0  0  0  0
  144.8441  134.6660  152.4354 H   0  0  0  0  0  0  0  0  0  0  0  0
  143.3293  134.6768  150.5492 H   0  0  0  0  0  0  0  0  0  0  0  0
  144.6701  134.8682  149.4149 H   0  0  0  0  0  0  0  0  0  0  0  0
  144.0036  132.4288  151.0897 H   0  0  0  0  0  0  0  0  0  0  0  0
  144.4760  132.4849  149.3892 H   0  0  0  0  0  0  0  0  0  0  0  0
  147.1545  134.4412  150.4587 H   0  0  0  0  0  0  0  0  0  0  0  0
  147.1169  133.8949  152.1387 H   0  0  0  0  0  0  0  0  0  0  0  0
  146.7910  138.8237  151.6390 H   0  0  0  0  0  0  0  0  0  0  0  0
  145.5935  138.7587  152.9107 H   0  0  0  0  0  0  0  0  0  0  0  0
  147.6545  139.8871  153.7043 H   0  0  0  0  0  0  0  0  0  0  0  0
  148.6262  138.5060  153.2502 H   0  0  0  0  0  0  0  0  0  0  0  0
  150.7265  144.2401  157.3787 H   0  0  0  0  0  0  0  0  0  0  0  0
  147.4169  136.5760  152.2032 H   0  0  0  0  0  0  0  0  0  0  0  0
  1  2  1  0  0  0  0
  1 24  1  0  0  0  0
  1 25  1  0  0  0  0
  1 26  1  0  0  0  0
  2 23  1  0  0  0  0
  2  3  2  0  0  0  0
  3  4  1  0  0  0  0
  3 27  1  0  0  0  0
  4  5  2  0  0  0  0
  4 28  1  0  0  0  0
  5  6  1  0  0  0  0
  5 22  1  0  0  0  0
  6  7  1  0  0  0  0
  6 29  1  0  0  0  0
  7  8  2  0  0  0  0
  7  9  1  0  0  0  0
  9 10  1  0  0  0  0
  9 30  1  0  0  0  0
 10 21  1  0  0  0  0
 10 11  1  0  0  0  0
 10 31  1  0  0  0  0
 11 12  1  0  0  0  0
 11 32  1  0  0  0  0
 11 33  1  0  0  0  0
 12 13  1  0  0  0  0
 12 34  1  0  0  0  0
 12 35  1  0  0  0  0
 13 14  1  0  0  0  0
 13 20  1  0  0  0  0
 13 50  1  0  0  0  0
 14 15  1  0  0  0  0
 14 36  1  0  0  0  0
 14 37  1  0  0  0  0
 15 19  1  0  0  0  0
 15 16  1  0  0  0  0
 15 38  1  0  0  0  0
 16 17  1  0  0  0  0
 16 39  1  0  0  0  0
 16 40  1  0  0  0  0
 17 18  1  0  0  0  0
 17 41  1  0  0  0  0
 17 42  1  0  0  0  0
 18 19  1  0  0  0  0
 19 43  1  0  0  0  0
 19 44  1  0  0  0  0
 20 21  1  0  0  0  0
 20 45  1  0  0  0  0
 20 46  1  0  0  0  0
 21 47  1  0  0  0  0
 21 48  1  0  0  0  0
 22 23  2  0  0  0  0
 23 49  1  0  0  0  0
M  CHG  1  13   1
M  END
> <s_m_source_file>
AV-unprocessed.smi

> <i_m_source_file_index>
2385

> <i_lp_mmshare_version>
43012

> <i_f3d_flags>
0

> <s_epik_input>
W0NIM11jMVtjSF1bY0hdYyhuW2NIXTEpW05IXUMoPU8pW05IXVtDSF0yW0NIMl1bQ0gyXU4oW0NIMl1bQ0gyXTIpW0NIMl1bQ0BASF0zW0NIMl1bQ0gyXU9bQ0gyXTM=

> <s_epik_cmdline>
J2VwaWtfcHl0aG9uJywgJy1waCcsICc3LjAnLCAnLXRuJywgJzgnLCAnLW1hJywgJzIwMCcsICctbWV0YWxfYmluZGluZycsICctaW1hZScsICc8aW5maWxlLm1hZT4nLCAnLW9tYWUnLCAnPG91dGZpbGUubWFlPic=

> <r_epik_Ionization_Penalty>
0.00752367

> <r_epik_Ionization_Penalty_Charging>
0.00747775

> <r_epik_Ionization_Penalty_Neutral>
4.59207e-05

> <r_epik_State_Penalty>
0.00558817

> <r_epik_Charging_Adjusted_Penalty>
0.0130659

> <i_epik_Tot_Q>
1

> <i_epik_Tot_abs_Q>
1

> <r_epik_Metal_State_Penalty>
-0

> <b_epik_Metal_Only>
0

> <s_lp_Force_Field>
OPLS_2005

> <r_lp_Energy>
36.1133

> <b_lp_Chiralities_Consistent>
1

> <s_lp_Variant>
AV-unprocessed.smi:2385-2

> <Gold.Version>
5.8.1

> <Gold.Id.Protein>
6NUR|6NUR_protein|mol2

> <Gold.PLP.Fitness>
41.7351

> <Gold.PLP.PLP>
-33.3793

> <Gold.PLP.part.hbond>
-1.0000

> <Gold.PLP.part.metal>
0.0000

> <Gold.PLP.part.buried>
-2.5341

> <Gold.PLP.part.nonpolar>
-29.7662

> <Gold.PLP.part.repulsive>
0.4258

> <Gold.PLP.ligand.clash>
0.0000

> <Gold.PLP.ligand.torsion>
0.1358

> <Gold.PLP.Chemscore.Hbond>
2.0000

> <Gold.PLP.Chemscore.CHOScore>
0.8646

> <Gold.PLP.Chemscore.Metal>
0.0000

> <Gold.Chemscore.Hbonds>
donor molecule, donor type, donor heavy atom, donor atom, acceptor molecule, acceptor atom, score
      L1  H    13    50       P1  7948  2.00
      L1  C    23    49       P1  8028  0.89

> <Gold.PLP.Chemscore.Internal.Correction>
0.0336

> <Gold.Rescore>
     Score         DG    S(hbond)    S(metal)    S(lipo)     H(rot)  DE(clash)    DE(int)     intcor
     14.82     -16.62       1.00        0.00      97.42       1.41       0.27       1.53       ----

> <Gold.Chemscore.Fitness>
14.8192

> <Gold.Chemscore.DG>
-16.6173

> <Gold.Chemscore.ZeroCoef>
-5.4800

> <Gold.Chemscore.Hbond>
0.9992

> <Gold.Chemscore.Metal>
0.0000

> <Gold.Chemscore.Lipo>
97.4194

> <Gold.Chemscore.Internal_Hbond>
0.0000

> <Gold.Chemscore.DEClash>
0.2729

> <Gold.Chemscore.DEInternal>
1.5251

> <Gold.Chemscore.Rot>
1.4056

> <Gold.Chemscore.Internal.Correction>
   9.000000E+99

> <Gold.Chemscore.Hbonds>
donor molecule, donor type, donor heavy atom, donor atom, acceptor molecule, acceptor atom, score
      L1  H    13    50       P1  7948  0.98

> <Gold.Chemscore.Hbond.Weighted>
-3.3374

> <Gold.Chemscore.Metal.Weighted>
-0.0000

> <Gold.Chemscore.Lipo.Weighted>
-11.3981

> <Gold.Chemscore.Internal_Hbond.Weighted>
0.0000

> <Gold.Chemscore.DEClash.Weighted>
0.2729

> <Gold.Chemscore.DEInternal.Weighted>
1.5251

> <Gold.Chemscore.Rot.Weighted>
3.5982

> <Gold.Chemscore.Internal.Correction.Weighted>
   9.000000E+99

> <Gold.Protein.RotatedTorsions>
[ 6907 6896 6895 6894 ] final  -89.23 input  -60.11 | X-H torsion
[ 7974 7965 7964 7962 ] final   44.40 input  175.53 | X-H torsion
[ 8008 7997 7996 7995 ] final   88.45 input   59.86 | X-H torsion
[ 10167 10162 10161 10158 ] final   36.54 input  -65.29 | X-H torsion
[ 10718 10713 10712 10709 ] final   74.00 input   66.30 | X-H torsion
[ 10763 10752 10751 10750 ] final   -1.17 input  -60.55 | X-H torsion
[ 11005 11000 10999 10996 ] final   74.92 input  -57.11 | X-H torsion

> <Gold.Protein.ActiveResidues>
 VAL166  LYS551  ARG553  GLY616  TRP617  ASP618  TYR619  PRO620  LYS621  CYS622 
 ASP623  PHE694  ASN695  SER759  ASP760  ASP761  ALA762  ILE779  LEU786  VAL792 
 PHE793  MET794  SER795  GLU796  ALA797  LYS798  CYS799  TRP800  GLU811  SER814 

> <Gold.Protein.RotatedAtoms>
  150.6872  134.2619  159.4552 H   0  0  0  0  0  0  0  0  0  0  0  0  # atno 6907 bound_to 6896
  152.0548  134.9628  160.0584 H   0  0  0  0  0  0  0  0  0  0  0  0  # atno 6908 bound_to 6896
  152.1078  133.4250  159.4654 H   0  0  0  0  0  0  0  0  0  0  0  0  # atno 6909 bound_to 6896
  146.0571  139.5078  142.9681 H   0  0  0  0  0  0  0  0  0  0  0  0  # atno 7974 bound_to 7965
  155.9880  140.3371  155.6725 H   0  0  0  0  0  0  0  0  0  0  0  0  # atno 8008 bound_to 7997
  155.6460  140.0700  157.2621 H   0  0  0  0  0  0  0  0  0  0  0  0  # atno 8009 bound_to 7997
  154.4211  140.1734  156.1611 H   0  0  0  0  0  0  0  0  0  0  0  0  # atno 8010 bound_to 7997
  140.4118  144.1582  150.6140 H   0  0  0  0  0  0  0  0  0  0  0  0  # atno 10167 bound_to 10162
  157.6573  130.9656  150.1149 H   0  0  0  0  0  0  0  0  0  0  0  0  # atno 10718 bound_to 10713
  153.3414  135.6981  153.6864 H   0  0  0  0  0  0  0  0  0  0  0  0  # atno 10763 bound_to 10752
  153.5627  135.3531  155.2806 H   0  0  0  0  0  0  0  0  0  0  0  0  # atno 10764 bound_to 10752
  154.8637  135.4253  154.2628 H   0  0  0  0  0  0  0  0  0  0  0  0  # atno 10765 bound_to 10752
  139.9368  134.7474  156.1207 H   0  0  0  0  0  0  0  0  0  0  0  0  # atno 11005 bound_to 11000
  145.6624  141.0237  143.1702 LP  0  0  0  0  0  0  0  0  0  0  0  0  # atno 17320 bound_to 7965
  144.7154  139.8216  143.7400 LP  0  0  0  0  0  0  0  0  0  0  0  0  # atno 17321 bound_to 7965
  140.4630  143.2442  151.9194 LP  0  0  0  0  0  0  0  0  0  0  0  0  # atno 17342 bound_to 10162
  139.4782  144.5448  151.8474 LP  0  0  0  0  0  0  0  0  0  0  0  0  # atno 17343 bound_to 10162
  156.2036  130.3662  149.8758 LP  0  0  0  0  0  0  0  0  0  0  0  0  # atno 17370 bound_to 10713
  156.6655  130.8799  151.3554 LP  0  0  0  0  0  0  0  0  0  0  0  0  # atno 17371 bound_to 10713
  141.0985  133.6686  156.2700 LP  0  0  0  0  0  0  0  0  0  0  0  0  # atno 17394 bound_to 11000
  140.6055  134.5512  157.5525 LP  0  0  0  0  0  0  0  0  0  0  0  0  # atno 17395 bound_to 11000

$$$$
