AV-unprocessed.smi:1948|AV-procd|sdf|7875|dock2
  -GOLD-   2272010 23D 1   1.00000     0.00000
 Structure written by MMmdl.
 29 30  0  0  0  0  0  0  0  0  2 V2000
  147.3683  132.1430  154.1473 O   0  0  0  0  0  0  0  0  0  0  0  0
  147.9222  133.0985  153.5984 C   0  0  0  0  0  0  0  0  0  0  0  0
  149.1399  133.6016  153.9040 N   0  5  0  0  0  0  0  0  0  0  0  0
  149.7210  133.2907  155.0745 C   0  0  0  0  0  0  0  0  0  0  0  0
  149.7285  134.1350  156.1185 N   0  0  0  0  0  0  0  0  0  0  0  0
  150.3751  133.6189  157.2333 N   0  0  0  0  0  0  0  0  0  0  0  0
  150.8333  132.3887  157.0031 C   0  0  0  0  0  0  0  0  0  0  0  0
  150.5153  131.7486  155.4048 S   0  0  0  0  0  0  0  0  0  0  0  0
  147.3088  133.7428  152.5947 N   0  0  0  0  0  0  0  0  0  0  0  0
  145.9896  133.4322  152.0501 C   0  0  2  0  0  0  0  0  0  0  0  0
  145.8548  131.9195  151.7760 C   0  0  0  0  0  0  0  0  0  0  0  0
  144.5007  131.5841  151.1303 C   0  0  0  0  0  0  0  0  0  0  0  0
  144.2834  132.3981  149.8435 C   0  0  1  0  0  0  0  0  0  0  0  0
  143.0036  132.1163  149.3171 O   0  0  0  0  0  0  0  0  0  0  0  0
  144.4064  133.9070  150.1162 C   0  0  0  0  0  0  0  0  0  0  0  0
  145.7608  134.2439  150.7608 C   0  0  0  0  0  0  0  0  0  0  0  0
  151.3594  131.8543  157.7797 H   0  0  0  0  0  0  0  0  0  0  0  0
  147.8028  134.5167  152.1751 H   0  0  0  0  0  0  0  0  0  0  0  0
  145.2286  133.7296  152.7742 H   0  0  0  0  0  0  0  0  0  0  0  0
  146.6605  131.5902  151.1184 H   0  0  0  0  0  0  0  0  0  0  0  0
  145.9650  131.3563  152.7035 H   0  0  0  0  0  0  0  0  0  0  0  0
  144.4508  130.5166  150.9128 H   0  0  0  0  0  0  0  0  0  0  0  0
  143.7012  131.7937  151.8426 H   0  0  0  0  0  0  0  0  0  0  0  0
  145.0248  132.1037  149.0996 H   0  0  0  0  0  0  0  0  0  0  0  0
  142.4772  132.8989  149.3758 H   0  0  0  0  0  0  0  0  0  0  0  0
  144.2907  134.4672  149.1877 H   0  0  0  0  0  0  0  0  0  0  0  0
  143.6017  134.2323  150.7773 H   0  0  0  0  0  0  0  0  0  0  0  0
  145.8076  135.3116  150.9788 H   0  0  0  0  0  0  0  0  0  0  0  0
  146.5606  134.0388  150.0476 H   0  0  0  0  0  0  0  0  0  0  0  0
  1  2  2  0  0  0  0
  2  3  1  0  0  0  0
  2  9  1  0  0  0  0
  3  4  1  0  0  0  0
  4  8  1  0  0  0  0
  4  5  2  0  0  0  0
  5  6  1  0  0  0  0
  6  7  2  0  0  0  0
  7  8  1  0  0  0  0
  7 17  1  0  0  0  0
  9 10  1  0  0  0  0
  9 18  1  0  0  0  0
 10 16  1  0  0  0  0
 10 11  1  0  0  0  0
 10 19  1  0  0  0  0
 11 12  1  0  0  0  0
 11 20  1  0  0  0  0
 11 21  1  0  0  0  0
 12 13  1  0  0  0  0
 12 22  1  0  0  0  0
 12 23  1  0  0  0  0
 13 14  1  0  0  0  0
 13 15  1  0  0  0  0
 13 24  1  0  0  0  0
 14 25  1  0  0  0  0
 15 16  1  0  0  0  0
 15 26  1  0  0  0  0
 15 27  1  0  0  0  0
 16 28  1  0  0  0  0
 16 29  1  0  0  0  0
M  CHG  1   3  -1
M  END
> <s_m_source_file>
AV-unprocessed.smi

> <i_m_source_file_index>
1948

> <i_lp_mmshare_version>
43012

> <i_f3d_flags>
0

> <s_epik_input>
czFbY0hdbm5jMVtOSF1DKD1PKVtOSF1bQ0BASF0yW0NIMl1bQ0gyXVtDQEBIXShbT0hdKVtDSDJdW0NIMl0y

> <s_epik_cmdline>
J2VwaWtfcHl0aG9uJywgJy1waCcsICc3LjAnLCAnLXRuJywgJzgnLCAnLW1hJywgJzIwMCcsICctbWV0YWxfYmluZGluZycsICctaW1hZScsICc8aW5maWxlLm1hZT4nLCAnLW9tYWUnLCAnPG91dGZpbGUubWFlPic=

> <r_lp_tautomer_probability>
1

> <r_epik_Ionization_Penalty>
4.52057

> <r_epik_Ionization_Penalty_Charging>
4.4725

> <r_epik_Ionization_Penalty_Neutral>
0.048076

> <r_epik_State_Penalty>
4.47218

> <r_epik_Charging_Adjusted_Penalty>
8.94468

> <i_epik_Tot_Q>
-1

> <i_epik_Tot_abs_Q>
1

> <r_epik_Metal_State_Penalty>
0.805713

> <b_epik_Metal_Only>
1

> <s_lp_Force_Field>
OPLS_2005

> <r_lp_Energy>
5.07153

> <b_lp_Chiralities_Consistent>
1

> <s_lp_Variant>
AV-unprocessed.smi:1948-3

> <Gold.Version>
5.8.1

> <Gold.Id.Protein>
6NUR|6NUR_protein|mol2

> <Gold.PLP.Fitness>
38.5765

> <Gold.PLP.PLP>
-30.0613

> <Gold.PLP.part.hbond>
-4.9069

> <Gold.PLP.part.metal>
0.0000

> <Gold.PLP.part.buried>
-5.2773

> <Gold.PLP.part.nonpolar>
-20.5498

> <Gold.PLP.part.repulsive>
0.2420

> <Gold.PLP.ligand.clash>
0.0000

> <Gold.PLP.ligand.torsion>
0.8881

> <Gold.PLP.Chemscore.Hbond>
3.4245

> <Gold.PLP.Chemscore.CHOScore>
0.0000

> <Gold.PLP.Chemscore.Metal>
0.0000

> <Gold.Chemscore.Hbonds>
donor molecule, donor type, donor heavy atom, donor atom, acceptor molecule, acceptor atom, score
      L1  H     9    18       P1  7948  0.98
      L1  H    14    25       P1 10186  0.78
      P1  H  6896  6907       L1     6  0.77
      P1  H 10785 10796       L1    14  0.91

> <Gold.PLP.Chemscore.Internal.Correction>
0.0179

> <Gold.Rescore>
     Score         DG    S(hbond)    S(metal)    S(lipo)     H(rot)  DE(clash)    DE(int)     intcor
     15.07     -17.17       2.88        0.00      51.18       1.53       0.00       2.09       ----

> <Gold.Chemscore.Fitness>
15.0683

> <Gold.Chemscore.DG>
-17.1662

> <Gold.Chemscore.ZeroCoef>
-5.4800

> <Gold.Chemscore.Hbond>
2.8814

> <Gold.Chemscore.Metal>
0.0000

> <Gold.Chemscore.Lipo>
51.1825

> <Gold.Chemscore.Internal_Hbond>
0.0000

> <Gold.Chemscore.DEClash>
0.0048

> <Gold.Chemscore.DEInternal>
2.0931

> <Gold.Chemscore.Rot>
1.5337

> <Gold.Chemscore.Internal.Correction>
   9.000000E+99

> <Gold.Chemscore.Hbonds>
donor molecule, donor type, donor heavy atom, donor atom, acceptor molecule, acceptor atom, score
      L1  H     9    18       P1  7948  0.41
      L1  H    14    25       P1 10186  0.77
      P1  H  6896  6907       L1     6  0.14
      P1  H 10785 10796       L1    14  0.31

> <Gold.Chemscore.Hbond.Weighted>
-9.6240

> <Gold.Chemscore.Metal.Weighted>
-0.0000

> <Gold.Chemscore.Lipo.Weighted>
-5.9883

> <Gold.Chemscore.Internal_Hbond.Weighted>
0.0000

> <Gold.Chemscore.DEClash.Weighted>
0.0048

> <Gold.Chemscore.DEInternal.Weighted>
2.0931

> <Gold.Chemscore.Rot.Weighted>
3.9262

> <Gold.Chemscore.Internal.Correction.Weighted>
   9.000000E+99

> <Gold.Protein.RotatedTorsions>
[ 6907 6896 6895 6894 ] final -124.74 input  -60.11 | X-H torsion
[ 7974 7965 7964 7962 ] final   18.92 input  175.53 | X-H torsion
[ 8008 7997 7996 7995 ] final  -98.54 input   59.86 | X-H torsion
[ 10167 10162 10161 10158 ] final   96.35 input  -65.29 | X-H torsion
[ 10718 10713 10712 10709 ] final   89.59 input   66.30 | X-H torsion
[ 10763 10752 10751 10750 ] final  158.71 input  -60.55 | X-H torsion
[ 11005 11000 10999 10996 ] final  -12.62 input  -57.11 | X-H torsion

> <Gold.Protein.ActiveResidues>
 VAL166  LYS551  ARG553  GLY616  TRP617  ASP618  TYR619  PRO620  LYS621  CYS622 
 ASP623  PHE694  ASN695  SER759  ASP760  ASP761  ALA762  ILE779  LEU786  VAL792 
 PHE793  MET794  SER795  GLU796  ALA797  LYS798  CYS799  TRP800  GLU811  SER814 

> <Gold.Protein.RotatedAtoms>
  150.8797  133.7389  159.2935 H   0  0  0  0  0  0  0  0  0  0  0  0  # atno 6907 bound_to 6896
  151.4974  135.1059  159.9829 H   0  0  0  0  0  0  0  0  0  0  0  0  # atno 6908 bound_to 6896
  152.4752  133.8075  159.7041 H   0  0  0  0  0  0  0  0  0  0  0  0  # atno 6909 bound_to 6896
  146.2168  139.8388  142.8645 H   0  0  0  0  0  0  0  0  0  0  0  0  # atno 7974 bound_to 7965
  154.8027  140.0454  157.1284 H   0  0  0  0  0  0  0  0  0  0  0  0  # atno 8008 bound_to 7997
  154.9460  140.3059  155.5078 H   0  0  0  0  0  0  0  0  0  0  0  0  # atno 8009 bound_to 7997
  156.2963  140.2297  156.4534 H   0  0  0  0  0  0  0  0  0  0  0  0  # atno 8010 bound_to 7997
  139.7902  144.6855  150.9902 H   0  0  0  0  0  0  0  0  0  0  0  0  # atno 10167 bound_to 10162
  157.6956  131.0339  150.3449 H   0  0  0  0  0  0  0  0  0  0  0  0  # atno 10718 bound_to 10713
  154.2203  135.2782  155.2927 H   0  0  0  0  0  0  0  0  0  0  0  0  # atno 10763 bound_to 10752
  154.5707  135.5619  153.7096 H   0  0  0  0  0  0  0  0  0  0  0  0  # atno 10764 bound_to 10752
  153.0043  135.6320  154.2343 H   0  0  0  0  0  0  0  0  0  0  0  0  # atno 10765 bound_to 10752
  140.7676  133.8464  155.9179 H   0  0  0  0  0  0  0  0  0  0  0  0  # atno 11005 bound_to 11000
  145.2920  141.0170  143.3657 LP  0  0  0  0  0  0  0  0  0  0  0  0  # atno 17320 bound_to 7965
  144.9070  139.4577  143.6605 LP  0  0  0  0  0  0  0  0  0  0  0  0  # atno 17321 bound_to 7965
  140.7820  143.4389  151.0582 LP  0  0  0  0  0  0  0  0  0  0  0  0  # atno 17342 bound_to 10162
  139.8066  143.8010  152.3168 LP  0  0  0  0  0  0  0  0  0  0  0  0  # atno 17343 bound_to 10162
  156.3905  130.3897  149.7033 LP  0  0  0  0  0  0  0  0  0  0  0  0  # atno 17370 bound_to 10713
  156.4385  130.7849  151.2870 LP  0  0  0  0  0  0  0  0  0  0  0  0  # atno 17371 bound_to 10713
  140.9604  134.1663  157.4658 LP  0  0  0  0  0  0  0  0  0  0  0  0  # atno 17394 bound_to 11000
  139.8761  134.9942  156.5685 LP  0  0  0  0  0  0  0  0  0  0  0  0  # atno 17395 bound_to 11000

$$$$
