AV-unprocessed.smi:3276|AV-procd|sdf|12535|dock10
  -GOLD-   2272018453D 1   1.00000     0.00000
 Structure written by MMmdl.
 39 40  0  0  0  0  0  0  0  0  1 V2000
  154.2449  140.7855  161.2538 C   0  0  0  0  0  0  0  0  0  0  0  0
  153.3625  141.9924  161.0170 C   0  0  0  0  0  0  0  0  0  0  0  0
  152.7771  142.7022  162.0868 C   0  0  0  0  0  0  0  0  0  0  0  0
  151.9871  143.7767  161.8745 N   0  0  0  0  0  0  0  0  0  0  0  0
  151.7828  144.1396  160.5869 C   0  0  0  0  0  0  0  0  0  0  0  0
  150.8869  145.3454  160.3664 C   0  0  0  0  0  0  0  0  0  0  0  0
  152.3667  143.4295  159.5069 C   0  0  0  0  0  0  0  0  0  0  0  0
  152.1322  143.8364  158.1838 N   0  0  0  0  0  0  0  0  0  0  0  0
  151.0893  143.2098  157.3798 C   0  0  0  0  0  0  0  0  0  0  0  0
  151.0820  141.6809  157.5228 C   0  0  0  0  0  0  0  0  0  0  0  0
  150.0939  141.1475  156.6581 O   0  0  0  0  0  0  0  0  0  0  0  0
  150.6421  140.5393  155.5001 C   0  0  0  0  0  0  0  0  0  0  0  0
  149.5851  140.5029  154.3876 C   0  0  1  0  0  0  0  0  0  0  0  0
  148.3939  139.5772  154.6520 C   0  0  0  0  0  0  0  0  0  0  0  0
  147.2940  140.2643  153.8747 C   0  0  0  0  0  0  0  0  0  0  0  0
  147.6230  141.7337  154.1166 C   0  0  0  0  0  0  0  0  0  0  0  0
  149.0446  141.8019  154.1558 O   0  0  0  0  0  0  0  0  0  0  0  0
  153.1602  142.3533  159.7308 N   0  0  0  0  0  0  0  0  0  0  0  0
  154.4891  140.6791  162.3110 H   0  0  0  0  0  0  0  0  0  0  0  0
  155.1781  140.8797  160.6975 H   0  0  0  0  0  0  0  0  0  0  0  0
  153.7382  139.8773  160.9264 H   0  0  0  0  0  0  0  0  0  0  0  0
  152.9406  142.4098  163.1137 H   0  0  0  0  0  0  0  0  0  0  0  0
  150.0215  145.0685  159.7635 H   0  0  0  0  0  0  0  0  0  0  0  0
  151.4326  146.1333  159.8466 H   0  0  0  0  0  0  0  0  0  0  0  0
  150.5241  145.7524  161.3112 H   0  0  0  0  0  0  0  0  0  0  0  0
  152.4423  144.7566  157.9069 H   0  0  0  0  0  0  0  0  0  0  0  0
  150.1256  143.6121  157.6928 H   0  0  0  0  0  0  0  0  0  0  0  0
  151.2104  143.4911  156.3333 H   0  0  0  0  0  0  0  0  0  0  0  0
  152.0592  141.2829  157.2460 H   0  0  0  0  0  0  0  0  0  0  0  0
  150.8922  141.3861  158.5560 H   0  0  0  0  0  0  0  0  0  0  0  0
  151.5215  141.0913  155.1650 H   0  0  0  0  0  0  0  0  0  0  0  0
  150.9619  139.5224  155.7320 H   0  0  0  0  0  0  0  0  0  0  0  0
  150.0624  140.1969  153.4557 H   0  0  0  0  0  0  0  0  0  0  0  0
  148.5721  138.5518  154.3270 H   0  0  0  0  0  0  0  0  0  0  0  0
  148.1344  139.5565  155.7113 H   0  0  0  0  0  0  0  0  0  0  0  0
  147.3783  140.0283  152.8129 H   0  0  0  0  0  0  0  0  0  0  0  0
  146.2939  139.9898  154.2112 H   0  0  0  0  0  0  0  0  0  0  0  0
  147.2114  142.3896  153.3491 H   0  0  0  0  0  0  0  0  0  0  0  0
  147.2329  142.0544  155.0835 H   0  0  0  0  0  0  0  0  0  0  0  0
  1  2  1  0  0  0  0
  1 19  1  0  0  0  0
  1 20  1  0  0  0  0
  1 21  1  0  0  0  0
  2 18  1  0  0  0  0
  2  3  2  0  0  0  0
  3  4  1  0  0  0  0
  3 22  1  0  0  0  0
  4  5  2  0  0  0  0
  5  6  1  0  0  0  0
  5  7  1  0  0  0  0
  6 23  1  0  0  0  0
  6 24  1  0  0  0  0
  6 25  1  0  0  0  0
  7  8  1  0  0  0  0
  7 18  2  0  0  0  0
  8  9  1  0  0  0  0
  8 26  1  0  0  0  0
  9 10  1  0  0  0  0
  9 27  1  0  0  0  0
  9 28  1  0  0  0  0
 10 11  1  0  0  0  0
 10 29  1  0  0  0  0
 10 30  1  0  0  0  0
 11 12  1  0  0  0  0
 12 13  1  0  0  0  0
 12 31  1  0  0  0  0
 12 32  1  0  0  0  0
 13 17  1  0  0  0  0
 13 14  1  0  0  0  0
 13 33  1  0  0  0  0
 14 15  1  0  0  0  0
 14 34  1  0  0  0  0
 14 35  1  0  0  0  0
 15 16  1  0  0  0  0
 15 36  1  0  0  0  0
 15 37  1  0  0  0  0
 16 17  1  0  0  0  0
 16 38  1  0  0  0  0
 16 39  1  0  0  0  0
M  END
> <s_m_source_file>
AV-unprocessed.smi

> <i_m_source_file_index>
3276

> <i_lp_mmshare_version>
43012

> <i_f3d_flags>
0

> <s_epik_input>
W0NIM11jMVtjSF1uYyhbQ0gzXSljKG4xKVtOSF1bQ0gyXVtDSDJdT1tDSDJdW0NAQEhdMltDSDJdW0NIMl1bQ0gyXU8y

> <s_epik_cmdline>
J2VwaWtfcHl0aG9uJywgJy1waCcsICc3LjAnLCAnLXRuJywgJzgnLCAnLW1hJywgJzIwMCcsICctbWV0YWxfYmluZGluZycsICctaW1hZScsICc8aW5maWxlLm1hZT4nLCAnLW9tYWUnLCAnPG91dGZpbGUubWFlPic=

> <r_lp_tautomer_probability>
1

> <r_epik_Ionization_Penalty>
0.000506

> <r_epik_Ionization_Penalty_Charging>
0

> <r_epik_Ionization_Penalty_Neutral>
0.000506

> <r_epik_State_Penalty>
-0

> <r_epik_Charging_Adjusted_Penalty>
0

> <i_epik_Tot_Q>
0

> <i_epik_Tot_abs_Q>
0

> <r_epik_Metal_State_Penalty>
-0

> <b_epik_Metal_Only>
0

> <s_lp_Force_Field>
OPLS_2005

> <r_lp_Energy>
26.2022

> <b_lp_Chiralities_Consistent>
1

> <s_lp_Variant>
AV-unprocessed.smi:3276-2

> <Gold.Version>
5.8.1

> <Gold.Id.Protein>
6NUR|6NUR_protein|mol2

> <Gold.PLP.Fitness>
42.4106

> <Gold.PLP.PLP>
-43.4854

> <Gold.PLP.part.hbond>
-1.6295

> <Gold.PLP.part.metal>
0.0000

> <Gold.PLP.part.buried>
-4.8709

> <Gold.PLP.part.nonpolar>
-36.3877

> <Gold.PLP.part.repulsive>
0.4610

> <Gold.PLP.ligand.clash>
0.0000

> <Gold.PLP.ligand.torsion>
1.3100

> <Gold.PLP.Chemscore.Hbond>
0.4960

> <Gold.PLP.Chemscore.CHOScore>
0.0000

> <Gold.PLP.Chemscore.Metal>
0.0000

> <Gold.Chemscore.Hbonds>
donor molecule, donor type, donor heavy atom, donor atom, acceptor molecule, acceptor atom, score
      P1  H  8011  8017       L1    17  0.46

> <Gold.PLP.Chemscore.Internal.Correction>
0.0573

> <Gold.Rescore>
     Score         DG    S(hbond)    S(metal)    S(lipo)     H(rot)  DE(clash)    DE(int)     intcor
     13.45     -14.90       0.49        0.00     103.34       1.68       0.17       1.28       ----

> <Gold.Chemscore.Fitness>
13.4502

> <Gold.Chemscore.DG>
-14.8983

> <Gold.Chemscore.ZeroCoef>
-5.4800

> <Gold.Chemscore.Hbond>
0.4891

> <Gold.Chemscore.Metal>
0.0000

> <Gold.Chemscore.Lipo>
103.3371

> <Gold.Chemscore.Internal_Hbond>
0.0000

> <Gold.Chemscore.DEClash>
0.1692

> <Gold.Chemscore.DEInternal>
1.2789

> <Gold.Chemscore.Rot>
1.6820

> <Gold.Chemscore.Internal.Correction>
   9.000000E+99

> <Gold.Chemscore.Hbonds>
donor molecule, donor type, donor heavy atom, donor atom, acceptor molecule, acceptor atom, score
      P1  H  8011  8017       L1    17  0.21

> <Gold.Chemscore.Hbond.Weighted>
-1.6337

> <Gold.Chemscore.Metal.Weighted>
-0.0000

> <Gold.Chemscore.Lipo.Weighted>
-12.0904

> <Gold.Chemscore.Internal_Hbond.Weighted>
0.0000

> <Gold.Chemscore.DEClash.Weighted>
0.1692

> <Gold.Chemscore.DEInternal.Weighted>
1.2789

> <Gold.Chemscore.Rot.Weighted>
4.3058

> <Gold.Chemscore.Internal.Correction.Weighted>
   9.000000E+99

> <Gold.Protein.RotatedTorsions>
[ 6907 6896 6895 6894 ] final -119.20 input  -60.11 | X-H torsion
[ 7974 7965 7964 7962 ] final  -96.03 input  175.53 | X-H torsion
[ 8008 7997 7996 7995 ] final   10.86 input   59.86 | X-H torsion
[ 10167 10162 10161 10158 ] final   49.06 input  -65.29 | X-H torsion
[ 10718 10713 10712 10709 ] final   92.59 input   66.30 | X-H torsion
[ 10763 10752 10751 10750 ] final  145.84 input  -60.55 | X-H torsion
[ 11005 11000 10999 10996 ] final  115.90 input  -57.11 | X-H torsion

> <Gold.Protein.ActiveResidues>
 VAL166  LYS551  ARG553  GLY616  TRP617  ASP618  TYR619  PRO620  LYS621  CYS622 
 ASP623  PHE694  ASN695  SER759  ASP760  ASP761  ALA762  ILE779  LEU786  VAL792 
 PHE793  MET794  SER795  GLU796  ALA797  LYS798  CYS799  TRP800  GLU811  SER814 

> <Gold.Protein.RotatedAtoms>
  150.8285  133.8131  159.3108 H   0  0  0  0  0  0  0  0  0  0  0  0  # atno 6907 bound_to 6896
  151.5868  135.1054  160.0039 H   0  0  0  0  0  0  0  0  0  0  0  0  # atno 6908 bound_to 6896
  152.4367  133.7332  159.6656 H   0  0  0  0  0  0  0  0  0  0  0  0  # atno 6909 bound_to 6896
  145.3523  140.9478  143.2547 H   0  0  0  0  0  0  0  0  0  0  0  0  # atno 7974 bound_to 7965
  154.7991  140.2849  155.5934 H   0  0  0  0  0  0  0  0  0  0  0  0  # atno 8008 bound_to 7997
  156.2975  140.2590  156.2785 H   0  0  0  0  0  0  0  0  0  0  0  0  # atno 8009 bound_to 7997
  154.9579  140.0378  157.2165 H   0  0  0  0  0  0  0  0  0  0  0  0  # atno 8010 bound_to 7997
  140.2868  144.3092  150.6250 H   0  0  0  0  0  0  0  0  0  0  0  0  # atno 10167 bound_to 10162
  157.6958  131.0448  150.3905 H   0  0  0  0  0  0  0  0  0  0  0  0  # atno 10718 bound_to 10713
  154.0120  135.2913  155.3391 H   0  0  0  0  0  0  0  0  0  0  0  0  # atno 10763 bound_to 10752
  154.7097  135.5154  153.8651 H   0  0  0  0  0  0  0  0  0  0  0  0  # atno 10764 bound_to 10752
  153.0719  135.6650  154.0351 H   0  0  0  0  0  0  0  0  0  0  0  0  # atno 10765 bound_to 10752
  139.9024  134.9590  156.7116 H   0  0  0  0  0  0  0  0  0  0  0  0  # atno 11005 bound_to 11000
  144.8708  139.5040  143.6768 LP  0  0  0  0  0  0  0  0  0  0  0  0  # atno 17320 bound_to 7965
  146.2963  139.7287  142.9124 LP  0  0  0  0  0  0  0  0  0  0  0  0  # atno 17321 bound_to 7965
  140.5766  143.2176  151.7504 LP  0  0  0  0  0  0  0  0  0  0  0  0  # atno 17342 bound_to 10162
  139.4948  144.4141  152.0049 LP  0  0  0  0  0  0  0  0  0  0  0  0  # atno 17343 bound_to 10162
  156.4309  130.3972  149.6761 LP  0  0  0  0  0  0  0  0  0  0  0  0  # atno 17370 bound_to 10713
  156.3979  130.7660  151.2665 LP  0  0  0  0  0  0  0  0  0  0  0  0  # atno 17371 bound_to 10713
  140.7071  133.9255  155.8061 LP  0  0  0  0  0  0  0  0  0  0  0  0  # atno 17394 bound_to 11000
  141.0328  134.0732  157.3994 LP  0  0  0  0  0  0  0  0  0  0  0  0  # atno 17395 bound_to 11000

$$$$
