#       Name:                AV-unprocessed.smi:104
#       Creating user name   scv26
#       Creation time:       Thu Mar 26 17:58:15 2020


#       File generated by GOLD software.
#

@<TRIPOS>MOLECULE
AV-unprocessed.smi:104
    58    60     1
SMALL
NO_CHARGES


@<TRIPOS>ATOM
      1 ****        -4.1755   3.9661   1.4559 C.3            1 S1                 0.0000
      2 ****        -3.6298   2.5946   1.0810 C.2            1 S1                 0.0000
      3 ****        -3.8624   2.0927  -0.0181 O.2            1 S1                 0.0000
      4 ****        -2.9009   2.0460   2.0692 O.3            1 S1                 0.0000
      5 ****        -2.2864   0.7748   1.9032 C.3            1 S1                 0.0000
      6 ****        -0.7930   0.9320   1.5650 C.3            1 S1                 0.0000
      7 ****        -0.0734  -0.2581   1.8364 O.3            1 S1                 0.0000
      8 ****         1.1726  -0.1329   1.2324 C.3            1 S1                 0.0000
      9 ****         1.6677  -1.4964   0.8824 N.pl3          1 S1                 0.0000
     10 ****         2.8848  -2.0801   1.1515 C.2            1 S1                 0.0000
     11 ****         4.2704  -1.1688   2.0880 Br             1 S1                 0.0000
     12 ****         3.0669  -3.2983   0.7236 N.2            1 S1                 0.0000
     13 ****         1.8613  -3.5857   0.0951 C.ar           1 S1                 0.0000
     14 ****         1.3529  -4.7159  -0.5932 C.ar           1 S1                 0.0000
     15 ****         2.0560  -5.8433  -0.7667 N.pl3          1 S1                 0.0000
     16 ****         0.0993  -4.6549  -1.1009 N.ar           1 S1                 0.0000
     17 ****        -0.6235  -3.5413  -0.9419 C.ar           1 S1                 0.0000
     18 ****        -0.2855  -2.4076  -0.3223 N.ar           1 S1                 0.0000
     19 ****         0.9792  -2.4701   0.1887 C.ar           1 S1                 0.0000
     20 ****         0.9868   0.7150  -0.0364 C.3            1 S1                 0.0000
     21 ****         1.9139   1.7913  -0.0712 O.3            1 S1                 0.0000
     22 ****         3.1430   1.6046  -0.5834 C.2            1 S1                 0.0000
     23 ****         3.9912   2.8680  -0.5322 C.3            1 S1                 0.0000
     24 ****         3.5843   0.5518  -1.0442 O.2            1 S1                 0.0000
     25 ****        -0.4360   1.2526   0.1077 C.3            1 S1                 0.0000
     26 ****        -1.3000   0.5776  -0.7994 O.3            1 S1                 0.0000
     27 ****        -1.3807   0.9674  -2.0830 C.2            1 S1                 0.0000
     28 ****        -2.3559   0.1162  -2.8844 C.3            1 S1                 0.0000
     29 ****        -0.7568   1.8943  -2.5995 O.2            1 S1                 0.0000
     30 ****        -3.4298   4.7353   1.2561 H              1 S1                 0.0000
     31 ****        -4.4347   3.9999   2.5143 H              1 S1                 0.0000
     32 ****        -5.0705   4.1918   0.8756 H              1 S1                 0.0000
     33 ****        -2.3730   0.2625   2.8614 H              1 S1                 0.0000
     34 ****        -2.8068   0.1459   1.1796 H              1 S1                 0.0000
     35 ****        -0.3653   1.7021   2.2103 H              1 S1                 0.0000
     36 ****         1.8912   0.2834   1.9383 H              1 S1                 0.0000
     37 ****         2.9937  -5.9127  -0.3982 H              1 S1                 0.0000
     38 ****         1.6482  -6.6201  -1.2667 H              1 S1                 0.0000
     39 ****        -1.6138  -3.5607  -1.3725 H              1 S1                 0.0000
     40 ****         1.0741   0.0934  -0.9295 H              1 S1                 0.0000
     41 ****         4.2015   3.1396   0.5023 H              1 S1                 0.0000
     42 ****         3.4682   3.6964  -1.0101 H              1 S1                 0.0000
     43 ****         4.9389   2.7140  -1.0485 H              1 S1                 0.0000
     44 ****        -0.4919   2.3290  -0.0644 H              1 S1                 0.0000
     45 ****        -3.3688   0.2424  -2.5019 H              1 S1                 0.0000
     46 ****        -2.0858  -0.9375  -2.8118 H              1 S1                 0.0000
     47 ****        -2.3439   0.4051  -3.9356 H              1 S1                 0.0000
     48 ****        -4.4197   2.5867  -0.6856 LP             1 S1                 0.0000
     49 ****        -3.4943   1.1908  -0.2440 LP             1 S1                 0.0000
     50 ****        -0.5596  -1.0460   1.4584 LP             1 S1                 0.0000
     51 ****         0.0347  -0.3754   2.8236 LP             1 S1                 0.0000
     52 ****         3.8735  -3.8809   0.8230 LP             1 S1                 0.0000
     53 ****        -0.2836  -5.4376  -1.5917 LP             1 S1                 0.0000
     54 ****        -0.8848  -1.6111  -0.2425 LP             1 S1                 0.0000
     55 ****         3.0102  -0.2669  -1.0594 LP             1 S1                 0.0000
     56 ****         4.5168   0.5152  -1.4034 LP             1 S1                 0.0000
     57 ****        -0.1194   2.4350  -2.0507 LP             1 S1                 0.0000
     58 ****        -0.8875   2.1065  -3.5680 LP             1 S1                 0.0000
@<TRIPOS>BOND
    1    1    2 1     
    2    1   30 1     
    3    1   31 1     
    4    1   32 1     
    5    2    3 2     
    6    2    4 1     
    7    4    5 1     
    8    5    6 1     
    9    5   33 1     
   10    5   34 1     
   11    6   25 1     
   12    6    7 1     
   13    6   35 1     
   14    7    8 1     
   15    8    9 1     
   16    8   20 1     
   17    8   36 1     
   18    9   19 1     
   19    9   10 1     
   20   10   11 1     
   21   10   12 2     
   22   12   13 1     
   23   13   19 ar    
   24   13   14 ar    
   25   14   15 1     
   26   14   16 ar    
   27   15   37 1     
   28   15   38 1     
   29   16   17 ar    
   30   17   18 ar    
   31   17   39 1     
   32   18   19 ar    
   33   20   21 1     
   34   20   25 1     
   35   20   40 1     
   36   21   22 1     
   37   22   23 1     
   38   22   24 2     
   39   23   41 1     
   40   23   42 1     
   41   23   43 1     
   42   25   26 1     
   43   25   44 1     
   44   26   27 1     
   45   27   28 1     
   46   27   29 2     
   47   28   45 1     
   48   28   46 1     
   49   28   47 1     
   50    3   48 1     
   51    3   49 1     
   52    7   50 1     
   53    7   51 1     
   54   12   52 1     
   55   16   53 1     
   56   18   54 1     
   57   24   55 1     
   58   24   56 1     
   59   29   57 1     
   60   29   58 1     
@<TRIPOS>SUBSTRUCTURE
      1 S1             1
@<TRIPOS>SET
LONE_PAIRS      STATIC     ATOMS    <user>   **** ""
11 48 49 50 51 52 53 54 55 56 57 58
DONOR_HYDROGENS      STATIC     ATOMS    <user>   **** ""
2 37 38
ATOM$BLUE        STATIC     ATOMS    COLORGROUP SYSTEM
11 48 49 50 51 52 53 54 55 56 57 58
ATOM$RED        STATIC     ATOMS    COLORGROUP SYSTEM
2 37 38
