AV-unprocessed.smi:92|AV-procd|sdf|848|dock10
  -GOLD-   2262017283D 1   1.00000     0.00000
 Structure written by MMmdl.
 61 64  0  0  0  0  0  0  0  0  2 V2000
  150.9619  142.9049  158.5257 C   0  0  0  0  0  0  0  0  0  0  0  0
  151.0032  142.2389  157.1428 C   0  0  0  0  0  0  0  0  0  0  0  0
  149.6524  141.8683  156.6504 N   0  3  1  0  0  0  0  0  0  0  0  0
  149.6911  141.3088  155.2748 C   0  0  0  0  0  0  0  0  0  0  0  0
  148.2738  141.0731  154.7300 C   0  0  0  0  0  0  0  0  0  0  0  0
  147.4674  140.1644  155.6778 C   0  0  2  0  0  0  0  0  0  0  0  0
  146.1437  139.7940  155.1515 N   0  0  0  0  0  0  0  0  0  0  0  0
  145.0036  139.5646  156.0419 C   0  0  0  0  0  0  0  0  0  0  0  0
  146.1462  139.0955  153.9848 C   0  0  0  0  0  0  0  0  0  0  0  0
  146.8067  139.6027  152.9096 N   0  0  0  0  0  0  0  0  0  0  0  0
  146.8023  138.9510  151.7439 C   0  0  0  0  0  0  0  0  0  0  0  0
  146.2111  137.7957  151.4383 N   0  0  0  0  0  0  0  0  0  0  0  0
  145.5517  137.2733  152.5117 C   0  0  0  0  0  0  0  0  0  0  0  0
  145.4706  137.8530  153.8106 C   0  0  0  0  0  0  0  0  0  0  0  0
  144.7273  137.0285  154.6469 N   0  0  0  0  0  0  0  0  0  0  0  0
  144.3809  136.0270  153.8860 C   0  0  0  0  0  0  0  0  0  0  0  0
  144.8301  136.0920  152.5864 N   0  0  0  0  0  0  0  0  0  0  0  0
  144.5912  135.1229  151.5527 C   0  0  0  0  0  0  0  0  0  0  0  0
  144.0748  133.7192  151.8807 C   0  0  0  0  0  0  0  0  0  0  0  0
  144.8914  133.1535  150.6947 C   0  0  0  0  0  0  0  0  0  0  0  0
  145.6044  131.8074  150.9321 C   0  0  0  0  0  0  0  0  0  0  0  0
  146.4791  131.4621  149.8763 O   0  0  0  0  0  0  0  0  0  0  0  0
  144.0854  133.0189  149.3892 C   0  0  0  0  0  0  0  0  0  0  0  0
  143.1022  132.0080  149.4846 O   0  0  0  0  0  0  0  0  0  0  0  0
  145.7458  134.4379  150.8162 C   0  0  0  0  0  0  0  0  0  0  0  0
  147.4612  140.7357  157.1216 C   0  0  2  0  0  0  0  0  0  0  0  0
  146.5995  141.9954  157.3310 C   0  0  0  0  0  0  0  0  0  0  0  0
  148.9143  140.9741  157.5832 C   0  0  0  0  0  0  0  0  0  0  0  0
  151.9565  143.2432  158.8172 H   0  0  0  0  0  0  0  0  0  0  0  0
  150.6150  142.2229  159.3012 H   0  0  0  0  0  0  0  0  0  0  0  0
  150.3052  143.7754  158.5241 H   0  0  0  0  0  0  0  0  0  0  0  0
  151.4575  142.9476  156.4491 H   0  0  0  0  0  0  0  0  0  0  0  0
  151.6517  141.3617  157.1553 H   0  0  0  0  0  0  0  0  0  0  0  0
  150.2173  141.9951  154.6102 H   0  0  0  0  0  0  0  0  0  0  0  0
  150.2555  140.3747  155.2765 H   0  0  0  0  0  0  0  0  0  0  0  0
  147.7789  142.0358  154.5996 H   0  0  0  0  0  0  0  0  0  0  0  0
  148.3360  140.6192  153.7402 H   0  0  0  0  0  0  0  0  0  0  0  0
  148.0457  139.2437  155.7238 H   0  0  0  0  0  0  0  0  0  0  0  0
  144.0768  139.5130  155.4687 H   0  0  0  0  0  0  0  0  0  0  0  0
  144.8850  140.3820  156.7517 H   0  0  0  0  0  0  0  0  0  0  0  0
  145.0995  138.6368  156.6026 H   0  0  0  0  0  0  0  0  0  0  0  0
  147.3488  139.4224  150.9406 H   0  0  0  0  0  0  0  0  0  0  0  0
  143.7841  135.2067  154.2579 H   0  0  0  0  0  0  0  0  0  0  0  0
  143.9271  135.6004  150.8297 H   0  0  0  0  0  0  0  0  0  0  0  0
  144.4097  133.3639  152.8557 H   0  0  0  0  0  0  0  0  0  0  0  0
  142.9943  133.6082  151.7847 H   0  0  0  0  0  0  0  0  0  0  0  0
  146.1876  131.8349  151.8531 H   0  0  0  0  0  0  0  0  0  0  0  0
  144.8850  130.9950  151.0392 H   0  0  0  0  0  0  0  0  0  0  0  0
  147.3588  131.4131  150.2179 H   0  0  0  0  0  0  0  0  0  0  0  0
  143.5967  133.9594  149.1322 H   0  0  0  0  0  0  0  0  0  0  0  0
  144.7338  132.7730  148.5479 H   0  0  0  0  0  0  0  0  0  0  0  0
  142.4611  132.2714  150.1271 H   0  0  0  0  0  0  0  0  0  0  0  0
  146.0095  134.9066  149.8678 H   0  0  0  0  0  0  0  0  0  0  0  0
  146.6321  134.3128  151.4388 H   0  0  0  0  0  0  0  0  0  0  0  0
  147.0504  139.9710  157.7823 H   0  0  0  0  0  0  0  0  0  0  0  0
  146.8548  142.7910  156.6315 H   0  0  0  0  0  0  0  0  0  0  0  0
  146.7275  142.3914  158.3387 H   0  0  0  0  0  0  0  0  0  0  0  0
  145.5396  141.7717  157.2216 H   0  0  0  0  0  0  0  0  0  0  0  0
  149.4402  140.0201  157.6506 H   0  0  0  0  0  0  0  0  0  0  0  0
  148.9079  141.3899  158.5901 H   0  0  0  0  0  0  0  0  0  0  0  0
  149.1261  142.7284  156.5888 H   0  0  0  0  0  0  0  0  0  0  0  0
  1  2  1  0  0  0  0
  1 29  1  0  0  0  0
  1 30  1  0  0  0  0
  1 31  1  0  0  0  0
  2  3  1  0  0  0  0
  2 32  1  0  0  0  0
  2 33  1  0  0  0  0
  3 28  1  0  0  0  0
  3  4  1  0  0  0  0
  3 61  1  0  0  0  0
  4  5  1  0  0  0  0
  4 34  1  0  0  0  0
  4 35  1  0  0  0  0
  5  6  1  0  0  0  0
  5 36  1  0  0  0  0
  5 37  1  0  0  0  0
  6  7  1  0  0  0  0
  6 26  1  0  0  0  0
  6 38  1  0  0  0  0
  7  8  1  0  0  0  0
  7  9  1  0  0  0  0
  8 39  1  0  0  0  0
  8 40  1  0  0  0  0
  8 41  1  0  0  0  0
  9 14  1  0  0  0  0
  9 10  2  0  0  0  0
 10 11  1  0  0  0  0
 11 12  2  0  0  0  0
 11 42  1  0  0  0  0
 12 13  1  0  0  0  0
 13 17  1  0  0  0  0
 13 14  2  0  0  0  0
 14 15  1  0  0  0  0
 15 16  2  0  0  0  0
 16 17  1  0  0  0  0
 16 43  1  0  0  0  0
 17 18  1  0  0  0  0
 18 25  1  0  0  0  0
 18 19  1  0  0  0  0
 18 44  1  0  0  0  0
 19 20  1  0  0  0  0
 19 45  1  0  0  0  0
 19 46  1  0  0  0  0
 20 21  1  0  0  0  0
 20 23  1  0  0  0  0
 20 25  1  0  0  0  0
 21 22  1  0  0  0  0
 21 47  1  0  0  0  0
 21 48  1  0  0  0  0
 22 49  1  0  0  0  0
 23 24  1  0  0  0  0
 23 50  1  0  0  0  0
 23 51  1  0  0  0  0
 24 52  1  0  0  0  0
 25 53  1  0  0  0  0
 25 54  1  0  0  0  0
 26 27  1  0  0  0  0
 26 28  1  0  0  0  0
 26 55  1  0  0  0  0
 27 56  1  0  0  0  0
 27 57  1  0  0  0  0
 27 58  1  0  0  0  0
 28 59  1  0  0  0  0
 28 60  1  0  0  0  0
M  CHG  1   3   1
M  END
> <s_m_source_file>
AV-unprocessed.smi

> <i_m_source_file_index>
92

> <i_lp_mmshare_version>
43012

> <i_f3d_flags>
0

> <s_epik_input>
W0NIM11bQ0gyXU4xW0NIMl1bQ0gyXVtDQEhdKFtDQEBIXShbQ0gzXSlbQ0gyXTEpTihbQ0gzXSljKG5bY0hdbjIpYyhjMjMpbltjSF1uM1tDSF0oW0NIMl00KVtDSDJdQzQoW0NIMl1bT0hdKVtDSDJdW09IXQ==

> <s_epik_cmdline>
J2VwaWtfcHl0aG9uJywgJy1waCcsICc3LjAnLCAnLXRuJywgJzgnLCAnLW1hJywgJzIwMCcsICctbWV0YWxfYmluZGluZycsICctaW1hZScsICc8aW5maWxlLm1hZT4nLCAnLW9tYWUnLCAnPG91dGZpbGUubWFlPic=

> <r_lp_tautomer_probability>
1

> <r_epik_Ionization_Penalty>
0.00235514

> <r_epik_Ionization_Penalty_Charging>
0.00137877

> <r_epik_Ionization_Penalty_Neutral>
0.000976366

> <r_epik_State_Penalty>
-0

> <r_epik_Charging_Adjusted_Penalty>
0.00137877

> <i_epik_Tot_Q>
1

> <i_epik_Tot_abs_Q>
1

> <r_epik_Metal_State_Penalty>
-0

> <b_epik_Metal_Only>
0

> <s_lp_Force_Field>
OPLS_2005

> <r_lp_Energy>
56.4815

> <b_lp_Chiralities_Consistent>
1

> <s_lp_Variant>
AV-unprocessed.smi:92-8

> <Gold.Version>
5.8.1

> <Gold.Id.Protein>
6NUR|6NUR_protein|mol2

> <Gold.PLP.Fitness>
55.4029

> <Gold.PLP.PLP>
-42.2329

> <Gold.PLP.part.hbond>
-4.4684

> <Gold.PLP.part.metal>
0.0000

> <Gold.PLP.part.buried>
-7.3324

> <Gold.PLP.part.nonpolar>
-33.5912

> <Gold.PLP.part.repulsive>
2.0409

> <Gold.PLP.ligand.clash>
0.0000

> <Gold.PLP.ligand.torsion>
1.3271

> <Gold.PLP.Chemscore.Hbond>
4.0000

> <Gold.PLP.Chemscore.CHOScore>
0.8219

> <Gold.PLP.Chemscore.Metal>
0.0000

> <Gold.Chemscore.Hbonds>
donor molecule, donor type, donor heavy atom, donor atom, acceptor molecule, acceptor atom, score
      L1  H     3    61       P1  8028  1.08
      L1  H    22    49       P1 10747  1.00
      P1  H 10785 10796       L1    24  1.00
      L1  C    11    42       P1  7957  0.87

> <Gold.PLP.Chemscore.Internal.Correction>
1.3583

> <Gold.Rescore>
     Score         DG    S(hbond)    S(metal)    S(lipo)     H(rot)  DE(clash)    DE(int)     intcor
     11.71     -17.30       2.96        0.00      87.03       3.22       1.53       4.06       ----

> <Gold.Chemscore.Fitness>
11.7091

> <Gold.Chemscore.DG>
-17.3042

> <Gold.Chemscore.ZeroCoef>
-5.4800

> <Gold.Chemscore.Hbond>
2.9609

> <Gold.Chemscore.Metal>
0.0000

> <Gold.Chemscore.Lipo>
87.0335

> <Gold.Chemscore.Internal_Hbond>
0.0000

> <Gold.Chemscore.DEClash>
1.5302

> <Gold.Chemscore.DEInternal>
4.0649

> <Gold.Chemscore.Rot>
3.2219

> <Gold.Chemscore.Internal.Correction>
   9.000000E+99

> <Gold.Chemscore.Hbonds>
donor molecule, donor type, donor heavy atom, donor atom, acceptor molecule, acceptor atom, score
      L1  H     3    61       P1  8028  0.52
      L1  H    22    49       P1 10747  0.98
      P1  H 10785 10796       L1    24  0.94

> <Gold.Chemscore.Hbond.Weighted>
-9.8895

> <Gold.Chemscore.Metal.Weighted>
-0.0000

> <Gold.Chemscore.Lipo.Weighted>
-10.1829

> <Gold.Chemscore.Internal_Hbond.Weighted>
0.0000

> <Gold.Chemscore.DEClash.Weighted>
1.5302

> <Gold.Chemscore.DEInternal.Weighted>
4.0649

> <Gold.Chemscore.Rot.Weighted>
8.2482

> <Gold.Chemscore.Internal.Correction.Weighted>
   9.000000E+99

> <Gold.Protein.RotatedTorsions>
[ 6907 6896 6895 6894 ] final  -54.74 input  -60.11 | X-H torsion
[ 7974 7965 7964 7962 ] final  129.54 input  175.53 | X-H torsion
[ 8008 7997 7996 7995 ] final  -93.29 input   59.86 | X-H torsion
[ 10167 10162 10161 10158 ] final   79.53 input  -65.29 | X-H torsion
[ 10718 10713 10712 10709 ] final   46.45 input   66.30 | X-H torsion
[ 10763 10752 10751 10750 ] final  -32.69 input  -60.55 | X-H torsion
[ 11005 11000 10999 10996 ] final  174.72 input  -57.11 | X-H torsion

> <Gold.Protein.ActiveResidues>
 VAL166  LYS551  ARG553  GLY616  TRP617  ASP618  TYR619  PRO620  LYS621  CYS622 
 ASP623  PHE694  ASN695  SER759  ASP760  ASP761  ALA762  ILE779  LEU786  VAL792 
 PHE793  MET794  SER795  GLU796  ALA797  LYS798  CYS799  TRP800  GLU811  SER814 

> <Gold.Protein.RotatedAtoms>
  150.8311  134.7565  159.6854 H   0  0  0  0  0  0  0  0  0  0  0  0  # atno 6907 bound_to 6896
  152.4415  134.5577  159.9895 H   0  0  0  0  0  0  0  0  0  0  0  0  # atno 6908 bound_to 6896
  151.5738  133.3349  159.3030 H   0  0  0  0  0  0  0  0  0  0  0  0  # atno 6909 bound_to 6896
  145.0276  139.4075  143.5166 H   0  0  0  0  0  0  0  0  0  0  0  0  # atno 7974 bound_to 7965
  154.7338  140.0500  157.0750 H   0  0  0  0  0  0  0  0  0  0  0  0  # atno 8008 bound_to 7997
  155.0267  140.3153  155.4754 H   0  0  0  0  0  0  0  0  0  0  0  0  # atno 8009 bound_to 7997
  156.2848  140.2157  156.5387 H   0  0  0  0  0  0  0  0  0  0  0  0  # atno 8010 bound_to 7997
  139.9594  144.5972  150.8087 H   0  0  0  0  0  0  0  0  0  0  0  0  # atno 10167 bound_to 10162
  157.4482  130.8122  149.7761 H   0  0  0  0  0  0  0  0  0  0  0  0  # atno 10718 bound_to 10713
  153.8178  135.6877  153.4831 H   0  0  0  0  0  0  0  0  0  0  0  0  # atno 10763 bound_to 10752
  153.1588  135.4588  154.9740 H   0  0  0  0  0  0  0  0  0  0  0  0  # atno 10764 bound_to 10752
  154.7940  135.3312  154.7653 H   0  0  0  0  0  0  0  0  0  0  0  0  # atno 10765 bound_to 10752
  140.3544  134.7167  157.4290 H   0  0  0  0  0  0  0  0  0  0  0  0  # atno 11005 bound_to 11000
  146.3494  139.9808  142.8696 LP  0  0  0  0  0  0  0  0  0  0  0  0  # atno 17320 bound_to 7965
  145.1813  140.9768  143.4264 LP  0  0  0  0  0  0  0  0  0  0  0  0  # atno 17321 bound_to 7965
  140.7558  143.3053  151.2977 LP  0  0  0  0  0  0  0  0  0  0  0  0  # atno 17342 bound_to 10162
  139.6566  144.0265  152.2664 LP  0  0  0  0  0  0  0  0  0  0  0  0  # atno 17343 bound_to 10162
  155.9976  130.3899  150.2734 LP  0  0  0  0  0  0  0  0  0  0  0  0  # atno 17370 bound_to 10713
  157.0904  131.0168  151.3124 LP  0  0  0  0  0  0  0  0  0  0  0  0  # atno 17371 bound_to 10713
  140.0677  134.5907  155.8677 LP  0  0  0  0  0  0  0  0  0  0  0  0  # atno 17394 bound_to 11000
  141.2002  133.6611  156.5887 LP  0  0  0  0  0  0  0  0  0  0  0  0  # atno 17395 bound_to 11000

$$$$
