AV-unprocessed.smi:1106|AV-procd|sdf|4779|dock10
  -GOLD-   22720 3323D 1   1.00000     0.00000
 Structure written by MMmdl.
 48 49  0  0  0  0  0  0  0  0  2 V2000
  151.9179  145.3923  160.1093 C   0  0  0  0  0  0  0  0  0  0  0  0
  151.7127  144.1761  161.0251 C   0  0  0  0  0  0  0  0  0  0  0  0
  152.3195  142.9758  160.5104 N   0  0  0  0  0  0  0  0  0  0  0  0
  153.2645  142.2731  161.2324 C   0  0  0  0  0  0  0  0  0  0  0  0
  153.8510  141.1476  160.7707 C   0  0  0  0  0  0  0  0  0  0  0  0
  154.8211  140.4379  161.5374 C   0  0  0  0  0  0  0  0  0  0  0  0
  155.6158  139.8814  162.1683 N   0  0  0  0  0  0  0  0  0  0  0  0
  153.5143  140.6044  159.4569 C   0  0  0  0  0  0  0  0  0  0  0  0
  154.0060  139.5718  158.9975 O   0  0  0  0  0  0  0  0  0  0  0  0
  152.5555  141.3591  158.7350 N   0  0  0  0  0  0  0  0  0  0  0  0
  152.1822  140.8737  157.4141 C   0  0  0  0  0  0  0  0  0  0  0  0
  150.6572  140.7931  157.1781 C   0  0  2  0  0  0  0  0  0  0  0  0
  150.1998  139.5972  157.7756 O   0  0  0  0  0  0  0  0  0  0  0  0
  150.2612  140.7777  155.6862 C   0  0  0  0  0  0  0  0  0  0  0  0
  148.7897  140.8054  155.4884 N   0  3  2  0  0  0  0  0  0  0  0  0
  148.4161  140.9150  154.0550 C   0  0  0  0  0  0  0  0  0  0  0  0
  146.8929  140.7992  153.8650 C   0  0  0  0  0  0  0  0  0  0  0  0
  146.1197  141.8314  154.7057 C   0  0  2  0  0  0  0  0  0  0  0  0
  146.2193  143.2580  154.1375 C   0  0  0  0  0  0  0  0  0  0  0  0
  146.5776  141.7416  156.1727 C   0  0  0  0  0  0  0  0  0  0  0  0
  148.1073  141.8384  156.3128 C   0  0  0  0  0  0  0  0  0  0  0  0
  151.9340  142.5352  159.2226 C   0  0  0  0  0  0  0  0  0  0  0  0
  151.0869  143.1450  158.5643 O   0  0  0  0  0  0  0  0  0  0  0  0
  151.4784  146.2860  160.5523 H   0  0  0  0  0  0  0  0  0  0  0  0
  151.4531  145.2455  159.1341 H   0  0  0  0  0  0  0  0  0  0  0  0
  152.9783  145.5892  159.9488 H   0  0  0  0  0  0  0  0  0  0  0  0
  152.1696  144.3485  162.0006 H   0  0  0  0  0  0  0  0  0  0  0  0
  150.6583  143.9609  161.2078 H   0  0  0  0  0  0  0  0  0  0  0  0
  153.5472  142.6379  162.2096 H   0  0  0  0  0  0  0  0  0  0  0  0
  152.6730  141.4907  156.6601 H   0  0  0  0  0  0  0  0  0  0  0  0
  152.6500  139.8930  157.3057 H   0  0  0  0  0  0  0  0  0  0  0  0
  150.1738  141.6212  157.6945 H   0  0  0  0  0  0  0  0  0  0  0  0
  149.3553  139.3812  157.4086 H   0  0  0  0  0  0  0  0  0  0  0  0
  150.6974  141.6240  155.1553 H   0  0  0  0  0  0  0  0  0  0  0  0
  150.6841  139.8820  155.2281 H   0  0  0  0  0  0  0  0  0  0  0  0
  148.7836  141.8592  153.6508 H   0  0  0  0  0  0  0  0  0  0  0  0
  148.9032  140.1205  153.4883 H   0  0  0  0  0  0  0  0  0  0  0  0
  146.6380  140.9033  152.8099 H   0  0  0  0  0  0  0  0  0  0  0  0
  146.5773  139.7956  154.1537 H   0  0  0  0  0  0  0  0  0  0  0  0
  145.0635  141.5599  154.6727 H   0  0  0  0  0  0  0  0  0  0  0  0
  147.2446  143.6264  154.1253 H   0  0  0  0  0  0  0  0  0  0  0  0
  145.6262  143.9554  154.7294 H   0  0  0  0  0  0  0  0  0  0  0  0
  145.8434  143.2979  153.1148 H   0  0  0  0  0  0  0  0  0  0  0  0
  146.0972  142.5201  156.7665 H   0  0  0  0  0  0  0  0  0  0  0  0
  146.2440  140.7922  156.5939 H   0  0  0  0  0  0  0  0  0  0  0  0
  148.3696  141.7189  157.3631 H   0  0  0  0  0  0  0  0  0  0  0  0
  148.4539  142.8300  156.0188 H   0  0  0  0  0  0  0  0  0  0  0  0
  148.4498  139.9056  155.7978 H   0  0  0  0  0  0  0  0  0  0  0  0
  1  2  1  0  0  0  0
  1 24  1  0  0  0  0
  1 25  1  0  0  0  0
  1 26  1  0  0  0  0
  2  3  1  0  0  0  0
  2 27  1  0  0  0  0
  2 28  1  0  0  0  0
  3 22  1  0  0  0  0
  3  4  1  0  0  0  0
  4  5  2  0  0  0  0
  4 29  1  0  0  0  0
  5  6  1  0  0  0  0
  5  8  1  0  0  0  0
  6  7  3  0  0  0  0
  8  9  2  0  0  0  0
  8 10  1  0  0  0  0
 10 11  1  0  0  0  0
 10 22  1  0  0  0  0
 11 12  1  0  0  0  0
 11 30  1  0  0  0  0
 11 31  1  0  0  0  0
 12 13  1  0  0  0  0
 12 14  1  0  0  0  0
 12 32  1  0  0  0  0
 13 33  1  0  0  0  0
 14 15  1  0  0  0  0
 14 34  1  0  0  0  0
 14 35  1  0  0  0  0
 15 21  1  0  0  0  0
 15 16  1  0  0  0  0
 15 48  1  0  0  0  0
 16 17  1  0  0  0  0
 16 36  1  0  0  0  0
 16 37  1  0  0  0  0
 17 18  1  0  0  0  0
 17 38  1  0  0  0  0
 17 39  1  0  0  0  0
 18 19  1  0  0  0  0
 18 20  1  0  0  0  0
 18 40  1  0  0  0  0
 19 41  1  0  0  0  0
 19 42  1  0  0  0  0
 19 43  1  0  0  0  0
 20 21  1  0  0  0  0
 20 44  1  0  0  0  0
 20 45  1  0  0  0  0
 21 46  1  0  0  0  0
 21 47  1  0  0  0  0
 22 23  2  0  0  0  0
M  CHG  1  15   1
M  END
> <s_m_source_file>
AV-unprocessed.smi

> <i_m_source_file_index>
1106

> <i_lp_mmshare_version>
43012

> <i_f3d_flags>
0

> <s_epik_input>
W0NIM11bQ0gyXW4xW2NIXWMoQyNOKWMoPU8pbihjMT1PKVtDSDJdW0NASF0oW09IXSlbQ0gyXU4yW0NIMl1bQ0gyXVtDSF0oW0NIM10pW0NIMl1bQ0gyXTI=

> <s_epik_cmdline>
J2VwaWtfcHl0aG9uJywgJy1waCcsICc3LjAnLCAnLXRuJywgJzgnLCAnLW1hJywgJzIwMCcsICctbWV0YWxfYmluZGluZycsICctaW1hZScsICc8aW5maWxlLm1hZT4nLCAnLW9tYWUnLCAnPG91dGZpbGUubWFlPic=

> <r_epik_Ionization_Penalty>
0.00136816

> <r_epik_Ionization_Penalty_Charging>
0.00136813

> <r_epik_Ionization_Penalty_Neutral>
3.19882e-08

> <r_epik_State_Penalty>
0.000910892

> <r_epik_Charging_Adjusted_Penalty>
0.00227902

> <i_epik_Tot_Q>
1

> <i_epik_Tot_abs_Q>
1

> <r_epik_Metal_State_Penalty>
-0

> <b_epik_Metal_Only>
0

> <s_lp_Force_Field>
OPLS_2005

> <r_lp_Energy>
29.5745

> <b_lp_Chiralities_Consistent>
1

> <s_lp_Variant>
AV-unprocessed.smi:1106-3

> <Gold.Version>
5.8.1

> <Gold.Id.Protein>
6NUR|6NUR_protein|mol2

> <Gold.PLP.Fitness>
48.7384

> <Gold.PLP.PLP>
-46.4499

> <Gold.PLP.part.hbond>
-1.1473

> <Gold.PLP.part.metal>
0.0000

> <Gold.PLP.part.buried>
-4.5972

> <Gold.PLP.part.nonpolar>
-39.5880

> <Gold.PLP.part.repulsive>
0.1495

> <Gold.PLP.ligand.clash>
0.0000

> <Gold.PLP.ligand.torsion>
0.3811

> <Gold.PLP.Chemscore.Hbond>
1.0000

> <Gold.PLP.Chemscore.CHOScore>
0.0000

> <Gold.PLP.Chemscore.Metal>
0.0000

> <Gold.Chemscore.Hbonds>
donor molecule, donor type, donor heavy atom, donor atom, acceptor molecule, acceptor atom, score
      P1  H  7997  8009       L1     9  0.98

> <Gold.PLP.Chemscore.Internal.Correction>
0.0506

> <Gold.Rescore>
     Score         DG    S(hbond)    S(metal)    S(lipo)     H(rot)  DE(clash)    DE(int)     intcor
      9.64     -12.89       0.95        0.00      90.43       2.48       0.25       3.00       ----

> <Gold.Chemscore.Fitness>
9.6425

> <Gold.Chemscore.DG>
-12.8884

> <Gold.Chemscore.ZeroCoef>
-5.4800

> <Gold.Chemscore.Hbond>
0.9542

> <Gold.Chemscore.Metal>
0.0000

> <Gold.Chemscore.Lipo>
90.4265

> <Gold.Chemscore.Internal_Hbond>
0.0000

> <Gold.Chemscore.DEClash>
0.2498

> <Gold.Chemscore.DEInternal>
2.9961

> <Gold.Chemscore.Rot>
2.4838

> <Gold.Chemscore.Internal.Correction>
   9.000000E+99

> <Gold.Chemscore.Hbonds>
donor molecule, donor type, donor heavy atom, donor atom, acceptor molecule, acceptor atom, score
      P1  H  7997  8009       L1     9  0.62

> <Gold.Chemscore.Hbond.Weighted>
-3.1870

> <Gold.Chemscore.Metal.Weighted>
-0.0000

> <Gold.Chemscore.Lipo.Weighted>
-10.5799

> <Gold.Chemscore.Internal_Hbond.Weighted>
0.0000

> <Gold.Chemscore.DEClash.Weighted>
0.2498

> <Gold.Chemscore.DEInternal.Weighted>
2.9961

> <Gold.Chemscore.Rot.Weighted>
6.3585

> <Gold.Chemscore.Internal.Correction.Weighted>
   9.000000E+99

> <Gold.Protein.RotatedTorsions>
[ 6907 6896 6895 6894 ] final  -77.87 input  -60.11 | X-H torsion
[ 7974 7965 7964 7962 ] final -105.26 input  175.53 | X-H torsion
[ 8008 7997 7996 7995 ] final  119.00 input   59.86 | X-H torsion
[ 10167 10162 10161 10158 ] final  163.33 input  -65.29 | X-H torsion
[ 10718 10713 10712 10709 ] final -137.96 input   66.30 | X-H torsion
[ 10763 10752 10751 10750 ] final    1.61 input  -60.55 | X-H torsion
[ 11005 11000 10999 10996 ] final -104.78 input  -57.11 | X-H torsion

> <Gold.Protein.ActiveResidues>
 VAL166  LYS551  ARG553  GLY616  TRP617  ASP618  TYR619  PRO620  LYS621  CYS622 
 ASP623  PHE694  ASN695  SER759  ASP760  ASP761  ALA762  ILE779  LEU786  VAL792 
 PHE793  MET794  SER795  GLU796  ALA797  LYS798  CYS799  TRP800  GLU811  SER814 

> <Gold.Protein.RotatedAtoms>
  150.6987  134.4357  159.5268 H   0  0  0  0  0  0  0  0  0  0  0  0  # atno 6907 bound_to 6896
  152.2076  134.8528  160.0510 H   0  0  0  0  0  0  0  0  0  0  0  0  # atno 6908 bound_to 6896
  151.9425  133.3607  159.4007 H   0  0  0  0  0  0  0  0  0  0  0  0  # atno 6909 bound_to 6896
  145.2327  140.9176  143.3195 H   0  0  0  0  0  0  0  0  0  0  0  0  # atno 7974 bound_to 7965
  156.2574  140.2862  156.0923 H   0  0  0  0  0  0  0  0  0  0  0  0  # atno 8008 bound_to 7997
  155.1450  140.0396  157.2825 H   0  0  0  0  0  0  0  0  0  0  0  0  # atno 8009 bound_to 7997
  154.6502  140.2543  155.7229 H   0  0  0  0  0  0  0  0  0  0  0  0  # atno 8010 bound_to 7997
  139.4872  144.4348  151.9025 H   0  0  0  0  0  0  0  0  0  0  0  0  # atno 10167 bound_to 10162
  156.2940  130.7391  151.1425 H   0  0  0  0  0  0  0  0  0  0  0  0  # atno 10718 bound_to 10713
  153.3058  135.6959  153.7161 H   0  0  0  0  0  0  0  0  0  0  0  0  # atno 10763 bound_to 10752
  153.6057  135.3454  155.2962 H   0  0  0  0  0  0  0  0  0  0  0  0  # atno 10764 bound_to 10752
  154.8562  135.4351  154.2182 H   0  0  0  0  0  0  0  0  0  0  0  0  # atno 10765 bound_to 10752
  141.1084  133.8752  157.1654 H   0  0  0  0  0  0  0  0  0  0  0  0  # atno 11005 bound_to 11000
  144.9662  139.3928  143.6331 LP  0  0  0  0  0  0  0  0  0  0  0  0  # atno 17320 bound_to 7965
  146.3349  139.8738  142.8835 LP  0  0  0  0  0  0  0  0  0  0  0  0  # atno 17321 bound_to 7965
  140.3797  144.2751  150.5910 LP  0  0  0  0  0  0  0  0  0  0  0  0  # atno 17342 bound_to 10162
  140.5244  143.2258  151.8338 LP  0  0  0  0  0  0  0  0  0  0  0  0  # atno 17343 bound_to 10162
  157.7350  131.0576  150.5493 LP  0  0  0  0  0  0  0  0  0  0  0  0  # atno 17370 bound_to 10713
  156.5612  130.4256  149.6062 LP  0  0  0  0  0  0  0  0  0  0  0  0  # atno 17371 bound_to 10713
  139.9965  135.0044  157.0095 LP  0  0  0  0  0  0  0  0  0  0  0  0  # atno 17394 bound_to 11000
  140.4840  134.1260  155.7221 LP  0  0  0  0  0  0  0  0  0  0  0  0  # atno 17395 bound_to 11000

$$$$
