AV-unprocessed.smi:2881|AV-procd|sdf|11055|dock3
  -GOLD-   2272015523D 1   1.00000     0.00000
 Structure written by MMmdl.
 40 42  0  0  0  0  0  0  0  0  1 V2000
  142.8234  143.6461  159.5285 C   0  0  0  0  0  0  0  0  0  0  0  0
  144.1624  144.1688  159.9237 C   0  0  0  0  0  0  0  0  0  0  0  0
  145.0943  144.8872  159.2291 C   0  0  0  0  0  0  0  0  0  0  0  0
  146.1597  145.0781  160.1594 C   0  0  0  0  0  0  0  0  0  0  0  0
  147.4644  145.7975  159.9436 C   0  0  0  0  0  0  0  0  0  0  0  0
  148.6383  144.8895  160.3114 C   0  0  0  0  0  0  0  0  0  0  0  0
  148.6958  144.3818  161.4311 O   0  0  0  0  0  0  0  0  0  0  0  0
  149.5635  144.6945  159.3588 N   0  0  0  0  0  0  0  0  0  0  0  0
  150.7441  143.8435  159.4862 C   0  0  2  0  0  0  0  0  0  0  0  0
  151.7058  144.4109  160.5537 C   0  0  1  0  0  0  0  0  0  0  0  0
  152.7200  143.3183  160.9373 C   0  0  0  0  0  0  0  0  0  0  0  0
  153.6186  143.2453  159.6885 C   0  0  0  0  0  0  0  0  0  0  0  0
  152.9954  144.3024  158.7510 C   0  0  2  0  0  0  0  0  0  0  0  0
  152.5790  145.3724  159.7521 C   0  0  0  0  0  0  0  0  0  0  0  0
  151.6192  143.8510  158.2053 C   0  0  1  0  0  0  0  0  0  0  0  0
  151.6356  142.5244  157.4211 C   0  0  0  0  0  0  0  0  0  0  0  0
  151.5829  142.7771  156.0338 O   0  0  0  0  0  0  0  0  0  0  0  0
  145.9085  144.5161  161.3337 N   0  0  0  0  0  0  0  0  0  0  0  0
  144.6892  143.9684  161.1785 N   0  0  0  0  0  0  0  0  0  0  0  0
  144.2356  143.4653  161.9278 H   0  0  0  0  0  0  0  0  0  0  0  0
  142.5053  144.0710  158.5764 H   0  0  0  0  0  0  0  0  0  0  0  0
  142.0713  143.8969  160.2771 H   0  0  0  0  0  0  0  0  0  0  0  0
  142.8476  142.5613  159.4224 H   0  0  0  0  0  0  0  0  0  0  0  0
  145.0269  145.2292  158.2068 H   0  0  0  0  0  0  0  0  0  0  0  0
  147.5726  146.1102  158.9038 H   0  0  0  0  0  0  0  0  0  0  0  0
  147.4973  146.7080  160.5433 H   0  0  0  0  0  0  0  0  0  0  0  0
  149.4326  145.1579  158.4714 H   0  0  0  0  0  0  0  0  0  0  0  0
  150.4405  142.8321  159.7638 H   0  0  0  0  0  0  0  0  0  0  0  0
  151.2037  144.8511  161.4163 H   0  0  0  0  0  0  0  0  0  0  0  0
  153.3018  143.6168  161.8102 H   0  0  0  0  0  0  0  0  0  0  0  0
  152.2424  142.3646  161.1653 H   0  0  0  0  0  0  0  0  0  0  0  0
  154.6420  143.5219  159.9457 H   0  0  0  0  0  0  0  0  0  0  0  0
  153.6546  142.2478  159.2522 H   0  0  0  0  0  0  0  0  0  0  0  0
  153.6767  144.6497  157.9739 H   0  0  0  0  0  0  0  0  0  0  0  0
  152.0208  146.1955  159.3027 H   0  0  0  0  0  0  0  0  0  0  0  0
  153.4138  145.7799  160.3253 H   0  0  0  0  0  0  0  0  0  0  0  0
  151.2756  144.6360  157.5282 H   0  0  0  0  0  0  0  0  0  0  0  0
  152.5500  141.9702  157.6331 H   0  0  0  0  0  0  0  0  0  0  0  0
  150.7954  141.8860  157.6940 H   0  0  0  0  0  0  0  0  0  0  0  0
  151.1594  143.6103  155.8942 H   0  0  0  0  0  0  0  0  0  0  0  0
  1  2  1  0  0  0  0
  1 21  1  0  0  0  0
  1 22  1  0  0  0  0
  1 23  1  0  0  0  0
  2 19  1  0  0  0  0
  2  3  2  0  0  0  0
  3  4  1  0  0  0  0
  3 24  1  0  0  0  0
  4  5  1  0  0  0  0
  4 18  2  0  0  0  0
  5  6  1  0  0  0  0
  5 25  1  0  0  0  0
  5 26  1  0  0  0  0
  6  7  2  0  0  0  0
  6  8  1  0  0  0  0
  8  9  1  0  0  0  0
  8 27  1  0  0  0  0
  9 15  1  0  0  0  0
  9 10  1  0  0  0  0
  9 28  1  0  0  0  0
 10 14  1  0  0  0  0
 10 11  1  0  0  0  0
 10 29  1  0  0  0  0
 11 12  1  0  0  0  0
 11 30  1  0  0  0  0
 11 31  1  0  0  0  0
 12 13  1  0  0  0  0
 12 32  1  0  0  0  0
 12 33  1  0  0  0  0
 13 14  1  0  0  0  0
 13 15  1  0  0  0  0
 13 34  1  0  0  0  0
 14 35  1  0  0  0  0
 14 36  1  0  0  0  0
 15 16  1  0  0  0  0
 15 37  1  0  0  0  0
 16 17  1  0  0  0  0
 16 38  1  0  0  0  0
 16 39  1  0  0  0  0
 17 40  1  0  0  0  0
 18 19  1  0  0  0  0
 19 20  1  0  0  0  0
M  END
> <s_m_source_file>
AV-unprocessed.smi

> <i_m_source_file_index>
2881

> <i_lp_mmshare_version>
43012

> <i_f3d_flags>
0

> <s_epik_input>
W0NIM11jMVtjSF1jKG5bbkhdMSlbQ0gyXUMoPU8pW05IXVtDQEhdKFtDQEBIXTIzKVtDQEhdKFtDSDJdW09IXSlbQ0BASF0oW0NIMl0zKVtDSDJdW0NIMl0y

> <s_epik_cmdline>
J2VwaWtfcHl0aG9uJywgJy1waCcsICc3LjAnLCAnLXRuJywgJzgnLCAnLW1hJywgJzIwMCcsICctbWV0YWxfYmluZGluZycsICctaW1hZScsICc8aW5maWxlLm1hZT4nLCAnLW9tYWUnLCAnPG91dGZpbGUubWFlPic=

> <r_lp_tautomer_probability>
0.5

> <r_epik_Ionization_Penalty>
9.4349e-05

> <r_epik_Ionization_Penalty_Charging>
0

> <r_epik_Ionization_Penalty_Neutral>
9.4349e-05

> <r_epik_State_Penalty>
0.41068

> <r_epik_Charging_Adjusted_Penalty>
0.41068

> <i_epik_Tot_Q>
0

> <i_epik_Tot_abs_Q>
0

> <r_epik_Metal_State_Penalty>
0.4107

> <b_epik_Metal_Only>
0

> <s_lp_Force_Field>
OPLS_2005

> <r_lp_Energy>
47.7549

> <b_lp_Chiralities_Consistent>
1

> <s_lp_Variant>
AV-unprocessed.smi:2881-1

> <Gold.Version>
5.8.1

> <Gold.Id.Protein>
6NUR|6NUR_protein|mol2

> <Gold.PLP.Fitness>
48.7114

> <Gold.PLP.PLP>
-41.9155

> <Gold.PLP.part.hbond>
-4.0000

> <Gold.PLP.part.metal>
0.0000

> <Gold.PLP.part.buried>
-6.5311

> <Gold.PLP.part.nonpolar>
-33.6457

> <Gold.PLP.part.repulsive>
0.6851

> <Gold.PLP.ligand.clash>
0.0000

> <Gold.PLP.ligand.torsion>
0.6662

> <Gold.PLP.Chemscore.Hbond>
2.6978

> <Gold.PLP.Chemscore.CHOScore>
0.0000

> <Gold.PLP.Chemscore.Metal>
0.0000

> <Gold.Chemscore.Hbonds>
donor molecule, donor type, donor heavy atom, donor atom, acceptor molecule, acceptor atom, score
      L1  H     8    27       P1  8029  0.69
      P1  H  6933  6944       L1     7  0.74

> <Gold.PLP.Chemscore.Internal.Correction>
0.0347

> <Gold.Rescore>
     Score         DG    S(hbond)    S(metal)    S(lipo)     H(rot)  DE(clash)    DE(int)     intcor
     19.90     -20.88       2.81        0.00     101.16       2.28       0.00       0.98       ----

> <Gold.Chemscore.Fitness>
19.8959

> <Gold.Chemscore.DG>
-20.8837

> <Gold.Chemscore.ZeroCoef>
-5.4800

> <Gold.Chemscore.Hbond>
2.8124

> <Gold.Chemscore.Metal>
0.0000

> <Gold.Chemscore.Lipo>
101.1580

> <Gold.Chemscore.Internal_Hbond>
0.0000

> <Gold.Chemscore.DEClash>
0.0048

> <Gold.Chemscore.DEInternal>
0.9830

> <Gold.Chemscore.Rot>
2.2755

> <Gold.Chemscore.Internal.Correction>
   9.000000E+99

> <Gold.Chemscore.Hbonds>
donor molecule, donor type, donor heavy atom, donor atom, acceptor molecule, acceptor atom, score
      L1  H     8    27       P1  8029  0.50
      L1  H    17    40       P1  8028  0.01
      P1  H  6933  6944       L1     7  0.64

> <Gold.Chemscore.Hbond.Weighted>
-9.3934

> <Gold.Chemscore.Metal.Weighted>
-0.0000

> <Gold.Chemscore.Lipo.Weighted>
-11.8355

> <Gold.Chemscore.Internal_Hbond.Weighted>
0.0000

> <Gold.Chemscore.DEClash.Weighted>
0.0048

> <Gold.Chemscore.DEInternal.Weighted>
0.9830

> <Gold.Chemscore.Rot.Weighted>
5.8252

> <Gold.Chemscore.Internal.Correction.Weighted>
   9.000000E+99

> <Gold.Protein.RotatedTorsions>
[ 6907 6896 6895 6894 ] final  177.56 input  -60.11 | X-H torsion
[ 7974 7965 7964 7962 ] final -100.93 input  175.53 | X-H torsion
[ 8008 7997 7996 7995 ] final  134.00 input   59.86 | X-H torsion
[ 10167 10162 10161 10158 ] final  164.40 input  -65.29 | X-H torsion
[ 10718 10713 10712 10709 ] final   33.47 input   66.30 | X-H torsion
[ 10763 10752 10751 10750 ] final -121.06 input  -60.55 | X-H torsion
[ 11005 11000 10999 10996 ] final  164.92 input  -57.11 | X-H torsion

> <Gold.Protein.ActiveResidues>
 VAL166  LYS551  ARG553  GLY616  TRP617  ASP618  TYR619  PRO620  LYS621  CYS622 
 ASP623  PHE694  ASN695  SER759  ASP760  ASP761  ALA762  ILE779  LEU786  VAL792 
 PHE793  MET794  SER795  GLU796  ALA797  LYS798  CYS799  TRP800  GLU811  SER814 

> <Gold.Protein.RotatedAtoms>
  151.7020  133.3311  159.3268 H   0  0  0  0  0  0  0  0  0  0  0  0  # atno 6907 bound_to 6896
  150.7731  134.6607  159.6347 H   0  0  0  0  0  0  0  0  0  0  0  0  # atno 6908 bound_to 6896
  152.3764  134.6660  160.0210 H   0  0  0  0  0  0  0  0  0  0  0  0  # atno 6909 bound_to 6896
  145.2881  140.9345  143.2893 H   0  0  0  0  0  0  0  0  0  0  0  0  # atno 7974 bound_to 7965
  156.2996  140.2507  156.3346 H   0  0  0  0  0  0  0  0  0  0  0  0  # atno 8008 bound_to 7997
  154.9113  140.0403  157.1967 H   0  0  0  0  0  0  0  0  0  0  0  0  # atno 8009 bound_to 7997
  154.8403  140.2890  155.5668 H   0  0  0  0  0  0  0  0  0  0  0  0  # atno 8010 bound_to 7997
  139.4888  144.4238  151.9154 H   0  0  0  0  0  0  0  0  0  0  0  0  # atno 10167 bound_to 10162
  157.2983  130.7337  149.6651 H   0  0  0  0  0  0  0  0  0  0  0  0  # atno 10718 bound_to 10713
  154.8659  135.4181  154.2560 H   0  0  0  0  0  0  0  0  0  0  0  0  # atno 10763 bound_to 10752
  153.3497  135.6998  153.6804 H   0  0  0  0  0  0  0  0  0  0  0  0  # atno 10764 bound_to 10752
  153.5749  135.3584  155.2825 H   0  0  0  0  0  0  0  0  0  0  0  0  # atno 10765 bound_to 10752
  140.2508  134.7978  157.3500 H   0  0  0  0  0  0  0  0  0  0  0  0  # atno 11005 bound_to 11000
  144.9196  139.4428  143.6548 LP  0  0  0  0  0  0  0  0  0  0  0  0  # atno 17320 bound_to 7965
  146.3194  139.8048  142.8958 LP  0  0  0  0  0  0  0  0  0  0  0  0  # atno 17321 bound_to 7965
  140.3684  144.2886  150.5923 LP  0  0  0  0  0  0  0  0  0  0  0  0  # atno 17342 bound_to 10162
  140.5341  143.2237  151.8191 LP  0  0  0  0  0  0  0  0  0  0  0  0  # atno 17343 bound_to 10162
  155.9670  130.4288  150.4803 LP  0  0  0  0  0  0  0  0  0  0  0  0  # atno 17370 bound_to 10713
  157.2779  131.0600  151.2217 LP  0  0  0  0  0  0  0  0  0  0  0  0  # atno 17371 bound_to 10713
  140.1560  134.4789  155.7928 LP  0  0  0  0  0  0  0  0  0  0  0  0  # atno 17394 bound_to 11000
  141.2201  133.6881  156.7461 LP  0  0  0  0  0  0  0  0  0  0  0  0  # atno 17395 bound_to 11000

$$$$
