AV-unprocessed.smi:2428|AV-procd|sdf|9581|dock3
  -GOLD-   2272013213D 1   1.00000     0.00000
 Structure written by MMmdl.
 30 31  0  0  0  0  0  0  0  0  1 V2000
  152.5930  138.3800  154.1529 F   0  0  0  0  0  0  0  0  0  0  0  0
  151.3570  138.5274  154.6279 C   0  0  0  0  0  0  0  0  0  0  0  0
  150.4970  138.4628  153.6110 F   0  0  0  0  0  0  0  0  0  0  0  0
  151.0952  137.5229  155.4643 F   0  0  0  0  0  0  0  0  0  0  0  0
  151.2565  139.8541  155.3630 C   0  0  0  0  0  0  0  0  0  0  0  0
  152.0530  140.1046  156.4992 C   0  0  0  0  0  0  0  0  0  0  0  0
  151.9400  141.3461  157.1542 C   0  0  0  0  0  0  0  0  0  0  0  0
  151.0324  142.3006  156.6504 C   0  0  0  0  0  0  0  0  0  0  0  0
  150.9236  143.5351  157.3047 N   0  0  0  0  0  0  0  0  0  0  0  0
  152.0979  144.3707  157.5093 C   0  0  0  0  0  0  0  0  0  0  0  0
  152.5756  144.3182  158.9659 C   0  0  1  0  0  0  0  0  0  0  0  0
  151.5223  144.7739  159.9735 C   0  0  0  0  0  0  0  0  0  0  0  0
  151.9208  144.0585  161.2555 C   0  0  0  0  0  0  0  0  0  0  0  0
  152.8965  142.9737  160.7898 C   0  0  0  0  0  0  0  0  0  0  0  0
  152.8099  142.9792  159.3717 O   0  0  0  0  0  0  0  0  0  0  0  0
  150.2688  142.0685  155.5564 N   0  0  0  0  0  0  0  0  0  0  0  0
  150.3823  140.8760  154.9328 C   0  0  0  0  0  0  0  0  0  0  0  0
  152.7418  139.3570  156.8645 H   0  0  0  0  0  0  0  0  0  0  0  0
  152.5405  141.5574  158.0273 H   0  0  0  0  0  0  0  0  0  0  0  0
  150.0112  143.9384  157.4609 H   0  0  0  0  0  0  0  0  0  0  0  0
  152.8945  144.0160  156.8542 H   0  0  0  0  0  0  0  0  0  0  0  0
  151.8748  145.3989  157.2206 H   0  0  0  0  0  0  0  0  0  0  0  0
  153.4883  144.9034  159.0963 H   0  0  0  0  0  0  0  0  0  0  0  0
  151.4879  145.8581  160.0843 H   0  0  0  0  0  0  0  0  0  0  0  0
  150.5328  144.4364  159.6615 H   0  0  0  0  0  0  0  0  0  0  0  0
  152.4075  144.7366  161.9577 H   0  0  0  0  0  0  0  0  0  0  0  0
  151.0479  143.6315  161.7508 H   0  0  0  0  0  0  0  0  0  0  0  0
  153.9162  143.2221  161.0877 H   0  0  0  0  0  0  0  0  0  0  0  0
  152.6542  141.9906  161.1935 H   0  0  0  0  0  0  0  0  0  0  0  0
  149.7550  140.7419  154.0643 H   0  0  0  0  0  0  0  0  0  0  0  0
  1  2  1  0  0  0  0
  2  3  1  0  0  0  0
  2  4  1  0  0  0  0
  2  5  1  0  0  0  0
  5 17  1  0  0  0  0
  5  6  2  0  0  0  0
  6  7  1  0  0  0  0
  6 18  1  0  0  0  0
  7  8  2  0  0  0  0
  7 19  1  0  0  0  0
  8  9  1  0  0  0  0
  8 16  1  0  0  0  0
  9 10  1  0  0  0  0
  9 20  1  0  0  0  0
 10 11  1  0  0  0  0
 10 21  1  0  0  0  0
 10 22  1  0  0  0  0
 11 15  1  0  0  0  0
 11 12  1  0  0  0  0
 11 23  1  0  0  0  0
 12 13  1  0  0  0  0
 12 24  1  0  0  0  0
 12 25  1  0  0  0  0
 13 14  1  0  0  0  0
 13 26  1  0  0  0  0
 13 27  1  0  0  0  0
 14 15  1  0  0  0  0
 14 28  1  0  0  0  0
 14 29  1  0  0  0  0
 16 17  2  0  0  0  0
 17 30  1  0  0  0  0
M  END
> <s_m_source_file>
AV-unprocessed.smi

> <i_m_source_file_index>
2428

> <i_lp_mmshare_version>
43012

> <i_f3d_flags>
0

> <s_epik_input>
RkMoRikoRiljMVtjSF1bY0hdYyhuW2NIXTEpW05IXVtDSDJdW0NAQEhdMltDSDJdW0NIMl1bQ0gyXU8y

> <s_epik_cmdline>
J2VwaWtfcHl0aG9uJywgJy1waCcsICc3LjAnLCAnLXRuJywgJzgnLCAnLW1hJywgJzIwMCcsICctbWV0YWxfYmluZGluZycsICctaW1hZScsICc8aW5maWxlLm1hZT4nLCAnLW9tYWUnLCAnPG91dGZpbGUubWFlPic=

> <r_lp_tautomer_probability>
1

> <r_epik_Ionization_Penalty>
0.000819842

> <r_epik_Ionization_Penalty_Charging>
0

> <r_epik_Ionization_Penalty_Neutral>
0.000819842

> <r_epik_State_Penalty>
0.000527207

> <r_epik_Charging_Adjusted_Penalty>
0.000527207

> <i_epik_Tot_Q>
0

> <i_epik_Tot_abs_Q>
0

> <r_epik_Metal_State_Penalty>
-0

> <b_epik_Metal_Only>
0

> <s_lp_Force_Field>
OPLS_2005

> <r_lp_Energy>
19.0115

> <b_lp_Chiralities_Consistent>
1

> <s_lp_Variant>
AV-unprocessed.smi:2428-2

> <Gold.Version>
5.8.1

> <Gold.Id.Protein>
6NUR|6NUR_protein|mol2

> <Gold.PLP.Fitness>
40.6333

> <Gold.PLP.PLP>
-41.4917

> <Gold.PLP.part.hbond>
-1.0000

> <Gold.PLP.part.metal>
0.0000

> <Gold.PLP.part.buried>
-4.5197

> <Gold.PLP.part.nonpolar>
-37.1488

> <Gold.PLP.part.repulsive>
1.3081

> <Gold.PLP.ligand.clash>
0.0000

> <Gold.PLP.ligand.torsion>
0.6355

> <Gold.PLP.Chemscore.Hbond>
0.1282

> <Gold.PLP.Chemscore.CHOScore>
0.0000

> <Gold.PLP.Chemscore.Metal>
0.0000

> <Gold.Chemscore.Hbonds>
donor molecule, donor type, donor heavy atom, donor atom, acceptor molecule, acceptor atom, score
      L1  H     9    20       P1  8028  0.17

> <Gold.PLP.Chemscore.Internal.Correction>
0.0280

> <Gold.Rescore>
     Score         DG    S(hbond)    S(metal)    S(lipo)     H(rot)  DE(clash)    DE(int)     intcor
     12.99     -15.68       0.93        0.00      87.97       1.25       0.40       2.29       ----

> <Gold.Chemscore.Fitness>
12.9940

> <Gold.Chemscore.DG>
-15.6816

> <Gold.Chemscore.ZeroCoef>
-5.4800

> <Gold.Chemscore.Hbond>
0.9319

> <Gold.Chemscore.Metal>
0.0000

> <Gold.Chemscore.Lipo>
87.9713

> <Gold.Chemscore.Internal_Hbond>
0.0000

> <Gold.Chemscore.DEClash>
0.4024

> <Gold.Chemscore.DEInternal>
2.2852

> <Gold.Chemscore.Rot>
1.2514

> <Gold.Chemscore.Internal.Correction>
   9.000000E+99

> <Gold.Chemscore.Hbonds>
donor molecule, donor type, donor heavy atom, donor atom, acceptor molecule, acceptor atom, score
      L1  H     9    20       P1  8028  0.12

> <Gold.Chemscore.Hbond.Weighted>
-3.1126

> <Gold.Chemscore.Metal.Weighted>
-0.0000

> <Gold.Chemscore.Lipo.Weighted>
-10.2926

> <Gold.Chemscore.Internal_Hbond.Weighted>
0.0000

> <Gold.Chemscore.DEClash.Weighted>
0.4024

> <Gold.Chemscore.DEInternal.Weighted>
2.2852

> <Gold.Chemscore.Rot.Weighted>
3.2036

> <Gold.Chemscore.Internal.Correction.Weighted>
   9.000000E+99

> <Gold.Protein.RotatedTorsions>
[ 6907 6896 6895 6894 ] final  149.83 input  -60.11 | X-H torsion
[ 7974 7965 7964 7962 ] final  -56.85 input  175.53 | X-H torsion
[ 8008 7997 7996 7995 ] final   57.52 input   59.86 | X-H torsion
[ 10167 10162 10161 10158 ] final   76.65 input  -65.29 | X-H torsion
[ 10718 10713 10712 10709 ] final -168.08 input   66.30 | X-H torsion
[ 10763 10752 10751 10750 ] final  -54.75 input  -60.55 | X-H torsion
[ 11005 11000 10999 10996 ] final  -96.62 input  -57.11 | X-H torsion

> <Gold.Protein.ActiveResidues>
 VAL166  LYS551  ARG553  GLY616  TRP617  ASP618  TYR619  PRO620  LYS621  CYS622 
 ASP623  PHE694  ASN695  SER759  ASP760  ASP761  ALA762  ILE779  LEU786  VAL792 
 PHE793  MET794  SER795  GLU796  ALA797  LYS798  CYS799  TRP800  GLU811  SER814 

> <Gold.Protein.RotatedAtoms>
  152.1227  133.4363  159.4683 H   0  0  0  0  0  0  0  0  0  0  0  0  # atno 6907 bound_to 6896
  150.6873  134.2515  159.4522 H   0  0  0  0  0  0  0  0  0  0  0  0  # atno 6908 bound_to 6896
  152.0393  134.9721  160.0624 H   0  0  0  0  0  0  0  0  0  0  0  0  # atno 6909 bound_to 6896
  145.8579  140.8306  142.9952 H   0  0  0  0  0  0  0  0  0  0  0  0  # atno 7974 bound_to 7965
  155.5350  140.3483  155.4434 H   0  0  0  0  0  0  0  0  0  0  0  0  # atno 8008 bound_to 7997
  156.0691  140.1358  156.9876 H   0  0  0  0  0  0  0  0  0  0  0  0  # atno 8009 bound_to 7997
  154.4519  140.0969  156.6617 H   0  0  0  0  0  0  0  0  0  0  0  0  # atno 8010 bound_to 7997
  139.9899  144.5764  150.7827 H   0  0  0  0  0  0  0  0  0  0  0  0  # atno 10167 bound_to 10162
  156.6918  130.9162  151.3070 H   0  0  0  0  0  0  0  0  0  0  0  0  # atno 10718 bound_to 10713
  154.1799  135.6445  153.5031 H   0  0  0  0  0  0  0  0  0  0  0  0  # atno 10763 bound_to 10752
  153.0062  135.5403  154.6525 H   0  0  0  0  0  0  0  0  0  0  0  0  # atno 10764 bound_to 10752
  154.5887  135.2932  155.0631 H   0  0  0  0  0  0  0  0  0  0  0  0  # atno 10765 bound_to 10752
  141.1405  133.8111  157.0595 H   0  0  0  0  0  0  0  0  0  0  0  0  # atno 11005 bound_to 11000
  144.6727  140.1051  143.7458 LP  0  0  0  0  0  0  0  0  0  0  0  0  # atno 17320 bound_to 7965
  145.9282  139.2589  143.1340 LP  0  0  0  0  0  0  0  0  0  0  0  0  # atno 17321 bound_to 7965
  140.7458  143.2881  151.3405 LP  0  0  0  0  0  0  0  0  0  0  0  0  # atno 17342 bound_to 10162
  139.6347  144.0653  152.2506 LP  0  0  0  0  0  0  0  0  0  0  0  0  # atno 17343 bound_to 10162
  157.7006  130.9329  150.0774 LP  0  0  0  0  0  0  0  0  0  0  0  0  # atno 17370 bound_to 10713
  156.1792  130.3649  149.9058 LP  0  0  0  0  0  0  0  0  0  0  0  0  # atno 17371 bound_to 10713
  140.0580  134.9770  157.1255 LP  0  0  0  0  0  0  0  0  0  0  0  0  # atno 17394 bound_to 11000
  140.3890  134.2205  155.7167 LP  0  0  0  0  0  0  0  0  0  0  0  0  # atno 17395 bound_to 11000

$$$$
