AV-unprocessed.smi:1766|AV-procd|sdf|7135|dock10
  -GOLD-   22720 8373D 1   1.00000     0.00000
 Structure written by MMmdl.
 39 41  0  0  0  0  0  0  0  0  1 V2000
  154.2927  136.5011  157.9865 N   0  0  0  0  0  0  0  0  0  0  0  0
  154.0878  136.9539  159.2268 C   0  0  0  0  0  0  0  0  0  0  0  0
  153.1372  136.5823  159.9117 O   0  0  0  0  0  0  0  0  0  0  0  0
  155.1018  137.9577  159.7843 C   0  0  0  0  0  0  0  0  0  0  0  0
  154.4177  139.2835  159.9714 C   0  0  0  0  0  0  0  0  0  0  0  0
  153.7922  139.8960  158.9635 N   0  0  0  0  0  0  0  0  0  0  0  0
  153.3249  141.0547  159.5513 C   0  0  0  0  0  0  0  0  0  0  0  0
  152.5786  142.1246  159.0072 C   0  0  0  0  0  0  0  0  0  0  0  0
  152.2109  143.2212  159.8143 C   0  0  0  0  0  0  0  0  0  0  0  0
  152.5829  143.2635  161.1738 C   0  0  0  0  0  0  0  0  0  0  0  0
  153.3263  142.2076  161.7354 C   0  0  0  0  0  0  0  0  0  0  0  0
  153.6905  141.1155  160.9253 C   0  0  0  0  0  0  0  0  0  0  0  0
  154.4046  139.9447  161.1586 N   0  0  0  0  0  0  0  0  0  0  0  0
  154.9976  139.5517  162.4305 C   0  0  0  0  0  0  0  0  0  0  0  0
  155.9741  140.6096  162.9819 C   0  0  2  0  0  0  0  0  0  0  0  0
  157.3041  140.2673  162.6428 O   0  0  0  0  0  0  0  0  0  0  0  0
  155.7967  140.7969  164.4803 C   0  0  0  0  0  0  0  0  0  0  0  0
  155.9802  139.7052  165.3559 C   0  0  0  0  0  0  0  0  0  0  0  0
  155.8217  139.8748  166.7453 C   0  0  0  0  0  0  0  0  0  0  0  0
  155.4820  141.1376  167.2674 C   0  0  0  0  0  0  0  0  0  0  0  0
  155.3293  141.2999  168.6030 F   0  0  0  0  0  0  0  0  0  0  0  0
  155.3027  142.2316  166.3993 C   0  0  0  0  0  0  0  0  0  0  0  0
  155.4604  142.0625  165.0099 C   0  0  0  0  0  0  0  0  0  0  0  0
  153.6424  135.8458  157.5777 H   0  0  0  0  0  0  0  0  0  0  0  0
  155.0912  136.8229  157.4585 H   0  0  0  0  0  0  0  0  0  0  0  0
  155.5227  137.6007  160.7241 H   0  0  0  0  0  0  0  0  0  0  0  0
  155.9351  138.0708  159.0892 H   0  0  0  0  0  0  0  0  0  0  0  0
  152.2892  142.1018  157.9671 H   0  0  0  0  0  0  0  0  0  0  0  0
  151.6410  144.0337  159.3880 H   0  0  0  0  0  0  0  0  0  0  0  0
  152.2974  144.1072  161.7849 H   0  0  0  0  0  0  0  0  0  0  0  0
  153.6139  142.2368  162.7759 H   0  0  0  0  0  0  0  0  0  0  0  0
  154.1866  139.3922  163.1422 H   0  0  0  0  0  0  0  0  0  0  0  0
  155.4932  138.5877  162.3253 H   0  0  0  0  0  0  0  0  0  0  0  0
  155.7672  141.5624  162.4926 H   0  0  0  0  0  0  0  0  0  0  0  0
  157.6753  139.7674  163.3537 H   0  0  0  0  0  0  0  0  0  0  0  0
  156.2440  138.7328  164.9663 H   0  0  0  0  0  0  0  0  0  0  0  0
  155.9619  139.0360  167.4111 H   0  0  0  0  0  0  0  0  0  0  0  0
  155.0454  143.2014  166.7989 H   0  0  0  0  0  0  0  0  0  0  0  0
  155.3244  142.9080  164.3512 H   0  0  0  0  0  0  0  0  0  0  0  0
  1  2  1  0  0  0  0
  1 24  1  0  0  0  0
  1 25  1  0  0  0  0
  2  3  2  0  0  0  0
  2  4  1  0  0  0  0
  4  5  1  0  0  0  0
  4 26  1  0  0  0  0
  4 27  1  0  0  0  0
  5 13  1  0  0  0  0
  5  6  2  0  0  0  0
  6  7  1  0  0  0  0
  7 12  2  0  0  0  0
  7  8  1  0  0  0  0
  8  9  2  0  0  0  0
  8 28  1  0  0  0  0
  9 10  1  0  0  0  0
  9 29  1  0  0  0  0
 10 11  2  0  0  0  0
 10 30  1  0  0  0  0
 11 12  1  0  0  0  0
 11 31  1  0  0  0  0
 12 13  1  0  0  0  0
 13 14  1  0  0  0  0
 14 15  1  0  0  0  0
 14 32  1  0  0  0  0
 14 33  1  0  0  0  0
 15 16  1  0  0  0  0
 15 17  1  0  0  0  0
 15 34  1  0  0  0  0
 16 35  1  0  0  0  0
 17 23  1  0  0  0  0
 17 18  2  0  0  0  0
 18 19  1  0  0  0  0
 18 36  1  0  0  0  0
 19 20  2  0  0  0  0
 19 37  1  0  0  0  0
 20 21  1  0  0  0  0
 20 22  1  0  0  0  0
 22 23  2  0  0  0  0
 22 38  1  0  0  0  0
 23 39  1  0  0  0  0
M  END
> <s_m_source_file>
AV-unprocessed.smi

> <i_m_source_file_index>
1766

> <i_lp_mmshare_version>
43012

> <i_f3d_flags>
0

> <s_epik_input>
W2NIXTFbY0hdW2NIXVtjSF1jKGMxMiluKGMobjIpW0NIMl1DKD1PKVtOSDJdKVtDSDJdW0NASF0oW09IXSljM1tjSF1bY0hdYyhGKVtjSF1bY0hdMw==

> <s_epik_cmdline>
J2VwaWtfcHl0aG9uJywgJy1waCcsICc3LjAnLCAnLXRuJywgJzgnLCAnLW1hJywgJzIwMCcsICctbWV0YWxfYmluZGluZycsICctaW1hZScsICc8aW5maWxlLm1hZT4nLCAnLW9tYWUnLCAnPG91dGZpbGUubWFlPic=

> <r_epik_Ionization_Penalty>
0.0366901

> <r_epik_Ionization_Penalty_Charging>
0

> <r_epik_Ionization_Penalty_Neutral>
0.0366901

> <r_epik_State_Penalty>
0.0306642

> <r_epik_Charging_Adjusted_Penalty>
0.0306642

> <i_epik_Tot_Q>
0

> <i_epik_Tot_abs_Q>
0

> <r_epik_Metal_State_Penalty>
0.028853

> <b_epik_Metal_Only>
0

> <s_lp_Force_Field>
OPLS_2005

> <r_lp_Energy>
12.4574

> <b_lp_Chiralities_Consistent>
1

> <s_lp_Variant>
AV-unprocessed.smi:1766-1

> <Gold.Version>
5.8.1

> <Gold.Id.Protein>
6NUR|6NUR_protein|mol2

> <Gold.PLP.Fitness>
49.8383

> <Gold.PLP.PLP>
-45.1290

> <Gold.PLP.part.hbond>
-2.9919

> <Gold.PLP.part.metal>
0.0000

> <Gold.PLP.part.buried>
-1.9315

> <Gold.PLP.part.nonpolar>
-40.0184

> <Gold.PLP.part.repulsive>
0.1205

> <Gold.PLP.ligand.clash>
0.0000

> <Gold.PLP.ligand.torsion>
0.6562

> <Gold.PLP.Chemscore.Hbond>
1.9913

> <Gold.PLP.Chemscore.CHOScore>
0.0000

> <Gold.PLP.Chemscore.Metal>
0.0000

> <Gold.Chemscore.Hbonds>
donor molecule, donor type, donor heavy atom, donor atom, acceptor molecule, acceptor atom, score
      P1  H  6896  6909       L1     3  1.00
      P1  H  7997  8008       L1     6  1.00

> <Gold.PLP.Chemscore.Internal.Correction>
0.0480

> <Gold.Rescore>
     Score         DG    S(hbond)    S(metal)    S(lipo)     H(rot)  DE(clash)    DE(int)     intcor
     15.49     -18.54       1.85        0.00     124.14       2.99       2.23       0.82       ----

> <Gold.Chemscore.Fitness>
15.4941

> <Gold.Chemscore.DG>
-18.5430

> <Gold.Chemscore.ZeroCoef>
-5.4800

> <Gold.Chemscore.Hbond>
1.8513

> <Gold.Chemscore.Metal>
0.0000

> <Gold.Chemscore.Lipo>
124.1446

> <Gold.Chemscore.Internal_Hbond>
0.0000

> <Gold.Chemscore.DEClash>
2.2281

> <Gold.Chemscore.DEInternal>
0.8209

> <Gold.Chemscore.Rot>
2.9864

> <Gold.Chemscore.Internal.Correction>
   9.000000E+99

> <Gold.Chemscore.Hbonds>
donor molecule, donor type, donor heavy atom, donor atom, acceptor molecule, acceptor atom, score
      P1  H  6896  6909       L1     3  1.00
      P1  H  7997  8008       L1     6  0.80

> <Gold.Chemscore.Hbond.Weighted>
-6.1832

> <Gold.Chemscore.Metal.Weighted>
-0.0000

> <Gold.Chemscore.Lipo.Weighted>
-14.5249

> <Gold.Chemscore.Internal_Hbond.Weighted>
0.0000

> <Gold.Chemscore.DEClash.Weighted>
2.2281

> <Gold.Chemscore.DEInternal.Weighted>
0.8209

> <Gold.Chemscore.Rot.Weighted>
7.6451

> <Gold.Chemscore.Internal.Correction.Weighted>
   9.000000E+99

> <Gold.Protein.RotatedTorsions>
[ 6907 6896 6895 6894 ] final  164.44 input  -60.11 | X-H torsion
[ 7974 7965 7964 7962 ] final -176.85 input  175.53 | X-H torsion
[ 8008 7997 7996 7995 ] final -105.23 input   59.86 | X-H torsion
[ 10167 10162 10161 10158 ] final  -47.64 input  -65.29 | X-H torsion
[ 10718 10713 10712 10709 ] final   87.19 input   66.30 | X-H torsion
[ 10763 10752 10751 10750 ] final -178.66 input  -60.55 | X-H torsion
[ 11005 11000 10999 10996 ] final  140.09 input  -57.11 | X-H torsion

> <Gold.Protein.ActiveResidues>
 VAL166  LYS551  ARG553  GLY616  TRP617  ASP618  TYR619  PRO620  LYS621  CYS622 
 ASP623  PHE694  ASN695  SER759  ASP760  ASP761  ALA762  ILE779  LEU786  VAL792 
 PHE793  MET794  SER795  GLU796  ALA797  LYS798  CYS799  TRP800  GLU811  SER814 

> <Gold.Protein.RotatedAtoms>
  151.9098  133.3558  159.3859 H   0  0  0  0  0  0  0  0  0  0  0  0  # atno 6907 bound_to 6896
  150.7060  134.4744  159.5450 H   0  0  0  0  0  0  0  0  0  0  0  0  # atno 6908 bound_to 6896
  152.2347  134.8287  160.0519 H   0  0  0  0  0  0  0  0  0  0  0  0  # atno 6909 bound_to 6896
  144.7127  140.1108  143.6411 H   0  0  0  0  0  0  0  0  0  0  0  0  # atno 7974 bound_to 7965
  154.8968  140.0414  157.1870 H   0  0  0  0  0  0  0  0  0  0  0  0  # atno 8008 bound_to 7997
  154.8484  140.2925  155.5593 H   0  0  0  0  0  0  0  0  0  0  0  0  # atno 8009 bound_to 7997
  156.2995  140.2469  156.3439 H   0  0  0  0  0  0  0  0  0  0  0  0  # atno 8010 bound_to 7997
  140.6766  143.2775  151.3956 H   0  0  0  0  0  0  0  0  0  0  0  0  # atno 10167 bound_to 10162
  157.6937  131.0246  150.3087 H   0  0  0  0  0  0  0  0  0  0  0  0  # atno 10718 bound_to 10713
  154.5448  135.2808  155.1062 H   0  0  0  0  0  0  0  0  0  0  0  0  # atno 10763 bound_to 10752
  154.2531  135.6336  153.5251 H   0  0  0  0  0  0  0  0  0  0  0  0  # atno 10764 bound_to 10752
  152.9988  135.5587  154.5998 H   0  0  0  0  0  0  0  0  0  0  0  0  # atno 10765 bound_to 10752
  140.0302  134.9355  157.0648 H   0  0  0  0  0  0  0  0  0  0  0  0  # atno 11005 bound_to 11000
  145.9456  139.2698  143.1243 LP  0  0  0  0  0  0  0  0  0  0  0  0  # atno 17320 bound_to 7965
  145.9378  140.9002  143.0323 LP  0  0  0  0  0  0  0  0  0  0  0  0  # atno 17321 bound_to 7965
  139.6062  144.1192  152.2252 LP  0  0  0  0  0  0  0  0  0  0  0  0  # atno 17342 bound_to 10162
  140.0591  144.5871  150.7276 LP  0  0  0  0  0  0  0  0  0  0  0  0  # atno 17343 bound_to 10162
  156.3591  130.3844  149.7266 LP  0  0  0  0  0  0  0  0  0  0  0  0  # atno 17370 bound_to 10713
  156.4718  130.8000  151.3017 LP  0  0  0  0  0  0  0  0  0  0  0  0  # atno 17371 bound_to 10713
  140.4238  134.1852  155.7165 LP  0  0  0  0  0  0  0  0  0  0  0  0  # atno 17394 bound_to 11000
  141.1826  133.8380  157.1202 LP  0  0  0  0  0  0  0  0  0  0  0  0  # atno 17395 bound_to 11000

$$$$
