#       Name:                AV-unprocessed.smi:1392
#       Creating user name   scv26
#       Creation time:       Fri Mar 27 05:28:43 2020


#       File generated by GOLD software.
#

@<TRIPOS>MOLECULE
AV-unprocessed.smi:1392
    44    45     1
SMALL
NO_CHARGES


@<TRIPOS>ATOM
      1 ****        -6.0262  -0.4919  -2.3742 C.3            1 S1                 0.0000
      2 ****        -5.2869  -0.0241  -1.2085 N.pl3          1 S1                 0.0000
      3 ****        -6.0015   0.5826  -0.0900 C.3            1 S1                 0.0000
      4 ****        -3.8887  -0.2177  -1.1280 C.ar           1 S1                 0.0000
      5 ****        -3.1583  -0.7894  -2.1991 C.ar           1 S1                 0.0000
      6 ****        -1.7677  -0.9636  -2.0668 C.ar           1 S1                 0.0000
      7 ****        -1.1327  -0.5748  -0.8720 C.ar           1 S1                 0.0000
      8 ****         0.2746  -0.7505  -0.7767 N.am           1 S1                 0.0000
      9 ****         1.0436  -0.7825   0.3253 C.2            1 S1                 0.0000
     10 ****         0.6368  -0.6880   1.4829 O.2            1 S1                 0.0000
     11 ****         2.3351  -0.9508   0.0085 N.am           1 S1                 0.0000
     12 ****         3.4302  -1.0303   0.9695 C.3            1 S1                 0.0000
     13 ****         3.8570   0.3603   1.4766 C.3            1 S1                 0.0000
     14 ****         5.0313   0.3330   2.4326 C.3            1 S1                 0.0000
     15 ****         5.5039   1.7818   2.3832 C.3            1 S1                 0.0000
     16 ****         5.2464   2.2235   1.0538 O.3            1 S1                 0.0000
     17 ****         4.3767   1.3079   0.3931 C.3            1 S1                 0.0000
     18 ****        -1.9384  -0.0006   0.1389 C.ar           1 S1                 0.0000
     19 ****        -3.2715   0.1698   0.0149 N.ar           1 S1                 0.0000
     20 ****        -5.7026   0.0384  -3.2703 H              1 S1                 0.0000
     21 ****        -7.0972  -0.3250  -2.2578 H              1 S1                 0.0000
     22 ****        -5.8720  -1.5609  -2.5243 H              1 S1                 0.0000
     23 ****        -5.5956   1.5693   0.1355 H              1 S1                 0.0000
     24 ****        -5.9157  -0.0395   0.8015 H              1 S1                 0.0000
     25 ****        -7.0614   0.7037  -0.3134 H              1 S1                 0.0000
     26 ****        -3.6343  -1.0953  -3.1183 H              1 S1                 0.0000
     27 ****        -1.1984  -1.3960  -2.8768 H              1 S1                 0.0000
     28 ****         0.7481  -0.9200  -1.6518 H              1 S1                 0.0000
     29 ****         2.5804  -1.0264  -0.9679 H              1 S1                 0.0000
     30 ****         3.1430  -1.6662   1.8085 H              1 S1                 0.0000
     31 ****         4.2701  -1.5263   0.4824 H              1 S1                 0.0000
     32 ****         3.0173   0.8386   1.9842 H              1 S1                 0.0000
     33 ****         4.7596   0.0094   3.4378 H              1 S1                 0.0000
     34 ****         5.8147  -0.3284   2.0595 H              1 S1                 0.0000
     35 ****         4.9211   2.3947   3.0721 H              1 S1                 0.0000
     36 ****         6.5572   1.8870   2.6435 H              1 S1                 0.0000
     37 ****         4.9578   0.7632  -0.3521 H              1 S1                 0.0000
     38 ****         3.5705   1.8294  -0.1237 H              1 S1                 0.0000
     39 ****        -1.5255   0.3565   1.0690 H              1 S1                 0.0000
     40 ****        -0.3408  -0.5769   1.6618 LP             1 S1                 0.0000
     41 ****         1.2838  -0.7223   2.2446 LP             1 S1                 0.0000
     42 ****         6.1092   2.2812   0.5515 LP             1 S1                 0.0000
     43 ****         4.8164   3.1259   1.0825 LP             1 S1                 0.0000
     44 ****        -3.7993   0.5783   0.7596 LP             1 S1                 0.0000
@<TRIPOS>BOND
    1    1    2 1     
    2    1   20 1     
    3    1   21 1     
    4    1   22 1     
    5    2    3 1     
    6    2    4 1     
    7    3   23 1     
    8    3   24 1     
    9    3   25 1     
   10    4   19 ar    
   11    4    5 ar    
   12    5    6 ar    
   13    5   26 1     
   14    6    7 ar    
   15    6   27 1     
   16    7    8 1     
   17    7   18 ar    
   18    8    9 am    
   19    8   28 1     
   20    9   10 2     
   21    9   11 am    
   22   11   12 1     
   23   11   29 1     
   24   12   13 1     
   25   12   30 1     
   26   12   31 1     
   27   13   17 1     
   28   13   14 1     
   29   13   32 1     
   30   14   15 1     
   31   14   33 1     
   32   14   34 1     
   33   15   16 1     
   34   15   35 1     
   35   15   36 1     
   36   16   17 1     
   37   17   37 1     
   38   17   38 1     
   39   18   19 ar    
   40   18   39 1     
   41   10   40 1     
   42   10   41 1     
   43   16   42 1     
   44   16   43 1     
   45   19   44 1     
@<TRIPOS>SUBSTRUCTURE
      1 S1             1
@<TRIPOS>SET
LONE_PAIRS      STATIC     ATOMS    <user>   **** ""
5 40 41 42 43 44
DONOR_HYDROGENS      STATIC     ATOMS    <user>   **** ""
2 28 29
ATOM$BLUE        STATIC     ATOMS    COLORGROUP SYSTEM
5 40 41 42 43 44
ATOM$RED        STATIC     ATOMS    COLORGROUP SYSTEM
2 28 29
