AV-unprocessed.smi:3185|AV-procd|sdf|12165|dock7
  -GOLD-   2272018 03D 1   1.00000     0.00000
 Structure written by MMmdl.
 38 39  0  0  0  0  0  0  0  0  2 V2000
  150.2451  132.0822  155.1159 N   0  0  0  0  0  0  0  0  0  0  0  0
  149.7722  133.1016  154.8427 C   0  0  0  0  0  0  0  0  0  0  0  0
  149.1720  134.3983  154.4950 C   0  0  0  0  0  0  0  0  0  0  0  0
  149.6216  135.5262  155.4305 C   0  0  0  0  0  0  0  0  0  0  0  0
  148.7350  136.7705  155.3068 C   0  0  0  0  0  0  0  0  0  0  0  0
  149.0496  137.5250  154.0771 N   0  3  0  0  0  0  0  0  0  0  0  0
  150.1469  138.5100  154.2130 C   0  0  2  0  0  0  0  0  0  0  0  0
  151.4336  137.7879  154.6566 C   0  0  0  0  0  0  0  0  0  0  0  0
  152.5945  138.7728  154.8629 C   0  0  0  0  0  0  0  0  0  0  0  0
  152.2182  139.8678  155.8716 C   0  0  0  0  0  0  0  0  0  0  0  0
  150.9409  140.6024  155.4376 C   0  0  0  0  0  0  0  0  0  0  0  0
  149.7685  139.6211  155.2263 C   0  0  1  0  0  0  0  0  0  0  0  0
  148.5603  140.3360  154.8345 N   0  0  0  0  0  0  0  0  0  0  0  0
  148.4099  141.6870  154.5986 C   0  0  0  0  0  0  0  0  0  0  0  0
  147.1047  141.9000  154.2591 C   0  0  0  0  0  0  0  0  0  0  0  0
  146.5264  140.6013  154.3065 C   0  0  0  0  0  0  0  0  0  0  0  0
  147.3987  139.6683  154.6505 N   0  0  0  0  0  0  0  0  0  0  0  0
  149.4434  134.6261  153.4638 H   0  0  0  0  0  0  0  0  0  0  0  0
  148.0884  134.2835  154.5282 H   0  0  0  0  0  0  0  0  0  0  0  0
  149.6059  135.1674  156.4605 H   0  0  0  0  0  0  0  0  0  0  0  0
  150.6570  135.7881  155.2085 H   0  0  0  0  0  0  0  0  0  0  0  0
  147.6834  136.4811  155.2908 H   0  0  0  0  0  0  0  0  0  0  0  0
  148.8811  137.4133  156.1753 H   0  0  0  0  0  0  0  0  0  0  0  0
  149.3046  136.8670  153.3546 H   0  0  0  0  0  0  0  0  0  0  0  0
  150.3450  138.9691  153.2422 H   0  0  0  0  0  0  0  0  0  0  0  0
  151.2525  137.2448  155.5853 H   0  0  0  0  0  0  0  0  0  0  0  0
  151.7170  137.0413  153.9136 H   0  0  0  0  0  0  0  0  0  0  0  0
  153.4791  138.2374  155.2090 H   0  0  0  0  0  0  0  0  0  0  0  0
  152.8625  139.2291  153.9091 H   0  0  0  0  0  0  0  0  0  0  0  0
  152.0692  139.4241  156.8568 H   0  0  0  0  0  0  0  0  0  0  0  0
  153.0392  140.5782  155.9737 H   0  0  0  0  0  0  0  0  0  0  0  0
  150.6739  141.3464  156.1891 H   0  0  0  0  0  0  0  0  0  0  0  0
  151.1403  141.1531  154.5173 H   0  0  0  0  0  0  0  0  0  0  0  0
  149.5596  139.1458  156.1866 H   0  0  0  0  0  0  0  0  0  0  0  0
  149.2348  142.3784  154.6921 H   0  0  0  0  0  0  0  0  0  0  0  0
  146.6350  142.8403  154.0105 H   0  0  0  0  0  0  0  0  0  0  0  0
  145.5062  140.3110  154.1029 H   0  0  0  0  0  0  0  0  0  0  0  0
  148.2169  138.0157  153.7843 H   0  0  0  0  0  0  0  0  0  0  0  0
  1  2  3  0  0  0  0
  2  3  1  0  0  0  0
  3  4  1  0  0  0  0
  3 18  1  0  0  0  0
  3 19  1  0  0  0  0
  4  5  1  0  0  0  0
  4 20  1  0  0  0  0
  4 21  1  0  0  0  0
  5  6  1  0  0  0  0
  5 22  1  0  0  0  0
  5 23  1  0  0  0  0
  6  7  1  0  0  0  0
  6 24  1  0  0  0  0
  6 38  1  0  0  0  0
  7 12  1  0  0  0  0
  7  8  1  0  0  0  0
  7 25  1  0  0  0  0
  8  9  1  0  0  0  0
  8 26  1  0  0  0  0
  8 27  1  0  0  0  0
  9 10  1  0  0  0  0
  9 28  1  0  0  0  0
  9 29  1  0  0  0  0
 10 11  1  0  0  0  0
 10 30  1  0  0  0  0
 10 31  1  0  0  0  0
 11 12  1  0  0  0  0
 11 32  1  0  0  0  0
 11 33  1  0  0  0  0
 12 13  1  0  0  0  0
 12 34  1  0  0  0  0
 13 17  1  0  0  0  0
 13 14  1  0  0  0  0
 14 15  2  0  0  0  0
 14 35  1  0  0  0  0
 15 16  1  0  0  0  0
 15 36  1  0  0  0  0
 16 17  2  0  0  0  0
 16 37  1  0  0  0  0
M  CHG  1   6   1
M  END
> <s_m_source_file>
AV-unprocessed.smi

> <i_m_source_file_index>
3185

> <i_lp_mmshare_version>
43012

> <i_f3d_flags>
0

> <s_epik_input>
TiNDW0NIMl1bQ0gyXVtDSDJdW05IXVtDQEBIXTFbQ0gyXVtDSDJdW0NIMl1bQ0gyXVtDQEhdMW4yW2NIXVtjSF1bY0hdbjI=

> <s_epik_cmdline>
J2VwaWtfcHl0aG9uJywgJy1waCcsICc3LjAnLCAnLXRuJywgJzgnLCAnLW1hJywgJzIwMCcsICctbWV0YWxfYmluZGluZycsICctaW1hZScsICc8aW5maWxlLm1hZT4nLCAnLW9tYWUnLCAnPG91dGZpbGUubWFlPic=

> <r_lp_tautomer_probability>
1

> <r_epik_Ionization_Penalty>
0.0143465

> <r_epik_Ionization_Penalty_Charging>
0.0143338

> <r_epik_Ionization_Penalty_Neutral>
1.27047e-05

> <r_epik_State_Penalty>
0.0112058

> <r_epik_Charging_Adjusted_Penalty>
0.0255397

> <i_epik_Tot_Q>
1

> <i_epik_Tot_abs_Q>
1

> <r_epik_Metal_State_Penalty>
0.0112253

> <b_epik_Metal_Only>
0

> <s_lp_Force_Field>
OPLS_2005

> <r_lp_Energy>
16.2212

> <b_lp_Chiralities_Consistent>
1

> <s_lp_Variant>
AV-unprocessed.smi:3185-1

> <Gold.Version>
5.8.1

> <Gold.Id.Protein>
6NUR|6NUR_protein|mol2

> <Gold.PLP.Fitness>
42.3403

> <Gold.PLP.PLP>
-31.4261

> <Gold.PLP.part.hbond>
-0.9661

> <Gold.PLP.part.metal>
0.0000

> <Gold.PLP.part.buried>
-0.8392

> <Gold.PLP.part.nonpolar>
-30.2894

> <Gold.PLP.part.repulsive>
0.0899

> <Gold.PLP.ligand.clash>
0.0148

> <Gold.PLP.ligand.torsion>
0.2893

> <Gold.PLP.Chemscore.Hbond>
2.0000

> <Gold.PLP.Chemscore.CHOScore>
1.8163

> <Gold.PLP.Chemscore.Metal>
0.0000

> <Gold.Chemscore.Hbonds>
donor molecule, donor type, donor heavy atom, donor atom, acceptor molecule, acceptor atom, score
      L1  H     6    24       P1  7948  1.92
      L1  C    14    35       P1  8028  0.79
      L1  C    16    37       P1 10175  1.00

> <Gold.PLP.Chemscore.Internal.Correction>
0.0586

> <Gold.Rescore>
     Score         DG    S(hbond)    S(metal)    S(lipo)     H(rot)  DE(clash)    DE(int)     intcor
      9.52     -12.59       0.96        0.00      74.34       1.88       0.22       2.84       ----

> <Gold.Chemscore.Fitness>
9.5213

> <Gold.Chemscore.DG>
-12.5850

> <Gold.Chemscore.ZeroCoef>
-5.4800

> <Gold.Chemscore.Hbond>
0.9618

> <Gold.Chemscore.Metal>
0.0000

> <Gold.Chemscore.Lipo>
74.3383

> <Gold.Chemscore.Internal_Hbond>
0.0000

> <Gold.Chemscore.DEClash>
0.2192

> <Gold.Chemscore.DEInternal>
2.8445

> <Gold.Chemscore.Rot>
1.8769

> <Gold.Chemscore.Internal.Correction>
   9.000000E+99

> <Gold.Chemscore.Hbonds>
donor molecule, donor type, donor heavy atom, donor atom, acceptor molecule, acceptor atom, score
      L1  H     6    24       P1  7948  0.88

> <Gold.Chemscore.Hbond.Weighted>
-3.2124

> <Gold.Chemscore.Metal.Weighted>
-0.0000

> <Gold.Chemscore.Lipo.Weighted>
-8.6976

> <Gold.Chemscore.Internal_Hbond.Weighted>
0.0000

> <Gold.Chemscore.DEClash.Weighted>
0.2192

> <Gold.Chemscore.DEInternal.Weighted>
2.8445

> <Gold.Chemscore.Rot.Weighted>
4.8049

> <Gold.Chemscore.Internal.Correction.Weighted>
   9.000000E+99

> <Gold.Protein.RotatedTorsions>
[ 6907 6896 6895 6894 ] final  -39.39 input  -60.11 | X-H torsion
[ 7974 7965 7964 7962 ] final  177.15 input  175.53 | X-H torsion
[ 8008 7997 7996 7995 ] final   74.78 input   59.86 | X-H torsion
[ 10167 10162 10161 10158 ] final   67.07 input  -65.29 | X-H torsion
[ 10718 10713 10712 10709 ] final -161.81 input   66.30 | X-H torsion
[ 10763 10752 10751 10750 ] final  145.65 input  -60.55 | X-H torsion
[ 11005 11000 10999 10996 ] final  144.01 input  -57.11 | X-H torsion

> <Gold.Protein.ActiveResidues>
 VAL166  LYS551  ARG553  GLY616  TRP617  ASP618  TYR619  PRO620  LYS621  CYS622 
 ASP623  PHE694  ASN695  SER759  ASP760  ASP761  ALA762  ILE779  LEU786  VAL792 
 PHE793  MET794  SER795  GLU796  ALA797  LYS798  CYS799  TRP800  GLU811  SER814 

> <Gold.Protein.RotatedAtoms>
  150.9909  134.9244  159.7898 H   0  0  0  0  0  0  0  0  0  0  0  0  # atno 6907 bound_to 6896
  152.5250  134.3283  159.9183 H   0  0  0  0  0  0  0  0  0  0  0  0  # atno 6908 bound_to 6896
  151.3289  133.3967  159.2695 H   0  0  0  0  0  0  0  0  0  0  0  0  # atno 6909 bound_to 6896
  144.7173  140.0204  143.6440 H   0  0  0  0  0  0  0  0  0  0  0  0  # atno 7974 bound_to 7965
  155.8034  140.3475  155.5416 H   0  0  0  0  0  0  0  0  0  0  0  0  # atno 8008 bound_to 7997
  155.8515  140.0957  157.1692 H   0  0  0  0  0  0  0  0  0  0  0  0  # atno 8009 bound_to 7997
  154.4008  140.1375  156.3837 H   0  0  0  0  0  0  0  0  0  0  0  0  # atno 8010 bound_to 7997
  140.0936  144.4966  150.7083 H   0  0  0  0  0  0  0  0  0  0  0  0  # atno 10167 bound_to 10162
  156.6015  130.8812  151.2915 H   0  0  0  0  0  0  0  0  0  0  0  0  # atno 10718 bound_to 10713
  154.0090  135.2916  155.3394 H   0  0  0  0  0  0  0  0  0  0  0  0  # atno 10763 bound_to 10752
  154.7115  135.5147  153.8676 H   0  0  0  0  0  0  0  0  0  0  0  0  # atno 10764 bound_to 10752
  153.0732  135.6654  154.0323 H   0  0  0  0  0  0  0  0  0  0  0  0  # atno 10765 bound_to 10752
  140.0599  134.9210  157.1166 H   0  0  0  0  0  0  0  0  0  0  0  0  # atno 11005 bound_to 11000
  146.0185  139.3230  143.0827 LP  0  0  0  0  0  0  0  0  0  0  0  0  # atno 17320 bound_to 7965
  145.8597  140.9482  143.0707 LP  0  0  0  0  0  0  0  0  0  0  0  0  # atno 17321 bound_to 7965
  140.7015  143.2438  151.4849 LP  0  0  0  0  0  0  0  0  0  0  0  0  # atno 17342 bound_to 10162
  139.5711  144.1927  152.1837 LP  0  0  0  0  0  0  0  0  0  0  0  0  # atno 17343 bound_to 10162
  157.7278  130.9648  150.1716 LP  0  0  0  0  0  0  0  0  0  0  0  0  # atno 17370 bound_to 10713
  156.2465  130.3696  149.8279 LP  0  0  0  0  0  0  0  0  0  0  0  0  # atno 17371 bound_to 10713
  140.3786  134.2311  155.7172 LP  0  0  0  0  0  0  0  0  0  0  0  0  # atno 17394 bound_to 11000
  141.1968  133.8073  157.0654 LP  0  0  0  0  0  0  0  0  0  0  0  0  # atno 17395 bound_to 11000

$$$$
