AV-unprocessed.smi:287|AV-procd|sdf|2184|dock1
  -GOLD-   2262021563D 1   1.00000     0.00000
 Structure written by MMmdl.
 55 58  0  0  0  0  0  0  0  0  1 V2000
  142.0259  134.5517  163.3873 C   0  0  0  0  0  0  0  0  0  0  0  0
  143.1880  135.2757  162.7980 C   0  0  0  0  0  0  0  0  0  0  0  0
  144.5345  135.0548  162.7928 C   0  0  0  0  0  0  0  0  0  0  0  0
  145.1374  136.1117  162.0474 C   0  0  0  0  0  0  0  0  0  0  0  0
  146.6274  136.2720  161.7759 C   0  0  2  0  0  0  0  0  0  0  0  0
  147.4154  135.1678  162.5009 C   0  0  0  0  0  0  0  0  0  0  0  0
  147.1517  137.4880  162.2730 O   0  0  0  0  0  0  0  0  0  0  0  0
  146.9508  136.2497  160.2651 C   0  0  0  0  0  0  0  0  0  0  0  0
  148.3725  136.4082  159.9870 N   0  0  0  0  0  0  0  0  0  0  0  0
  148.8099  136.6948  158.7432 C   0  0  0  0  0  0  0  0  0  0  0  0
  149.9433  136.0576  158.3631 N   0  0  0  0  0  0  0  0  0  0  0  0
  150.4634  136.2746  157.1520 C   0  0  0  0  0  0  0  0  0  0  0  0
  150.0161  137.0758  156.1835 N   0  0  0  0  0  0  0  0  0  0  0  0
  148.8722  137.7185  156.5578 C   0  0  0  0  0  0  0  0  0  0  0  0
  148.2053  137.5883  157.8096 C   0  0  0  0  0  0  0  0  0  0  0  0
  147.0773  138.4027  157.8119 N   0  0  0  0  0  0  0  0  0  0  0  0
  147.0864  138.9752  156.6390 C   0  0  0  0  0  0  0  0  0  0  0  0
  148.1372  138.6213  155.8217 N   0  0  0  0  0  0  0  0  0  0  0  0
  148.4516  139.0813  154.4315 C   0  0  1  0  0  0  0  0  0  0  0  0
  147.3337  139.7700  153.9545 O   0  0  0  0  0  0  0  0  0  0  0  0
  147.6680  141.1136  153.6065 C   0  0  1  0  0  0  0  0  0  0  0  0
  146.4826  142.0620  153.8603 C   0  0  0  0  0  0  0  0  0  0  0  0
  146.1078  142.0160  155.2202 O   0  0  0  0  0  0  0  0  0  0  0  0
  148.9462  141.4202  154.4004 C   0  0  1  0  0  0  0  0  0  0  0  0
  148.6477  141.8839  155.7068 O   0  0  0  0  0  0  0  0  0  0  0  0
  149.6372  140.0642  154.4049 C   0  0  1  0  0  0  0  0  0  0  0  0
  150.5813  139.9239  155.4534 O   0  0  0  0  0  0  0  0  0  0  0  0
  144.0871  136.9070  161.6549 C   0  0  0  0  0  0  0  0  0  0  0  0
  143.9777  138.1657  160.8588 C   0  0  0  0  0  0  0  0  0  0  0  0
  142.9028  136.4070  162.1062 O   0  0  0  0  0  0  0  0  0  0  0  0
  148.6260  138.1640  153.8678 H   0  0  0  0  0  0  0  0  0  0  0  0
  147.9307  141.1230  152.5470 H   0  0  0  0  0  0  0  0  0  0  0  0
  149.5550  142.1777  153.9058 H   0  0  0  0  0  0  0  0  0  0  0  0
  150.1491  139.9234  153.4520 H   0  0  0  0  0  0  0  0  0  0  0  0
  142.3043  133.5372  163.6735 H   0  0  0  0  0  0  0  0  0  0  0  0
  141.2055  134.4871  162.6722 H   0  0  0  0  0  0  0  0  0  0  0  0
  141.6611  135.0660  164.2764 H   0  0  0  0  0  0  0  0  0  0  0  0
  145.0345  134.2237  163.2677 H   0  0  0  0  0  0  0  0  0  0  0  0
  147.1197  134.1766  162.1552 H   0  0  0  0  0  0  0  0  0  0  0  0
  147.2474  135.2025  163.5783 H   0  0  0  0  0  0  0  0  0  0  0  0
  148.4885  135.2644  162.3304 H   0  0  0  0  0  0  0  0  0  0  0  0
  147.0952  137.4757  163.2161 H   0  0  0  0  0  0  0  0  0  0  0  0
  146.5700  135.3390  159.8006 H   0  0  0  0  0  0  0  0  0  0  0  0
  146.4372  137.0873  159.7910 H   0  0  0  0  0  0  0  0  0  0  0  0
  148.9846  136.3373  160.7871 H   0  0  0  0  0  0  0  0  0  0  0  0
  151.3679  135.7287  156.9276 H   0  0  0  0  0  0  0  0  0  0  0  0
  146.3212  139.6763  156.3401 H   0  0  0  0  0  0  0  0  0  0  0  0
  146.7206  143.0852  153.5687 H   0  0  0  0  0  0  0  0  0  0  0  0
  145.6178  141.7487  153.2748 H   0  0  0  0  0  0  0  0  0  0  0  0
  145.2454  142.3925  155.3066 H   0  0  0  0  0  0  0  0  0  0  0  0
  148.7612  142.8224  155.7200 H   0  0  0  0  0  0  0  0  0  0  0  0
  150.1446  140.0967  156.2739 H   0  0  0  0  0  0  0  0  0  0  0  0
  144.5459  138.9691  161.3274 H   0  0  0  0  0  0  0  0  0  0  0  0
  142.9409  138.4928  160.7761 H   0  0  0  0  0  0  0  0  0  0  0  0
  144.3641  138.0193  159.8502 H   0  0  0  0  0  0  0  0  0  0  0  0
  1  2  1  0  0  0  0
  1 35  1  0  0  0  0
  1 36  1  0  0  0  0
  1 37  1  0  0  0  0
  2 30  1  0  0  0  0
  2  3  2  0  0  0  0
  3  4  1  0  0  0  0
  3 38  1  0  0  0  0
  4  5  1  0  0  0  0
  4 28  2  0  0  0  0
  5  6  1  0  0  0  0
  5  7  1  0  0  0  0
  5  8  1  0  0  0  0
  6 39  1  0  0  0  0
  6 40  1  0  0  0  0
  6 41  1  0  0  0  0
  7 42  1  0  0  0  0
  8  9  1  0  0  0  0
  8 43  1  0  0  0  0
  8 44  1  0  0  0  0
  9 10  1  0  0  0  0
  9 45  1  0  0  0  0
 10 15  1  0  0  0  0
 10 11  2  0  0  0  0
 11 12  1  0  0  0  0
 12 13  2  0  0  0  0
 12 46  1  0  0  0  0
 13 14  1  0  0  0  0
 14 18  1  0  0  0  0
 14 15  2  0  0  0  0
 15 16  1  0  0  0  0
 16 17  2  0  0  0  0
 17 18  1  0  0  0  0
 17 47  1  0  0  0  0
 18 19  1  0  0  0  0
 19 31  1  0  0  0  0
 19 26  1  0  0  0  0
 19 20  1  0  0  0  0
 20 21  1  0  0  0  0
 21 32  1  0  0  0  0
 21 22  1  0  0  0  0
 21 24  1  0  0  0  0
 22 23  1  0  0  0  0
 22 48  1  0  0  0  0
 22 49  1  0  0  0  0
 23 50  1  0  0  0  0
 24 33  1  0  0  0  0
 24 25  1  0  0  0  0
 24 26  1  0  0  0  0
 25 51  1  0  0  0  0
 26 34  1  0  0  0  0
 26 27  1  0  0  0  0
 27 52  1  0  0  0  0
 28 29  1  0  0  0  0
 28 30  1  0  0  0  0
 29 53  1  0  0  0  0
 29 54  1  0  0  0  0
 29 55  1  0  0  0  0
M  END
> <s_m_source_file>
AV-unprocessed.smi

> <i_m_source_file_index>
287

> <i_lp_mmshare_version>
43012

> <i_f3d_flags>
0

> <s_epik_input>
W0NIM11jMVtjSF1jKGMobzEpW0NIM10pW0NAQF0oW0NIM10pKFtPSF0pW0NIMl1bTkhdYyhuW2NIXW4yKWMoYzIzKW5bY0hdbjNbQ0BASF00T1tDQEhdKFtDSDJdW09IXSlbQ0BASF0oW09IXSlbQ0BIXTRbT0hd

> <s_epik_cmdline>
J2VwaWtfcHl0aG9uJywgJy1waCcsICc3LjAnLCAnLXRuJywgJzgnLCAnLW1hJywgJzIwMCcsICctbWV0YWxfYmluZGluZycsICctaW1hZScsICc8aW5maWxlLm1hZT4nLCAnLW9tYWUnLCAnPG91dGZpbGUubWFlPic=

> <r_lp_tautomer_probability>
1

> <r_epik_Ionization_Penalty>
0.000992612

> <r_epik_Ionization_Penalty_Charging>
0

> <r_epik_Ionization_Penalty_Neutral>
0.000992612

> <r_epik_State_Penalty>
-0

> <r_epik_Charging_Adjusted_Penalty>
0

> <i_epik_Tot_Q>
0

> <i_epik_Tot_abs_Q>
0

> <r_epik_Metal_State_Penalty>
-0

> <b_epik_Metal_Only>
0

> <s_epik_Chemistry_Notes>
This compound contains an acetal/aminal-like group ( X-CH(R)-Y where X, Y are N, S, or O) that may be acid/base labile, releasing an aldehyde.

> <s_lp_Force_Field>
OPLS_2005

> <r_lp_Energy>
46.5399

> <b_lp_Chiralities_Consistent>
1

> <s_lp_Variant>
AV-unprocessed.smi:287-8

> <Gold.Version>
5.8.1

> <Gold.Id.Protein>
6NUR|6NUR_protein|mol2

> <Gold.PLP.Fitness>
51.7926

> <Gold.PLP.PLP>
-42.6287

> <Gold.PLP.part.hbond>
-4.0000

> <Gold.PLP.part.metal>
0.0000

> <Gold.PLP.part.buried>
-6.7823

> <Gold.PLP.part.nonpolar>
-31.1714

> <Gold.PLP.part.repulsive>
0.4185

> <Gold.PLP.ligand.clash>
0.0000

> <Gold.PLP.ligand.torsion>
0.7072

> <Gold.PLP.Chemscore.Hbond>
3.2581

> <Gold.PLP.Chemscore.CHOScore>
0.0000

> <Gold.PLP.Chemscore.Metal>
0.0000

> <Gold.Chemscore.Hbonds>
donor molecule, donor type, donor heavy atom, donor atom, acceptor molecule, acceptor atom, score
      L1  H    25    51       P1  8028  1.00
      P1  H  6896  6908       L1    11  1.00
      P1  H  6931  6943       L1     7  0.63
      P1  H  6934  6947       L1     7  0.59

> <Gold.PLP.Chemscore.Internal.Correction>
0.8040

> <Gold.Rescore>
     Score         DG    S(hbond)    S(metal)    S(lipo)     H(rot)  DE(clash)    DE(int)     intcor
      9.36     -11.12       2.63        0.00      88.25       5.27       0.02       1.74       ----

> <Gold.Chemscore.Fitness>
9.3557

> <Gold.Chemscore.DG>
-11.1173

> <Gold.Chemscore.ZeroCoef>
-5.4800

> <Gold.Chemscore.Hbond>
2.6334

> <Gold.Chemscore.Metal>
0.0000

> <Gold.Chemscore.Lipo>
88.2547

> <Gold.Chemscore.Internal_Hbond>
0.0000

> <Gold.Chemscore.DEClash>
0.0178

> <Gold.Chemscore.DEInternal>
1.7438

> <Gold.Chemscore.Rot>
5.2672

> <Gold.Chemscore.Internal.Correction>
   9.000000E+99

> <Gold.Chemscore.Hbonds>
donor molecule, donor type, donor heavy atom, donor atom, acceptor molecule, acceptor atom, score
      L1  H    25    51       P1  8028  1.00
      P1  H  6896  6908       L1    11  0.86
      P1  H  6931  6943       L1     7  0.24
      P1  H  6934  6947       L1     7  0.53

> <Gold.Chemscore.Hbond.Weighted>
-8.7954

> <Gold.Chemscore.Metal.Weighted>
-0.0000

> <Gold.Chemscore.Lipo.Weighted>
-10.3258

> <Gold.Chemscore.Internal_Hbond.Weighted>
0.0000

> <Gold.Chemscore.DEClash.Weighted>
0.0178

> <Gold.Chemscore.DEInternal.Weighted>
1.7438

> <Gold.Chemscore.Rot.Weighted>
13.4839

> <Gold.Chemscore.Internal.Correction.Weighted>
   9.000000E+99

> <Gold.Protein.RotatedTorsions>
[ 6907 6896 6895 6894 ] final  173.28 input  -60.11 | X-H torsion
[ 7974 7965 7964 7962 ] final -133.06 input  175.53 | X-H torsion
[ 8008 7997 7996 7995 ] final -114.30 input   59.86 | X-H torsion
[ 10167 10162 10161 10158 ] final  -92.08 input  -65.29 | X-H torsion
[ 10718 10713 10712 10709 ] final   55.20 input   66.30 | X-H torsion
[ 10763 10752 10751 10750 ] final   79.91 input  -60.55 | X-H torsion
[ 11005 11000 10999 10996 ] final   22.62 input  -57.11 | X-H torsion

> <Gold.Protein.ActiveResidues>
 VAL166  LYS551  ARG553  GLY616  TRP617  ASP618  TYR619  PRO620  LYS621  CYS622 
 ASP623  PHE694  ASN695  SER759  ASP760  ASP761  ALA762  ILE779  LEU786  VAL792 
 PHE793  MET794  SER795  GLU796  ALA797  LYS798  CYS799  TRP800  GLU811  SER814 

> <Gold.Protein.RotatedAtoms>
  151.7708  133.3341  159.3443 H   0  0  0  0  0  0  0  0  0  0  0  0  # atno 6907 bound_to 6896
  150.7462  134.6020  159.6051 H   0  0  0  0  0  0  0  0  0  0  0  0  # atno 6908 bound_to 6896
  152.3342  134.7221  160.0333 H   0  0  0  0  0  0  0  0  0  0  0  0  # atno 6909 bound_to 6896
  144.9228  140.7034  143.4955 H   0  0  0  0  0  0  0  0  0  0  0  0  # atno 7974 bound_to 7965
  155.0343  140.0393  157.2485 H   0  0  0  0  0  0  0  0  0  0  0  0  # atno 8008 bound_to 7997
  154.7270  140.2723  155.6466 H   0  0  0  0  0  0  0  0  0  0  0  0  # atno 8009 bound_to 7997
  156.2832  140.2691  156.1959 H   0  0  0  0  0  0  0  0  0  0  0  0  # atno 8010 bound_to 7997
  140.3384  143.2956  151.9863 H   0  0  0  0  0  0  0  0  0  0  0  0  # atno 10167 bound_to 10162
  157.5324  130.8640  149.8706 H   0  0  0  0  0  0  0  0  0  0  0  0  # atno 10718 bound_to 10713
  153.0991  135.4822  154.8833 H   0  0  0  0  0  0  0  0  0  0  0  0  # atno 10763 bound_to 10752
  154.7358  135.3070  154.8816 H   0  0  0  0  0  0  0  0  0  0  0  0  # atno 10764 bound_to 10752
  153.9439  135.6831  153.4797 H   0  0  0  0  0  0  0  0  0  0  0  0  # atno 10765 bound_to 10752
  140.3785  134.1946  155.7664 H   0  0  0  0  0  0  0  0  0  0  0  0  # atno 11005 bound_to 11000
  145.3269  139.1771  143.4558 LP  0  0  0  0  0  0  0  0  0  0  0  0  # atno 17320 bound_to 7965
  146.3212  140.3293  142.8639 LP  0  0  0  0  0  0  0  0  0  0  0  0  # atno 17321 bound_to 7965
  139.4844  144.6177  151.7315 LP  0  0  0  0  0  0  0  0  0  0  0  0  # atno 17342 bound_to 10162
  140.5332  144.0697  150.6061 LP  0  0  0  0  0  0  0  0  0  0  0  0  # atno 17343 bound_to 10162
  156.0432  130.3734  150.1381 LP  0  0  0  0  0  0  0  0  0  0  0  0  # atno 17370 bound_to 10713
  156.9565  130.9791  151.3488 LP  0  0  0  0  0  0  0  0  0  0  0  0  # atno 17371 bound_to 10713
  141.1931  133.8158  157.0812 LP  0  0  0  0  0  0  0  0  0  0  0  0  # atno 17394 bound_to 11000
  140.0496  134.9812  157.1113 LP  0  0  0  0  0  0  0  0  0  0  0  0  # atno 17395 bound_to 11000

$$$$
