AV-unprocessed.smi:431|AV-procd|sdf|2547|dock10
  -GOLD-   2262022513D 1   1.00000     0.00000
 Structure written by MMmdl.
 43 44  0  0  0  0  0  0  0  0  1 V2000
  147.1757  134.2177  156.5466 C   0  0  0  0  0  0  0  0  0  0  0  0
  148.4678  135.0430  156.4349 C   0  0  0  0  0  0  0  0  0  0  0  0
  149.1236  135.0152  155.0361 C   0  0  2  0  0  0  0  0  0  0  0  0
  149.4177  133.5713  154.5952 C   0  0  0  0  0  0  0  0  0  0  0  0
  150.4096  135.8537  154.9902 C   0  0  0  0  0  0  0  0  0  0  0  0
  151.3539  135.5834  155.7330 O   0  0  0  0  0  0  0  0  0  0  0  0
  150.4267  136.8776  154.1225 N   0  0  0  0  0  0  0  0  0  0  0  0
  151.5304  137.8188  153.9648 C   0  0  0  0  0  0  0  0  0  0  0  0
  151.6114  138.8671  155.0652 C   0  0  0  0  0  0  0  0  0  0  0  0
  150.6516  139.8929  155.1898 C   0  0  0  0  0  0  0  0  0  0  0  0
  150.7843  140.8309  156.2310 C   0  0  0  0  0  0  0  0  0  0  0  0
  151.8774  140.7230  157.1237 C   0  0  0  0  0  0  0  0  0  0  0  0
  152.0278  141.6482  158.1804 N   0  0  0  0  0  0  0  0  0  0  0  0
  151.1356  142.8047  158.1430 C   0  0  0  0  0  0  0  0  0  0  0  0
  151.5969  143.8712  159.1513 C   0  0  0  0  0  0  0  0  0  0  0  0
  151.7006  143.2958  160.4493 O   0  0  0  0  0  0  0  0  0  0  0  0
  152.6610  142.2457  160.4866 C   0  0  0  0  0  0  0  0  0  0  0  0
  152.2355  141.1206  159.5281 C   0  0  0  0  0  0  0  0  0  0  0  0
  152.8070  139.7448  156.9888 N   0  0  0  0  0  0  0  0  0  0  0  0
  152.6740  138.8469  155.9900 C   0  0  0  0  0  0  0  0  0  0  0  0
  146.8096  134.2129  157.5731 H   0  0  0  0  0  0  0  0  0  0  0  0
  147.3423  133.1823  156.2491 H   0  0  0  0  0  0  0  0  0  0  0  0
  146.3816  134.6244  155.9203 H   0  0  0  0  0  0  0  0  0  0  0  0
  148.2643  136.0727  156.7329 H   0  0  0  0  0  0  0  0  0  0  0  0
  149.1814  134.6596  157.1651 H   0  0  0  0  0  0  0  0  0  0  0  0
  148.4130  135.4370  154.3230 H   0  0  0  0  0  0  0  0  0  0  0  0
  149.8938  133.5437  153.6141 H   0  0  0  0  0  0  0  0  0  0  0  0
  148.4977  132.9903  154.5259 H   0  0  0  0  0  0  0  0  0  0  0  0
  150.0765  133.0623  155.3000 H   0  0  0  0  0  0  0  0  0  0  0  0
  149.6111  137.0269  153.5464 H   0  0  0  0  0  0  0  0  0  0  0  0
  152.4733  137.2728  153.8992 H   0  0  0  0  0  0  0  0  0  0  0  0
  151.4052  138.3332  153.0120 H   0  0  0  0  0  0  0  0  0  0  0  0
  149.8244  139.9676  154.4995 H   0  0  0  0  0  0  0  0  0  0  0  0
  150.0584  141.6248  156.3215 H   0  0  0  0  0  0  0  0  0  0  0  0
  151.0935  143.2526  157.1515 H   0  0  0  0  0  0  0  0  0  0  0  0
  150.1241  142.4757  158.3852 H   0  0  0  0  0  0  0  0  0  0  0  0
  152.5560  144.2985  158.8531 H   0  0  0  0  0  0  0  0  0  0  0  0
  150.8797  144.6916  159.1829 H   0  0  0  0  0  0  0  0  0  0  0  0
  153.6478  142.6299  160.2223 H   0  0  0  0  0  0  0  0  0  0  0  0
  152.7307  141.8643  161.5054 H   0  0  0  0  0  0  0  0  0  0  0  0
  151.3123  140.6592  159.8814 H   0  0  0  0  0  0  0  0  0  0  0  0
  153.0045  140.3472  159.5174 H   0  0  0  0  0  0  0  0  0  0  0  0
  153.4397  138.0874  155.9315 H   0  0  0  0  0  0  0  0  0  0  0  0
  1  2  1  0  0  0  0
  1 21  1  0  0  0  0
  1 22  1  0  0  0  0
  1 23  1  0  0  0  0
  2  3  1  0  0  0  0
  2 24  1  0  0  0  0
  2 25  1  0  0  0  0
  3  4  1  0  0  0  0
  3  5  1  0  0  0  0
  3 26  1  0  0  0  0
  4 27  1  0  0  0  0
  4 28  1  0  0  0  0
  4 29  1  0  0  0  0
  5  6  2  0  0  0  0
  5  7  1  0  0  0  0
  7  8  1  0  0  0  0
  7 30  1  0  0  0  0
  8  9  1  0  0  0  0
  8 31  1  0  0  0  0
  8 32  1  0  0  0  0
  9 20  1  0  0  0  0
  9 10  2  0  0  0  0
 10 11  1  0  0  0  0
 10 33  1  0  0  0  0
 11 12  2  0  0  0  0
 11 34  1  0  0  0  0
 12 13  1  0  0  0  0
 12 19  1  0  0  0  0
 13 18  1  0  0  0  0
 13 14  1  0  0  0  0
 14 15  1  0  0  0  0
 14 35  1  0  0  0  0
 14 36  1  0  0  0  0
 15 16  1  0  0  0  0
 15 37  1  0  0  0  0
 15 38  1  0  0  0  0
 16 17  1  0  0  0  0
 17 18  1  0  0  0  0
 17 39  1  0  0  0  0
 17 40  1  0  0  0  0
 18 41  1  0  0  0  0
 18 42  1  0  0  0  0
 19 20  2  0  0  0  0
 20 43  1  0  0  0  0
M  END
> <s_m_source_file>
AV-unprocessed.smi

> <i_m_source_file_index>
431

> <i_lp_mmshare_version>
43012

> <i_f3d_flags>
0

> <s_epik_input>
W0NIM11bQ0gyXVtDQEhdKFtDSDNdKUMoPU8pW05IXVtDSDJdYzFbY0hdW2NIXWMobltjSF0xKU4yW0NIMl1bQ0gyXU9bQ0gyXVtDSDJdMg==

> <s_epik_cmdline>
J2VwaWtfcHl0aG9uJywgJy1waCcsICc3LjAnLCAnLXRuJywgJzgnLCAnLW1hJywgJzIwMCcsICctbWV0YWxfYmluZGluZycsICctaW1hZScsICc8aW5maWxlLm1hZT4nLCAnLW9tYWUnLCAnPG91dGZpbGUubWFlPic=

> <r_lp_tautomer_probability>
1

> <r_epik_Ionization_Penalty>
0.00513882

> <r_epik_Ionization_Penalty_Charging>
0

> <r_epik_Ionization_Penalty_Neutral>
0.00513882

> <r_epik_State_Penalty>
0.00374265

> <r_epik_Charging_Adjusted_Penalty>
0.00374265

> <i_epik_Tot_Q>
0

> <i_epik_Tot_abs_Q>
0

> <r_epik_Metal_State_Penalty>
-0

> <b_epik_Metal_Only>
0

> <s_lp_Force_Field>
OPLS_2005

> <r_lp_Energy>
15.574

> <b_lp_Chiralities_Consistent>
1

> <s_lp_Variant>
AV-unprocessed.smi:431-1

> <Gold.Version>
5.8.1

> <Gold.Id.Protein>
6NUR|6NUR_protein|mol2

> <Gold.PLP.Fitness>
43.1841

> <Gold.PLP.PLP>
-35.4578

> <Gold.PLP.part.hbond>
-4.0000

> <Gold.PLP.part.metal>
0.0000

> <Gold.PLP.part.buried>
-1.4099

> <Gold.PLP.part.nonpolar>
-29.8161

> <Gold.PLP.part.repulsive>
0.1787

> <Gold.PLP.ligand.clash>
0.0000

> <Gold.PLP.ligand.torsion>
0.3753

> <Gold.PLP.Chemscore.Hbond>
2.7040

> <Gold.PLP.Chemscore.CHOScore>
0.0000

> <Gold.PLP.Chemscore.Metal>
0.0000

> <Gold.Chemscore.Hbonds>
donor molecule, donor type, donor heavy atom, donor atom, acceptor molecule, acceptor atom, score
      L1  H     7    30       P1  7948  0.66
      P1  H  7997  8009       L1    19  0.95
      P1  H 10752 10765       L1     6  1.00

> <Gold.PLP.Chemscore.Internal.Correction>
0.3649

> <Gold.Rescore>
     Score         DG    S(hbond)    S(metal)    S(lipo)     H(rot)  DE(clash)    DE(int)     intcor
     17.96     -18.70       2.07        0.00      89.84       1.64       0.35       0.39       ----

> <Gold.Chemscore.Fitness>
17.9550

> <Gold.Chemscore.DG>
-18.7017

> <Gold.Chemscore.ZeroCoef>
-5.4800

> <Gold.Chemscore.Hbond>
2.0691

> <Gold.Chemscore.Metal>
0.0000

> <Gold.Chemscore.Lipo>
89.8371

> <Gold.Chemscore.Internal_Hbond>
0.0000

> <Gold.Chemscore.DEClash>
0.3540

> <Gold.Chemscore.DEInternal>
0.3926

> <Gold.Chemscore.Rot>
1.6407

> <Gold.Chemscore.Internal.Correction>
   9.000000E+99

> <Gold.Chemscore.Hbonds>
donor molecule, donor type, donor heavy atom, donor atom, acceptor molecule, acceptor atom, score
      L1  H     7    30       P1  7948  0.51
      P1  H  7997  8009       L1    19  0.21
      P1  H 10752 10765       L1     6  0.82

> <Gold.Chemscore.Hbond.Weighted>
-6.9109

> <Gold.Chemscore.Metal.Weighted>
-0.0000

> <Gold.Chemscore.Lipo.Weighted>
-10.5109

> <Gold.Chemscore.Internal_Hbond.Weighted>
0.0000

> <Gold.Chemscore.DEClash.Weighted>
0.3540

> <Gold.Chemscore.DEInternal.Weighted>
0.3926

> <Gold.Chemscore.Rot.Weighted>
4.2001

> <Gold.Chemscore.Internal.Correction.Weighted>
   9.000000E+99

> <Gold.Protein.RotatedTorsions>
[ 6907 6896 6895 6894 ] final   -5.07 input  -60.11 | X-H torsion
[ 7974 7965 7964 7962 ] final -149.80 input  175.53 | X-H torsion
[ 8008 7997 7996 7995 ] final  164.59 input   59.86 | X-H torsion
[ 10167 10162 10161 10158 ] final  111.73 input  -65.29 | X-H torsion
[ 10718 10713 10712 10709 ] final  -34.46 input   66.30 | X-H torsion
[ 10763 10752 10751 10750 ] final -167.63 input  -60.55 | X-H torsion
[ 11005 11000 10999 10996 ] final -115.16 input  -57.11 | X-H torsion

> <Gold.Protein.ActiveResidues>
 VAL166  LYS551  ARG553  GLY616  TRP617  ASP618  TYR619  PRO620  LYS621  CYS622 
 ASP623  PHE694  ASN695  SER759  ASP760  ASP761  ALA762  ILE779  LEU786  VAL792 
 PHE793  MET794  SER795  GLU796  ALA797  LYS798  CYS799  TRP800  GLU811  SER814 

> <Gold.Protein.RotatedAtoms>
  151.4875  135.1055  159.9794 H   0  0  0  0  0  0  0  0  0  0  0  0  # atno 6907 bound_to 6896
  152.4754  133.8123  159.7020 H   0  0  0  0  0  0  0  0  0  0  0  0  # atno 6908 bound_to 6896
  150.8789  133.7338  159.2964 H   0  0  0  0  0  0  0  0  0  0  0  0  # atno 6909 bound_to 6896
  144.7946  140.5017  143.5749 H   0  0  0  0  0  0  0  0  0  0  0  0  # atno 7974 bound_to 7965
  156.1868  140.1693  156.8170 H   0  0  0  0  0  0  0  0  0  0  0  0  # atno 8008 bound_to 7997
  154.5423  140.0734  156.8564 H   0  0  0  0  0  0  0  0  0  0  0  0  # atno 8009 bound_to 7997
  155.3189  140.3372  155.4244 H   0  0  0  0  0  0  0  0  0  0  0  0  # atno 8010 bound_to 7997
  139.6589  144.7129  151.1904 H   0  0  0  0  0  0  0  0  0  0  0  0  # atno 10167 bound_to 10162
  156.3503  130.4307  149.7710 H   0  0  0  0  0  0  0  0  0  0  0  0  # atno 10718 bound_to 10713
  154.6712  135.2939  154.9739 H   0  0  0  0  0  0  0  0  0  0  0  0  # atno 10763 bound_to 10752
  154.0766  135.6610  153.4836 H   0  0  0  0  0  0  0  0  0  0  0  0  # atno 10764 bound_to 10752
  153.0488  135.5187  154.7709 H   0  0  0  0  0  0  0  0  0  0  0  0  # atno 10765 bound_to 10752
  141.0506  133.9693  157.2843 H   0  0  0  0  0  0  0  0  0  0  0  0  # atno 11005 bound_to 11000
  145.5707  139.1483  143.3290 LP  0  0  0  0  0  0  0  0  0  0  0  0  # atno 17320 bound_to 7965
  146.2210  140.5840  142.9017 LP  0  0  0  0  0  0  0  0  0  0  0  0  # atno 17321 bound_to 7965
  140.7571  143.6027  150.8683 LP  0  0  0  0  0  0  0  0  0  0  0  0  # atno 17342 bound_to 10162
  139.9683  143.6086  152.2981 LP  0  0  0  0  0  0  0  0  0  0  0  0  # atno 17343 bound_to 10162
  156.4914  130.8086  151.3096 LP  0  0  0  0  0  0  0  0  0  0  0  0  # atno 17370 bound_to 10713
  157.7460  130.9974  150.2815 LP  0  0  0  0  0  0  0  0  0  0  0  0  # atno 17371 bound_to 10713
  139.9347  135.0197  156.8517 LP  0  0  0  0  0  0  0  0  0  0  0  0  # atno 17394 bound_to 11000
  140.6063  134.0124  155.7558 LP  0  0  0  0  0  0  0  0  0  0  0  0  # atno 17395 bound_to 11000

$$$$
