AV-unprocessed.smi:215|AV-procd|sdf|1651|dock3
  -GOLD-   2262020 33D 1   1.00000     0.00000
 Structure written by MMmdl.
 59 62  0  0  0  0  0  0  0  0  2 V2000
  147.2534  142.3677  154.1876 C   0  0  0  0  0  0  0  0  0  0  0  0
  147.9084  141.2503  155.0299 C   0  0  1  0  0  0  0  0  0  0  0  0
  148.1457  141.6751  156.5047 C   0  0  2  0  0  0  0  0  0  0  0  0
  149.5222  142.1737  156.8210 N   0  3  2  0  0  0  0  0  0  0  0  0
  150.5600  141.4319  156.0575 C   0  0  0  0  0  0  0  0  0  0  0  0
  149.8376  142.2446  158.2776 C   0  0  0  0  0  0  0  0  0  0  0  0
  150.0080  143.6790  158.8133 C   0  0  0  0  0  0  0  0  0  0  0  0
  148.7490  144.2417  159.1189 O   0  0  0  0  0  0  0  0  0  0  0  0
  147.7930  140.4036  157.2956 C   0  0  0  0  0  0  0  0  0  0  0  0
  146.7035  139.7359  156.4677 C   0  0  0  0  0  0  0  0  0  0  0  0
  147.0260  140.0895  155.0971 N   0  0  0  0  0  0  0  0  0  0  0  0
  146.7414  139.2593  154.0584 C   0  0  0  0  0  0  0  0  0  0  0  0
  147.2013  139.6106  152.8288 N   0  0  0  0  0  0  0  0  0  0  0  0
  146.9650  138.8368  151.7662 C   0  0  0  0  0  0  0  0  0  0  0  0
  146.2996  137.6832  151.7081 N   0  0  0  0  0  0  0  0  0  0  0  0
  145.8292  137.3214  152.9354 C   0  0  0  0  0  0  0  0  0  0  0  0
  145.9953  138.0455  154.1524 C   0  0  0  0  0  0  0  0  0  0  0  0
  145.3462  137.3708  155.1819 N   0  0  0  0  0  0  0  0  0  0  0  0
  144.8360  136.3148  154.6109 C   0  0  0  0  0  0  0  0  0  0  0  0
  145.1021  136.1917  153.2672 N   0  0  0  0  0  0  0  0  0  0  0  0
  144.6371  135.1591  152.3879 C   0  0  0  0  0  0  0  0  0  0  0  0
  144.8980  133.6782  152.6852 C   0  0  0  0  0  0  0  0  0  0  0  0
  144.9886  133.4031  151.1662 C   0  0  0  0  0  0  0  0  0  0  0  0
  146.0679  132.4013  150.7096 C   0  0  0  0  0  0  0  0  0  0  0  0
  147.3017  132.5911  151.3730 O   0  0  0  0  0  0  0  0  0  0  0  0
  143.6584  132.9621  150.5259 C   0  0  0  0  0  0  0  0  0  0  0  0
  143.6676  133.1514  149.1252 O   0  0  0  0  0  0  0  0  0  0  0  0
  145.3184  134.9085  151.0395 C   0  0  0  0  0  0  0  0  0  0  0  0
  148.8538  140.9302  154.5939 H   0  0  0  0  0  0  0  0  0  0  0  0
  147.4227  142.4501  156.7666 H   0  0  0  0  0  0  0  0  0  0  0  0
  147.8564  143.2728  154.1510 H   0  0  0  0  0  0  0  0  0  0  0  0
  146.2815  142.6456  154.5970 H   0  0  0  0  0  0  0  0  0  0  0  0
  147.0885  142.0529  153.1577 H   0  0  0  0  0  0  0  0  0  0  0  0
  150.6441  140.4040  156.4128 H   0  0  0  0  0  0  0  0  0  0  0  0
  151.5379  141.9034  156.1385 H   0  0  0  0  0  0  0  0  0  0  0  0
  150.3383  141.4008  154.9919 H   0  0  0  0  0  0  0  0  0  0  0  0
  149.0361  141.7993  158.8632 H   0  0  0  0  0  0  0  0  0  0  0  0
  150.7368  141.6609  158.4793 H   0  0  0  0  0  0  0  0  0  0  0  0
  150.5985  143.6575  159.7296 H   0  0  0  0  0  0  0  0  0  0  0  0
  150.5484  144.3243  158.1223 H   0  0  0  0  0  0  0  0  0  0  0  0
  148.6201  145.0090  158.5816 H   0  0  0  0  0  0  0  0  0  0  0  0
  148.6595  139.7423  157.3482 H   0  0  0  0  0  0  0  0  0  0  0  0
  147.4600  140.6044  158.3141 H   0  0  0  0  0  0  0  0  0  0  0  0
  146.6893  138.6578  156.6336 H   0  0  0  0  0  0  0  0  0  0  0  0
  145.7206  140.1374  156.7170 H   0  0  0  0  0  0  0  0  0  0  0  0
  147.3682  139.1917  150.8293 H   0  0  0  0  0  0  0  0  0  0  0  0
  144.2518  135.5914  155.1608 H   0  0  0  0  0  0  0  0  0  0  0  0
  143.5702  135.3421  152.2500 H   0  0  0  0  0  0  0  0  0  0  0  0
  145.8377  133.5218  153.2170 H   0  0  0  0  0  0  0  0  0  0  0  0
  144.0777  133.1714  153.1944 H   0  0  0  0  0  0  0  0  0  0  0  0
  145.7459  131.3754  150.8906 H   0  0  0  0  0  0  0  0  0  0  0  0
  146.2557  132.4877  149.6391 H   0  0  0  0  0  0  0  0  0  0  0  0
  147.9631  132.0841  150.9276 H   0  0  0  0  0  0  0  0  0  0  0  0
  143.4512  131.9121  150.7360 H   0  0  0  0  0  0  0  0  0  0  0  0
  142.8171  133.5245  150.9314 H   0  0  0  0  0  0  0  0  0  0  0  0
  142.8611  133.5748  148.8735 H   0  0  0  0  0  0  0  0  0  0  0  0
  144.8460  135.4168  150.1983 H   0  0  0  0  0  0  0  0  0  0  0  0
  146.3871  135.1267  151.0709 H   0  0  0  0  0  0  0  0  0  0  0  0
  149.5509  143.1282  156.4911 H   0  0  0  0  0  0  0  0  0  0  0  0
  1  2  1  0  0  0  0
  1 31  1  0  0  0  0
  1 32  1  0  0  0  0
  1 33  1  0  0  0  0
  2 29  1  0  0  0  0
  2 11  1  0  0  0  0
  2  3  1  0  0  0  0
  3 30  1  0  0  0  0
  3  4  1  0  0  0  0
  3  9  1  0  0  0  0
  4  5  1  0  0  0  0
  4  6  1  0  0  0  0
  4 59  1  0  0  0  0
  5 34  1  0  0  0  0
  5 35  1  0  0  0  0
  5 36  1  0  0  0  0
  6  7  1  0  0  0  0
  6 37  1  0  0  0  0
  6 38  1  0  0  0  0
  7  8  1  0  0  0  0
  7 39  1  0  0  0  0
  7 40  1  0  0  0  0
  8 41  1  0  0  0  0
  9 10  1  0  0  0  0
  9 42  1  0  0  0  0
  9 43  1  0  0  0  0
 10 11  1  0  0  0  0
 10 44  1  0  0  0  0
 10 45  1  0  0  0  0
 11 12  1  0  0  0  0
 12 17  1  0  0  0  0
 12 13  2  0  0  0  0
 13 14  1  0  0  0  0
 14 15  2  0  0  0  0
 14 46  1  0  0  0  0
 15 16  1  0  0  0  0
 16 20  1  0  0  0  0
 16 17  2  0  0  0  0
 17 18  1  0  0  0  0
 18 19  2  0  0  0  0
 19 20  1  0  0  0  0
 19 47  1  0  0  0  0
 20 21  1  0  0  0  0
 21 28  1  0  0  0  0
 21 22  1  0  0  0  0
 21 48  1  0  0  0  0
 22 23  1  0  0  0  0
 22 49  1  0  0  0  0
 22 50  1  0  0  0  0
 23 24  1  0  0  0  0
 23 26  1  0  0  0  0
 23 28  1  0  0  0  0
 24 25  1  0  0  0  0
 24 51  1  0  0  0  0
 24 52  1  0  0  0  0
 25 53  1  0  0  0  0
 26 27  1  0  0  0  0
 26 54  1  0  0  0  0
 26 55  1  0  0  0  0
 27 56  1  0  0  0  0
 28 57  1  0  0  0  0
 28 58  1  0  0  0  0
M  CHG  1   4   1
M  END
> <s_m_source_file>
AV-unprocessed.smi

> <i_m_source_file_index>
215

> <i_lp_mmshare_version>
43012

> <i_f3d_flags>
0

> <s_epik_input>
W09IXVtDSDJdW0NIMl1OKFtDSDNdKVtDQEBIXShbQ0BIXTFbQ0gzXSlbQ0gyXVtDSDJdTjFjKG5bY0hdbjIpYyhjMjMpbltjSF1uM1tDSF0oW0NIMl00KVtDSDJdQzQoW0NIMl1bT0hdKVtDSDJdW09IXQ==

> <s_epik_cmdline>
J2VwaWtfcHl0aG9uJywgJy1waCcsICc3LjAnLCAnLXRuJywgJzgnLCAnLW1hJywgJzIwMCcsICctbWV0YWxfYmluZGluZycsICctaW1hZScsICc8aW5maWxlLm1hZT4nLCAnLW9tYWUnLCAnPG91dGZpbGUubWFlPic=

> <r_lp_tautomer_probability>
1

> <r_epik_Ionization_Penalty>
0.0036237

> <r_epik_Ionization_Penalty_Charging>
0.0032725

> <r_epik_Ionization_Penalty_Neutral>
0.000351196

> <r_epik_State_Penalty>
-0

> <r_epik_Charging_Adjusted_Penalty>
0.0032725

> <i_epik_Tot_Q>
1

> <i_epik_Tot_abs_Q>
1

> <r_epik_Metal_State_Penalty>
-0

> <b_epik_Metal_Only>
0

> <s_lp_Force_Field>
OPLS_2005

> <r_lp_Energy>
68.3917

> <b_lp_Chiralities_Consistent>
1

> <s_lp_Variant>
AV-unprocessed.smi:215-2

> <Gold.Version>
5.8.1

> <Gold.Id.Protein>
6NUR|6NUR_protein|mol2

> <Gold.PLP.Fitness>
52.7352

> <Gold.PLP.PLP>
-39.0172

> <Gold.PLP.part.hbond>
-4.0018

> <Gold.PLP.part.metal>
0.0000

> <Gold.PLP.part.buried>
-6.9291

> <Gold.PLP.part.nonpolar>
-28.8767

> <Gold.PLP.part.repulsive>
1.4960

> <Gold.PLP.ligand.clash>
0.0000

> <Gold.PLP.ligand.torsion>
1.7423

> <Gold.PLP.Chemscore.Hbond>
5.0000

> <Gold.PLP.Chemscore.CHOScore>
0.5394

> <Gold.PLP.Chemscore.Metal>
0.0000

> <Gold.Chemscore.Hbonds>
donor molecule, donor type, donor heavy atom, donor atom, acceptor molecule, acceptor atom, score
      L1  H     4    59       P1  8028  2.00
      L1  H     8    41       P1  8029  1.00
      L1  H    25    53       P1 10747  1.00
      L1  H    27    56       P1 10186  0.69
      L1  C    14    46       P1  7957  0.63

> <Gold.PLP.Chemscore.Internal.Correction>
0.5844

> <Gold.Rescore>
     Score         DG    S(hbond)    S(metal)    S(lipo)     H(rot)  DE(clash)    DE(int)     intcor
     11.81     -15.43       3.97        0.00      69.74       4.48       0.12       3.49       ----

> <Gold.Chemscore.Fitness>
11.8130

> <Gold.Chemscore.DG>
-15.4268

> <Gold.Chemscore.ZeroCoef>
-5.4800

> <Gold.Chemscore.Hbond>
3.9678

> <Gold.Chemscore.Metal>
0.0000

> <Gold.Chemscore.Lipo>
69.7414

> <Gold.Chemscore.Internal_Hbond>
0.0000

> <Gold.Chemscore.DEClash>
0.1237

> <Gold.Chemscore.DEInternal>
3.4901

> <Gold.Chemscore.Rot>
4.4787

> <Gold.Chemscore.Internal.Correction>
   9.000000E+99

> <Gold.Chemscore.Hbonds>
donor molecule, donor type, donor heavy atom, donor atom, acceptor molecule, acceptor atom, score
      L1  H     4    59       P1  8028  0.99
      L1  H     8    41       P1  8029  0.97
      L1  H    25    53       P1 10747  1.00
      L1  H    27    56       P1 10186  0.66

> <Gold.Chemscore.Hbond.Weighted>
-13.2525

> <Gold.Chemscore.Metal.Weighted>
-0.0000

> <Gold.Chemscore.Lipo.Weighted>
-8.1597

> <Gold.Chemscore.Internal_Hbond.Weighted>
0.0000

> <Gold.Chemscore.DEClash.Weighted>
0.1237

> <Gold.Chemscore.DEInternal.Weighted>
3.4901

> <Gold.Chemscore.Rot.Weighted>
11.4655

> <Gold.Chemscore.Internal.Correction.Weighted>
   9.000000E+99

> <Gold.Protein.RotatedTorsions>
[ 6907 6896 6895 6894 ] final  128.92 input  -60.11 | X-H torsion
[ 7974 7965 7964 7962 ] final   66.86 input  175.53 | X-H torsion
[ 8008 7997 7996 7995 ] final  -77.28 input   59.86 | X-H torsion
[ 10167 10162 10161 10158 ] final  148.65 input  -65.29 | X-H torsion
[ 10718 10713 10712 10709 ] final -101.06 input   66.30 | X-H torsion
[ 10763 10752 10751 10750 ] final  159.16 input  -60.55 | X-H torsion
[ 11005 11000 10999 10996 ] final   72.65 input  -57.11 | X-H torsion

> <Gold.Protein.ActiveResidues>
 VAL166  LYS551  ARG553  GLY616  TRP617  ASP618  TYR619  PRO620  LYS621  CYS622 
 ASP623  PHE694  ASN695  SER759  ASP760  ASP761  ALA762  ILE779  LEU786  VAL792 
 PHE793  MET794  SER795  GLU796  ALA797  LYS798  CYS799  TRP800  GLU811  SER814 

> <Gold.Protein.RotatedAtoms>
  152.3674  133.6374  159.6060 H   0  0  0  0  0  0  0  0  0  0  0  0  # atno 6907 bound_to 6896
  150.7644  133.9326  159.3440 H   0  0  0  0  0  0  0  0  0  0  0  0  # atno 6908 bound_to 6896
  151.7154  135.0906  160.0326 H   0  0  0  0  0  0  0  0  0  0  0  0  # atno 6909 bound_to 6896
  145.8216  139.3088  143.1040 H   0  0  0  0  0  0  0  0  0  0  0  0  # atno 7974 bound_to 7965
  154.5581  140.0713  156.8776 H   0  0  0  0  0  0  0  0  0  0  0  0  # atno 8008 bound_to 7997
  155.2863  140.3375  155.4237 H   0  0  0  0  0  0  0  0  0  0  0  0  # atno 8009 bound_to 7997
  156.2019  140.1725  156.7866 H   0  0  0  0  0  0  0  0  0  0  0  0  # atno 8010 bound_to 7997
  139.4872  144.5663  151.7138 H   0  0  0  0  0  0  0  0  0  0  0  0  # atno 10167 bound_to 10162
  156.0182  130.5356  150.6908 H   0  0  0  0  0  0  0  0  0  0  0  0  # atno 10718 bound_to 10713
  154.2274  135.2779  155.2902 H   0  0  0  0  0  0  0  0  0  0  0  0  # atno 10763 bound_to 10752
  154.5652  135.5635  153.7047 H   0  0  0  0  0  0  0  0  0  0  0  0  # atno 10764 bound_to 10752
  153.0028  135.6308  154.2415 H   0  0  0  0  0  0  0  0  0  0  0  0  # atno 10765 bound_to 10752
  139.9480  134.7278  156.0932 H   0  0  0  0  0  0  0  0  0  0  0  0  # atno 11005 bound_to 11000
  145.9668  140.8792  143.0182 LP  0  0  0  0  0  0  0  0  0  0  0  0  # atno 17320 bound_to 7965
  144.6747  140.1890  143.7398 LP  0  0  0  0  0  0  0  0  0  0  0  0  # atno 17321 bound_to 7965
  140.5242  144.0832  150.6032 LP  0  0  0  0  0  0  0  0  0  0  0  0  # atno 17342 bound_to 10162
  140.3800  143.2808  152.0181 LP  0  0  0  0  0  0  0  0  0  0  0  0  # atno 17343 bound_to 10162
  157.4590  131.0881  151.0766 LP  0  0  0  0  0  0  0  0  0  0  0  0  # atno 17370 bound_to 10713
  157.1259  130.6082  149.5517 LP  0  0  0  0  0  0  0  0  0  0  0  0  # atno 17371 bound_to 10713
  141.1135  133.6635  156.3037 LP  0  0  0  0  0  0  0  0  0  0  0  0  # atno 17394 bound_to 11000
  140.5788  134.5766  157.5475 LP  0  0  0  0  0  0  0  0  0  0  0  0  # atno 17395 bound_to 11000

$$$$
