#       Name:                AV-unprocessed.smi:1824
#       Creating user name   scv26
#       Creation time:       Fri Mar 27 09:08:29 2020


#       File generated by GOLD software.
#

@<TRIPOS>MOLECULE
AV-unprocessed.smi:1824
    50    52     1
SMALL
NO_CHARGES


@<TRIPOS>ATOM
      1 ****        -3.1957   3.4790   1.2632 C.3            1 S1                 0.0000
      2 ****        -3.8597   2.3125   0.5118 C.3            1 S1                 0.0000
      3 ****        -3.1787   0.9535   0.7679 C.3            1 S1                 0.0000
      4 ****        -1.8926   0.8265   0.0900 N.3            1 S1                 0.0000
      5 ****        -1.2878  -0.4780   0.3654 C.3            1 S1                 0.0000
      6 ****         0.1888  -0.6272  -0.0519 C.3            1 S1                 0.0000
      7 ****         0.9686   0.2279   0.7606 O.3            1 S1                 0.0000
      8 ****         0.6763  -2.0799   0.1126 C.3            1 S1                 0.0000
      9 ****         2.0779  -2.2627  -0.2922 N.pl3          1 S1                 0.0000
     10 ****         2.6004  -2.4975  -1.5264 C.2            1 S1                 0.0000
     11 ****         3.9519  -2.5941  -1.3897 N.pl3          1 S1                 1.0000
     12 ****         4.2990  -2.4165  -0.0485 C.ar           1 S1                 0.0000
     13 ****         5.5399  -2.4259   0.5804 C.ar           1 S1                 0.0000
     14 ****         5.5478  -2.2064   1.9736 C.ar           1 S1                 0.0000
     15 ****         6.7290  -2.2042   2.6355 F              1 S1                 0.0000
     16 ****         4.3513  -1.9887   2.6889 C.ar           1 S1                 0.0000
     17 ****         4.4038  -1.7798   4.0258 F              1 S1                 0.0000
     18 ****         3.0989  -1.9834   2.0402 C.ar           1 S1                 0.0000
     19 ****         3.0999  -2.2018   0.6630 C.ar           1 S1                 0.0000
     20 ****        -2.0866   1.0714  -1.3368 C.3            1 S1                 0.0000
     21 ****        -2.7142   2.4518  -1.6046 C.3            1 S1                 0.0000
     22 ****        -3.0056   2.6730  -3.0927 C.3            1 S1                 0.0000
     23 ****        -3.9445   2.5636  -0.8917 O.3            1 S1                 0.0000
     24 ****        -3.2363   3.3181   2.3407 H              1 S1                 0.0000
     25 ****        -3.7053   4.4189   1.0505 H              1 S1                 0.0000
     26 ****        -2.1470   3.5984   0.9922 H              1 S1                 0.0000
     27 ****        -4.8862   2.2455   0.8733 H              1 S1                 0.0000
     28 ****        -3.0516   0.8082   1.8414 H              1 S1                 0.0000
     29 ****        -3.8451   0.1585   0.4289 H              1 S1                 0.0000
     30 ****        -1.3557  -0.6878   1.4342 H              1 S1                 0.0000
     31 ****        -1.8797  -1.2533  -0.1234 H              1 S1                 0.0000
     32 ****         0.3304  -0.3363  -1.0919 H              1 S1                 0.0000
     33 ****         0.6329   1.1075   0.6719 H              1 S1                 0.0000
     34 ****         0.5477  -2.4296   1.1373 H              1 S1                 0.0000
     35 ****         0.0761  -2.7428  -0.5119 H              1 S1                 0.0000
     36 ****         2.0434  -2.5908  -2.4479 H              1 S1                 0.0000
     37 ****         6.4585  -2.5907   0.0367 H              1 S1                 0.0000
     38 ****         2.1909  -1.8089   2.5977 H              1 S1                 0.0000
     39 ****        -1.1360   1.0201  -1.8653 H              1 S1                 0.0000
     40 ****        -2.7223   0.2927  -1.7614 H              1 S1                 0.0000
     41 ****        -2.0303   3.2327  -1.2705 H              1 S1                 0.0000
     42 ****        -2.0929   2.6090  -3.6857 H              1 S1                 0.0000
     43 ****        -3.4425   3.6574  -3.2618 H              1 S1                 0.0000
     44 ****        -3.7054   1.9281  -3.4729 H              1 S1                 0.0000
     45 ****         4.5880  -2.7675  -2.1577 H              1 S1                 0.0000
     46 ****        -1.2487   1.5082   0.4374 LP             1 S1                 0.0000
     47 ****         1.9232   0.1985   0.4643 LP             1 S1                 0.0000
     48 ****         0.9068  -0.0633   1.7153 LP             1 S1                 0.0000
     49 ****        -4.2925   3.4924  -1.0192 LP             1 S1                 0.0000
     50 ****        -4.5902   1.9088  -1.2845 LP             1 S1                 0.0000
@<TRIPOS>BOND
    1    1    2 1     
    2    1   24 1     
    3    1   25 1     
    4    1   26 1     
    5    2   23 1     
    6    2    3 1     
    7    2   27 1     
    8    3    4 1     
    9    3   28 1     
   10    3   29 1     
   11    4    5 1     
   12    4   20 1     
   13    5    6 1     
   14    5   30 1     
   15    5   31 1     
   16    6    7 1     
   17    6    8 1     
   18    6   32 1     
   19    7   33 1     
   20    8    9 1     
   21    8   34 1     
   22    8   35 1     
   23    9   19 1     
   24    9   10 1     
   25   10   11 2     
   26   10   36 1     
   27   11   12 1     
   28   11   45 1     
   29   12   19 ar    
   30   12   13 ar    
   31   13   14 ar    
   32   13   37 1     
   33   14   15 1     
   34   14   16 ar    
   35   16   17 1     
   36   16   18 ar    
   37   18   19 ar    
   38   18   38 1     
   39   20   21 1     
   40   20   39 1     
   41   20   40 1     
   42   21   22 1     
   43   21   23 1     
   44   21   41 1     
   45   22   42 1     
   46   22   43 1     
   47   22   44 1     
   48    4   46 1     
   49    7   47 1     
   50    7   48 1     
   51   23   49 1     
   52   23   50 1     
@<TRIPOS>SUBSTRUCTURE
      1 S1             1
@<TRIPOS>SET
LONE_PAIRS      STATIC     ATOMS    <user>   **** ""
5 46 47 48 49 50
DONOR_HYDROGENS      STATIC     ATOMS    <user>   **** ""
2 33 45
ATOM$BLUE        STATIC     ATOMS    COLORGROUP SYSTEM
5 46 47 48 49 50
ATOM$RED        STATIC     ATOMS    COLORGROUP SYSTEM
2 33 45
