AV-unprocessed.smi:2060|AV-procd|sdf|8359|dock3
  -GOLD-   2272011 33D 1   1.00000     0.00000
 Structure written by MMmdl.
 45 46  0  0  0  0  0  0  0  0  3 V2000
  145.3648  132.4586  151.2331 C   0  0  0  0  0  0  0  0  0  0  0  0
  146.7950  132.7444  151.7436 C   0  0  0  0  0  0  0  0  0  0  0  0
  147.3368  131.8873  152.9444 C   0  0  2  0  0  0  0  0  0  0  0  0
  146.2768  131.9526  154.0915 C   0  0  0  0  0  0  0  0  0  0  0  0
  148.6950  132.4572  153.5029 C   0  0  0  0  0  0  0  0  0  0  0  0
  148.4725  133.6620  154.3117 N   0  5  0  0  0  0  0  0  0  0  0  0
  149.4164  134.2575  155.0905 C   0  0  0  0  0  0  0  0  0  0  0  0
  149.9129  133.8224  156.1359 O   0  0  0  0  0  0  0  0  0  0  0  0
  149.7974  135.4522  154.6024 N   0  0  0  0  0  0  0  0  0  0  0  0
  150.7435  136.3689  155.1330 C   0  0  0  0  0  0  0  0  0  0  0  0
  150.5833  137.7673  154.9410 C   0  0  0  0  0  0  0  0  0  0  0  0
  151.6673  138.2942  155.5848 C   0  0  0  0  0  0  0  0  0  0  0  0
  152.1449  139.6904  155.7919 C   0  0  0  0  0  0  0  0  0  0  0  0
  152.4255  137.3024  156.1253 O   0  0  0  0  0  0  0  0  0  0  0  0
  151.8277  136.0707  155.8333 N   0  0  0  0  0  0  0  0  0  0  0  0
  147.5704  130.4567  152.4894 N   0  3  0  0  0  0  0  0  0  0  0  0
  148.3380  129.5706  153.4122 C   0  0  0  0  0  0  0  0  0  0  0  0
  148.6808  128.2360  152.7265 C   0  0  0  0  0  0  0  0  0  0  0  0
  147.4979  127.5962  152.2705 O   0  0  0  0  0  0  0  0  0  0  0  0
  146.8098  128.3929  151.3174 C   0  0  0  0  0  0  0  0  0  0  0  0
  146.3779  129.7080  151.9815 C   0  0  0  0  0  0  0  0  0  0  0  0
  145.1109  133.1429  150.4235 H   0  0  0  0  0  0  0  0  0  0  0  0
  144.6122  132.5911  152.0102 H   0  0  0  0  0  0  0  0  0  0  0  0
  145.2677  131.4490  150.8352 H   0  0  0  0  0  0  0  0  0  0  0  0
  147.4615  132.6030  150.8919 H   0  0  0  0  0  0  0  0  0  0  0  0
  146.8478  133.8115  151.9692 H   0  0  0  0  0  0  0  0  0  0  0  0
  146.1788  132.9479  154.5305 H   0  0  0  0  0  0  0  0  0  0  0  0
  146.5052  131.2756  154.9175 H   0  0  0  0  0  0  0  0  0  0  0  0
  145.2816  131.6938  153.7286 H   0  0  0  0  0  0  0  0  0  0  0  0
  149.1856  131.6732  154.0808 H   0  0  0  0  0  0  0  0  0  0  0  0
  149.3707  132.6610  152.6723 H   0  0  0  0  0  0  0  0  0  0  0  0
  149.3541  135.7350  153.7415 H   0  0  0  0  0  0  0  0  0  0  0  0
  149.8027  138.2984  154.4167 H   0  0  0  0  0  0  0  0  0  0  0  0
  151.4111  140.4109  155.4302 H   0  0  0  0  0  0  0  0  0  0  0  0
  153.0791  139.8615  155.2570 H   0  0  0  0  0  0  0  0  0  0  0  0
  152.3184  139.8870  156.8500 H   0  0  0  0  0  0  0  0  0  0  0  0
  149.2859  130.0133  153.7109 H   0  0  0  0  0  0  0  0  0  0  0  0
  147.7602  129.3935  154.3202 H   0  0  0  0  0  0  0  0  0  0  0  0
  149.3647  128.3953  151.8910 H   0  0  0  0  0  0  0  0  0  0  0  0
  149.1892  127.5751  153.4288 H   0  0  0  0  0  0  0  0  0  0  0  0
  147.4403  128.5802  150.4463 H   0  0  0  0  0  0  0  0  0  0  0  0
  145.9354  127.8442  150.9673 H   0  0  0  0  0  0  0  0  0  0  0  0
  145.6974  129.4806  152.8027 H   0  0  0  0  0  0  0  0  0  0  0  0
  145.8136  130.2909  151.2544 H   0  0  0  0  0  0  0  0  0  0  0  0
  148.1748  130.5753  151.6871 H   0  0  0  0  0  0  0  0  0  0  0  0
  1  2  1  0  0  0  0
  1 22  1  0  0  0  0
  1 23  1  0  0  0  0
  1 24  1  0  0  0  0
  2  3  1  0  0  0  0
  2 25  1  0  0  0  0
  2 26  1  0  0  0  0
  3  4  1  0  0  0  0
  3  5  1  0  0  0  0
  3 16  1  0  0  0  0
  4 27  1  0  0  0  0
  4 28  1  0  0  0  0
  4 29  1  0  0  0  0
  5  6  1  0  0  0  0
  5 30  1  0  0  0  0
  5 31  1  0  0  0  0
  6  7  1  0  0  0  0
  7  8  2  0  0  0  0
  7  9  1  0  0  0  0
  9 10  1  0  0  0  0
  9 32  1  0  0  0  0
 10 15  2  0  0  0  0
 10 11  1  0  0  0  0
 11 12  2  0  0  0  0
 11 33  1  0  0  0  0
 12 13  1  0  0  0  0
 12 14  1  0  0  0  0
 13 34  1  0  0  0  0
 13 35  1  0  0  0  0
 13 36  1  0  0  0  0
 14 15  1  0  0  0  0
 16 21  1  0  0  0  0
 16 17  1  0  0  0  0
 16 45  1  0  0  0  0
 17 18  1  0  0  0  0
 17 37  1  0  0  0  0
 17 38  1  0  0  0  0
 18 19  1  0  0  0  0
 18 39  1  0  0  0  0
 18 40  1  0  0  0  0
 19 20  1  0  0  0  0
 20 21  1  0  0  0  0
 20 41  1  0  0  0  0
 20 42  1  0  0  0  0
 21 43  1  0  0  0  0
 21 44  1  0  0  0  0
M  CHG  1   6  -1
M  CHG  1  16   1
M  END
> <s_m_source_file>
AV-unprocessed.smi

> <i_m_source_file_index>
2060

> <i_lp_mmshare_version>
43012

> <i_f3d_flags>
0

> <s_epik_input>
W0NIMl0xW0NIMl1PW0NIMl1bQ0gyXU4xW0NAQF0oW0NIM10pKFtDSDJdW0NIM10pW0NIMl1bTkhdQyg9TylbTkhdYzJbY0hdYyhbQ0gzXSlvbjI=

> <s_epik_cmdline>
J2VwaWtfcHl0aG9uJywgJy1waCcsICc3LjAnLCAnLXRuJywgJzgnLCAnLW1hJywgJzIwMCcsICctbWV0YWxfYmluZGluZycsICctaW1hZScsICc8aW5maWxlLm1hZT4nLCAnLW9tYWUnLCAnPG91dGZpbGUubWFlPic=

> <r_epik_Ionization_Penalty>
6.79469

> <r_epik_Ionization_Penalty_Charging>
6.79469

> <r_epik_Ionization_Penalty_Neutral>
5.68576e-06

> <r_epik_State_Penalty>
7.33145

> <r_epik_Charging_Adjusted_Penalty>
14.1261

> <i_epik_Tot_Q>
0

> <i_epik_Tot_abs_Q>
2

> <r_epik_Metal_State_Penalty>
3.24803

> <b_epik_Metal_Only>
1

> <s_lp_Force_Field>
OPLS_2005

> <r_lp_Energy>
28.6548

> <b_lp_Chiralities_Consistent>
1

> <s_lp_Variant>
AV-unprocessed.smi:2060-6

> <Gold.Version>
5.8.1

> <Gold.Id.Protein>
6NUR|6NUR_protein|mol2

> <Gold.PLP.Fitness>
44.0327

> <Gold.PLP.PLP>
-37.3466

> <Gold.PLP.part.hbond>
-4.1900

> <Gold.PLP.part.metal>
0.0000

> <Gold.PLP.part.buried>
-3.7731

> <Gold.PLP.part.nonpolar>
-29.7875

> <Gold.PLP.part.repulsive>
0.3441

> <Gold.PLP.ligand.clash>
0.0000

> <Gold.PLP.ligand.torsion>
1.3048

> <Gold.PLP.Chemscore.Hbond>
3.0000

> <Gold.PLP.Chemscore.CHOScore>
0.0000

> <Gold.PLP.Chemscore.Metal>
0.0000

> <Gold.Chemscore.Hbonds>
donor molecule, donor type, donor heavy atom, donor atom, acceptor molecule, acceptor atom, score
      L1  H     9    32       P1  7948  1.00
      L1  H    16    45       P1 10747  1.00
      P1  H 10752 10763       L1    15  0.70

> <Gold.PLP.Chemscore.Internal.Correction>
0.2956

> <Gold.Rescore>
     Score         DG    S(hbond)    S(metal)    S(lipo)     H(rot)  DE(clash)    DE(int)     intcor
     14.68     -18.36       2.49        0.00      76.95       1.73       0.08       3.59       ----

> <Gold.Chemscore.Fitness>
14.6830

> <Gold.Chemscore.DG>
-18.3574

> <Gold.Chemscore.ZeroCoef>
-5.4800

> <Gold.Chemscore.Hbond>
2.4854

> <Gold.Chemscore.Metal>
0.0000

> <Gold.Chemscore.Lipo>
76.9512

> <Gold.Chemscore.Internal_Hbond>
0.0000

> <Gold.Chemscore.DEClash>
0.0825

> <Gold.Chemscore.DEInternal>
3.5919

> <Gold.Chemscore.Rot>
1.7294

> <Gold.Chemscore.Internal.Correction>
   9.000000E+99

> <Gold.Chemscore.Hbonds>
donor molecule, donor type, donor heavy atom, donor atom, acceptor molecule, acceptor atom, score
      L1  H     9    32       P1  7948  0.55
      L1  H    16    45       P1 10747  0.99
      P1  H 10752 10763       L1    15  0.07

> <Gold.Chemscore.Hbond.Weighted>
-8.3013

> <Gold.Chemscore.Metal.Weighted>
-0.0000

> <Gold.Chemscore.Lipo.Weighted>
-9.0033

> <Gold.Chemscore.Internal_Hbond.Weighted>
0.0000

> <Gold.Chemscore.DEClash.Weighted>
0.0825

> <Gold.Chemscore.DEInternal.Weighted>
3.5919

> <Gold.Chemscore.Rot.Weighted>
4.4272

> <Gold.Chemscore.Internal.Correction.Weighted>
   9.000000E+99

> <Gold.Protein.RotatedTorsions>
[ 6907 6896 6895 6894 ] final   -2.54 input  -60.11 | X-H torsion
[ 7974 7965 7964 7962 ] final -116.15 input  175.53 | X-H torsion
[ 8008 7997 7996 7995 ] final  139.04 input   59.86 | X-H torsion
[ 10167 10162 10161 10158 ] final -142.76 input  -65.29 | X-H torsion
[ 10718 10713 10712 10709 ] final   17.55 input   66.30 | X-H torsion
[ 10763 10752 10751 10750 ] final   91.46 input  -60.55 | X-H torsion
[ 11005 11000 10999 10996 ] final  111.01 input  -57.11 | X-H torsion

> <Gold.Protein.ActiveResidues>
 VAL166  LYS551  ARG553  GLY616  TRP617  ASP618  TYR619  PRO620  LYS621  CYS622 
 ASP623  PHE694  ASN695  SER759  ASP760  ASP761  ALA762  ILE779  LEU786  VAL792 
 PHE793  MET794  SER795  GLU796  ALA797  LYS798  CYS799  TRP800  GLU811  SER814 

> <Gold.Protein.RotatedAtoms>
  151.5282  135.1068  159.9895 H   0  0  0  0  0  0  0  0  0  0  0  0  # atno 6907 bound_to 6896
  152.4590  133.7779  159.6845 H   0  0  0  0  0  0  0  0  0  0  0  0  # atno 6908 bound_to 6896
  150.8545  133.7671  159.3039 H   0  0  0  0  0  0  0  0  0  0  0  0  # atno 6909 bound_to 6896
  145.1001  140.8546  143.3931 H   0  0  0  0  0  0  0  0  0  0  0  0  # atno 7974 bound_to 7965
  156.2993  140.2378  156.4173 H   0  0  0  0  0  0  0  0  0  0  0  0  # atno 8008 bound_to 7997
  154.8387  140.0429  157.1547 H   0  0  0  0  0  0  0  0  0  0  0  0  # atno 8009 bound_to 7997
  154.9127  140.2992  155.5261 H   0  0  0  0  0  0  0  0  0  0  0  0  # atno 8010 bound_to 7997
  139.8058  143.7770  152.2661 H   0  0  0  0  0  0  0  0  0  0  0  0  # atno 10167 bound_to 10162
  157.0838  130.6399  149.5832 H   0  0  0  0  0  0  0  0  0  0  0  0  # atno 10718 bound_to 10713
  153.2085  135.4396  155.0352 H   0  0  0  0  0  0  0  0  0  0  0  0  # atno 10763 bound_to 10752
  154.8187  135.3327  154.7104 H   0  0  0  0  0  0  0  0  0  0  0  0  # atno 10764 bound_to 10752
  153.7544  135.6996  153.4994 H   0  0  0  0  0  0  0  0  0  0  0  0  # atno 10765 bound_to 10752
  139.8894  134.9498  156.6367 H   0  0  0  0  0  0  0  0  0  0  0  0  # atno 11005 bound_to 11000
  145.0965  139.2853  143.5708 LP  0  0  0  0  0  0  0  0  0  0  0  0  # atno 17320 bound_to 7965
  146.3530  140.0518  142.8635 LP  0  0  0  0  0  0  0  0  0  0  0  0  # atno 17321 bound_to 7965
  139.7904  144.7412  150.9963 LP  0  0  0  0  0  0  0  0  0  0  0  0  # atno 17342 bound_to 10162
  140.7819  143.4448  151.0499 LP  0  0  0  0  0  0  0  0  0  0  0  0  # atno 17343 bound_to 10162
  155.9916  130.4972  150.7307 LP  0  0  0  0  0  0  0  0  0  0  0  0  # atno 17370 bound_to 10713
  157.4778  131.0899  151.0570 LP  0  0  0  0  0  0  0  0  0  0  0  0  # atno 17371 bound_to 10713
  140.7625  133.8805  155.8429 LP  0  0  0  0  0  0  0  0  0  0  0  0  # atno 17394 bound_to 11000
  140.9910  134.1279  157.4408 LP  0  0  0  0  0  0  0  0  0  0  0  0  # atno 17395 bound_to 11000

$$$$
