AV-unprocessed.smi:1639|AV-procd|sdf|6551|dock2
  -GOLD-   22720 7233D 1   1.00000     0.00000
 Structure written by MMmdl.
 38 39  0  0  0  0  0  0  0  0  2 V2000
  150.7411  135.7783  154.9168 C   0  0  0  0  0  0  0  0  0  0  0  0
  150.8942  137.1716  155.5421 C   0  0  0  0  0  0  0  0  0  0  0  0
  151.6910  138.0252  154.7317 O   0  0  0  0  0  0  0  0  0  0  0  0
  151.2560  139.3778  154.6694 C   0  0  1  0  0  0  0  0  0  0  0  0
  149.7609  139.4063  154.3072 C   0  0  0  0  0  0  0  0  0  0  0  0
  149.2228  140.8435  154.3912 C   0  0  0  0  0  0  0  0  0  0  0  0
  149.5115  141.4565  155.7726 C   0  0  0  0  0  0  0  0  0  0  0  0
  150.9347  141.3728  156.0906 N   0  0  0  0  0  0  0  0  0  0  0  0
  151.2727  142.0608  157.2618 C   0  0  0  0  0  0  0  0  0  0  0  0
  152.1513  141.5410  158.2365 C   0  0  0  0  0  0  0  0  0  0  0  0
  152.3996  142.3486  159.3600 C   0  0  0  0  0  0  0  0  0  0  0  0
  153.3254  141.9015  160.4716 C   0  0  0  0  0  0  0  0  0  0  0  0
  151.8241  143.5603  159.4986 N   0  0  0  0  0  0  0  0  0  0  0  0
  151.0000  143.9955  158.5390 C   0  0  0  0  0  0  0  0  0  0  0  0
  150.4196  145.2320  158.6901 N   0  0  0  0  0  0  0  0  0  0  0  0
  150.7147  143.2835  157.4389 N   0  3  0  0  0  0  0  0  0  0  0  0
  151.4877  140.0215  156.0475 C   0  0  0  0  0  0  0  0  0  0  0  0
  150.0760  135.1575  155.5172 H   0  0  0  0  0  0  0  0  0  0  0  0
  151.6972  135.2602  154.8439 H   0  0  0  0  0  0  0  0  0  0  0  0
  150.3190  135.8454  153.9139 H   0  0  0  0  0  0  0  0  0  0  0  0
  149.9088  137.6287  155.6340 H   0  0  0  0  0  0  0  0  0  0  0  0
  151.3004  137.1091  156.5528 H   0  0  0  0  0  0  0  0  0  0  0  0
  151.8137  139.9476  153.9232 H   0  0  0  0  0  0  0  0  0  0  0  0
  149.6032  139.0026  153.3067 H   0  0  0  0  0  0  0  0  0  0  0  0
  149.2031  138.7672  154.9929 H   0  0  0  0  0  0  0  0  0  0  0  0
  149.6881  141.4536  153.6159 H   0  0  0  0  0  0  0  0  0  0  0  0
  148.1507  140.8547  154.1933 H   0  0  0  0  0  0  0  0  0  0  0  0
  149.1910  142.4991  155.7892 H   0  0  0  0  0  0  0  0  0  0  0  0
  148.9351  140.9324  156.5363 H   0  0  0  0  0  0  0  0  0  0  0  0
  152.6122  140.5702  158.1253 H   0  0  0  0  0  0  0  0  0  0  0  0
  153.7423  140.9154  160.2646 H   0  0  0  0  0  0  0  0  0  0  0  0
  152.7866  141.8511  161.4182 H   0  0  0  0  0  0  0  0  0  0  0  0
  154.1521  142.6035  160.5836 H   0  0  0  0  0  0  0  0  0  0  0  0
  150.6159  145.7913  159.5078 H   0  0  0  0  0  0  0  0  0  0  0  0
  149.7969  145.5981  157.9846 H   0  0  0  0  0  0  0  0  0  0  0  0
  151.0207  139.4121  156.8224 H   0  0  0  0  0  0  0  0  0  0  0  0
  152.5560  140.0540  156.2661 H   0  0  0  0  0  0  0  0  0  0  0  0
  150.0821  143.6489  156.7270 H   0  0  0  0  0  0  0  0  0  0  0  0
  1  2  1  0  0  0  0
  1 18  1  0  0  0  0
  1 19  1  0  0  0  0
  1 20  1  0  0  0  0
  2  3  1  0  0  0  0
  2 21  1  0  0  0  0
  2 22  1  0  0  0  0
  3  4  1  0  0  0  0
  4 17  1  0  0  0  0
  4  5  1  0  0  0  0
  4 23  1  0  0  0  0
  5  6  1  0  0  0  0
  5 24  1  0  0  0  0
  5 25  1  0  0  0  0
  6  7  1  0  0  0  0
  6 26  1  0  0  0  0
  6 27  1  0  0  0  0
  7  8  1  0  0  0  0
  7 28  1  0  0  0  0
  7 29  1  0  0  0  0
  8  9  1  0  0  0  0
  8 17  1  0  0  0  0
  9 16  1  0  0  0  0
  9 10  2  0  0  0  0
 10 11  1  0  0  0  0
 10 30  1  0  0  0  0
 11 12  1  0  0  0  0
 11 13  2  0  0  0  0
 12 31  1  0  0  0  0
 12 32  1  0  0  0  0
 12 33  1  0  0  0  0
 13 14  1  0  0  0  0
 14 15  1  0  0  0  0
 14 16  2  0  0  0  0
 15 34  1  0  0  0  0
 15 35  1  0  0  0  0
 16 38  1  0  0  0  0
 17 36  1  0  0  0  0
 17 37  1  0  0  0  0
M  CHG  1  16   1
M  END
> <s_m_source_file>
AV-unprocessed.smi

> <i_m_source_file_index>
1639

> <i_lp_mmshare_version>
43012

> <i_f3d_flags>
0

> <s_epik_input>
W0NIM11bQ0gyXU9bQ0BASF0xW0NIMl1bQ0gyXVtDSDJdTihbQ0gyXTEpYzJbY0hdYyhbQ0gzXSluYyhuMilbTkgyXQ==

> <s_epik_cmdline>
J2VwaWtfcHl0aG9uJywgJy1waCcsICc3LjAnLCAnLXRuJywgJzgnLCAnLW1hJywgJzIwMCcsICctbWV0YWxfYmluZGluZycsICctaW1hZScsICc8aW5maWxlLm1hZT4nLCAnLW9tYWUnLCAnPG91dGZpbGUubWFlPic=

> <r_lp_tautomer_probability>
0.424989

> <r_epik_Ionization_Penalty>
0.443088

> <r_epik_Ionization_Penalty_Charging>
0.443085

> <r_epik_Ionization_Penalty_Neutral>
3.21819e-06

> <r_epik_State_Penalty>
1.26241

> <r_epik_Charging_Adjusted_Penalty>
1.70549

> <i_epik_Tot_Q>
1

> <i_epik_Tot_abs_Q>
1

> <r_epik_Metal_State_Penalty>
1.59997

> <b_epik_Metal_Only>
0

> <s_lp_Force_Field>
OPLS_2005

> <r_lp_Energy>
15.005

> <b_lp_Chiralities_Consistent>
1

> <s_lp_Variant>
AV-unprocessed.smi:1639-4

> <Gold.Version>
5.8.1

> <Gold.Id.Protein>
6NUR|6NUR_protein|mol2

> <Gold.PLP.Fitness>
44.9392

> <Gold.PLP.PLP>
-34.0663

> <Gold.PLP.part.hbond>
-2.0000

> <Gold.PLP.part.metal>
0.0000

> <Gold.PLP.part.buried>
-4.3547

> <Gold.PLP.part.nonpolar>
-28.0766

> <Gold.PLP.part.repulsive>
0.3925

> <Gold.PLP.ligand.clash>
0.1454

> <Gold.PLP.ligand.torsion>
0.5609

> <Gold.PLP.Chemscore.Hbond>
4.0000

> <Gold.PLP.Chemscore.CHOScore>
0.0000

> <Gold.PLP.Chemscore.Metal>
0.0000

> <Gold.Chemscore.Hbonds>
donor molecule, donor type, donor heavy atom, donor atom, acceptor molecule, acceptor atom, score
      L1  H    15    35       P1  8029  1.88
      L1  H    16    38       P1  8028  2.00

> <Gold.PLP.Chemscore.Internal.Correction>
0.1402

> <Gold.Rescore>
     Score         DG    S(hbond)    S(metal)    S(lipo)     H(rot)  DE(clash)    DE(int)     intcor
     14.95     -17.18       1.85        0.00      79.03       1.46       1.44       0.79       ----

> <Gold.Chemscore.Fitness>
14.9540

> <Gold.Chemscore.DG>
-17.1822

> <Gold.Chemscore.ZeroCoef>
-5.4800

> <Gold.Chemscore.Hbond>
1.8511

> <Gold.Chemscore.Metal>
0.0000

> <Gold.Chemscore.Lipo>
79.0320

> <Gold.Chemscore.Internal_Hbond>
0.0000

> <Gold.Chemscore.DEClash>
1.4399

> <Gold.Chemscore.DEInternal>
0.7882

> <Gold.Chemscore.Rot>
1.4560

> <Gold.Chemscore.Internal.Correction>
   9.000000E+99

> <Gold.Chemscore.Hbonds>
donor molecule, donor type, donor heavy atom, donor atom, acceptor molecule, acceptor atom, score
      L1  H    15    35       P1  8029  0.19
      L1  H    16    38       P1  8028  1.00

> <Gold.Chemscore.Hbond.Weighted>
-6.1827

> <Gold.Chemscore.Metal.Weighted>
-0.0000

> <Gold.Chemscore.Lipo.Weighted>
-9.2467

> <Gold.Chemscore.Internal_Hbond.Weighted>
0.0000

> <Gold.Chemscore.DEClash.Weighted>
1.4399

> <Gold.Chemscore.DEInternal.Weighted>
0.7882

> <Gold.Chemscore.Rot.Weighted>
3.7272

> <Gold.Chemscore.Internal.Correction.Weighted>
   9.000000E+99

> <Gold.Protein.RotatedTorsions>
[ 6907 6896 6895 6894 ] final -172.70 input  -60.11 | X-H torsion
[ 7974 7965 7964 7962 ] final   91.71 input  175.53 | X-H torsion
[ 8008 7997 7996 7995 ] final  -63.49 input   59.86 | X-H torsion
[ 10167 10162 10161 10158 ] final   57.94 input  -65.29 | X-H torsion
[ 10718 10713 10712 10709 ] final -146.92 input   66.30 | X-H torsion
[ 10763 10752 10751 10750 ] final   17.35 input  -60.55 | X-H torsion
[ 11005 11000 10999 10996 ] final   97.48 input  -57.11 | X-H torsion

> <Gold.Protein.ActiveResidues>
 VAL166  LYS551  ARG553  GLY616  TRP617  ASP618  TYR619  PRO620  LYS621  CYS622 
 ASP623  PHE694  ASN695  SER759  ASP760  ASP761  ALA762  ILE779  LEU786  VAL792 
 PHE793  MET794  SER795  GLU796  ALA797  LYS798  CYS799  TRP800  GLU811  SER814 

> <Gold.Protein.RotatedAtoms>
  151.5442  133.3428  159.2940 H   0  0  0  0  0  0  0  0  0  0  0  0  # atno 6907 bound_to 6896
  150.8517  134.7846  159.7025 H   0  0  0  0  0  0  0  0  0  0  0  0  # atno 6908 bound_to 6896
  152.4561  134.5296  159.9858 H   0  0  0  0  0  0  0  0  0  0  0  0  # atno 6909 bound_to 6896
  145.5021  139.2276  143.2772 H   0  0  0  0  0  0  0  0  0  0  0  0  # atno 7974 bound_to 7965
  154.4557  140.0974  156.6750 H   0  0  0  0  0  0  0  0  0  0  0  0  # atno 8008 bound_to 7997
  155.5145  140.3477  155.4376 H   0  0  0  0  0  0  0  0  0  0  0  0  # atno 8009 bound_to 7997
  156.0773  140.1364  156.9745 H   0  0  0  0  0  0  0  0  0  0  0  0  # atno 8010 bound_to 7997
  140.1925  144.4071  150.6564 H   0  0  0  0  0  0  0  0  0  0  0  0  # atno 10167 bound_to 10162
  156.4010  130.7934  151.2144 H   0  0  0  0  0  0  0  0  0  0  0  0  # atno 10718 bound_to 10713
  153.1347  135.6747  153.9122 H   0  0  0  0  0  0  0  0  0  0  0  0  # atno 10763 bound_to 10752
  153.8598  135.3083  155.3438 H   0  0  0  0  0  0  0  0  0  0  0  0  # atno 10764 bound_to 10752
  154.7737  135.4926  153.9783 H   0  0  0  0  0  0  0  0  0  0  0  0  # atno 10765 bound_to 10752
  139.8776  134.9003  156.4313 H   0  0  0  0  0  0  0  0  0  0  0  0  # atno 11005 bound_to 11000
  146.2220  140.5822  142.9013 LP  0  0  0  0  0  0  0  0  0  0  0  0  # atno 17320 bound_to 7965
  144.7774  140.5769  143.6628 LP  0  0  0  0  0  0  0  0  0  0  0  0  # atno 17321 bound_to 7965
  140.6446  143.2210  151.6215 LP  0  0  0  0  0  0  0  0  0  0  0  0  # atno 17342 bound_to 10162
  139.5250  144.3088  152.1011 LP  0  0  0  0  0  0  0  0  0  0  0  0  # atno 17343 bound_to 10162
  157.7504  131.0287  150.4059 LP  0  0  0  0  0  0  0  0  0  0  0  0  # atno 17370 bound_to 10713
  156.4338  130.3977  149.6742 LP  0  0  0  0  0  0  0  0  0  0  0  0  # atno 17371 bound_to 10713
  140.9064  133.7742  155.9740 LP  0  0  0  0  0  0  0  0  0  0  0  0  # atno 17394 bound_to 11000
  140.8594  134.2859  157.5241 LP  0  0  0  0  0  0  0  0  0  0  0  0  # atno 17395 bound_to 11000

$$$$
