AV-unprocessed.smi:1296|AV-procd|sdf|5414|dock4
  -GOLD-   22720 4573D 1   1.00000     0.00000
 Structure written by MMmdl.
 36 36  0  0  0  0  0  0  0  0  1 V2000
  150.7606  143.1124  157.9809 C   0  0  0  0  0  0  0  0  0  0  0  0
  150.9444  141.9564  157.0215 C   0  0  0  0  0  0  0  0  0  0  0  0
  149.9416  141.8575  156.0712 N   0  0  0  0  0  0  0  0  0  0  0  0
  150.0162  140.8215  155.1568 C   0  0  0  0  0  0  0  0  0  0  0  0
  148.8758  140.7805  154.1546 C   0  0  0  0  0  0  0  0  0  0  0  0
  151.0425  139.9338  155.1830 C   0  0  0  0  0  0  0  0  0  0  0  0
  151.1610  138.7746  154.1937 C   0  0  0  0  0  0  0  0  0  0  0  0
  151.2913  137.3735  154.7973 C   0  0  0  0  0  0  0  0  0  0  0  0
  152.2160  137.0993  155.5625 O   0  0  0  0  0  0  0  0  0  0  0  0
  150.3467  136.4921  154.4410 N   0  0  0  0  0  0  0  0  0  0  0  0
  150.2804  135.1158  154.9154 C   0  0  0  0  0  0  0  0  0  0  0  0
  149.4275  134.2339  153.9827 C   0  0  0  0  0  0  0  0  0  0  0  0
  147.9221  134.3497  154.2795 C   0  0  0  0  0  0  0  0  0  0  0  0
  149.8818  132.7687  154.0539 C   0  0  0  0  0  0  0  0  0  0  0  0
  152.0942  140.1006  156.2136 C   0  0  0  0  0  0  0  0  0  0  0  0
  153.0608  139.3421  156.2758 O   0  0  0  0  0  0  0  0  0  0  0  0
  151.9649  141.1605  157.1260 N   0  0  0  0  0  0  0  0  0  0  0  0
  149.1614  142.4959  156.0157 H   0  0  0  0  0  0  0  0  0  0  0  0
  151.6024  143.1845  158.6707 H   0  0  0  0  0  0  0  0  0  0  0  0
  149.8504  142.9784  158.5661 H   0  0  0  0  0  0  0  0  0  0  0  0
  150.6865  144.0532  157.4347 H   0  0  0  0  0  0  0  0  0  0  0  0
  148.3079  139.8562  154.2608 H   0  0  0  0  0  0  0  0  0  0  0  0
  149.2615  140.8340  153.1363 H   0  0  0  0  0  0  0  0  0  0  0  0
  148.1872  141.6146  154.2952 H   0  0  0  0  0  0  0  0  0  0  0  0
  152.0335  138.9472  153.5633 H   0  0  0  0  0  0  0  0  0  0  0  0
  150.3164  138.7766  153.5037 H   0  0  0  0  0  0  0  0  0  0  0  0
  149.6208  136.7967  153.8087 H   0  0  0  0  0  0  0  0  0  0  0  0
  151.2944  134.7180  154.9798 H   0  0  0  0  0  0  0  0  0  0  0  0
  149.8680  135.1010  155.9258 H   0  0  0  0  0  0  0  0  0  0  0  0
  149.5897  134.5741  152.9588 H   0  0  0  0  0  0  0  0  0  0  0  0
  147.6969  134.0491  155.3033 H   0  0  0  0  0  0  0  0  0  0  0  0
  147.3413  133.7130  153.6115 H   0  0  0  0  0  0  0  0  0  0  0  0
  147.5622  135.3698  154.1454 H   0  0  0  0  0  0  0  0  0  0  0  0
  149.7508  132.3619  155.0572 H   0  0  0  0  0  0  0  0  0  0  0  0
  150.9349  132.6700  153.7894 H   0  0  0  0  0  0  0  0  0  0  0  0
  149.3112  132.1453  153.3650 H   0  0  0  0  0  0  0  0  0  0  0  0
  1 19  1  0  0  0  0
  1 20  1  0  0  0  0
  1 21  1  0  0  0  0
  1  2  1  0  0  0  0
  2  3  1  0  0  0  0
  2 17  2  0  0  0  0
  3  4  1  0  0  0  0
  3 18  1  0  0  0  0
  4  6  2  0  0  0  0
  4  5  1  0  0  0  0
  5 22  1  0  0  0  0
  5 23  1  0  0  0  0
  5 24  1  0  0  0  0
  6 15  1  0  0  0  0
  6  7  1  0  0  0  0
  7  8  1  0  0  0  0
  7 25  1  0  0  0  0
  7 26  1  0  0  0  0
  8  9  2  0  0  0  0
  8 10  1  0  0  0  0
 10 11  1  0  0  0  0
 10 27  1  0  0  0  0
 11 12  1  0  0  0  0
 11 28  1  0  0  0  0
 11 29  1  0  0  0  0
 12 13  1  0  0  0  0
 12 14  1  0  0  0  0
 12 30  1  0  0  0  0
 13 31  1  0  0  0  0
 13 32  1  0  0  0  0
 13 33  1  0  0  0  0
 14 34  1  0  0  0  0
 14 35  1  0  0  0  0
 14 36  1  0  0  0  0
 15 16  2  0  0  0  0
 15 17  1  0  0  0  0
M  END
> <s_m_source_file>
AV-unprocessed.smi

> <i_m_source_file_index>
1296

> <i_lp_mmshare_version>
43012

> <i_f3d_flags>
0

> <s_epik_input>
W0NIM11jMW5jKFtDSDNdKWMoYyg9TylbbkhdMSlbQ0gyXUMoPU8pW05IXVtDSDJdW0NIXShbQ0gzXSlbQ0gzXQ==

> <s_epik_cmdline>
J2VwaWtfcHl0aG9uJywgJy1waCcsICc3LjAnLCAnLXRuJywgJzgnLCAnLW1hJywgJzIwMCcsICctbWV0YWxfYmluZGluZycsICctaW1hZScsICc8aW5maWxlLm1hZT4nLCAnLW9tYWUnLCAnPG91dGZpbGUubWFlPic=

> <r_lp_tautomer_probability>
0.156392

> <r_epik_Ionization_Penalty>
0.0142343

> <r_epik_Ionization_Penalty_Charging>
0.0141145

> <r_epik_Ionization_Penalty_Neutral>
0.000119779

> <r_epik_State_Penalty>
1.52879

> <r_epik_Charging_Adjusted_Penalty>
1.5429

> <i_epik_Tot_Q>
0

> <i_epik_Tot_abs_Q>
0

> <r_epik_Metal_State_Penalty>
1.70685

> <b_epik_Metal_Only>
0

> <s_lp_Force_Field>
OPLS_2005

> <r_lp_Energy>
9.70595

> <b_lp_Chiralities_Consistent>
1

> <s_lp_Variant>
AV-unprocessed.smi:1296-2

> <Gold.Version>
5.8.1

> <Gold.Id.Protein>
6NUR|6NUR_protein|mol2

> <Gold.PLP.Fitness>
39.0333

> <Gold.PLP.PLP>
-31.1801

> <Gold.PLP.part.hbond>
-4.0016

> <Gold.PLP.part.metal>
0.0000

> <Gold.PLP.part.buried>
0.9264

> <Gold.PLP.part.nonpolar>
-26.9147

> <Gold.PLP.part.repulsive>
0.1776

> <Gold.PLP.ligand.clash>
0.0000

> <Gold.PLP.ligand.torsion>
0.4503

> <Gold.PLP.Chemscore.Hbond>
2.9131

> <Gold.PLP.Chemscore.CHOScore>
0.0000

> <Gold.PLP.Chemscore.Metal>
0.0000

> <Gold.Chemscore.Hbonds>
donor molecule, donor type, donor heavy atom, donor atom, acceptor molecule, acceptor atom, score
      L1  H     3    18       P1  8028  0.30
      L1  H    10    27       P1  7948  0.56
      P1  H  7997  8009       L1    16  0.93
      P1  H 10752 10765       L1     9  0.88

> <Gold.PLP.Chemscore.Internal.Correction>
0.0144

> <Gold.Rescore>
     Score         DG    S(hbond)    S(metal)    S(lipo)     H(rot)  DE(clash)    DE(int)     intcor
     11.84     -15.77       2.28        0.00      60.57       1.73       1.25       2.68       ----

> <Gold.Chemscore.Fitness>
11.8404

> <Gold.Chemscore.DG>
-15.7703

> <Gold.Chemscore.ZeroCoef>
-5.4800

> <Gold.Chemscore.Hbond>
2.2850

> <Gold.Chemscore.Metal>
0.0000

> <Gold.Chemscore.Lipo>
60.5663

> <Gold.Chemscore.Internal_Hbond>
0.0000

> <Gold.Chemscore.DEClash>
1.2455

> <Gold.Chemscore.DEInternal>
2.6845

> <Gold.Chemscore.Rot>
1.7296

> <Gold.Chemscore.Internal.Correction>
   9.000000E+99

> <Gold.Chemscore.Hbonds>
donor molecule, donor type, donor heavy atom, donor atom, acceptor molecule, acceptor atom, score
      L1  H     3    18       P1  8028  0.31
      L1  H    10    27       P1  7948  0.44
      P1  H  7997  8009       L1    16  0.79
      P1  H 10752 10765       L1     9  0.52

> <Gold.Chemscore.Hbond.Weighted>
-7.6317

> <Gold.Chemscore.Metal.Weighted>
-0.0000

> <Gold.Chemscore.Lipo.Weighted>
-7.0863

> <Gold.Chemscore.Internal_Hbond.Weighted>
0.0000

> <Gold.Chemscore.DEClash.Weighted>
1.2455

> <Gold.Chemscore.DEInternal.Weighted>
2.6845

> <Gold.Chemscore.Rot.Weighted>
4.4277

> <Gold.Chemscore.Internal.Correction.Weighted>
   9.000000E+99

> <Gold.Protein.RotatedTorsions>
[ 6907 6896 6895 6894 ] final -117.73 input  -60.11 | X-H torsion
[ 7974 7965 7964 7962 ] final  159.69 input  175.53 | X-H torsion
[ 8008 7997 7996 7995 ] final  173.59 input   59.86 | X-H torsion
[ 10167 10162 10161 10158 ] final   82.37 input  -65.29 | X-H torsion
[ 10718 10713 10712 10709 ] final  -45.05 input   66.30 | X-H torsion
[ 10763 10752 10751 10750 ] final -162.79 input  -60.55 | X-H torsion
[ 11005 11000 10999 10996 ] final  -41.76 input  -57.11 | X-H torsion

> <Gold.Protein.ActiveResidues>
 VAL166  LYS551  ARG553  GLY616  TRP617  ASP618  TYR619  PRO620  LYS621  CYS622 
 ASP623  PHE694  ASN695  SER759  ASP760  ASP761  ALA762  ILE779  LEU786  VAL792 
 PHE793  MET794  SER795  GLU796  ALA797  LYS798  CYS799  TRP800  GLU811  SER814 

> <Gold.Protein.RotatedAtoms>
  150.8161  133.8335  159.3159 H   0  0  0  0  0  0  0  0  0  0  0  0  # atno 6907 bound_to 6896
  151.6106  135.1039  160.0090 H   0  0  0  0  0  0  0  0  0  0  0  0  # atno 6908 bound_to 6896
  152.4252  133.7143  159.6553 H   0  0  0  0  0  0  0  0  0  0  0  0  # atno 6909 bound_to 6896
  144.7776  139.7653  143.6272 H   0  0  0  0  0  0  0  0  0  0  0  0  # atno 7974 bound_to 7965
  156.1060  140.1456  156.9403 H   0  0  0  0  0  0  0  0  0  0  0  0  # atno 8008 bound_to 7997
  154.4734  140.0902  156.7246 H   0  0  0  0  0  0  0  0  0  0  0  0  # atno 8009 bound_to 7997
  155.4678  140.3440  155.4324 H   0  0  0  0  0  0  0  0  0  0  0  0  # atno 8010 bound_to 7997
  139.9295  144.6161  150.8359 H   0  0  0  0  0  0  0  0  0  0  0  0  # atno 10167 bound_to 10162
  156.2323  130.4173  149.8859 H   0  0  0  0  0  0  0  0  0  0  0  0  # atno 10718 bound_to 10713
  154.7182  135.3020  154.9090 H   0  0  0  0  0  0  0  0  0  0  0  0  # atno 10763 bound_to 10752
  153.9970  135.6711  153.4761 H   0  0  0  0  0  0  0  0  0  0  0  0  # atno 10764 bound_to 10752
  153.0811  135.5008  154.8421 H   0  0  0  0  0  0  0  0  0  0  0  0  # atno 10765 bound_to 10752
  141.0268  133.6837  156.2502 H   0  0  0  0  0  0  0  0  0  0  0  0  # atno 11005 bound_to 11000
  146.1966  139.5235  142.9771 LP  0  0  0  0  0  0  0  0  0  0  0  0  # atno 17320 bound_to 7965
  145.6140  141.0334  143.1951 LP  0  0  0  0  0  0  0  0  0  0  0  0  # atno 17321 bound_to 7965
  140.7641  143.3240  151.2558 LP  0  0  0  0  0  0  0  0  0  0  0  0  # atno 17342 bound_to 10162
  139.6794  143.9881  152.2799 LP  0  0  0  0  0  0  0  0  0  0  0  0  # atno 17343 bound_to 10162
  156.6469  130.8728  151.3524 LP  0  0  0  0  0  0  0  0  0  0  0  0  # atno 17370 bound_to 10713
  157.7139  130.9473  150.1184 LP  0  0  0  0  0  0  0  0  0  0  0  0  # atno 17371 bound_to 10713
  140.6476  134.5100  157.5575 LP  0  0  0  0  0  0  0  0  0  0  0  0  # atno 17394 bound_to 11000
  139.9181  134.8204  156.1298 LP  0  0  0  0  0  0  0  0  0  0  0  0  # atno 17395 bound_to 11000

$$$$
