AV-unprocessed.smi:2006|AV-procd|sdf|8131|dock1
  -GOLD-   2272010363D 1   1.00000     0.00000
 Structure written by MMmdl.
 32 33  0  0  0  0  0  0  0  0  1 V2000
  153.1198  142.8282  161.4351 C   0  0  0  0  0  0  0  0  0  0  0  0
  152.1443  143.1549  160.2995 C   0  0  2  0  0  0  0  0  0  0  0  0
  152.1629  142.0820  159.1933 C   0  0  0  0  0  0  0  0  0  0  0  0
  151.2956  142.4812  158.0920 N   0  0  0  0  0  0  0  0  0  0  0  0
  151.1705  141.4950  157.1033 C   0  0  0  0  0  0  0  0  0  0  0  0
  150.1596  141.6285  156.1282 C   0  0  0  0  0  0  0  0  0  0  0  0
  150.0316  140.6294  155.1442 C   0  0  0  0  0  0  0  0  0  0  0  0
  150.9174  139.5333  155.1686 C   0  0  0  0  0  0  0  0  0  0  0  0
  150.8145  138.4274  154.1391 C   0  0  0  0  0  0  0  0  0  0  0  0
  149.6394  138.5621  153.3020 N   0  0  0  0  0  0  0  0  0  0  0  0
  151.8948  139.4890  156.1841 C   0  0  0  0  0  0  0  0  0  0  0  0
  152.0246  140.4435  157.1303 N   0  0  0  0  0  0  0  0  0  0  0  0
  151.6325  143.7991  157.5687 C   0  0  0  0  0  0  0  0  0  0  0  0
  151.6251  144.8318  158.7080 C   0  0  0  0  0  0  0  0  0  0  0  0
  152.5163  144.4118  159.7375 O   0  0  0  0  0  0  0  0  0  0  0  0
  152.8703  141.8770  161.9062 H   0  0  0  0  0  0  0  0  0  0  0  0
  153.0918  143.5988  162.2059 H   0  0  0  0  0  0  0  0  0  0  0  0
  154.1446  142.7614  161.0680 H   0  0  0  0  0  0  0  0  0  0  0  0
  151.1388  143.2345  160.7167 H   0  0  0  0  0  0  0  0  0  0  0  0
  153.1808  141.9424  158.8261 H   0  0  0  0  0  0  0  0  0  0  0  0
  151.8303  141.1236  159.5943 H   0  0  0  0  0  0  0  0  0  0  0  0
  149.4927  142.4785  156.1338 H   0  0  0  0  0  0  0  0  0  0  0  0
  149.2654  140.7035  154.3867 H   0  0  0  0  0  0  0  0  0  0  0  0
  151.7038  138.4314  153.5083 H   0  0  0  0  0  0  0  0  0  0  0  0
  150.7853  137.4598  154.6415 H   0  0  0  0  0  0  0  0  0  0  0  0
  149.7815  139.3152  152.6440 H   0  0  0  0  0  0  0  0  0  0  0  0
  149.5255  137.7260  152.7469 H   0  0  0  0  0  0  0  0  0  0  0  0
  152.5907  138.6650  156.2419 H   0  0  0  0  0  0  0  0  0  0  0  0
  152.6181  143.7725  157.1015 H   0  0  0  0  0  0  0  0  0  0  0  0
  150.9156  144.0853  156.7980 H   0  0  0  0  0  0  0  0  0  0  0  0
  151.9451  145.8050  158.3361 H   0  0  0  0  0  0  0  0  0  0  0  0
  150.6194  144.9590  159.1117 H   0  0  0  0  0  0  0  0  0  0  0  0
  1  2  1  0  0  0  0
  1 16  1  0  0  0  0
  1 17  1  0  0  0  0
  1 18  1  0  0  0  0
  2 15  1  0  0  0  0
  2  3  1  0  0  0  0
  2 19  1  0  0  0  0
  3  4  1  0  0  0  0
  3 20  1  0  0  0  0
  3 21  1  0  0  0  0
  4  5  1  0  0  0  0
  4 13  1  0  0  0  0
  5 12  1  0  0  0  0
  5  6  2  0  0  0  0
  6  7  1  0  0  0  0
  6 22  1  0  0  0  0
  7  8  2  0  0  0  0
  7 23  1  0  0  0  0
  8  9  1  0  0  0  0
  8 11  1  0  0  0  0
  9 10  1  0  0  0  0
  9 24  1  0  0  0  0
  9 25  1  0  0  0  0
 10 26  1  0  0  0  0
 10 27  1  0  0  0  0
 11 12  2  0  0  0  0
 11 28  1  0  0  0  0
 13 14  1  0  0  0  0
 13 29  1  0  0  0  0
 13 30  1  0  0  0  0
 14 15  1  0  0  0  0
 14 31  1  0  0  0  0
 14 32  1  0  0  0  0
M  END
> <s_m_source_file>
AV-unprocessed.smi

> <i_m_source_file_index>
2006

> <i_lp_mmshare_version>
43012

> <i_f3d_flags>
0

> <s_epik_input>
W0NIM11bQ0BASF0xW0NIMl1OKFtDSDJdW0NIMl1PMSljMltjSF1bY0hdYyhbY0hdbjIpW0NIMl1bTkgyXQ==

> <s_epik_cmdline>
J2VwaWtfcHl0aG9uJywgJy1waCcsICc3LjAnLCAnLXRuJywgJzgnLCAnLW1hJywgJzIwMCcsICctbWV0YWxfYmluZGluZycsICctaW1hZScsICc8aW5maWxlLm1hZT4nLCAnLW9tYWUnLCAnPG91dGZpbGUubWFlPic=

> <r_lp_tautomer_probability>
1

> <r_epik_Ionization_Penalty>
1.39389

> <r_epik_Ionization_Penalty_Charging>
0

> <r_epik_Ionization_Penalty_Neutral>
1.39389

> <r_epik_State_Penalty>
1.46818

> <r_epik_Charging_Adjusted_Penalty>
1.46818

> <i_epik_Tot_Q>
0

> <i_epik_Tot_abs_Q>
0

> <r_epik_Metal_State_Penalty>
1.46201

> <b_epik_Metal_Only>
0

> <s_lp_Force_Field>
OPLS_2005

> <r_lp_Energy>
16.9161

> <b_lp_Chiralities_Consistent>
1

> <s_lp_Variant>
AV-unprocessed.smi:2006-3

> <Gold.Version>
5.8.1

> <Gold.Id.Protein>
6NUR|6NUR_protein|mol2

> <Gold.PLP.Fitness>
42.4024

> <Gold.PLP.PLP>
-36.7091

> <Gold.PLP.part.hbond>
-2.1402

> <Gold.PLP.part.metal>
0.0000

> <Gold.PLP.part.buried>
-2.6819

> <Gold.PLP.part.nonpolar>
-30.0730

> <Gold.PLP.part.repulsive>
0.0705

> <Gold.PLP.ligand.clash>
0.0000

> <Gold.PLP.ligand.torsion>
0.2124

> <Gold.PLP.Chemscore.Hbond>
2.0059

> <Gold.PLP.Chemscore.CHOScore>
0.0000

> <Gold.PLP.Chemscore.Metal>
0.0000

> <Gold.Chemscore.Hbonds>
donor molecule, donor type, donor heavy atom, donor atom, acceptor molecule, acceptor atom, score
      L1  H    10    26       P1  7957  1.00
      L1  H    10    27       P1  7948  1.00

> <Gold.PLP.Chemscore.Internal.Correction>
0.1004

> <Gold.Rescore>
     Score         DG    S(hbond)    S(metal)    S(lipo)     H(rot)  DE(clash)    DE(int)     intcor
     19.67     -19.99       1.99        0.00      95.19       1.28       0.02       0.29       ----

> <Gold.Chemscore.Fitness>
19.6707

> <Gold.Chemscore.DG>
-19.9851

> <Gold.Chemscore.ZeroCoef>
-5.4800

> <Gold.Chemscore.Hbond>
1.9865

> <Gold.Chemscore.Metal>
0.0000

> <Gold.Chemscore.Lipo>
95.1892

> <Gold.Chemscore.Internal_Hbond>
0.0000

> <Gold.Chemscore.DEClash>
0.0221

> <Gold.Chemscore.DEInternal>
0.2923

> <Gold.Chemscore.Rot>
1.2762

> <Gold.Chemscore.Internal.Correction>
   9.000000E+99

> <Gold.Chemscore.Hbonds>
donor molecule, donor type, donor heavy atom, donor atom, acceptor molecule, acceptor atom, score
      L1  H    10    26       P1  7957  0.94
      L1  H    10    27       P1  7948  0.74

> <Gold.Chemscore.Hbond.Weighted>
-6.6351

> <Gold.Chemscore.Metal.Weighted>
-0.0000

> <Gold.Chemscore.Lipo.Weighted>
-11.1371

> <Gold.Chemscore.Internal_Hbond.Weighted>
0.0000

> <Gold.Chemscore.DEClash.Weighted>
0.0221

> <Gold.Chemscore.DEInternal.Weighted>
0.2923

> <Gold.Chemscore.Rot.Weighted>
3.2671

> <Gold.Chemscore.Internal.Correction.Weighted>
   9.000000E+99

> <Gold.Protein.RotatedTorsions>
[ 6907 6896 6895 6894 ] final -146.86 input  -60.11 | X-H torsion
[ 7974 7965 7964 7962 ] final   59.97 input  175.53 | X-H torsion
[ 8008 7997 7996 7995 ] final  175.87 input   59.86 | X-H torsion
[ 10167 10162 10161 10158 ] final  -58.45 input  -65.29 | X-H torsion
[ 10718 10713 10712 10709 ] final  112.01 input   66.30 | X-H torsion
[ 10763 10752 10751 10750 ] final  101.40 input  -60.55 | X-H torsion
[ 11005 11000 10999 10996 ] final  -62.38 input  -57.11 | X-H torsion

> <Gold.Protein.ActiveResidues>
 VAL166  LYS551  ARG553  GLY616  TRP617  ASP618  TYR619  PRO620  LYS621  CYS622 
 ASP623  PHE694  ASN695  SER759  ASP760  ASP761  ALA762  ILE779  LEU786  VAL792 
 PHE793  MET794  SER795  GLU796  ALA797  LYS798  CYS799  TRP800  GLU811  SER814 

> <Gold.Protein.RotatedAtoms>
  151.1476  133.4929  159.2595 H   0  0  0  0  0  0  0  0  0  0  0  0  # atno 6907 bound_to 6896
  151.1588  135.0263  159.8711 H   0  0  0  0  0  0  0  0  0  0  0  0  # atno 6908 bound_to 6896
  152.5463  134.1352  159.8509 H   0  0  0  0  0  0  0  0  0  0  0  0  # atno 6909 bound_to 6896
  145.9012  139.3583  143.0591 H   0  0  0  0  0  0  0  0  0  0  0  0  # atno 7974 bound_to 7965
  156.0825  140.1398  156.9694 H   0  0  0  0  0  0  0  0  0  0  0  0  # atno 8008 bound_to 7997
  154.4593  140.0949  156.6898 H   0  0  0  0  0  0  0  0  0  0  0  0  # atno 8009 bound_to 7997
  155.5052  140.3452  155.4380 H   0  0  0  0  0  0  0  0  0  0  0  0  # atno 8010 bound_to 7997
  140.6197  143.2415  151.5512 H   0  0  0  0  0  0  0  0  0  0  0  0  # atno 10167 bound_to 10162
  157.6415  131.0960  150.6832 H   0  0  0  0  0  0  0  0  0  0  0  0  # atno 10718 bound_to 10713
  153.3262  135.4046  155.1458 H   0  0  0  0  0  0  0  0  0  0  0  0  # atno 10763 bound_to 10752
  154.8612  135.3599  154.5531 H   0  0  0  0  0  0  0  0  0  0  0  0  # atno 10764 bound_to 10752
  153.5967  135.7072  153.5460 H   0  0  0  0  0  0  0  0  0  0  0  0  # atno 10765 bound_to 10752
  141.1358  133.6639  156.5519 H   0  0  0  0  0  0  0  0  0  0  0  0  # atno 11005 bound_to 11000
  145.8788  140.9375  143.0612 LP  0  0  0  0  0  0  0  0  0  0  0  0  # atno 17320 bound_to 7965
  144.6736  140.0752  143.7471 LP  0  0  0  0  0  0  0  0  0  0  0  0  # atno 17321 bound_to 7965
  139.5428  144.2602  152.1384 LP  0  0  0  0  0  0  0  0  0  0  0  0  # atno 17342 bound_to 10162
  140.1819  144.4836  150.6524 LP  0  0  0  0  0  0  0  0  0  0  0  0  # atno 17343 bound_to 10162
  156.7155  130.4665  149.5536 LP  0  0  0  0  0  0  0  0  0  0  0  0  # atno 17370 bound_to 10713
  156.1701  130.6431  151.0826 LP  0  0  0  0  0  0  0  0  0  0  0  0  # atno 17371 bound_to 10713
  140.4057  134.7317  157.4806 LP  0  0  0  0  0  0  0  0  0  0  0  0  # atno 17394 bound_to 11000
  140.0464  134.6194  155.8916 LP  0  0  0  0  0  0  0  0  0  0  0  0  # atno 17395 bound_to 11000

$$$$
