#       Name:                AV-unprocessed.smi:3046
#       Creating user name   scv26
#       Creation time:       Fri Mar 27 17:00:34 2020


#       File generated by GOLD software.
#

@<TRIPOS>MOLECULE
AV-unprocessed.smi:3046
    41    41     1
SMALL
NO_CHARGES


@<TRIPOS>ATOM
      1 ****        -3.2124  -1.9417   3.8354 C.2            1 S1                 0.0000
      2 ****        -2.7639  -2.1619   2.5906 C.2            1 S1                 0.0000
      3 ****        -3.4793  -1.7166   1.3305 C.3            1 S1                 0.0000
      4 ****        -2.6041  -0.9293   0.4718 N.am           1 S1                 0.0000
      5 ****        -2.3062   0.3679   0.6516 C.2            1 S1                 0.0000
      6 ****        -2.7688   1.0388   1.5754 O.2            1 S1                 0.0000
      7 ****        -1.3402   0.9854  -0.3720 C.3            1 S1                 0.0000
      8 ****        -1.2004   2.5103  -0.1879 C.3            1 S1                 0.0000
      9 ****        -0.0242   0.3320  -0.2753 N.3            1 S1                 0.0000
     10 ****         0.5538  -0.1118  -1.5422 C.3            1 S1                 0.0000
     11 ****         0.9394   1.0801  -2.4399 C.3            1 S1                 0.0000
     12 ****         1.7470  -1.0469  -1.2365 C.3            1 S1                 0.0000
     13 ****         2.9337  -0.3569  -0.7541 N.pl3          1 S1                 0.0000
     14 ****         4.0480   0.0323  -1.4684 C.2            1 S1                 0.0000
     15 ****         4.9002   0.6428  -0.5937 C.2            1 S1                 0.0000
     16 ****         4.2132   0.5740   0.6505 C.2            1 S1                 0.0000
     17 ****         3.0386  -0.0269   0.5519 N.2            1 S1                 0.0000
     18 ****        -4.1380  -1.4140   4.0131 H              1 S1                 0.0000
     19 ****        -2.6563  -2.2869   4.6946 H              1 S1                 0.0000
     20 ****        -1.8341  -2.6944   2.4520 H              1 S1                 0.0000
     21 ****        -3.7961  -2.6020   0.7795 H              1 S1                 0.0000
     22 ****        -4.3829  -1.1560   1.5767 H              1 S1                 0.0000
     23 ****        -2.1768  -1.4074  -0.3080 H              1 S1                 0.0000
     24 ****        -1.7787   0.7957  -1.3532 H              1 S1                 0.0000
     25 ****        -2.1692   3.0071  -0.2517 H              1 S1                 0.0000
     26 ****        -0.5651   2.9530  -0.9539 H              1 S1                 0.0000
     27 ****        -0.7623   2.7582   0.7799 H              1 S1                 0.0000
     28 ****         0.6394   0.8756   0.2588 H              1 S1                 0.0000
     29 ****        -0.1962  -0.7118  -2.0598 H              1 S1                 0.0000
     30 ****         1.4721   0.7381  -3.3275 H              1 S1                 0.0000
     31 ****         1.5840   1.7890  -1.9189 H              1 S1                 0.0000
     32 ****         0.0598   1.6214  -2.7877 H              1 S1                 0.0000
     33 ****         1.4639  -1.8128  -0.5124 H              1 S1                 0.0000
     34 ****         2.0244  -1.5823  -2.1453 H              1 S1                 0.0000
     35 ****         4.1386  -0.1527  -2.5287 H              1 S1                 0.0000
     36 ****         5.8671   1.0724  -0.8093 H              1 S1                 0.0000
     37 ****         4.5309   0.9394   1.6159 H              1 S1                 0.0000
     38 ****        -3.3957   0.6200   2.2323 LP             1 S1                 0.0000
     39 ****        -2.5174   2.0022   1.6683 LP             1 S1                 0.0000
     40 ****        -0.2210  -0.5103   0.2265 LP             1 S1                 0.0000
     41 ****         2.3763  -0.1986   1.2811 LP             1 S1                 0.0000
@<TRIPOS>BOND
    1    1    2 2     
    2    1   18 1     
    3    1   19 1     
    4    2    3 1     
    5    2   20 1     
    6    3    4 1     
    7    3   21 1     
    8    3   22 1     
    9    4    5 am    
   10    4   23 1     
   11    5    6 2     
   12    5    7 1     
   13    7    8 1     
   14    7    9 1     
   15    7   24 1     
   16    8   25 1     
   17    8   26 1     
   18    8   27 1     
   19    9   10 1     
   20    9   28 1     
   21   10   11 1     
   22   10   12 1     
   23   10   29 1     
   24   11   30 1     
   25   11   31 1     
   26   11   32 1     
   27   12   13 1     
   28   12   33 1     
   29   12   34 1     
   30   13   17 1     
   31   13   14 1     
   32   14   15 2     
   33   14   35 1     
   34   15   16 1     
   35   15   36 1     
   36   16   17 2     
   37   16   37 1     
   38    6   38 1     
   39    6   39 1     
   40    9   40 1     
   41   17   41 1     
@<TRIPOS>SUBSTRUCTURE
      1 S1             1
@<TRIPOS>SET
LONE_PAIRS      STATIC     ATOMS    <user>   **** ""
4 38 39 40 41
DONOR_HYDROGENS      STATIC     ATOMS    <user>   **** ""
2 23 28
ATOM$BLUE        STATIC     ATOMS    COLORGROUP SYSTEM
4 38 39 40 41
ATOM$RED        STATIC     ATOMS    COLORGROUP SYSTEM
2 23 28
