AV-unprocessed.smi:1967|AV-procd|sdf|7955|dock10
  -GOLD-   2272010123D 1   1.00000     0.00000
 Structure written by MMmdl.
 36 37  0  0  0  0  0  0  0  0  2 V2000
  153.7640  136.7339  156.9371 O   0  0  0  0  0  0  0  0  0  0  0  0
  152.7732  137.6457  157.5325 S   0  0  0  0  0  0  0  0  0  0  0  0
  151.7545  137.0650  158.4224 O   0  0  0  0  0  0  0  0  0  0  0  0
  153.4260  139.0129  158.1097 N   0  5  0  0  0  0  0  0  0  0  0  0
  152.6315  139.8523  158.9890 C   0  0  0  0  0  0  0  0  0  0  0  0
  153.5503  140.8280  159.7552 C   0  0  0  0  0  0  0  0  0  0  0  0
  152.9756  142.2322  159.9131 C   0  0  0  0  0  0  0  0  0  0  0  0
  152.6679  142.7427  161.1951 C   0  0  0  0  0  0  0  0  0  0  0  0
  152.1448  144.0460  161.2952 C   0  0  0  0  0  0  0  0  0  0  0  0
  151.9538  144.7931  160.1172 C   0  0  0  0  0  0  0  0  0  0  0  0
  152.2974  144.2009  158.8859 C   0  0  0  0  0  0  0  0  0  0  0  0
  152.8000  142.9524  158.7782 N   0  0  0  0  0  0  0  0  0  0  0  0
  151.9119  138.3675  156.2067 N   0  0  0  0  0  0  0  0  0  0  0  0
  151.4807  137.4954  155.0940 C   0  0  0  0  0  0  0  0  0  0  0  0
  151.1949  138.3102  153.8219 C   0  0  0  0  0  0  0  0  0  0  0  0
  150.1855  139.4299  154.0945 C   0  0  0  0  0  0  0  0  0  0  0  0
  150.7068  140.3162  155.2298 C   0  0  0  0  0  0  0  0  0  0  0  0
  150.9956  139.4907  156.4945 C   0  0  0  0  0  0  0  0  0  0  0  0
  151.8881  140.4232  158.4317 H   0  0  0  0  0  0  0  0  0  0  0  0
  152.0718  139.2553  159.7099 H   0  0  0  0  0  0  0  0  0  0  0  0
  153.7644  140.4301  160.7483 H   0  0  0  0  0  0  0  0  0  0  0  0
  154.5137  140.9023  159.2477 H   0  0  0  0  0  0  0  0  0  0  0  0
  152.8240  142.1448  162.0812 H   0  0  0  0  0  0  0  0  0  0  0  0
  151.8946  144.4651  162.2586 H   0  0  0  0  0  0  0  0  0  0  0  0
  151.5544  145.7958  160.1558 H   0  0  0  0  0  0  0  0  0  0  0  0
  152.1665  144.7453  157.9625 H   0  0  0  0  0  0  0  0  0  0  0  0
  152.2513  136.7543  154.8832 H   0  0  0  0  0  0  0  0  0  0  0  0
  150.5899  136.9457  155.4004 H   0  0  0  0  0  0  0  0  0  0  0  0
  152.1253  138.7386  153.4473 H   0  0  0  0  0  0  0  0  0  0  0  0
  150.8197  137.6526  153.0376 H   0  0  0  0  0  0  0  0  0  0  0  0
  150.0269  140.0235  153.1937 H   0  0  0  0  0  0  0  0  0  0  0  0
  149.2198  139.0028  154.3681 H   0  0  0  0  0  0  0  0  0  0  0  0
  151.6182  140.8233  154.9102 H   0  0  0  0  0  0  0  0  0  0  0  0
  149.9815  141.0982  155.4557 H   0  0  0  0  0  0  0  0  0  0  0  0
  150.0676  139.0933  156.9077 H   0  0  0  0  0  0  0  0  0  0  0  0
  151.4287  140.1373  157.2571 H   0  0  0  0  0  0  0  0  0  0  0  0
  1  2  2  0  0  0  0
  2  3  2  0  0  0  0
  2  4  1  0  0  0  0
  2 13  1  0  0  0  0
  4  5  1  0  0  0  0
  5  6  1  0  0  0  0
  5 19  1  0  0  0  0
  5 20  1  0  0  0  0
  6  7  1  0  0  0  0
  6 21  1  0  0  0  0
  6 22  1  0  0  0  0
  7 12  1  0  0  0  0
  7  8  2  0  0  0  0
  8  9  1  0  0  0  0
  8 23  1  0  0  0  0
  9 10  2  0  0  0  0
  9 24  1  0  0  0  0
 10 11  1  0  0  0  0
 10 25  1  0  0  0  0
 11 12  2  0  0  0  0
 11 26  1  0  0  0  0
 13 18  1  0  0  0  0
 13 14  1  0  0  0  0
 14 15  1  0  0  0  0
 14 27  1  0  0  0  0
 14 28  1  0  0  0  0
 15 16  1  0  0  0  0
 15 29  1  0  0  0  0
 15 30  1  0  0  0  0
 16 17  1  0  0  0  0
 16 31  1  0  0  0  0
 16 32  1  0  0  0  0
 17 18  1  0  0  0  0
 17 33  1  0  0  0  0
 17 34  1  0  0  0  0
 18 35  1  0  0  0  0
 18 36  1  0  0  0  0
M  CHG  1   4  -1
M  END
> <s_m_source_file>
AV-unprocessed.smi

> <i_m_source_file_index>
1967

> <i_lp_mmshare_version>
43012

> <i_f3d_flags>
0

> <s_epik_input>
W0NIMl0xW0NIMl1bQ0gyXVtDSDJdW0NIMl1OMVMoPU8pKD1PKVtOSF1bQ0gyXVtDSDJdYzJbY0hdW2NIXVtjSF1bY0hdbjI=

> <s_epik_cmdline>
J2VwaWtfcHl0aG9uJywgJy1waCcsICc3LjAnLCAnLXRuJywgJzgnLCAnLW1hJywgJzIwMCcsICctbWV0YWxfYmluZGluZycsICctaW1hZScsICc8aW5maWxlLm1hZT4nLCAnLW9tYWUnLCAnPG91dGZpbGUubWFlPic=

> <r_epik_Ionization_Penalty>
2.02944

> <r_epik_Ionization_Penalty_Charging>
1.95606

> <r_epik_Ionization_Penalty_Neutral>
0.0733798

> <r_epik_State_Penalty>
2.47711

> <r_epik_Charging_Adjusted_Penalty>
4.43317

> <i_epik_Tot_Q>
-1

> <i_epik_Tot_abs_Q>
1

> <r_epik_Metal_State_Penalty>
0.729901

> <b_epik_Metal_Only>
0

> <s_lp_Force_Field>
OPLS_2005

> <r_lp_Energy>
6.94762

> <b_lp_Chiralities_Consistent>
1

> <s_lp_Variant>
AV-unprocessed.smi:1967-2

> <Gold.Version>
5.8.1

> <Gold.Id.Protein>
6NUR|6NUR_protein|mol2

> <Gold.PLP.Fitness>
49.3196

> <Gold.PLP.PLP>
-40.9856

> <Gold.PLP.part.hbond>
-2.5883

> <Gold.PLP.part.metal>
0.0000

> <Gold.PLP.part.buried>
-6.6062

> <Gold.PLP.part.nonpolar>
-32.9965

> <Gold.PLP.part.repulsive>
0.0000

> <Gold.PLP.ligand.clash>
0.0000

> <Gold.PLP.ligand.torsion>
2.0381

> <Gold.PLP.Chemscore.Hbond>
3.1047

> <Gold.PLP.Chemscore.CHOScore>
0.0000

> <Gold.PLP.Chemscore.Metal>
0.0000

> <Gold.Chemscore.Hbonds>
donor molecule, donor type, donor heavy atom, donor atom, acceptor molecule, acceptor atom, score
      P1  H  7997  8008       L1     4  2.00
      P1  H 10752 10764       L1     1  0.82

> <Gold.PLP.Chemscore.Internal.Correction>
3.0960

> <Gold.Rescore>
     Score         DG    S(hbond)    S(metal)    S(lipo)     H(rot)  DE(clash)    DE(int)     intcor
     20.13     -22.15       2.42        0.00     101.78       1.30       0.01       2.02       ----

> <Gold.Chemscore.Fitness>
20.1319

> <Gold.Chemscore.DG>
-22.1549

> <Gold.Chemscore.ZeroCoef>
-5.4800

> <Gold.Chemscore.Hbond>
2.4233

> <Gold.Chemscore.Metal>
0.0000

> <Gold.Chemscore.Lipo>
101.7791

> <Gold.Chemscore.Internal_Hbond>
0.0000

> <Gold.Chemscore.DEClash>
0.0060

> <Gold.Chemscore.DEInternal>
2.0170

> <Gold.Chemscore.Rot>
1.2997

> <Gold.Chemscore.Internal.Correction>
   9.000000E+99

> <Gold.Chemscore.Hbonds>
donor molecule, donor type, donor heavy atom, donor atom, acceptor molecule, acceptor atom, score
      P1  H  6896  6908       L1     3  0.04
      P1  H  7997  8008       L1     4  0.74
      P1  H 10752 10764       L1     1  0.77

> <Gold.Chemscore.Hbond.Weighted>
-8.0940

> <Gold.Chemscore.Metal.Weighted>
-0.0000

> <Gold.Chemscore.Lipo.Weighted>
-11.9082

> <Gold.Chemscore.Internal_Hbond.Weighted>
0.0000

> <Gold.Chemscore.DEClash.Weighted>
0.0060

> <Gold.Chemscore.DEInternal.Weighted>
2.0170

> <Gold.Chemscore.Rot.Weighted>
3.3273

> <Gold.Chemscore.Internal.Correction.Weighted>
   9.000000E+99

> <Gold.Protein.RotatedTorsions>
[ 6907 6896 6895 6894 ] final -126.66 input  -60.11 | X-H torsion
[ 7974 7965 7964 7962 ] final  -88.35 input  175.53 | X-H torsion
[ 8008 7997 7996 7995 ] final  -68.96 input   59.86 | X-H torsion
[ 10167 10162 10161 10158 ] final  123.65 input  -65.29 | X-H torsion
[ 10718 10713 10712 10709 ] final  138.02 input   66.30 | X-H torsion
[ 10763 10752 10751 10750 ] final    6.13 input  -60.55 | X-H torsion
[ 11005 11000 10999 10996 ] final  -86.54 input  -57.11 | X-H torsion

> <Gold.Protein.ActiveResidues>
 VAL166  LYS551  ARG553  GLY616  TRP617  ASP618  TYR619  PRO620  LYS621  CYS622 
 ASP623  PHE694  ASN695  SER759  ASP760  ASP761  ALA762  ILE779  LEU786  VAL792 
 PHE793  MET794  SER795  GLU796  ALA797  LYS798  CYS799  TRP800  GLU811  SER814 

> <Gold.Protein.RotatedAtoms>
  150.8992  133.7140  159.2883 H   0  0  0  0  0  0  0  0  0  0  0  0  # atno 6907 bound_to 6896
  151.4665  135.1041  159.9749 H   0  0  0  0  0  0  0  0  0  0  0  0  # atno 6908 bound_to 6896
  152.4867  133.8343  159.7174 H   0  0  0  0  0  0  0  0  0  0  0  0  # atno 6909 bound_to 6896
  145.4543  140.9561  143.2005 H   0  0  0  0  0  0  0  0  0  0  0  0  # atno 7974 bound_to 7965
  154.4904  140.0863  156.7582 H   0  0  0  0  0  0  0  0  0  0  0  0  # atno 8008 bound_to 7997
  155.4244  140.3447  155.4256 H   0  0  0  0  0  0  0  0  0  0  0  0  # atno 8009 bound_to 7997
  156.1322  140.1504  156.9036 H   0  0  0  0  0  0  0  0  0  0  0  0  # atno 8010 bound_to 7997
  139.5787  144.6976  151.3585 H   0  0  0  0  0  0  0  0  0  0  0  0  # atno 10167 bound_to 10162
  157.4298  131.1047  151.0262 H   0  0  0  0  0  0  0  0  0  0  0  0  # atno 10718 bound_to 10713
  153.2513  135.6914  153.7677 H   0  0  0  0  0  0  0  0  0  0  0  0  # atno 10763 bound_to 10752
  153.6770  135.3335  155.3169 H   0  0  0  0  0  0  0  0  0  0  0  0  # atno 10764 bound_to 10752
  154.8395  135.4513  154.1470 H   0  0  0  0  0  0  0  0  0  0  0  0  # atno 10765 bound_to 10752
  141.1628  133.7460  156.9177 H   0  0  0  0  0  0  0  0  0  0  0  0  # atno 11005 bound_to 11000
  144.8042  139.6082  143.7058 LP  0  0  0  0  0  0  0  0  0  0  0  0  # atno 17320 bound_to 7965
  146.2487  139.6153  142.9442 LP  0  0  0  0  0  0  0  0  0  0  0  0  # atno 17321 bound_to 7965
  140.7067  143.7494  150.7495 LP  0  0  0  0  0  0  0  0  0  0  0  0  # atno 17342 bound_to 10162
  140.1021  143.4778  152.2419 LP  0  0  0  0  0  0  0  0  0  0  0  0  # atno 17343 bound_to 10162
  157.1162  130.6042  149.5494 LP  0  0  0  0  0  0  0  0  0  0  0  0  # atno 17370 bound_to 10713
  155.9909  130.4962  150.7278 LP  0  0  0  0  0  0  0  0  0  0  0  0  # atno 17371 bound_to 10713
  140.1473  134.9253  157.2546 LP  0  0  0  0  0  0  0  0  0  0  0  0  # atno 17394 bound_to 11000
  140.2764  134.3400  155.7357 LP  0  0  0  0  0  0  0  0  0  0  0  0  # atno 17395 bound_to 11000

$$$$
