AV-unprocessed.smi:2829|AV-procd|sdf|10905|dock5
  -GOLD-   2272015353D 1   1.00000     0.00000
 Structure written by MMmdl.
 50 53  0  0  0  0  0  0  0  0  1 V2000
  152.1996  144.4837  157.7032 C   0  0  0  0  0  0  0  0  0  0  0  0
  151.8316  144.2071  159.1757 C   0  0  0  0  0  0  0  0  0  0  0  0
  152.1304  145.4538  160.0338 C   0  0  0  0  0  0  0  0  0  0  0  0
  150.3075  143.9579  159.2347 C   0  0  0  0  0  0  0  0  0  0  0  0
  152.6444  143.0088  159.6986 C   0  0  0  0  0  0  0  0  0  0  0  0
  152.6315  141.7371  159.0822 C   0  0  0  0  0  0  0  0  0  0  0  0
  153.4151  140.7231  159.6578 C   0  0  0  0  0  0  0  0  0  0  0  0
  154.1676  141.0274  160.8097 C   0  0  0  0  0  0  0  0  0  0  0  0
  154.9359  139.9557  161.3339 N   0  0  0  0  0  0  0  0  0  0  0  0
  154.6897  138.6330  161.2510 C   0  0  0  0  0  0  0  0  0  0  0  0
  153.7349  138.1320  160.6607 O   0  0  0  0  0  0  0  0  0  0  0  0
  155.5938  137.8697  161.8896 N   0  0  0  0  0  0  0  0  0  0  0  0
  155.6091  136.4039  161.9867 C   0  0  1  0  0  0  0  0  0  0  0  0
  156.9869  135.7709  161.7511 C   0  0  1  0  0  0  0  0  0  0  0  0
  158.2247  136.1654  161.0310 C   0  0  0  0  0  0  0  0  0  0  0  0
  159.2325  135.6144  162.0720 C   0  0  0  0  0  0  0  0  0  0  0  0
  158.4416  135.2391  163.2283 O   0  0  0  0  0  0  0  0  0  0  0  0
  157.3239  136.1080  163.1945 C   0  0  2  0  0  0  0  0  0  0  0  0
  155.8222  135.8744  163.4419 C   0  0  0  0  0  0  0  0  0  0  0  0
  155.1133  136.4946  164.6526 C   0  0  0  0  0  0  0  0  0  0  0  0
  155.1107  135.1060  165.3009 C   0  0  0  0  0  0  0  0  0  0  0  0
  155.3066  134.5027  163.9064 C   0  0  0  0  0  0  0  0  0  0  0  0
  154.1344  142.2717  161.3485 N   0  0  0  0  0  0  0  0  0  0  0  0
  153.3902  143.2403  160.8065 N   0  0  0  0  0  0  0  0  0  0  0  0
  151.6224  145.3158  157.2986 H   0  0  0  0  0  0  0  0  0  0  0  0
  152.0044  143.6126  157.0767 H   0  0  0  0  0  0  0  0  0  0  0  0
  153.2536  144.7401  157.5898 H   0  0  0  0  0  0  0  0  0  0  0  0
  153.1834  145.7338  159.9888 H   0  0  0  0  0  0  0  0  0  0  0  0
  151.8806  145.2822  161.0813 H   0  0  0  0  0  0  0  0  0  0  0  0
  151.5548  146.3163  159.6958 H   0  0  0  0  0  0  0  0  0  0  0  0
  149.7518  144.8188  158.8608 H   0  0  0  0  0  0  0  0  0  0  0  0
  149.9672  143.7787  160.2553 H   0  0  0  0  0  0  0  0  0  0  0  0
  150.0148  143.1018  158.6256 H   0  0  0  0  0  0  0  0  0  0  0  0
  152.0499  141.5204  158.1997 H   0  0  0  0  0  0  0  0  0  0  0  0
  153.4357  139.7350  159.2213 H   0  0  0  0  0  0  0  0  0  0  0  0
  155.7611  140.2233  161.8496 H   0  0  0  0  0  0  0  0  0  0  0  0
  156.3417  138.3533  162.3658 H   0  0  0  0  0  0  0  0  0  0  0  0
  154.7910  135.9075  161.4626 H   0  0  0  0  0  0  0  0  0  0  0  0
  156.8278  134.6951  161.6122 H   0  0  0  0  0  0  0  0  0  0  0  0
  158.3202  135.6885  160.0553 H   0  0  0  0  0  0  0  0  0  0  0  0
  158.3104  137.2464  160.9147 H   0  0  0  0  0  0  0  0  0  0  0  0
  159.7703  134.7429  161.6980 H   0  0  0  0  0  0  0  0  0  0  0  0
  159.9652  136.3752  162.3434 H   0  0  0  0  0  0  0  0  0  0  0  0
  157.6217  137.1489  163.3525 H   0  0  0  0  0  0  0  0  0  0  0  0
  155.6942  137.2461  165.1880 H   0  0  0  0  0  0  0  0  0  0  0  0
  154.1097  136.8512  164.4162 H   0  0  0  0  0  0  0  0  0  0  0  0
  155.9703  134.9445  165.9533 H   0  0  0  0  0  0  0  0  0  0  0  0
  154.1748  134.8323  165.7889 H   0  0  0  0  0  0  0  0  0  0  0  0
  154.3648  134.2234  163.4320 H   0  0  0  0  0  0  0  0  0  0  0  0
  156.0382  133.6955  163.8599 H   0  0  0  0  0  0  0  0  0  0  0  0
  1  2  1  0  0  0  0
  1 25  1  0  0  0  0
  1 26  1  0  0  0  0
  1 27  1  0  0  0  0
  2  3  1  0  0  0  0
  2  4  1  0  0  0  0
  2  5  1  0  0  0  0
  3 28  1  0  0  0  0
  3 29  1  0  0  0  0
  3 30  1  0  0  0  0
  4 31  1  0  0  0  0
  4 32  1  0  0  0  0
  4 33  1  0  0  0  0
  5 24  1  0  0  0  0
  5  6  2  0  0  0  0
  6  7  1  0  0  0  0
  6 34  1  0  0  0  0
  7  8  2  0  0  0  0
  7 35  1  0  0  0  0
  8  9  1  0  0  0  0
  8 23  1  0  0  0  0
  9 10  1  0  0  0  0
  9 36  1  0  0  0  0
 10 11  2  0  0  0  0
 10 12  1  0  0  0  0
 12 13  1  0  0  0  0
 12 37  1  0  0  0  0
 13 19  1  0  0  0  0
 13 14  1  0  0  0  0
 13 38  1  0  0  0  0
 14 18  1  0  0  0  0
 14 15  1  0  0  0  0
 14 39  1  0  0  0  0
 15 16  1  0  0  0  0
 15 40  1  0  0  0  0
 15 41  1  0  0  0  0
 16 17  1  0  0  0  0
 16 42  1  0  0  0  0
 16 43  1  0  0  0  0
 17 18  1  0  0  0  0
 18 19  1  0  0  0  0
 18 44  1  0  0  0  0
 19 22  1  0  0  0  0
 19 20  1  0  0  0  0
 20 21  1  0  0  0  0
 20 45  1  0  0  0  0
 20 46  1  0  0  0  0
 21 22  1  0  0  0  0
 21 47  1  0  0  0  0
 21 48  1  0  0  0  0
 22 49  1  0  0  0  0
 22 50  1  0  0  0  0
 23 24  2  0  0  0  0
M  END
> <s_m_source_file>
AV-unprocessed.smi

> <i_m_source_file_index>
2829

> <i_lp_mmshare_version>
43012

> <i_f3d_flags>
0

> <s_epik_input>
W0NIM11DKFtDSDNdKShbQ0gzXSljMVtjSF1bY0hdYyhubjEpW05IXUMoPU8pW05IXVtDQEBIXTJbQ0BIXShbQ0gyXVtDSDJdTzMpW0NAQEhdM0MyNFtDSDJdW0NIMl1bQ0gyXTQ=

> <s_epik_cmdline>
J2VwaWtfcHl0aG9uJywgJy1waCcsICc3LjAnLCAnLXRuJywgJzgnLCAnLW1hJywgJzIwMCcsICctbWV0YWxfYmluZGluZycsICctaW1hZScsICc8aW5maWxlLm1hZT4nLCAnLW9tYWUnLCAnPG91dGZpbGUubWFlPic=

> <r_lp_tautomer_probability>
1

> <r_epik_Ionization_Penalty>
0.011915

> <r_epik_Ionization_Penalty_Charging>
0

> <r_epik_Ionization_Penalty_Neutral>
0.011915

> <r_epik_State_Penalty>
0.00486223

> <r_epik_Charging_Adjusted_Penalty>
0.00486223

> <i_epik_Tot_Q>
0

> <i_epik_Tot_abs_Q>
0

> <r_epik_Metal_State_Penalty>
-0

> <b_epik_Metal_Only>
0

> <s_lp_Force_Field>
OPLS_2005

> <r_lp_Energy>
85.0365

> <b_lp_Chiralities_Consistent>
1

> <s_lp_Variant>
AV-unprocessed.smi:2829-8

> <Gold.Version>
5.8.1

> <Gold.Id.Protein>
6NUR|6NUR_protein|mol2

> <Gold.PLP.Fitness>
41.9210

> <Gold.PLP.PLP>
-42.3258

> <Gold.PLP.part.hbond>
0.0000

> <Gold.PLP.part.metal>
0.0000

> <Gold.PLP.part.buried>
-6.2100

> <Gold.PLP.part.nonpolar>
-36.7485

> <Gold.PLP.part.repulsive>
0.0626

> <Gold.PLP.ligand.clash>
0.0000

> <Gold.PLP.ligand.torsion>
0.3603

> <Gold.PLP.Chemscore.Hbond>
0.0000

> <Gold.PLP.Chemscore.CHOScore>
0.0000

> <Gold.PLP.Chemscore.Metal>
0.0000

> <Gold.PLP.Chemscore.Internal.Correction>
0.3157

> <Gold.Rescore>
     Score         DG    S(hbond)    S(metal)    S(lipo)     H(rot)  DE(clash)    DE(int)     intcor
     14.66     -16.51       0.00        0.00     119.66       1.16       0.11       1.74       ----

> <Gold.Chemscore.Fitness>
14.6592

> <Gold.Chemscore.DG>
-16.5058

> <Gold.Chemscore.ZeroCoef>
-5.4800

> <Gold.Chemscore.Hbond>
0.0000

> <Gold.Chemscore.Metal>
0.0000

> <Gold.Chemscore.Lipo>
119.6576

> <Gold.Chemscore.Internal_Hbond>
0.0000

> <Gold.Chemscore.DEClash>
0.1077

> <Gold.Chemscore.DEInternal>
1.7389

> <Gold.Chemscore.Rot>
1.1618

> <Gold.Chemscore.Internal.Correction>
   9.000000E+99

> <Gold.Chemscore.Hbond.Weighted>
-0.0000

> <Gold.Chemscore.Metal.Weighted>
-0.0000

> <Gold.Chemscore.Lipo.Weighted>
-13.9999

> <Gold.Chemscore.Internal_Hbond.Weighted>
0.0000

> <Gold.Chemscore.DEClash.Weighted>
0.1077

> <Gold.Chemscore.DEInternal.Weighted>
1.7389

> <Gold.Chemscore.Rot.Weighted>
2.9741

> <Gold.Chemscore.Internal.Correction.Weighted>
   9.000000E+99

> <Gold.Protein.RotatedTorsions>
[ 6907 6896 6895 6894 ] final  121.06 input  -60.11 | X-H torsion
[ 7974 7965 7964 7962 ] final  -88.46 input  175.53 | X-H torsion
[ 8008 7997 7996 7995 ] final  101.69 input   59.86 | X-H torsion
[ 10167 10162 10161 10158 ] final  -79.87 input  -65.29 | X-H torsion
[ 10718 10713 10712 10709 ] final  116.51 input   66.30 | X-H torsion
[ 10763 10752 10751 10750 ] final -120.43 input  -60.55 | X-H torsion
[ 11005 11000 10999 10996 ] final -135.47 input  -57.11 | X-H torsion

> <Gold.Protein.ActiveResidues>
 VAL166  LYS551  ARG553  GLY616  TRP617  ASP618  TYR619  PRO620  LYS621  CYS622 
 ASP623  PHE694  ASN695  SER759  ASP760  ASP761  ALA762  ILE779  LEU786  VAL792 
 PHE793  MET794  SER795  GLU796  ALA797  LYS798  CYS799  TRP800  GLU811  SER814 

> <Gold.Protein.RotatedAtoms>
  152.4350  133.7345  159.6605 H   0  0  0  0  0  0  0  0  0  0  0  0  # atno 6907 bound_to 6896
  150.8233  133.8204  159.3135 H   0  0  0  0  0  0  0  0  0  0  0  0  # atno 6908 bound_to 6896
  151.5880  135.1057  160.0084 H   0  0  0  0  0  0  0  0  0  0  0  0  # atno 6909 bound_to 6896
  145.4529  140.9561  143.2012 H   0  0  0  0  0  0  0  0  0  0  0  0  # atno 7974 bound_to 7965
  156.1323  140.3193  155.8368 H   0  0  0  0  0  0  0  0  0  0  0  0  # atno 8008 bound_to 7997
  155.4309  140.0518  157.3035 H   0  0  0  0  0  0  0  0  0  0  0  0  # atno 8009 bound_to 7997
  154.4909  140.2092  155.9563 H   0  0  0  0  0  0  0  0  0  0  0  0  # atno 8010 bound_to 7997
  140.4554  143.2470  151.8427 H   0  0  0  0  0  0  0  0  0  0  0  0  # atno 10167 bound_to 10162
  157.6155  131.1026  150.7483 H   0  0  0  0  0  0  0  0  0  0  0  0  # atno 10718 bound_to 10713
  154.8644  135.4203  154.2458 H   0  0  0  0  0  0  0  0  0  0  0  0  # atno 10763 bound_to 10752
  153.3414  135.6994  153.6869 H   0  0  0  0  0  0  0  0  0  0  0  0  # atno 10764 bound_to 10752
  153.5846  135.3566  155.2861 H   0  0  0  0  0  0  0  0  0  0  0  0  # atno 10765 bound_to 10752
  140.8895  134.1829  157.4537 H   0  0  0  0  0  0  0  0  0  0  0  0  # atno 11005 bound_to 11000
  144.8050  139.6068  143.7055 LP  0  0  0  0  0  0  0  0  0  0  0  0  # atno 17320 bound_to 7965
  146.2494  139.6167  142.9437 LP  0  0  0  0  0  0  0  0  0  0  0  0  # atno 17321 bound_to 7965
  139.4800  144.5071  151.8983 LP  0  0  0  0  0  0  0  0  0  0  0  0  # atno 17342 bound_to 10162
  140.4157  144.2310  150.5888 LP  0  0  0  0  0  0  0  0  0  0  0  0  # atno 17343 bound_to 10162
  156.7851  130.4872  149.5394 LP  0  0  0  0  0  0  0  0  0  0  0  0  # atno 17370 bound_to 10713
  156.1276  130.6155  151.0286 LP  0  0  0  0  0  0  0  0  0  0  0  0  # atno 17371 bound_to 10713
  139.8728  134.9852  156.5273 LP  0  0  0  0  0  0  0  0  0  0  0  0  # atno 17394 bound_to 11000
  140.8364  133.8239  155.9032 LP  0  0  0  0  0  0  0  0  0  0  0  0  # atno 17395 bound_to 11000

$$$$
