#       Name:                AV-unprocessed.smi:1913
#       Creating user name   scv26
#       Creation time:       Fri Mar 27 09:49:38 2020


#       File generated by GOLD software.
#

@<TRIPOS>MOLECULE
AV-unprocessed.smi:1913
    47    49     1
SMALL
NO_CHARGES


@<TRIPOS>ATOM
      1 ****        -4.3620  -2.9600   2.2575 C.3            1 S1                 0.0000
      2 ****        -2.9458  -3.0057   2.1621 O.3            1 S1                 0.0000
      3 ****        -2.2814  -1.8491   1.8151 C.ar           1 S1                 0.0000
      4 ****        -2.9182  -0.6145   1.5479 C.ar           1 S1                 0.0000
      5 ****        -2.1610   0.5160   1.1903 C.ar           1 S1                 0.0000
      6 ****        -0.7495   0.4441   1.0934 C.ar           1 S1                 0.0000
      7 ****         0.0388   1.5169   0.7284 O.3            1 S1                 0.0000
      8 ****        -0.5970   2.7113   0.2991 C.3            1 S1                 0.0000
      9 ****        -0.1076  -0.7878   1.3729 C.ar           1 S1                 0.0000
     10 ****         1.4112  -0.9146   1.2586 C.3            1 S1                 0.0000
     11 ****         1.9671  -1.7187   2.2789 O.3            1 S1                 0.0000
     12 ****         1.8475  -1.5036  -0.0995 C.3            1 S1                 0.0000
     13 ****         1.3658  -0.7177  -1.2430 N.pl3          1 S1                 0.0000
     14 ****         0.3289  -0.9577  -2.0907 C.2            1 S1                 0.0000
     15 ****         0.2644   0.0835  -2.9661 N.pl3          1 S1                 1.0000
     16 ****         1.2774   1.0000  -2.6755 C.ar           1 S1                 0.0000
     17 ****         1.6115   2.2100  -3.2754 C.ar           1 S1                 0.0000
     18 ****         2.7079   2.9068  -2.7260 C.ar           1 S1                 0.0000
     19 ****         3.4272   2.3959  -1.6257 C.ar           1 S1                 0.0000
     20 ****         3.0811   1.1667  -1.0271 C.ar           1 S1                 0.0000
     21 ****         1.9938   0.4870  -1.5738 C.ar           1 S1                 0.0000
     22 ****        -0.8784  -1.9185   1.7227 C.ar           1 S1                 0.0000
     23 ****        -4.7357  -3.9453   2.5356 H              1 S1                 0.0000
     24 ****        -4.8179  -2.6923   1.3033 H              1 S1                 0.0000
     25 ****        -4.6876  -2.2556   3.0242 H              1 S1                 0.0000
     26 ****        -3.9906  -0.5079   1.6067 H              1 S1                 0.0000
     27 ****        -2.6935   1.4337   0.9932 H              1 S1                 0.0000
     28 ****         0.1625   3.4245  -0.0209 H              1 S1                 0.0000
     29 ****        -1.1656   3.1733   1.1070 H              1 S1                 0.0000
     30 ****        -1.2551   2.5291  -0.5515 H              1 S1                 0.0000
     31 ****         1.8660   0.0668   1.3884 H              1 S1                 0.0000
     32 ****         1.7833  -1.3142   3.1132 H              1 S1                 0.0000
     33 ****         2.9341  -1.5723  -0.1673 H              1 S1                 0.0000
     34 ****         1.4622  -2.5178  -0.2151 H              1 S1                 0.0000
     35 ****        -0.3325  -1.8118  -2.0634 H              1 S1                 0.0000
     36 ****         1.0625   2.6039  -4.1181 H              1 S1                 0.0000
     37 ****         3.0032   3.8522  -3.1575 H              1 S1                 0.0000
     38 ****         4.2613   2.9586  -1.2322 H              1 S1                 0.0000
     39 ****         3.6355   0.7835  -0.1831 H              1 S1                 0.0000
     40 ****        -0.3897  -2.8619   1.9187 H              1 S1                 0.0000
     41 ****        -0.4237   0.1615  -3.7040 H              1 S1                 0.0000
     42 ****        -2.7164  -3.6970   1.4769 LP             1 S1                 0.0000
     43 ****        -2.5971  -3.2922   3.0544 LP             1 S1                 0.0000
     44 ****         0.6263   1.2100  -0.0204 LP             1 S1                 0.0000
     45 ****         0.6029   1.7513   1.5201 LP             1 S1                 0.0000
     46 ****         2.9561  -1.7914   2.1498 LP             1 S1                 0.0000
     47 ****         1.5591  -2.6311   2.2492 LP             1 S1                 0.0000
@<TRIPOS>BOND
    1    1    2 1     
    2    1   23 1     
    3    1   24 1     
    4    1   25 1     
    5    2    3 1     
    6    3   22 ar    
    7    3    4 ar    
    8    4    5 ar    
    9    4   26 1     
   10    5    6 ar    
   11    5   27 1     
   12    6    7 1     
   13    6    9 ar    
   14    7    8 1     
   15    8   28 1     
   16    8   29 1     
   17    8   30 1     
   18    9   10 1     
   19    9   22 ar    
   20   10   11 1     
   21   10   12 1     
   22   10   31 1     
   23   11   32 1     
   24   12   13 1     
   25   12   33 1     
   26   12   34 1     
   27   13   21 1     
   28   13   14 1     
   29   14   15 2     
   30   14   35 1     
   31   15   16 1     
   32   15   41 1     
   33   16   21 ar    
   34   16   17 ar    
   35   17   18 ar    
   36   17   36 1     
   37   18   19 ar    
   38   18   37 1     
   39   19   20 ar    
   40   19   38 1     
   41   20   21 ar    
   42   20   39 1     
   43   22   40 1     
   44    2   42 1     
   45    2   43 1     
   46    7   44 1     
   47    7   45 1     
   48   11   46 1     
   49   11   47 1     
@<TRIPOS>SUBSTRUCTURE
      1 S1             1
@<TRIPOS>SET
LONE_PAIRS      STATIC     ATOMS    <user>   **** ""
6 42 43 44 45 46 47
DONOR_HYDROGENS      STATIC     ATOMS    <user>   **** ""
2 32 41
ATOM$BLUE        STATIC     ATOMS    COLORGROUP SYSTEM
6 42 43 44 45 46 47
ATOM$RED        STATIC     ATOMS    COLORGROUP SYSTEM
2 32 41
