AV-unprocessed.smi:235|AV-procd|sdf|1807|dock9
  -GOLD-   2262020383D 1   1.00000     0.00000
 Structure written by MMmdl.
 54 58  0  0  0  0  0  0  0  0  1 V2000
  146.0025  132.2995  153.6818 O   0  0  0  0  0  0  0  0  0  0  0  0
  146.9791  132.2304  152.9343 C   0  0  0  0  0  0  0  0  0  0  0  0
  146.8977  131.8812  151.6421 N   0  0  0  0  0  0  0  0  0  0  0  0
  145.6972  131.5524  150.9449 C   0  0  0  0  0  0  0  0  0  0  0  0
  145.4126  132.2880  149.6528 C   0  0  0  0  0  0  0  0  0  0  0  0
  144.6105  132.6041  150.8852 C   0  0  0  0  0  0  0  0  0  0  0  0
  148.3884  132.5355  153.4614 C   0  0  2  0  0  0  0  0  0  0  0  0
  149.2531  131.2727  153.5654 C   0  0  0  0  0  0  0  0  0  0  0  0
  150.2919  131.6578  154.6115 C   0  0  0  0  0  0  0  0  0  0  0  0
  149.4969  132.5301  155.5836 C   0  0  0  0  0  0  0  0  0  0  0  0
  148.3657  133.0613  154.8280 N   0  0  0  0  0  0  0  0  0  0  0  0
  148.1611  134.3928  154.9342 C   0  0  0  0  0  0  0  0  0  0  0  0
  146.9687  134.8739  154.5063 N   0  0  0  0  0  0  0  0  0  0  0  0
  146.7147  136.1845  154.5757 C   0  0  0  0  0  0  0  0  0  0  0  0
  147.5000  137.1654  155.0278 N   0  0  0  0  0  0  0  0  0  0  0  0
  148.6999  136.6804  155.4584 C   0  0  0  0  0  0  0  0  0  0  0  0
  149.1110  135.3187  155.4495 C   0  0  0  0  0  0  0  0  0  0  0  0
  150.3977  135.2062  155.9629 N   0  0  0  0  0  0  0  0  0  0  0  0
  150.7282  136.4337  156.2604 C   0  0  0  0  0  0  0  0  0  0  0  0
  149.7671  137.3813  155.9894 N   0  0  0  0  0  0  0  0  0  0  0  0
  149.8630  138.8115  156.2182 C   0  0  0  0  0  0  0  0  0  0  0  0
  151.2206  139.3850  155.7690 C   0  0  1  0  0  0  0  0  0  0  0  0
  151.2580  139.5348  154.3620 O   0  0  0  0  0  0  0  0  0  0  0  0
  151.5639  140.7200  156.4596 C   0  0  1  0  0  0  0  0  0  0  0  0
  150.5296  141.8487  156.3043 C   0  0  0  0  0  0  0  0  0  0  0  0
  150.2595  142.2937  157.7323 C   0  0  0  0  0  0  0  0  0  0  0  0
  151.4772  141.7810  158.4912 C   0  0  0  0  0  0  0  0  0  0  0  0
  151.7442  140.5399  157.8604 O   0  0  0  0  0  0  0  0  0  0  0  0
  147.7548  131.8481  151.1093 H   0  0  0  0  0  0  0  0  0  0  0  0
  145.3592  130.5181  150.9898 H   0  0  0  0  0  0  0  0  0  0  0  0
  146.1339  133.0318  149.3196 H   0  0  0  0  0  0  0  0  0  0  0  0
  144.9155  131.7340  148.8589 H   0  0  0  0  0  0  0  0  0  0  0  0
  143.5786  132.2602  150.9151 H   0  0  0  0  0  0  0  0  0  0  0  0
  144.7973  133.5574  151.3764 H   0  0  0  0  0  0  0  0  0  0  0  0
  148.8805  133.2464  152.7945 H   0  0  0  0  0  0  0  0  0  0  0  0
  148.6688  130.4228  153.9233 H   0  0  0  0  0  0  0  0  0  0  0  0
  149.7054  130.9934  152.6133 H   0  0  0  0  0  0  0  0  0  0  0  0
  150.7542  130.7959  155.0934 H   0  0  0  0  0  0  0  0  0  0  0  0
  151.0807  132.2493  154.1447 H   0  0  0  0  0  0  0  0  0  0  0  0
  149.0980  131.9207  156.3951 H   0  0  0  0  0  0  0  0  0  0  0  0
  150.1264  133.2987  156.0355 H   0  0  0  0  0  0  0  0  0  0  0  0
  145.7433  136.4907  154.2163 H   0  0  0  0  0  0  0  0  0  0  0  0
  151.6872  136.6827  156.6910 H   0  0  0  0  0  0  0  0  0  0  0  0
  149.0433  139.3034  155.6929 H   0  0  0  0  0  0  0  0  0  0  0  0
  149.7084  138.9972  157.2817 H   0  0  0  0  0  0  0  0  0  0  0  0
  152.0007  138.6670  156.0256 H   0  0  0  0  0  0  0  0  0  0  0  0
  152.0282  139.0942  154.0367 H   0  0  0  0  0  0  0  0  0  0  0  0
  152.5168  141.0784  156.0663 H   0  0  0  0  0  0  0  0  0  0  0  0
  150.9542  142.6659  155.7196 H   0  0  0  0  0  0  0  0  0  0  0  0
  149.6118  141.5348  155.8066 H   0  0  0  0  0  0  0  0  0  0  0  0
  150.1224  143.3712  157.8262 H   0  0  0  0  0  0  0  0  0  0  0  0
  149.3603  141.8031  158.1072 H   0  0  0  0  0  0  0  0  0  0  0  0
  152.3294  142.4499  158.3618 H   0  0  0  0  0  0  0  0  0  0  0  0
  151.2902  141.6595  159.5584 H   0  0  0  0  0  0  0  0  0  0  0  0
  1  2  2  0  0  0  0
  2  3  1  0  0  0  0
  2  7  1  0  0  0  0
  3  4  1  0  0  0  0
  3 29  1  0  0  0  0
  4  6  1  0  0  0  0
  4  5  1  0  0  0  0
  4 30  1  0  0  0  0
  5  6  1  0  0  0  0
  5 31  1  0  0  0  0
  5 32  1  0  0  0  0
  6 33  1  0  0  0  0
  6 34  1  0  0  0  0
  7 11  1  0  0  0  0
  7  8  1  0  0  0  0
  7 35  1  0  0  0  0
  8  9  1  0  0  0  0
  8 36  1  0  0  0  0
  8 37  1  0  0  0  0
  9 10  1  0  0  0  0
  9 38  1  0  0  0  0
  9 39  1  0  0  0  0
 10 11  1  0  0  0  0
 10 40  1  0  0  0  0
 10 41  1  0  0  0  0
 11 12  1  0  0  0  0
 12 17  1  0  0  0  0
 12 13  2  0  0  0  0
 13 14  1  0  0  0  0
 14 15  2  0  0  0  0
 14 42  1  0  0  0  0
 15 16  1  0  0  0  0
 16 20  1  0  0  0  0
 16 17  2  0  0  0  0
 17 18  1  0  0  0  0
 18 19  2  0  0  0  0
 19 20  1  0  0  0  0
 19 43  1  0  0  0  0
 20 21  1  0  0  0  0
 21 22  1  0  0  0  0
 21 44  1  0  0  0  0
 21 45  1  0  0  0  0
 22 23  1  0  0  0  0
 22 24  1  0  0  0  0
 22 46  1  0  0  0  0
 23 47  1  0  0  0  0
 24 28  1  0  0  0  0
 24 25  1  0  0  0  0
 24 48  1  0  0  0  0
 25 26  1  0  0  0  0
 25 49  1  0  0  0  0
 25 50  1  0  0  0  0
 26 27  1  0  0  0  0
 26 51  1  0  0  0  0
 26 52  1  0  0  0  0
 27 28  1  0  0  0  0
 27 53  1  0  0  0  0
 27 54  1  0  0  0  0
M  END
> <s_m_source_file>
AV-unprocessed.smi

> <i_m_source_file_index>
235

> <i_lp_mmshare_version>
43012

> <i_f3d_flags>
0

> <s_epik_input>
W0NIMl0xW0NIMl1bQ0hdMVtOSF1DKD1PKVtDQEBIXTJbQ0gyXVtDSDJdW0NIMl1OMmMobltjSF1uMyljKGMzNCluW2NIXW40W0NIMl1bQ0BIXShbT0hdKVtDQEBIXTVbQ0gyXVtDSDJdW0NIMl1PNQ==

> <s_epik_cmdline>
J2VwaWtfcHl0aG9uJywgJy1waCcsICc3LjAnLCAnLXRuJywgJzgnLCAnLW1hJywgJzIwMCcsICctbWV0YWxfYmluZGluZycsICctaW1hZScsICc8aW5maWxlLm1hZT4nLCAnLW9tYWUnLCAnPG91dGZpbGUubWFlPic=

> <r_lp_tautomer_probability>
1

> <r_epik_Ionization_Penalty>
0.000526714

> <r_epik_Ionization_Penalty_Charging>
0

> <r_epik_Ionization_Penalty_Neutral>
0.000526714

> <r_epik_State_Penalty>
0.000272704

> <r_epik_Charging_Adjusted_Penalty>
0.000272704

> <i_epik_Tot_Q>
0

> <i_epik_Tot_abs_Q>
0

> <r_epik_Metal_State_Penalty>
-0

> <b_epik_Metal_Only>
0

> <s_lp_Force_Field>
OPLS_2005

> <r_lp_Energy>
60.9584

> <b_lp_Chiralities_Consistent>
1

> <s_lp_Variant>
AV-unprocessed.smi:235-7

> <Gold.Version>
5.8.1

> <Gold.Id.Protein>
6NUR|6NUR_protein|mol2

> <Gold.PLP.Fitness>
41.6746

> <Gold.PLP.PLP>
-37.0801

> <Gold.PLP.part.hbond>
-2.0000

> <Gold.PLP.part.metal>
0.0000

> <Gold.PLP.part.buried>
-6.1011

> <Gold.PLP.part.nonpolar>
-29.3844

> <Gold.PLP.part.repulsive>
0.3862

> <Gold.PLP.ligand.clash>
0.0000

> <Gold.PLP.ligand.torsion>
0.8235

> <Gold.PLP.Chemscore.Hbond>
2.0000

> <Gold.PLP.Chemscore.CHOScore>
0.0000

> <Gold.PLP.Chemscore.Metal>
0.0000

> <Gold.Chemscore.Hbonds>
donor molecule, donor type, donor heavy atom, donor atom, acceptor molecule, acceptor atom, score
      L1  H     3    29       P1 10747  0.98
      P1  H  7989  7998       L1    23  0.50

> <Gold.PLP.Chemscore.Internal.Correction>
0.2416

> <Gold.Rescore>
     Score         DG    S(hbond)    S(metal)    S(lipo)     H(rot)  DE(clash)    DE(int)     intcor
     10.46     -14.82       1.89        0.00      91.58       3.00       0.04       4.33       ----

> <Gold.Chemscore.Fitness>
10.4562

> <Gold.Chemscore.DG>
-14.8245

> <Gold.Chemscore.ZeroCoef>
-5.4800

> <Gold.Chemscore.Hbond>
1.8883

> <Gold.Chemscore.Metal>
0.0000

> <Gold.Chemscore.Lipo>
91.5783

> <Gold.Chemscore.Internal_Hbond>
0.0000

> <Gold.Chemscore.DEClash>
0.0358

> <Gold.Chemscore.DEInternal>
4.3324

> <Gold.Chemscore.Rot>
2.9989

> <Gold.Chemscore.Internal.Correction>
   9.000000E+99

> <Gold.Chemscore.Hbonds>
donor molecule, donor type, donor heavy atom, donor atom, acceptor molecule, acceptor atom, score
      L1  H     3    29       P1 10747  0.92
      P1  H  7989  7998       L1    23  0.02

> <Gold.Chemscore.Hbond.Weighted>
-6.3070

> <Gold.Chemscore.Metal.Weighted>
-0.0000

> <Gold.Chemscore.Lipo.Weighted>
-10.7147

> <Gold.Chemscore.Internal_Hbond.Weighted>
0.0000

> <Gold.Chemscore.DEClash.Weighted>
0.0358

> <Gold.Chemscore.DEInternal.Weighted>
4.3324

> <Gold.Chemscore.Rot.Weighted>
7.6772

> <Gold.Chemscore.Internal.Correction.Weighted>
   9.000000E+99

> <Gold.Protein.RotatedTorsions>
[ 6907 6896 6895 6894 ] final  143.82 input  -60.11 | X-H torsion
[ 7974 7965 7964 7962 ] final   44.45 input  175.53 | X-H torsion
[ 8008 7997 7996 7995 ] final -169.91 input   59.86 | X-H torsion
[ 10167 10162 10161 10158 ] final -161.17 input  -65.29 | X-H torsion
[ 10718 10713 10712 10709 ] final  176.19 input   66.30 | X-H torsion
[ 10763 10752 10751 10750 ] final    0.14 input  -60.55 | X-H torsion
[ 11005 11000 10999 10996 ] final    4.14 input  -57.11 | X-H torsion

> <Gold.Protein.ActiveResidues>
 VAL166  LYS551  ARG553  GLY616  TRP617  ASP618  TYR619  PRO620  LYS621  CYS622 
 ASP623  PHE694  ASN695  SER759  ASP760  ASP761  ALA762  ILE779  LEU786  VAL792 
 PHE793  MET794  SER795  GLU796  ALA797  LYS798  CYS799  TRP800  GLU811  SER814 

> <Gold.Protein.RotatedAtoms>
  152.2015  133.4844  159.5060 H   0  0  0  0  0  0  0  0  0  0  0  0  # atno 6907 bound_to 6896
  150.6970  134.1584  159.4176 H   0  0  0  0  0  0  0  0  0  0  0  0  # atno 6908 bound_to 6896
  151.9502  135.0172  160.0592 H   0  0  0  0  0  0  0  0  0  0  0  0  # atno 6909 bound_to 6896
  146.0567  139.5073  142.9684 H   0  0  0  0  0  0  0  0  0  0  0  0  # atno 7974 bound_to 7965
  155.9113  140.1058  157.1277 H   0  0  0  0  0  0  0  0  0  0  0  0  # atno 8008 bound_to 7997
  154.4040  140.1274  156.4626 H   0  0  0  0  0  0  0  0  0  0  0  0  # atno 8009 bound_to 7997
  155.7307  140.3468  155.5060 H   0  0  0  0  0  0  0  0  0  0  0  0  # atno 8010 bound_to 7997
  139.6485  144.0128  152.2144 H   0  0  0  0  0  0  0  0  0  0  0  0  # atno 10167 bound_to 10162
  156.9237  130.9949  151.3000 H   0  0  0  0  0  0  0  0  0  0  0  0  # atno 10718 bound_to 10713
  153.3244  135.6971  153.7002 H   0  0  0  0  0  0  0  0  0  0  0  0  # atno 10763 bound_to 10752
  153.5829  135.3494  155.2882 H   0  0  0  0  0  0  0  0  0  0  0  0  # atno 10764 bound_to 10752
  154.8605  135.4299  154.2417 H   0  0  0  0  0  0  0  0  0  0  0  0  # atno 10765 bound_to 10752
  140.5852  133.9975  155.8065 H   0  0  0  0  0  0  0  0  0  0  0  0  # atno 11005 bound_to 11000
  145.6631  141.0235  143.1698 LP  0  0  0  0  0  0  0  0  0  0  0  0  # atno 17320 bound_to 7965
  144.7152  139.8223  143.7401 LP  0  0  0  0  0  0  0  0  0  0  0  0  # atno 17321 bound_to 7965
  139.9836  144.6411  150.7878 LP  0  0  0  0  0  0  0  0  0  0  0  0  # atno 17342 bound_to 10162
  140.7526  143.2993  151.3121 LP  0  0  0  0  0  0  0  0  0  0  0  0  # atno 17343 bound_to 10162
  157.5891  130.8431  149.8633 LP  0  0  0  0  0  0  0  0  0  0  0  0  # atno 17370 bound_to 10713
  156.0479  130.3724  150.1273 LP  0  0  0  0  0  0  0  0  0  0  0  0  # atno 17371 bound_to 10713
  141.0970  133.9827  157.3143 LP  0  0  0  0  0  0  0  0  0  0  0  0  # atno 17394 bound_to 11000
  139.9299  135.0200  156.8363 LP  0  0  0  0  0  0  0  0  0  0  0  0  # atno 17395 bound_to 11000

$$$$
