AV-unprocessed.smi:992|AV-procd|sdf|4333|dock3
  -GOLD-   22720 2233D 1   1.00000     0.00000
 Structure written by MMmdl.
 33 34  0  0  0  0  0  0  0  0  2 V2000
  152.0640  145.5227  158.9681 C   0  0  0  0  0  0  0  0  0  0  0  0
  151.7002  144.0426  159.1262 C   0  0  1  0  0  0  0  0  0  0  0  0
  151.3562  143.3827  157.7772 C   0  0  0  0  0  0  0  0  0  0  0  0
  151.1113  141.9589  157.9649 N   0  0  0  0  0  0  0  0  0  0  0  0
  150.6926  141.3146  156.7935 C   0  0  0  0  0  0  0  0  0  0  0  0
  151.1941  140.0606  156.3718 C   0  0  0  0  0  0  0  0  0  0  0  0
  150.7121  139.4904  155.1756 C   0  0  0  0  0  0  0  0  0  0  0  0
  149.7396  140.1818  154.4232 C   0  0  0  0  0  0  0  0  0  0  0  0
  149.2457  139.6417  153.2375 N   0  0  0  0  0  0  0  0  0  0  0  0
  149.2743  141.4288  154.8886 C   0  0  0  0  0  0  0  0  0  0  0  0
  149.7616  141.9412  156.0399 N   0  3  0  0  0  0  0  0  0  0  0  0
  152.2219  141.2856  158.6257 C   0  0  0  0  0  0  0  0  0  0  0  0
  152.5473  141.9868  159.9582 C   0  0  1  0  0  0  0  0  0  0  0  0
  153.7722  141.3766  160.6476 C   0  0  0  0  0  0  0  0  0  0  0  0
  152.8142  143.3642  159.7030 O   0  0  0  0  0  0  0  0  0  0  0  0
  151.2358  146.0865  158.5381 H   0  0  0  0  0  0  0  0  0  0  0  0
  152.9297  145.6499  158.3173 H   0  0  0  0  0  0  0  0  0  0  0  0
  152.3041  145.9703  159.9330 H   0  0  0  0  0  0  0  0  0  0  0  0
  150.8461  143.9656  159.8017 H   0  0  0  0  0  0  0  0  0  0  0  0
  150.4731  143.8537  157.3437 H   0  0  0  0  0  0  0  0  0  0  0  0
  152.1771  143.5254  157.0729 H   0  0  0  0  0  0  0  0  0  0  0  0
  151.9393  139.5383  156.9538 H   0  0  0  0  0  0  0  0  0  0  0  0
  151.0873  138.5335  154.8430 H   0  0  0  0  0  0  0  0  0  0  0  0
  149.5670  138.7499  152.8880 H   0  0  0  0  0  0  0  0  0  0  0  0
  148.5490  140.1221  152.6856 H   0  0  0  0  0  0  0  0  0  0  0  0
  148.5331  142.0297  154.3813 H   0  0  0  0  0  0  0  0  0  0  0  0
  151.9641  140.2408  158.8046 H   0  0  0  0  0  0  0  0  0  0  0  0
  153.0985  141.2956  157.9764 H   0  0  0  0  0  0  0  0  0  0  0  0
  151.6938  141.9074  160.6339 H   0  0  0  0  0  0  0  0  0  0  0  0
  153.6109  140.3222  160.8732 H   0  0  0  0  0  0  0  0  0  0  0  0
  153.9858  141.8874  161.5870 H   0  0  0  0  0  0  0  0  0  0  0  0
  154.6594  141.4526  160.0181 H   0  0  0  0  0  0  0  0  0  0  0  0
  149.4090  142.8451  156.3555 H   0  0  0  0  0  0  0  0  0  0  0  0
  1  2  1  0  0  0  0
  1 16  1  0  0  0  0
  1 17  1  0  0  0  0
  1 18  1  0  0  0  0
  2 15  1  0  0  0  0
  2  3  1  0  0  0  0
  2 19  1  0  0  0  0
  3  4  1  0  0  0  0
  3 20  1  0  0  0  0
  3 21  1  0  0  0  0
  4  5  1  0  0  0  0
  4 12  1  0  0  0  0
  5 11  1  0  0  0  0
  5  6  2  0  0  0  0
  6  7  1  0  0  0  0
  6 22  1  0  0  0  0
  7  8  2  0  0  0  0
  7 23  1  0  0  0  0
  8  9  1  0  0  0  0
  8 10  1  0  0  0  0
  9 24  1  0  0  0  0
  9 25  1  0  0  0  0
 10 11  2  0  0  0  0
 10 26  1  0  0  0  0
 11 33  1  0  0  0  0
 12 13  1  0  0  0  0
 12 27  1  0  0  0  0
 12 28  1  0  0  0  0
 13 14  1  0  0  0  0
 13 15  1  0  0  0  0
 13 29  1  0  0  0  0
 14 30  1  0  0  0  0
 14 31  1  0  0  0  0
 14 32  1  0  0  0  0
M  CHG  1  11   1
M  END
> <s_m_source_file>
AV-unprocessed.smi

> <i_m_source_file_index>
992

> <i_lp_mmshare_version>
43012

> <i_f3d_flags>
0

> <s_epik_input>
W0NIM11bQ0BASF0xW0NIMl1OKFtDSDJdW0NASF0oTzEpW0NIM10pYzJbY0hdW2NIXWMoW05IMl0pW2NIXW4y

> <s_epik_cmdline>
J2VwaWtfcHl0aG9uJywgJy1waCcsICc3LjAnLCAnLXRuJywgJzgnLCAnLW1hJywgJzIwMCcsICctbWV0YWxfYmluZGluZycsICctaW1hZScsICc8aW5maWxlLm1hZT4nLCAnLW9tYWUnLCAnPG91dGZpbGUubWFlPic=

> <r_lp_tautomer_probability>
0.999846

> <r_epik_Ionization_Penalty>
2.28753

> <r_epik_Ionization_Penalty_Charging>
2.28753

> <r_epik_Ionization_Penalty_Neutral>
1.09395e-07

> <r_epik_State_Penalty>
2.43729

> <r_epik_Charging_Adjusted_Penalty>
4.72482

> <i_epik_Tot_Q>
1

> <i_epik_Tot_abs_Q>
1

> <r_epik_Metal_State_Penalty>
6.52028

> <b_epik_Metal_Only>
0

> <s_lp_Force_Field>
OPLS_2005

> <r_lp_Energy>
24.8857

> <b_lp_Chiralities_Consistent>
1

> <s_lp_Variant>
AV-unprocessed.smi:992-5

> <Gold.Version>
5.8.1

> <Gold.Id.Protein>
6NUR|6NUR_protein|mol2

> <Gold.PLP.Fitness>
39.6473

> <Gold.PLP.PLP>
-34.5845

> <Gold.PLP.part.hbond>
-0.4309

> <Gold.PLP.part.metal>
0.0000

> <Gold.PLP.part.buried>
-3.4911

> <Gold.PLP.part.nonpolar>
-29.6956

> <Gold.PLP.part.repulsive>
0.3068

> <Gold.PLP.ligand.clash>
0.0000

> <Gold.PLP.ligand.torsion>
0.2490

> <Gold.PLP.Chemscore.Hbond>
1.8240

> <Gold.PLP.Chemscore.CHOScore>
0.0000

> <Gold.PLP.Chemscore.Metal>
0.0000

> <Gold.Chemscore.Hbonds>
donor molecule, donor type, donor heavy atom, donor atom, acceptor molecule, acceptor atom, score
      L1  H    11    33       P1  8028  1.54

> <Gold.PLP.Chemscore.Internal.Correction>
0.0888

> <Gold.Rescore>
     Score         DG    S(hbond)    S(metal)    S(lipo)     H(rot)  DE(clash)    DE(int)     intcor
     16.39     -16.99       0.96        0.00      92.74       1.00       0.36       0.24       ----

> <Gold.Chemscore.Fitness>
16.3932

> <Gold.Chemscore.DG>
-16.9863

> <Gold.Chemscore.ZeroCoef>
-5.4800

> <Gold.Chemscore.Hbond>
0.9628

> <Gold.Chemscore.Metal>
0.0000

> <Gold.Chemscore.Lipo>
92.7405

> <Gold.Chemscore.Internal_Hbond>
0.0000

> <Gold.Chemscore.DEClash>
0.3568

> <Gold.Chemscore.DEInternal>
0.2363

> <Gold.Chemscore.Rot>
1.0000

> <Gold.Chemscore.Internal.Correction>
   9.000000E+99

> <Gold.Chemscore.Hbonds>
donor molecule, donor type, donor heavy atom, donor atom, acceptor molecule, acceptor atom, score
      L1  H     9    25       P1  7957  0.01
      L1  H    11    33       P1  8028  0.72

> <Gold.Chemscore.Hbond.Weighted>
-3.2157

> <Gold.Chemscore.Metal.Weighted>
-0.0000

> <Gold.Chemscore.Lipo.Weighted>
-10.8506

> <Gold.Chemscore.Internal_Hbond.Weighted>
0.0000

> <Gold.Chemscore.DEClash.Weighted>
0.3568

> <Gold.Chemscore.DEInternal.Weighted>
0.2363

> <Gold.Chemscore.Rot.Weighted>
2.5600

> <Gold.Chemscore.Internal.Correction.Weighted>
   9.000000E+99

> <Gold.Protein.RotatedTorsions>
[ 6907 6896 6895 6894 ] final  131.73 input  -60.11 | X-H torsion
[ 7974 7965 7964 7962 ] final  -75.37 input  175.53 | X-H torsion
[ 8008 7997 7996 7995 ] final  173.07 input   59.86 | X-H torsion
[ 10167 10162 10161 10158 ] final -173.29 input  -65.29 | X-H torsion
[ 10718 10713 10712 10709 ] final  -87.27 input   66.30 | X-H torsion
[ 10763 10752 10751 10750 ] final   52.74 input  -60.55 | X-H torsion
[ 11005 11000 10999 10996 ] final  178.96 input  -57.11 | X-H torsion

> <Gold.Protein.ActiveResidues>
 VAL166  LYS551  ARG553  GLY616  TRP617  ASP618  TYR619  PRO620  LYS621  CYS622 
 ASP623  PHE694  ASN695  SER759  ASP760  ASP761  ALA762  ILE779  LEU786  VAL792 
 PHE793  MET794  SER795  GLU796  ALA797  LYS798  CYS799  TRP800  GLU811  SER814 

> <Gold.Protein.RotatedAtoms>
  152.3396  133.6052  159.5867 H   0  0  0  0  0  0  0  0  0  0  0  0  # atno 6907 bound_to 6896
  150.7471  133.9742  159.3564 H   0  0  0  0  0  0  0  0  0  0  0  0  # atno 6908 bound_to 6896
  151.7607  135.0811  160.0396 H   0  0  0  0  0  0  0  0  0  0  0  0  # atno 6909 bound_to 6896
  145.6269  140.9348  143.1108 H   0  0  0  0  0  0  0  0  0  0  0  0  # atno 7974 bound_to 7965
  156.1112  140.1469  156.9336 H   0  0  0  0  0  0  0  0  0  0  0  0  # atno 8008 bound_to 7997
  154.4768  140.0892  156.7325 H   0  0  0  0  0  0  0  0  0  0  0  0  # atno 8009 bound_to 7997
  155.4593  140.3437  155.4313 H   0  0  0  0  0  0  0  0  0  0  0  0  # atno 8010 bound_to 7997
  139.5697  144.1672  152.1365 H   0  0  0  0  0  0  0  0  0  0  0  0  # atno 10167 bound_to 10162
  155.9986  130.4794  150.4841 H   0  0  0  0  0  0  0  0  0  0  0  0  # atno 10718 bound_to 10713
  152.9790  135.5802  154.4628 H   0  0  0  0  0  0  0  0  0  0  0  0  # atno 10763 bound_to 10752
  154.4202  135.2771  155.1982 H   0  0  0  0  0  0  0  0  0  0  0  0  # atno 10764 bound_to 10752
  154.3735  135.6162  153.5806 H   0  0  0  0  0  0  0  0  0  0  0  0  # atno 10765 bound_to 10752
  140.4009  134.6778  157.4561 H   0  0  0  0  0  0  0  0  0  0  0  0  # atno 11005 bound_to 11000
  144.7209  139.8035  143.7382 LP  0  0  0  0  0  0  0  0  0  0  0  0  # atno 17320 bound_to 7965
  146.1387  139.4439  143.0122 LP  0  0  0  0  0  0  0  0  0  0  0  0  # atno 17321 bound_to 7965
  140.1202  144.5380  150.6868 LP  0  0  0  0  0  0  0  0  0  0  0  0  # atno 17342 bound_to 10162
  140.6981  143.2417  151.4943 LP  0  0  0  0  0  0  0  0  0  0  0  0  # atno 17343 bound_to 10162
  157.2843  131.0613  151.2176 LP  0  0  0  0  0  0  0  0  0  0  0  0  # atno 17370 bound_to 10713
  157.3212  130.6938  149.6270 LP  0  0  0  0  0  0  0  0  0  0  0  0  # atno 17371 bound_to 10713
  140.0337  134.6368  155.9072 LP  0  0  0  0  0  0  0  0  0  0  0  0  # atno 17394 bound_to 11000
  141.1857  133.6555  156.5209 LP  0  0  0  0  0  0  0  0  0  0  0  0  # atno 17395 bound_to 11000

$$$$
