AV-unprocessed.smi:254|AV-procd|sdf|1948|dock5
  -GOLD-   2262021 83D 1   1.00000     0.00000
 Structure written by MMmdl.
 50 53  0  0  0  0  0  0  0  0  1 V2000
  146.3527  133.7831  162.8020 O   0  0  0  0  0  0  0  0  0  0  0  0
  146.5037  134.7908  162.1130 C   0  0  0  0  0  0  0  0  0  0  0  0
  147.6715  134.9765  161.1616 C   0  0  0  0  0  0  0  0  0  0  0  0
  147.3753  136.2868  160.5955 N   0  0  0  0  0  0  0  0  0  0  0  0
  148.1587  136.8877  159.6631 C   0  0  0  0  0  0  0  0  0  0  0  0
  149.4346  136.4427  159.5160 N   0  0  0  0  0  0  0  0  0  0  0  0
  150.2497  136.9983  158.6154 C   0  0  0  0  0  0  0  0  0  0  0  0
  149.9986  137.9972  157.7689 N   0  0  0  0  0  0  0  0  0  0  0  0
  148.7203  138.4501  157.9064 C   0  0  0  0  0  0  0  0  0  0  0  0
  147.7415  137.9605  158.8194 C   0  0  0  0  0  0  0  0  0  0  0  0
  146.5612  138.6806  158.6624 N   0  0  0  0  0  0  0  0  0  0  0  0
  146.8271  139.5418  157.7192 C   0  0  0  0  0  0  0  0  0  0  0  0
  148.0994  139.4660  157.2018 N   0  0  0  0  0  0  0  0  0  0  0  0
  148.6662  140.2958  156.1521 C   0  0  0  0  0  0  0  0  0  0  0  0
  149.2120  139.4871  154.9466 C   0  0  1  0  0  0  0  0  0  0  0  0
  149.1767  140.3303  153.6458 C   0  0  0  0  0  0  0  0  0  0  0  0
  147.8571  140.5524  153.1954 O   0  0  0  0  0  0  0  0  0  0  0  0
  150.6346  138.9450  155.2589 C   0  0  1  0  0  0  0  0  0  0  0  0
  151.3603  138.3317  154.0719 C   0  0  0  0  0  0  0  0  0  0  0  0
  152.8112  138.3204  154.5404 C   0  0  0  0  0  0  0  0  0  0  0  0
  152.9475  139.4469  155.3974 O   0  0  0  0  0  0  0  0  0  0  0  0
  151.6660  139.9973  155.6837 C   0  0  0  0  0  0  0  0  0  0  0  0
  146.1480  136.8617  161.1282 C   0  0  0  0  0  0  0  0  0  0  0  0
  145.6953  135.8560  162.0751 N   0  0  0  0  0  0  0  0  0  0  0  0
  144.4602  136.0431  162.8330 C   0  0  0  0  0  0  0  0  0  0  0  0
  143.3391  135.0936  162.3738 C   0  0  0  0  0  0  0  0  0  0  0  0
  142.2435  135.3401  163.0905 F   0  0  0  0  0  0  0  0  0  0  0  0
  143.0505  135.2742  161.0853 F   0  0  0  0  0  0  0  0  0  0  0  0
  143.6976  133.8245  162.5693 F   0  0  0  0  0  0  0  0  0  0  0  0
  148.6185  134.9754  161.7025 H   0  0  0  0  0  0  0  0  0  0  0  0
  147.6781  134.1987  160.3971 H   0  0  0  0  0  0  0  0  0  0  0  0
  151.2451  136.5820  158.5657 H   0  0  0  0  0  0  0  0  0  0  0  0
  146.0954  140.2554  157.3689 H   0  0  0  0  0  0  0  0  0  0  0  0
  147.9044  141.0006  155.8166 H   0  0  0  0  0  0  0  0  0  0  0  0
  149.4564  140.8898  156.6109 H   0  0  0  0  0  0  0  0  0  0  0  0
  148.5481  138.6326  154.8069 H   0  0  0  0  0  0  0  0  0  0  0  0
  149.6109  141.3177  153.7963 H   0  0  0  0  0  0  0  0  0  0  0  0
  149.7563  139.8497  152.8570 H   0  0  0  0  0  0  0  0  0  0  0  0
  147.8504  140.5116  152.2513 H   0  0  0  0  0  0  0  0  0  0  0  0
  150.5677  138.1908  156.0448 H   0  0  0  0  0  0  0  0  0  0  0  0
  151.0057  137.3331  153.8153 H   0  0  0  0  0  0  0  0  0  0  0  0
  151.2561  138.9686  153.1921 H   0  0  0  0  0  0  0  0  0  0  0  0
  153.0175  137.4188  155.1180 H   0  0  0  0  0  0  0  0  0  0  0  0
  153.5173  138.3609  153.7109 H   0  0  0  0  0  0  0  0  0  0  0  0
  151.5503  140.9104  155.0981 H   0  0  0  0  0  0  0  0  0  0  0  0
  151.5871  140.2586  156.7392 H   0  0  0  0  0  0  0  0  0  0  0  0
  146.3412  137.8072  161.6365 H   0  0  0  0  0  0  0  0  0  0  0  0
  145.4074  137.0115  160.3412 H   0  0  0  0  0  0  0  0  0  0  0  0
  144.6668  135.8802  163.8917 H   0  0  0  0  0  0  0  0  0  0  0  0
  144.1313  137.0798  162.7440 H   0  0  0  0  0  0  0  0  0  0  0  0
  1  2  2  0  0  0  0
  2 24  1  0  0  0  0
  2  3  1  0  0  0  0
  3  4  1  0  0  0  0
  3 30  1  0  0  0  0
  3 31  1  0  0  0  0
  4  5  1  0  0  0  0
  4 23  1  0  0  0  0
  5 10  1  0  0  0  0
  5  6  2  0  0  0  0
  6  7  1  0  0  0  0
  7  8  2  0  0  0  0
  7 32  1  0  0  0  0
  8  9  1  0  0  0  0
  9 13  1  0  0  0  0
  9 10  2  0  0  0  0
 10 11  1  0  0  0  0
 11 12  2  0  0  0  0
 12 13  1  0  0  0  0
 12 33  1  0  0  0  0
 13 14  1  0  0  0  0
 14 15  1  0  0  0  0
 14 34  1  0  0  0  0
 14 35  1  0  0  0  0
 15 16  1  0  0  0  0
 15 18  1  0  0  0  0
 15 36  1  0  0  0  0
 16 17  1  0  0  0  0
 16 37  1  0  0  0  0
 16 38  1  0  0  0  0
 17 39  1  0  0  0  0
 18 22  1  0  0  0  0
 18 19  1  0  0  0  0
 18 40  1  0  0  0  0
 19 20  1  0  0  0  0
 19 41  1  0  0  0  0
 19 42  1  0  0  0  0
 20 21  1  0  0  0  0
 20 43  1  0  0  0  0
 20 44  1  0  0  0  0
 21 22  1  0  0  0  0
 22 45  1  0  0  0  0
 22 46  1  0  0  0  0
 23 24  1  0  0  0  0
 23 47  1  0  0  0  0
 23 48  1  0  0  0  0
 24 25  1  0  0  0  0
 25 26  1  0  0  0  0
 25 49  1  0  0  0  0
 25 50  1  0  0  0  0
 26 27  1  0  0  0  0
 26 28  1  0  0  0  0
 26 29  1  0  0  0  0
M  END
> <s_m_source_file>
AV-unprocessed.smi

> <i_m_source_file_index>
254

> <i_lp_mmshare_version>
43012

> <i_f3d_flags>
0

> <s_epik_input>
RkMoRikoRilbQ0gyXU4xW0NIMl1OKFtDSDJdQzE9TyljKG5bY0hdbjIpYyhjMjMpbltjSF1uM1tDSDJdW0NASF0oW0NIMl1bT0hdKVtDQEBIXTRbQ0gyXVtDSDJdT1tDSDJdNA==

> <s_epik_cmdline>
J2VwaWtfcHl0aG9uJywgJy1waCcsICc3LjAnLCAnLXRuJywgJzgnLCAnLW1hJywgJzIwMCcsICctbWV0YWxfYmluZGluZycsICctaW1hZScsICc8aW5maWxlLm1hZT4nLCAnLW9tYWUnLCAnPG91dGZpbGUubWFlPic=

> <r_lp_tautomer_probability>
1

> <r_epik_Ionization_Penalty>
0.000292924

> <r_epik_Ionization_Penalty_Charging>
0

> <r_epik_Ionization_Penalty_Neutral>
0.000292924

> <r_epik_State_Penalty>
-0

> <r_epik_Charging_Adjusted_Penalty>
0

> <i_epik_Tot_Q>
0

> <i_epik_Tot_abs_Q>
0

> <r_epik_Metal_State_Penalty>
-0

> <b_epik_Metal_Only>
0

> <s_epik_Chemistry_Notes>
This compound contains an acetal/aminal-like group ( X-CH(R)-Y where X, Y are N, S, or O) that may be acid/base labile, releasing an aldehyde.

> <s_lp_Force_Field>
OPLS_2005

> <r_lp_Energy>
39.6801

> <b_lp_Chiralities_Consistent>
1

> <s_lp_Variant>
AV-unprocessed.smi:254-4

> <Gold.Version>
5.8.1

> <Gold.Id.Protein>
6NUR|6NUR_protein|mol2

> <Gold.PLP.Fitness>
44.5241

> <Gold.PLP.PLP>
-40.0537

> <Gold.PLP.part.hbond>
-4.4797

> <Gold.PLP.part.metal>
0.0000

> <Gold.PLP.part.buried>
-0.9082

> <Gold.PLP.part.nonpolar>
-35.3252

> <Gold.PLP.part.repulsive>
0.0224

> <Gold.PLP.ligand.clash>
0.0000

> <Gold.PLP.ligand.torsion>
0.6802

> <Gold.PLP.Chemscore.Hbond>
1.8644

> <Gold.PLP.Chemscore.CHOScore>
0.0000

> <Gold.PLP.Chemscore.Metal>
0.0000

> <Gold.Chemscore.Hbonds>
donor molecule, donor type, donor heavy atom, donor atom, acceptor molecule, acceptor atom, score
      L1  H    17    39       P1  7957  0.37
      P1  H  6896  6907       L1     6  0.35
      P1  H  7997  8010       L1    21  0.99

> <Gold.PLP.Chemscore.Internal.Correction>
0.2377

> <Gold.Rescore>
     Score         DG    S(hbond)    S(metal)    S(lipo)     H(rot)  DE(clash)    DE(int)     intcor
      4.60     -10.24       1.62        0.00      66.58       3.30       1.93       3.71       ----

> <Gold.Chemscore.Fitness>
4.5972

> <Gold.Chemscore.DG>
-10.2353

> <Gold.Chemscore.ZeroCoef>
-5.4800

> <Gold.Chemscore.Hbond>
1.6189

> <Gold.Chemscore.Metal>
0.0000

> <Gold.Chemscore.Lipo>
66.5770

> <Gold.Chemscore.Internal_Hbond>
0.0000

> <Gold.Chemscore.DEClash>
1.9301

> <Gold.Chemscore.DEInternal>
3.7081

> <Gold.Chemscore.Rot>
3.2974

> <Gold.Chemscore.Internal.Correction>
   9.000000E+99

> <Gold.Chemscore.Hbonds>
donor molecule, donor type, donor heavy atom, donor atom, acceptor molecule, acceptor atom, score
      L1  H    17    39       P1  7957  0.37
      P1  H  6896  6907       L1     6  0.01
      P1  H  7997  8010       L1    21  0.88

> <Gold.Chemscore.Hbond.Weighted>
-5.4073

> <Gold.Chemscore.Metal.Weighted>
-0.0000

> <Gold.Chemscore.Lipo.Weighted>
-7.7895

> <Gold.Chemscore.Internal_Hbond.Weighted>
0.0000

> <Gold.Chemscore.DEClash.Weighted>
1.9301

> <Gold.Chemscore.DEInternal.Weighted>
3.7081

> <Gold.Chemscore.Rot.Weighted>
8.4414

> <Gold.Chemscore.Internal.Correction.Weighted>
   9.000000E+99

> <Gold.Protein.RotatedTorsions>
[ 6907 6896 6895 6894 ] final  -52.86 input  -60.11 | X-H torsion
[ 7974 7965 7964 7962 ] final  -54.55 input  175.53 | X-H torsion
[ 8008 7997 7996 7995 ] final   74.35 input   59.86 | X-H torsion
[ 10167 10162 10161 10158 ] final  -66.66 input  -65.29 | X-H torsion
[ 10718 10713 10712 10709 ] final   43.29 input   66.30 | X-H torsion
[ 10763 10752 10751 10750 ] final -160.53 input  -60.55 | X-H torsion
[ 11005 11000 10999 10996 ] final  130.97 input  -57.11 | X-H torsion

> <Gold.Protein.ActiveResidues>
 VAL166  LYS551  ARG553  GLY616  TRP617  ASP618  TYR619  PRO620  LYS621  CYS622 
 ASP623  PHE694  ASN695  SER759  ASP760  ASP761  ALA762  ILE779  LEU786  VAL792 
 PHE793  MET794  SER795  GLU796  ALA797  LYS798  CYS799  TRP800  GLU811  SER814 

> <Gold.Protein.RotatedAtoms>
  150.8479  134.7795  159.6985 H   0  0  0  0  0  0  0  0  0  0  0  0  # atno 6907 bound_to 6896
  152.4551  134.5305  159.9819 H   0  0  0  0  0  0  0  0  0  0  0  0  # atno 6908 bound_to 6896
  151.5431  133.3391  159.2975 H   0  0  0  0  0  0  0  0  0  0  0  0  # atno 6909 bound_to 6896
  145.8843  140.8120  142.9824 H   0  0  0  0  0  0  0  0  0  0  0  0  # atno 7974 bound_to 7965
  155.7971  140.3477  155.5381 H   0  0  0  0  0  0  0  0  0  0  0  0  # atno 8008 bound_to 7997
  155.8576  140.0966  157.1655 H   0  0  0  0  0  0  0  0  0  0  0  0  # atno 8009 bound_to 7997
  154.4010  140.1364  156.3908 H   0  0  0  0  0  0  0  0  0  0  0  0  # atno 8010 bound_to 7997
  140.5641  143.2314  151.6670 H   0  0  0  0  0  0  0  0  0  0  0  0  # atno 10167 bound_to 10162
  157.4142  130.7932  149.7458 H   0  0  0  0  0  0  0  0  0  0  0  0  # atno 10718 bound_to 10713
  154.7383  135.3062  154.8773 H   0  0  0  0  0  0  0  0  0  0  0  0  # atno 10763 bound_to 10752
  153.9596  135.6754  153.4749 H   0  0  0  0  0  0  0  0  0  0  0  0  # atno 10764 bound_to 10752
  153.0983  135.4924  154.8744 H   0  0  0  0  0  0  0  0  0  0  0  0  # atno 10765 bound_to 10752
  139.9703  134.9579  156.9370 H   0  0  0  0  0  0  0  0  0  0  0  0  # atno 11005 bound_to 11000
  144.6728  140.1432  143.7435 LP  0  0  0  0  0  0  0  0  0  0  0  0  # atno 17320 bound_to 7965
  145.8986  139.2417  143.1507 LP  0  0  0  0  0  0  0  0  0  0  0  0  # atno 17321 bound_to 7965
  139.5084  144.3612  152.0560 LP  0  0  0  0  0  0  0  0  0  0  0  0  # atno 17342 bound_to 10162
  140.2742  144.3931  150.6141 LP  0  0  0  0  0  0  0  0  0  0  0  0  # atno 17343 bound_to 10162
  155.9860  130.3978  150.3234 LP  0  0  0  0  0  0  0  0  0  0  0  0  # atno 17370 bound_to 10713
  157.1375  131.0288  151.2942 LP  0  0  0  0  0  0  0  0  0  0  0  0  # atno 17371 bound_to 10713
  140.5308  134.0815  155.7315 LP  0  0  0  0  0  0  0  0  0  0  0  0  # atno 17394 bound_to 11000
  141.1382  133.9184  157.2385 LP  0  0  0  0  0  0  0  0  0  0  0  0  # atno 17395 bound_to 11000

$$$$
