AV-unprocessed.smi:1240|AV-procd|sdf|5202|dock1
  -GOLD-   22720 4293D 1   1.00000     0.00000
 Structure written by MMmdl.
 48 50  0  0  0  0  0  0  0  0  2 V2000
  144.6071  136.1908  153.1619 O   0  0  0  0  0  0  0  0  0  0  0  0
  145.7770  136.1659  152.7801 C   0  0  0  0  0  0  0  0  0  0  0  0
  146.6935  137.0635  153.1707 N   0  0  0  0  0  0  0  0  0  0  0  0
  146.4265  138.1869  154.0626 C   0  0  0  0  0  0  0  0  0  0  0  0
  147.5683  138.4640  155.0825 C   0  0  1  0  0  0  0  0  0  0  0  0
  148.0451  139.9437  155.1058 C   0  0  1  0  0  0  0  0  0  0  0  0
  149.4224  140.1401  155.7189 C   0  0  0  0  0  0  0  0  0  0  0  0
  149.8089  141.5270  155.2199 C   0  0  0  0  0  0  0  0  0  0  0  0
  149.2083  141.6489  153.9367 O   0  0  0  0  0  0  0  0  0  0  0  0
  148.2673  140.5994  153.7369 C   0  0  0  0  0  0  0  0  0  0  0  0
  147.1950  138.0300  156.4626 N   0  3  0  0  0  0  0  0  0  0  0  0
  148.3148  137.8889  157.4283 C   0  0  0  0  0  0  0  0  0  0  0  0
  147.8010  137.2756  158.7415 C   0  0  0  0  0  0  0  0  0  0  0  0
  146.7603  138.0883  159.2710 O   0  0  0  0  0  0  0  0  0  0  0  0
  145.6456  138.1725  158.3908 C   0  0  0  0  0  0  0  0  0  0  0  0
  146.0820  138.8086  157.0601 C   0  0  0  0  0  0  0  0  0  0  0  0
  146.3130  135.2501  151.9545 N   0  0  0  0  0  0  0  0  0  0  0  0
  145.6839  134.1519  151.3053 C   0  0  0  0  0  0  0  0  0  0  0  0
  146.5163  133.1508  150.7630 C   0  0  0  0  0  0  0  0  0  0  0  0
  145.9234  132.0591  150.0979 C   0  0  0  0  0  0  0  0  0  0  0  0
  144.5899  131.9206  149.9430 N   0  0  0  0  0  0  0  0  0  0  0  0
  143.7945  132.8846  150.4525 C   0  0  0  0  0  0  0  0  0  0  0  0
  144.2845  134.0160  151.1354 C   0  0  0  0  0  0  0  0  0  0  0  0
  147.6351  136.9718  152.8178 H   0  0  0  0  0  0  0  0  0  0  0  0
  146.2613  139.0622  153.4342 H   0  0  0  0  0  0  0  0  0  0  0  0
  145.4820  137.9978  154.5735 H   0  0  0  0  0  0  0  0  0  0  0  0
  148.4336  137.8636  154.7978 H   0  0  0  0  0  0  0  0  0  0  0  0
  147.3316  140.5552  155.6600 H   0  0  0  0  0  0  0  0  0  0  0  0
  149.4247  140.0755  156.8074 H   0  0  0  0  0  0  0  0  0  0  0  0
  150.1216  139.3975  155.3314 H   0  0  0  0  0  0  0  0  0  0  0  0
  149.3945  142.2962  155.8725 H   0  0  0  0  0  0  0  0  0  0  0  0
  150.8890  141.6681  155.1717 H   0  0  0  0  0  0  0  0  0  0  0  0
  148.6977  139.8891  153.0297 H   0  0  0  0  0  0  0  0  0  0  0  0
  147.3458  140.9914  153.3061 H   0  0  0  0  0  0  0  0  0  0  0  0
  149.1002  137.2567  157.0152 H   0  0  0  0  0  0  0  0  0  0  0  0
  148.7591  138.8624  157.6381 H   0  0  0  0  0  0  0  0  0  0  0  0
  147.4414  136.2575  158.5832 H   0  0  0  0  0  0  0  0  0  0  0  0
  148.6096  137.2181  159.4706 H   0  0  0  0  0  0  0  0  0  0  0  0
  145.2199  137.1809  158.2285 H   0  0  0  0  0  0  0  0  0  0  0  0
  144.8701  138.7783  158.8603 H   0  0  0  0  0  0  0  0  0  0  0  0
  146.3916  139.8399  157.2304 H   0  0  0  0  0  0  0  0  0  0  0  0
  145.2336  138.8366  156.3755 H   0  0  0  0  0  0  0  0  0  0  0  0
  147.3065  135.3286  151.7938 H   0  0  0  0  0  0  0  0  0  0  0  0
  147.5909  133.2110  150.8550 H   0  0  0  0  0  0  0  0  0  0  0  0
  146.5381  131.2773  149.6770 H   0  0  0  0  0  0  0  0  0  0  0  0
  142.7323  132.7543  150.3065 H   0  0  0  0  0  0  0  0  0  0  0  0
  143.5818  134.7502  151.4964 H   0  0  0  0  0  0  0  0  0  0  0  0
  146.8208  137.0993  156.3434 H   0  0  0  0  0  0  0  0  0  0  0  0
  1  2  2  0  0  0  0
  2  3  1  0  0  0  0
  2 17  1  0  0  0  0
  3  4  1  0  0  0  0
  3 24  1  0  0  0  0
  4  5  1  0  0  0  0
  4 25  1  0  0  0  0
  4 26  1  0  0  0  0
  5  6  1  0  0  0  0
  5 11  1  0  0  0  0
  5 27  1  0  0  0  0
  6 10  1  0  0  0  0
  6  7  1  0  0  0  0
  6 28  1  0  0  0  0
  7  8  1  0  0  0  0
  7 29  1  0  0  0  0
  7 30  1  0  0  0  0
  8  9  1  0  0  0  0
  8 31  1  0  0  0  0
  8 32  1  0  0  0  0
  9 10  1  0  0  0  0
 10 33  1  0  0  0  0
 10 34  1  0  0  0  0
 11 16  1  0  0  0  0
 11 12  1  0  0  0  0
 11 48  1  0  0  0  0
 12 13  1  0  0  0  0
 12 35  1  0  0  0  0
 12 36  1  0  0  0  0
 13 14  1  0  0  0  0
 13 37  1  0  0  0  0
 13 38  1  0  0  0  0
 14 15  1  0  0  0  0
 15 16  1  0  0  0  0
 15 39  1  0  0  0  0
 15 40  1  0  0  0  0
 16 41  1  0  0  0  0
 16 42  1  0  0  0  0
 17 18  1  0  0  0  0
 17 43  1  0  0  0  0
 18 23  1  0  0  0  0
 18 19  2  0  0  0  0
 19 20  1  0  0  0  0
 19 44  1  0  0  0  0
 20 21  2  0  0  0  0
 20 45  1  0  0  0  0
 21 22  1  0  0  0  0
 22 23  2  0  0  0  0
 22 46  1  0  0  0  0
 23 47  1  0  0  0  0
M  CHG  1  11   1
M  END
> <s_m_source_file>
AV-unprocessed.smi

> <i_m_source_file_index>
1240

> <i_lp_mmshare_version>
43012

> <i_f3d_flags>
0

> <s_epik_input>
W2NIXTFbY0hdbltjSF1bY0hdYzFbTkhdQyg9TylbTkhdW0NIMl1bQ0BIXShbQ0BASF0yW0NIMl1bQ0gyXU9bQ0gyXTIpTjNbQ0gyXVtDSDJdT1tDSDJdW0NIMl0z

> <s_epik_cmdline>
J2VwaWtfcHl0aG9uJywgJy1waCcsICc3LjAnLCAnLXRuJywgJzgnLCAnLW1hJywgJzIwMCcsICctbWV0YWxfYmluZGluZycsICctaW1hZScsICc8aW5maWxlLm1hZT4nLCAnLW9tYWUnLCAnPG91dGZpbGUubWFlPic=

> <r_epik_Ionization_Penalty>
1.08433

> <r_epik_Ionization_Penalty_Charging>
0.98326

> <r_epik_Ionization_Penalty_Neutral>
0.10107

> <r_epik_State_Penalty>
1.11265

> <r_epik_Charging_Adjusted_Penalty>
2.09591

> <i_epik_Tot_Q>
1

> <i_epik_Tot_abs_Q>
1

> <r_epik_Metal_State_Penalty>
1.10731

> <b_epik_Metal_Only>
0

> <s_lp_Force_Field>
OPLS_2005

> <r_lp_Energy>
42.1578

> <b_lp_Chiralities_Consistent>
1

> <s_lp_Variant>
AV-unprocessed.smi:1240-8

> <Gold.Version>
5.8.1

> <Gold.Id.Protein>
6NUR|6NUR_protein|mol2

> <Gold.PLP.Fitness>
42.4642

> <Gold.PLP.PLP>
-28.9388

> <Gold.PLP.part.hbond>
-5.2335

> <Gold.PLP.part.metal>
0.0000

> <Gold.PLP.part.buried>
-3.3777

> <Gold.PLP.part.nonpolar>
-20.7382

> <Gold.PLP.part.repulsive>
0.5087

> <Gold.PLP.ligand.clash>
0.0000

> <Gold.PLP.ligand.torsion>
1.1941

> <Gold.PLP.Chemscore.Hbond>
3.2640

> <Gold.PLP.Chemscore.CHOScore>
1.8908

> <Gold.PLP.Chemscore.Metal>
0.0000

> <Gold.Chemscore.Hbonds>
donor molecule, donor type, donor heavy atom, donor atom, acceptor molecule, acceptor atom, score
      L1  H     3    24       P1  7948  1.00
      L1  H    17    43       P1  7948  1.00
      P1  H  6934  6947       L1    14  0.62
      P1  H  8011  8017       L1     9  0.62
      L1  C    20    45       P1 10747  0.92
      L1  C    22    46       P1 10186  1.00

> <Gold.PLP.Chemscore.Internal.Correction>
0.4491

> <Gold.Rescore>
     Score         DG    S(hbond)    S(metal)    S(lipo)     H(rot)  DE(clash)    DE(int)     intcor
     17.98     -19.48       3.08        0.00      68.93       1.70       0.03       1.46       ----

> <Gold.Chemscore.Fitness>
17.9820

> <Gold.Chemscore.DG>
-19.4798

> <Gold.Chemscore.ZeroCoef>
-5.4800

> <Gold.Chemscore.Hbond>
3.0817

> <Gold.Chemscore.Metal>
0.0000

> <Gold.Chemscore.Lipo>
68.9262

> <Gold.Chemscore.Internal_Hbond>
0.0000

> <Gold.Chemscore.DEClash>
0.0335

> <Gold.Chemscore.DEInternal>
1.4643

> <Gold.Chemscore.Rot>
1.7021

> <Gold.Chemscore.Internal.Correction>
   9.000000E+99

> <Gold.Chemscore.Hbonds>
donor molecule, donor type, donor heavy atom, donor atom, acceptor molecule, acceptor atom, score
      L1  H     3    24       P1  7948  0.99
      L1  H    17    43       P1  7948  0.97
      P1  H  6934  6947       L1    14  0.57
      P1  H  8011  8017       L1     9  0.53

> <Gold.Chemscore.Hbond.Weighted>
-10.2929

> <Gold.Chemscore.Metal.Weighted>
-0.0000

> <Gold.Chemscore.Lipo.Weighted>
-8.0644

> <Gold.Chemscore.Internal_Hbond.Weighted>
0.0000

> <Gold.Chemscore.DEClash.Weighted>
0.0335

> <Gold.Chemscore.DEInternal.Weighted>
1.4643

> <Gold.Chemscore.Rot.Weighted>
4.3575

> <Gold.Chemscore.Internal.Correction.Weighted>
   9.000000E+99

> <Gold.Protein.RotatedTorsions>
[ 6907 6896 6895 6894 ] final -175.47 input  -60.11 | X-H torsion
[ 7974 7965 7964 7962 ] final  -61.17 input  175.53 | X-H torsion
[ 8008 7997 7996 7995 ] final   47.66 input   59.86 | X-H torsion
[ 10167 10162 10161 10158 ] final   73.06 input  -65.29 | X-H torsion
[ 10718 10713 10712 10709 ] final    6.77 input   66.30 | X-H torsion
[ 10763 10752 10751 10750 ] final   65.21 input  -60.55 | X-H torsion
[ 11005 11000 10999 10996 ] final -106.05 input  -57.11 | X-H torsion

> <Gold.Protein.ActiveResidues>
 VAL166  LYS551  ARG553  GLY616  TRP617  ASP618  TYR619  PRO620  LYS621  CYS622 
 ASP623  PHE694  ASN695  SER759  ASP760  ASP761  ALA762  ILE779  LEU786  VAL792 
 PHE793  MET794  SER795  GLU796  ALA797  LYS798  CYS799  TRP800  GLU811  SER814 

> <Gold.Protein.RotatedAtoms>
  151.5891  133.3368  159.3023 H   0  0  0  0  0  0  0  0  0  0  0  0  # atno 6907 bound_to 6896
  150.8270  134.7509  159.6832 H   0  0  0  0  0  0  0  0  0  0  0  0  # atno 6908 bound_to 6896
  152.4358  134.5695  159.9968 H   0  0  0  0  0  0  0  0  0  0  0  0  # atno 6909 bound_to 6896
  145.8067  140.8623  143.0203 H   0  0  0  0  0  0  0  0  0  0  0  0  # atno 7974 bound_to 7965
  155.3728  140.3424  155.4244 H   0  0  0  0  0  0  0  0  0  0  0  0  # atno 8008 bound_to 7997
  156.1653  140.1614  156.8576 H   0  0  0  0  0  0  0  0  0  0  0  0  # atno 8009 bound_to 7997
  154.5179  140.0774  156.8098 H   0  0  0  0  0  0  0  0  0  0  0  0  # atno 8010 bound_to 7997
  140.0286  144.5484  150.7525 H   0  0  0  0  0  0  0  0  0  0  0  0  # atno 10167 bound_to 10162
  156.9271  130.5812  149.5649 H   0  0  0  0  0  0  0  0  0  0  0  0  # atno 10718 bound_to 10713
  153.0087  135.5365  154.6631 H   0  0  0  0  0  0  0  0  0  0  0  0  # atno 10763 bound_to 10752
  154.5834  135.2852  155.0711 H   0  0  0  0  0  0  0  0  0  0  0  0  # atno 10764 bound_to 10752
  154.1832  135.6513  153.5092 H   0  0  0  0  0  0  0  0  0  0  0  0  # atno 10765 bound_to 10752
  141.1024  133.8860  157.1808 H   0  0  0  0  0  0  0  0  0  0  0  0  # atno 11005 bound_to 11000
  144.6762  140.0336  143.7482 LP  0  0  0  0  0  0  0  0  0  0  0  0  # atno 17320 bound_to 7965
  145.9821  139.2949  143.1036 LP  0  0  0  0  0  0  0  0  0  0  0  0  # atno 17321 bound_to 7965
  140.7312  143.2691  151.3945 LP  0  0  0  0  0  0  0  0  0  0  0  0  # atno 17342 bound_to 10162
  139.6091  144.1135  152.2280 LP  0  0  0  0  0  0  0  0  0  0  0  0  # atno 17343 bound_to 10162
  156.0464  130.5540  150.8890 LP  0  0  0  0  0  0  0  0  0  0  0  0  # atno 17370 bound_to 10713
  157.5870  131.0945  150.9180 LP  0  0  0  0  0  0  0  0  0  0  0  0  # atno 17371 bound_to 10713
  139.9880  135.0075  156.9909 LP  0  0  0  0  0  0  0  0  0  0  0  0  # atno 17394 bound_to 11000
  140.4989  134.1117  155.7246 LP  0  0  0  0  0  0  0  0  0  0  0  0  # atno 17395 bound_to 11000

$$$$
