AV-unprocessed.smi:1199|AV-procd|sdf|5018|dock9
  -GOLD-   22720 4 33D 1   1.00000     0.00000
 Structure written by MMmdl.
 41 42  0  0  0  0  0  0  0  0  1 V2000
  152.6288  138.9345  159.0773 C   0  0  0  0  0  0  0  0  0  0  0  0
  151.9846  137.5961  158.6932 C   0  0  2  0  0  0  0  0  0  0  0  0
  152.0480  137.3549  157.1681 C   0  0  0  0  0  0  0  0  0  0  0  0
  151.1490  138.1846  156.3635 N   0  0  0  0  0  0  0  0  0  0  0  0
  151.0013  137.7031  154.9927 C   0  0  0  0  0  0  0  0  0  0  0  0
  150.0286  138.5820  154.1882 C   0  0  0  0  0  0  0  0  0  0  0  0
  150.4831  139.9316  154.2026 O   0  0  0  0  0  0  0  0  0  0  0  0
  150.6136  140.4547  155.5208 C   0  0  0  0  0  0  0  0  0  0  0  0
  151.5815  139.5762  156.3331 C   0  0  0  0  0  0  0  0  0  0  0  0
  150.5912  137.5848  159.1359 N   0  0  0  0  0  0  0  0  0  0  0  0
  149.6794  136.6506  158.8237 C   0  0  0  0  0  0  0  0  0  0  0  0
  149.9482  135.6047  158.2317 O   0  0  0  0  0  0  0  0  0  0  0  0
  148.2329  136.9503  159.2337 C   0  0  0  0  0  0  0  0  0  0  0  0
  147.8886  136.3171  160.5146 N   0  0  0  0  0  0  0  0  0  0  0  0
  147.9227  137.1770  161.6017 N   0  0  0  0  0  0  0  0  0  0  0  0
  147.6748  136.7285  162.7855 C   0  0  0  0  0  0  0  0  0  0  0  0
  147.7244  137.6132  163.8345 O   0  0  0  0  0  0  0  0  0  0  0  0
  147.3547  135.3354  163.0071 C   0  0  0  0  0  0  0  0  0  0  0  0
  147.3146  134.5068  161.9407 C   0  0  0  0  0  0  0  0  0  0  0  0
  147.5855  134.9833  160.5834 C   0  0  0  0  0  0  0  0  0  0  0  0
  147.5476  134.2529  159.5932 O   0  0  0  0  0  0  0  0  0  0  0  0
  147.0200  137.3581  164.4103 H   0  0  0  0  0  0  0  0  0  0  0  0
  153.6736  138.9684  158.7676 H   0  0  0  0  0  0  0  0  0  0  0  0
  152.6003  139.0883  160.1565 H   0  0  0  0  0  0  0  0  0  0  0  0
  152.1156  139.7743  158.6071 H   0  0  0  0  0  0  0  0  0  0  0  0
  152.5510  136.8153  159.2020 H   0  0  0  0  0  0  0  0  0  0  0  0
  153.0738  137.5438  156.8482 H   0  0  0  0  0  0  0  0  0  0  0  0
  151.8615  136.3013  156.9559 H   0  0  0  0  0  0  0  0  0  0  0  0
  151.9734  137.6897  154.4978 H   0  0  0  0  0  0  0  0  0  0  0  0
  150.6342  136.6783  154.9845 H   0  0  0  0  0  0  0  0  0  0  0  0
  149.9683  138.2357  153.1566 H   0  0  0  0  0  0  0  0  0  0  0  0
  149.0219  138.5242  154.6059 H   0  0  0  0  0  0  0  0  0  0  0  0
  150.9858  141.4777  155.4638 H   0  0  0  0  0  0  0  0  0  0  0  0
  149.6344  140.4959  156.0003 H   0  0  0  0  0  0  0  0  0  0  0  0
  151.6510  139.9652  157.3496 H   0  0  0  0  0  0  0  0  0  0  0  0
  152.5820  139.6436  155.9029 H   0  0  0  0  0  0  0  0  0  0  0  0
  150.2710  138.4024  159.6340 H   0  0  0  0  0  0  0  0  0  0  0  0
  148.1149  138.0334  159.2960 H   0  0  0  0  0  0  0  0  0  0  0  0
  147.5396  136.6213  158.4570 H   0  0  0  0  0  0  0  0  0  0  0  0
  147.1538  134.9757  164.0056 H   0  0  0  0  0  0  0  0  0  0  0  0
  147.0779  133.4637  162.0918 H   0  0  0  0  0  0  0  0  0  0  0  0
  1  2  1  0  0  0  0
  1 23  1  0  0  0  0
  1 24  1  0  0  0  0
  1 25  1  0  0  0  0
  2  3  1  0  0  0  0
  2 10  1  0  0  0  0
  2 26  1  0  0  0  0
  3  4  1  0  0  0  0
  3 27  1  0  0  0  0
  3 28  1  0  0  0  0
  4  9  1  0  0  0  0
  4  5  1  0  0  0  0
  5  6  1  0  0  0  0
  5 29  1  0  0  0  0
  5 30  1  0  0  0  0
  6  7  1  0  0  0  0
  6 31  1  0  0  0  0
  6 32  1  0  0  0  0
  7  8  1  0  0  0  0
  8  9  1  0  0  0  0
  8 33  1  0  0  0  0
  8 34  1  0  0  0  0
  9 35  1  0  0  0  0
  9 36  1  0  0  0  0
 10 11  1  0  0  0  0
 10 37  1  0  0  0  0
 11 12  2  0  0  0  0
 11 13  1  0  0  0  0
 13 38  1  0  0  0  0
 13 39  1  0  0  0  0
 13 14  1  0  0  0  0
 14 15  1  0  0  0  0
 14 20  1  0  0  0  0
 15 16  2  0  0  0  0
 16 17  1  0  0  0  0
 16 18  1  0  0  0  0
 17 22  1  0  0  0  0
 18 40  1  0  0  0  0
 18 19  2  0  0  0  0
 19 41  1  0  0  0  0
 19 20  1  0  0  0  0
 20 21  2  0  0  0  0
M  END
> <s_m_source_file>
AV-unprocessed.smi

> <i_m_source_file_index>
1199

> <i_lp_mmshare_version>
43012

> <i_f3d_flags>
0

> <s_epik_input>
W0NIMl0xW0NIMl1PW0NIMl1bQ0gyXU4xW0NIMl1bQ0BASF0oW0NIM10pW05IXUMoPU8pW0NIMl1uMltuSF1jKD1PKVtjSF1bY0hdYzI9Tw==

> <s_epik_cmdline>
J2VwaWtfcHl0aG9uJywgJy1waCcsICc3LjAnLCAnLXRuJywgJzgnLCAnLW1hJywgJzIwMCcsICctbWV0YWxfYmluZGluZycsICctaW1hZScsICc8aW5maWxlLm1hZT4nLCAnLW9tYWUnLCAnPG91dGZpbGUubWFlPic=

> <r_epik_Ionization_Penalty>
2.36432

> <r_epik_Ionization_Penalty_Charging>
3.67277e-08

> <r_epik_Ionization_Penalty_Neutral>
2.36432

> <r_epik_State_Penalty>
1.96081

> <r_epik_Charging_Adjusted_Penalty>
1.96081

> <i_epik_Tot_Q>
0

> <i_epik_Tot_abs_Q>
0

> <r_epik_Metal_State_Penalty>
1.96081

> <b_epik_Metal_Only>
0

> <s_lp_Force_Field>
OPLS_2005

> <r_lp_Energy>
35.6953

> <b_lp_Chiralities_Consistent>
1

> <s_lp_Variant>
AV-unprocessed.smi:1199-5

> <Gold.Version>
5.8.1

> <Gold.Id.Protein>
6NUR|6NUR_protein|mol2

> <Gold.PLP.Fitness>
46.1066

> <Gold.PLP.PLP>
-37.2166

> <Gold.PLP.part.hbond>
-4.9251

> <Gold.PLP.part.metal>
0.0000

> <Gold.PLP.part.buried>
-3.4848

> <Gold.PLP.part.nonpolar>
-29.4067

> <Gold.PLP.part.repulsive>
0.3160

> <Gold.PLP.ligand.clash>
0.0000

> <Gold.PLP.ligand.torsion>
0.8478

> <Gold.PLP.Chemscore.Hbond>
3.5168

> <Gold.PLP.Chemscore.CHOScore>
0.0000

> <Gold.PLP.Chemscore.Metal>
0.0000

> <Gold.Chemscore.Hbonds>
donor molecule, donor type, donor heavy atom, donor atom, acceptor molecule, acceptor atom, score
      P1  H  6896  6909       L1    12  0.96
      P1  H  6931  6943       L1    15  1.00
      P1  H  6934  6947       L1    15  0.55
      P1  H  7989  7998       L1     7  0.90

> <Gold.PLP.Chemscore.Internal.Correction>
0.0352

> <Gold.Rescore>
     Score         DG    S(hbond)    S(metal)    S(lipo)     H(rot)  DE(clash)    DE(int)     intcor
     11.44     -14.56       2.84        0.00      61.06       2.94       0.34       2.78       ----

> <Gold.Chemscore.Fitness>
11.4397

> <Gold.Chemscore.DG>
-14.5602

> <Gold.Chemscore.ZeroCoef>
-5.4800

> <Gold.Chemscore.Hbond>
2.8361

> <Gold.Chemscore.Metal>
0.0000

> <Gold.Chemscore.Lipo>
61.0562

> <Gold.Chemscore.Internal_Hbond>
0.0000

> <Gold.Chemscore.DEClash>
0.3427

> <Gold.Chemscore.DEInternal>
2.7778

> <Gold.Chemscore.Rot>
2.9437

> <Gold.Chemscore.Internal.Correction>
   9.000000E+99

> <Gold.Chemscore.Hbonds>
donor molecule, donor type, donor heavy atom, donor atom, acceptor molecule, acceptor atom, score
      P1  H  6896  6909       L1    12  0.41
      P1  H  6931  6943       L1    15  0.29
      P1  H  6934  6947       L1    15  0.33
      P1  H  7989  7998       L1     7  0.18

> <Gold.Chemscore.Hbond.Weighted>
-9.4726

> <Gold.Chemscore.Metal.Weighted>
-0.0000

> <Gold.Chemscore.Lipo.Weighted>
-7.1436

> <Gold.Chemscore.Internal_Hbond.Weighted>
0.0000

> <Gold.Chemscore.DEClash.Weighted>
0.3427

> <Gold.Chemscore.DEInternal.Weighted>
2.7778

> <Gold.Chemscore.Rot.Weighted>
7.5359

> <Gold.Chemscore.Internal.Correction.Weighted>
   9.000000E+99

> <Gold.Protein.RotatedTorsions>
[ 6907 6896 6895 6894 ] final   47.09 input  -60.11 | X-H torsion
[ 7974 7965 7964 7962 ] final   71.81 input  175.53 | X-H torsion
[ 8008 7997 7996 7995 ] final -137.17 input   59.86 | X-H torsion
[ 10167 10162 10161 10158 ] final -134.54 input  -65.29 | X-H torsion
[ 10718 10713 10712 10709 ] final  158.89 input   66.30 | X-H torsion
[ 10763 10752 10751 10750 ] final  -40.36 input  -60.55 | X-H torsion
[ 11005 11000 10999 10996 ] final   23.30 input  -57.11 | X-H torsion

> <Gold.Protein.ActiveResidues>
 VAL166  LYS551  ARG553  GLY616  TRP617  ASP618  TYR619  PRO620  LYS621  CYS622 
 ASP623  PHE694  ASN695  SER759  ASP760  ASP761  ALA762  ILE779  LEU786  VAL792 
 PHE793  MET794  SER795  GLU796  ALA797  LYS798  CYS799  TRP800  GLU811  SER814 

> <Gold.Protein.RotatedAtoms>
  152.2640  134.8004  160.0425 H   0  0  0  0  0  0  0  0  0  0  0  0  # atno 6907 bound_to 6896
  151.8640  133.3457  159.3721 H   0  0  0  0  0  0  0  0  0  0  0  0  # atno 6908 bound_to 6896
  150.7127  134.5106  159.5649 H   0  0  0  0  0  0  0  0  0  0  0  0  # atno 6909 bound_to 6896
  145.7612  139.2801  143.1375 H   0  0  0  0  0  0  0  0  0  0  0  0  # atno 7974 bound_to 7965
  155.4074  140.0510  157.3033 H   0  0  0  0  0  0  0  0  0  0  0  0  # atno 8008 bound_to 7997
  154.4962  140.2139  155.9402 H   0  0  0  0  0  0  0  0  0  0  0  0  # atno 8009 bound_to 7997
  156.1408  140.3154  155.8498 H   0  0  0  0  0  0  0  0  0  0  0  0  # atno 8010 bound_to 7997
  139.8870  143.6769  152.2618 H   0  0  0  0  0  0  0  0  0  0  0  0  # atno 10167 bound_to 10162
  157.1716  131.0611  151.2179 H   0  0  0  0  0  0  0  0  0  0  0  0  # atno 10718 bound_to 10713
  153.9447  135.6757  153.4744 H   0  0  0  0  0  0  0  0  0  0  0  0  # atno 10763 bound_to 10752
  153.0914  135.4873  154.8694 H   0  0  0  0  0  0  0  0  0  0  0  0  # atno 10764 bound_to 10752
  154.7358  135.3149  154.8772 H   0  0  0  0  0  0  0  0  0  0  0  0  # atno 10765 bound_to 10752
  140.3712  134.2021  155.7667 H   0  0  0  0  0  0  0  0  0  0  0  0  # atno 11005 bound_to 11000
  146.0262  140.8301  142.9898 LP  0  0  0  0  0  0  0  0  0  0  0  0  # atno 17320 bound_to 7965
  144.6830  140.2701  143.7307 LP  0  0  0  0  0  0  0  0  0  0  0  0  # atno 17321 bound_to 7965
  139.7144  144.7614  151.1058 LP  0  0  0  0  0  0  0  0  0  0  0  0  # atno 17342 bound_to 10162
  140.7734  143.5288  150.9447 LP  0  0  0  0  0  0  0  0  0  0  0  0  # atno 17343 bound_to 10162
  157.4037  130.7347  149.6786 LP  0  0  0  0  0  0  0  0  0  0  0  0  # atno 17370 bound_to 10713
  155.9737  130.4114  150.3978 LP  0  0  0  0  0  0  0  0  0  0  0  0  # atno 17371 bound_to 10713
  141.1954  133.8106  157.0717 LP  0  0  0  0  0  0  0  0  0  0  0  0  # atno 17394 bound_to 11000
  140.0551  134.9785  157.1205 LP  0  0  0  0  0  0  0  0  0  0  0  0  # atno 17395 bound_to 11000

$$$$
