AV-unprocessed.smi:3032|AV-procd|sdf|11560|dock2
  -GOLD-   2272016523D 1   1.00000     0.00000
 Structure written by MMmdl.
 37 38  0  0  0  0  0  0  0  0  1 V2000
  153.6428  141.7933  160.7169 C   0  0  0  0  0  0  0  0  0  0  0  0
  152.4631  142.5020  160.0363 C   0  0  1  0  0  0  0  0  0  0  0  0
  152.5448  144.0287  160.2202 C   0  0  0  0  0  0  0  0  0  0  0  0
  151.3672  144.7438  159.5416 C   0  0  0  0  0  0  0  0  0  0  0  0
  151.2819  144.3875  158.0462 C   0  0  0  0  0  0  0  0  0  0  0  0
  151.2491  142.8654  157.7737 C   0  0  2  0  0  0  0  0  0  0  0  0
  149.8673  142.2378  158.0385 C   0  0  0  0  0  0  0  0  0  0  0  0
  149.7625  141.1518  158.6081 O   0  0  0  0  0  0  0  0  0  0  0  0
  148.8053  142.9386  157.6107 N   0  0  0  0  0  0  0  0  0  0  0  0
  147.4148  142.5178  157.7383 C   0  0  0  0  0  0  0  0  0  0  0  0
  146.7554  142.3239  156.3632 C   0  0  0  0  0  0  0  0  0  0  0  0
  147.6804  141.7080  155.3654 C   0  0  0  0  0  0  0  0  0  0  0  0
  148.8204  142.2935  154.9932 N   0  0  0  0  0  0  0  0  0  0  0  0
  149.4401  141.5203  154.0767 N   0  0  0  0  0  0  0  0  0  0  0  0
  148.5967  140.4964  153.9599 C   0  0  0  0  0  0  0  0  0  0  0  0
  147.4735  140.5559  154.7366 N   0  0  0  0  0  0  0  0  0  0  0  0
  152.3851  142.1428  158.5361 C   0  0  0  0  0  0  0  0  0  0  0  0
  149.1972  143.1721  155.3197 H   0  0  0  0  0  0  0  0  0  0  0  0
  154.5948  142.0981  160.2809 H   0  0  0  0  0  0  0  0  0  0  0  0
  153.5611  140.7108  160.6155 H   0  0  0  0  0  0  0  0  0  0  0  0
  153.6767  142.0221  161.7823 H   0  0  0  0  0  0  0  0  0  0  0  0
  151.5557  142.1516  160.5279 H   0  0  0  0  0  0  0  0  0  0  0  0
  152.5572  144.2765  161.2822 H   0  0  0  0  0  0  0  0  0  0  0  0
  153.4829  144.4007  159.8058 H   0  0  0  0  0  0  0  0  0  0  0  0
  150.4375  144.4844  160.0477 H   0  0  0  0  0  0  0  0  0  0  0  0
  151.4787  145.8225  159.6545 H   0  0  0  0  0  0  0  0  0  0  0  0
  150.4094  144.8702  157.6036 H   0  0  0  0  0  0  0  0  0  0  0  0
  152.1462  144.8146  157.5360 H   0  0  0  0  0  0  0  0  0  0  0  0
  151.4490  142.7328  156.7089 H   0  0  0  0  0  0  0  0  0  0  0  0
  148.9742  143.8247  157.1568 H   0  0  0  0  0  0  0  0  0  0  0  0
  147.3515  141.6012  158.3272 H   0  0  0  0  0  0  0  0  0  0  0  0
  146.8817  143.2853  158.2995 H   0  0  0  0  0  0  0  0  0  0  0  0
  145.8690  141.6954  156.4577 H   0  0  0  0  0  0  0  0  0  0  0  0
  146.4144  143.2821  155.9688 H   0  0  0  0  0  0  0  0  0  0  0  0
  148.7963  139.6743  153.2880 H   0  0  0  0  0  0  0  0  0  0  0  0
  153.3347  142.3952  158.0620 H   0  0  0  0  0  0  0  0  0  0  0  0
  152.2778  141.0627  158.4228 H   0  0  0  0  0  0  0  0  0  0  0  0
  1  2  1  0  0  0  0
  1 19  1  0  0  0  0
  1 20  1  0  0  0  0
  1 21  1  0  0  0  0
  2 17  1  0  0  0  0
  2  3  1  0  0  0  0
  2 22  1  0  0  0  0
  3  4  1  0  0  0  0
  3 23  1  0  0  0  0
  3 24  1  0  0  0  0
  4  5  1  0  0  0  0
  4 25  1  0  0  0  0
  4 26  1  0  0  0  0
  5  6  1  0  0  0  0
  5 27  1  0  0  0  0
  5 28  1  0  0  0  0
  6  7  1  0  0  0  0
  6 17  1  0  0  0  0
  6 29  1  0  0  0  0
  7  8  2  0  0  0  0
  7  9  1  0  0  0  0
  9 10  1  0  0  0  0
  9 30  1  0  0  0  0
 10 11  1  0  0  0  0
 10 31  1  0  0  0  0
 10 32  1  0  0  0  0
 11 33  1  0  0  0  0
 11 34  1  0  0  0  0
 11 12  1  0  0  0  0
 12 16  2  0  0  0  0
 12 13  1  0  0  0  0
 13 18  1  0  0  0  0
 13 14  1  0  0  0  0
 14 15  2  0  0  0  0
 15 16  1  0  0  0  0
 15 35  1  0  0  0  0
 17 36  1  0  0  0  0
 17 37  1  0  0  0  0
M  END
> <s_m_source_file>
AV-unprocessed.smi

> <i_m_source_file_index>
3032

> <i_lp_mmshare_version>
43012

> <i_f3d_flags>
0

> <s_epik_input>
W0NIM11bQ0BASF0xW0NIMl1bQ0gyXVtDSDJdW0NASF0oW0NIMl0xKUMoPU8pW05IXVtDSDJdW0NIMl1jMm5uW2NIXVtuSF0y

> <s_epik_cmdline>
J2VwaWtfcHl0aG9uJywgJy1waCcsICc3LjAnLCAnLXRuJywgJzgnLCAnLW1hJywgJzIwMCcsICctbWV0YWxfYmluZGluZycsICctaW1hZScsICc8aW5maWxlLm1hZT4nLCAnLW9tYWUnLCAnPG91dGZpbGUubWFlPic=

> <r_lp_tautomer_probability>
0.948284

> <r_epik_Ionization_Penalty>
0.000474052

> <r_epik_Ionization_Penalty_Charging>
0

> <r_epik_Ionization_Penalty_Neutral>
0.000474052

> <r_epik_State_Penalty>
0.271807

> <r_epik_Charging_Adjusted_Penalty>
0.271807

> <i_epik_Tot_Q>
0

> <i_epik_Tot_abs_Q>
0

> <r_epik_Metal_State_Penalty>
0.397201

> <b_epik_Metal_Only>
0

> <s_lp_Force_Field>
OPLS_2005

> <r_lp_Energy>
9.09743

> <b_lp_Chiralities_Consistent>
1

> <s_lp_Variant>
AV-unprocessed.smi:3032-4

> <Gold.Version>
5.8.1

> <Gold.Id.Protein>
6NUR|6NUR_protein|mol2

> <Gold.PLP.Fitness>
44.6182

> <Gold.PLP.PLP>
-35.1100

> <Gold.PLP.part.hbond>
-5.1104

> <Gold.PLP.part.metal>
0.0000

> <Gold.PLP.part.buried>
-1.2435

> <Gold.PLP.part.nonpolar>
-28.3518

> <Gold.PLP.part.repulsive>
0.5452

> <Gold.PLP.ligand.clash>
0.0000

> <Gold.PLP.ligand.torsion>
0.4742

> <Gold.PLP.Chemscore.Hbond>
2.7348

> <Gold.PLP.Chemscore.CHOScore>
0.7297

> <Gold.PLP.Chemscore.Metal>
0.0000

> <Gold.Chemscore.Hbonds>
donor molecule, donor type, donor heavy atom, donor atom, acceptor molecule, acceptor atom, score
      L1  H     9    30       P1  8028  0.90
      L1  H    13    18       P1  8028  0.91
      P1  H  7989  7998       L1    14  0.07
      P1  H  8011  8017       L1    14  0.64
      L1  C    15    35       P1  7957  0.83

> <Gold.PLP.Chemscore.Internal.Correction>
0.0631

> <Gold.Rescore>
     Score         DG    S(hbond)    S(metal)    S(lipo)     H(rot)  DE(clash)    DE(int)     intcor
     14.56     -17.16       2.31        0.00      82.97       2.25       0.58       2.02       ----

> <Gold.Chemscore.Fitness>
14.5605

> <Gold.Chemscore.DG>
-17.1563

> <Gold.Chemscore.ZeroCoef>
-5.4800

> <Gold.Chemscore.Hbond>
2.3140

> <Gold.Chemscore.Metal>
0.0000

> <Gold.Chemscore.Lipo>
82.9734

> <Gold.Chemscore.Internal_Hbond>
0.0000

> <Gold.Chemscore.DEClash>
0.5802

> <Gold.Chemscore.DEInternal>
2.0156

> <Gold.Chemscore.Rot>
2.2501

> <Gold.Chemscore.Internal.Correction>
   9.000000E+99

> <Gold.Chemscore.Hbonds>
donor molecule, donor type, donor heavy atom, donor atom, acceptor molecule, acceptor atom, score
      L1  H     9    30       P1  8028  0.20
      L1  H    13    18       P1  8028  0.87
      P1  H  7989  7998       L1    14  0.05
      P1  H  8011  8017       L1    14  0.47

> <Gold.Chemscore.Hbond.Weighted>
-7.7287

> <Gold.Chemscore.Metal.Weighted>
-0.0000

> <Gold.Chemscore.Lipo.Weighted>
-9.7079

> <Gold.Chemscore.Internal_Hbond.Weighted>
0.0000

> <Gold.Chemscore.DEClash.Weighted>
0.5802

> <Gold.Chemscore.DEInternal.Weighted>
2.0156

> <Gold.Chemscore.Rot.Weighted>
5.7603

> <Gold.Chemscore.Internal.Correction.Weighted>
   9.000000E+99

> <Gold.Protein.RotatedTorsions>
[ 6907 6896 6895 6894 ] final   12.37 input  -60.11 | X-H torsion
[ 7974 7965 7964 7962 ] final  -22.14 input  175.53 | X-H torsion
[ 8008 7997 7996 7995 ] final  -37.88 input   59.86 | X-H torsion
[ 10167 10162 10161 10158 ] final  164.17 input  -65.29 | X-H torsion
[ 10718 10713 10712 10709 ] final -110.35 input   66.30 | X-H torsion
[ 10763 10752 10751 10750 ] final  -63.97 input  -60.55 | X-H torsion
[ 11005 11000 10999 10996 ] final  -93.98 input  -57.11 | X-H torsion

> <Gold.Protein.ActiveResidues>
 VAL166  LYS551  ARG553  GLY616  TRP617  ASP618  TYR619  PRO620  LYS621  CYS622 
 ASP623  PHE694  ASN695  SER759  ASP760  ASP761  ALA762  ILE779  LEU786  VAL792 
 PHE793  MET794  SER795  GLU796  ALA797  LYS798  CYS799  TRP800  GLU811  SER814 

> <Gold.Protein.RotatedAtoms>
  151.7692  135.0791  160.0357 H   0  0  0  0  0  0  0  0  0  0  0  0  # atno 6907 bound_to 6896
  152.3300  133.5944  159.5812 H   0  0  0  0  0  0  0  0  0  0  0  0  # atno 6908 bound_to 6896
  150.7417  133.9798  159.3614 H   0  0  0  0  0  0  0  0  0  0  0  0  # atno 6909 bound_to 6896
  146.1693  140.4438  142.8539 H   0  0  0  0  0  0  0  0  0  0  0  0  # atno 7974 bound_to 7965
  154.4046  140.1592  156.2609 H   0  0  0  0  0  0  0  0  0  0  0  0  # atno 8008 bound_to 7997
  155.9037  140.3431  155.6023 H   0  0  0  0  0  0  0  0  0  0  0  0  # atno 8009 bound_to 7997
  155.7418  140.0793  157.2233 H   0  0  0  0  0  0  0  0  0  0  0  0  # atno 8010 bound_to 7997
  139.4884  144.4263  151.9125 H   0  0  0  0  0  0  0  0  0  0  0  0  # atno 10167 bound_to 10162
  156.0586  130.5811  150.8225 H   0  0  0  0  0  0  0  0  0  0  0  0  # atno 10718 bound_to 10713
  154.3231  135.6192  153.5517 H   0  0  0  0  0  0  0  0  0  0  0  0  # atno 10763 bound_to 10752
  152.9818  135.5729  154.5047 H   0  0  0  0  0  0  0  0  0  0  0  0  # atno 10764 bound_to 10752
  154.4719  135.2859  155.1613 H   0  0  0  0  0  0  0  0  0  0  0  0  # atno 10765 bound_to 10752
  141.1483  133.7924  157.0234 H   0  0  0  0  0  0  0  0  0  0  0  0  # atno 11005 bound_to 11000
  144.8139  140.6433  143.6397 LP  0  0  0  0  0  0  0  0  0  0  0  0  # atno 17320 bound_to 7965
  145.4384  139.1539  143.3984 LP  0  0  0  0  0  0  0  0  0  0  0  0  # atno 17321 bound_to 7965
  140.3709  144.2857  150.5920 LP  0  0  0  0  0  0  0  0  0  0  0  0  # atno 17342 bound_to 10162
  140.5320  143.2241  151.8224 LP  0  0  0  0  0  0  0  0  0  0  0  0  # atno 17343 bound_to 10162
  157.5577  131.0945  150.9605 LP  0  0  0  0  0  0  0  0  0  0  0  0  # atno 17370 bound_to 10713
  156.9850  130.5541  149.5299 LP  0  0  0  0  0  0  0  0  0  0  0  0  # atno 17371 bound_to 10713
  140.0800  134.9653  157.1609 LP  0  0  0  0  0  0  0  0  0  0  0  0  # atno 17394 bound_to 11000
  140.3589  134.2516  155.7189 LP  0  0  0  0  0  0  0  0  0  0  0  0  # atno 17395 bound_to 11000

$$$$
