AV-unprocessed.smi:798|AV-procd|sdf|3769|dock2
  -GOLD-   22720 1203D 1   1.00000     0.00000
 Structure written by MMmdl.
 34 36  0  0  0  0  0  0  0  0  1 V2000
  150.7709  140.9022  156.7580 O   0  0  0  0  0  0  0  0  0  0  0  0
  150.2686  142.0090  156.5606 C   0  0  0  0  0  0  0  0  0  0  0  0
  150.4154  143.0847  157.3537 N   0  0  0  0  0  0  0  0  0  0  0  0
  151.1493  143.1941  158.5642 C   0  0  0  0  0  0  0  0  0  0  0  0
  151.2137  142.2216  159.4871 N   0  0  0  0  0  0  0  0  0  0  0  0
  151.9947  142.5893  160.5753 N   0  0  0  0  0  0  0  0  0  0  0  0
  152.4885  143.8223  160.4301 C   0  0  0  0  0  0  0  0  0  0  0  0
  152.0487  144.6548  158.9490 S   0  0  0  0  0  0  0  0  0  0  0  0
  149.4957  142.2912  155.5030 N   0  0  0  0  0  0  0  0  0  0  0  0
  149.1490  141.3467  154.4434 C   0  0  2  0  0  0  0  0  0  0  0  0
  147.8223  141.6927  153.7206 C   0  0  2  0  0  0  0  0  0  0  0  0
  146.6730  141.9194  154.7261 C   0  0  0  0  0  0  0  0  0  0  0  0
  146.4253  140.5033  155.2784 C   0  0  0  0  0  0  0  0  0  0  0  0
  147.4383  139.6480  154.4923 C   0  0  1  0  0  0  0  0  0  0  0  0
  147.4318  140.3420  153.1348 C   0  0  0  0  0  0  0  0  0  0  0  0
  148.8665  139.9338  155.0170 C   0  0  1  0  0  0  0  0  0  0  0  0
  149.9127  138.8941  154.5701 C   0  0  0  0  0  0  0  0  0  0  0  0
  151.2165  139.4224  154.6889 O   0  0  0  0  0  0  0  0  0  0  0  0
  149.9444  143.9264  157.0566 H   0  0  0  0  0  0  0  0  0  0  0  0
  153.1166  144.2445  161.2006 H   0  0  0  0  0  0  0  0  0  0  0  0
  149.1266  143.2268  155.4167 H   0  0  0  0  0  0  0  0  0  0  0  0
  149.9603  141.3014  153.7134 H   0  0  0  0  0  0  0  0  0  0  0  0
  147.9223  142.4940  152.9878 H   0  0  0  0  0  0  0  0  0  0  0  0
  146.9120  142.6409  155.5073 H   0  0  0  0  0  0  0  0  0  0  0  0
  145.7836  142.2842  154.2107 H   0  0  0  0  0  0  0  0  0  0  0  0
  146.5790  140.4436  156.3564 H   0  0  0  0  0  0  0  0  0  0  0  0
  145.4029  140.1856  155.0702 H   0  0  0  0  0  0  0  0  0  0  0  0
  147.1763  138.5898  154.4687 H   0  0  0  0  0  0  0  0  0  0  0  0
  146.4515  140.3444  152.6541 H   0  0  0  0  0  0  0  0  0  0  0  0
  148.1675  139.9453  152.4341 H   0  0  0  0  0  0  0  0  0  0  0  0
  148.8580  139.9536  156.1086 H   0  0  0  0  0  0  0  0  0  0  0  0
  149.8416  137.9768  155.1545 H   0  0  0  0  0  0  0  0  0  0  0  0
  149.7492  138.6234  153.5265 H   0  0  0  0  0  0  0  0  0  0  0  0
  151.6961  138.9011  155.3148 H   0  0  0  0  0  0  0  0  0  0  0  0
  1  2  2  0  0  0  0
  2  3  1  0  0  0  0
  2  9  1  0  0  0  0
  3  4  1  0  0  0  0
  3 19  1  0  0  0  0
  4  8  1  0  0  0  0
  4  5  2  0  0  0  0
  5  6  1  0  0  0  0
  6  7  2  0  0  0  0
  7  8  1  0  0  0  0
  7 20  1  0  0  0  0
  9 10  1  0  0  0  0
  9 21  1  0  0  0  0
 10 16  1  0  0  0  0
 10 11  1  0  0  0  0
 10 22  1  0  0  0  0
 11 15  1  0  0  0  0
 11 12  1  0  0  0  0
 11 23  1  0  0  0  0
 12 13  1  0  0  0  0
 12 24  1  0  0  0  0
 12 25  1  0  0  0  0
 13 14  1  0  0  0  0
 13 26  1  0  0  0  0
 13 27  1  0  0  0  0
 14 15  1  0  0  0  0
 14 16  1  0  0  0  0
 14 28  1  0  0  0  0
 15 29  1  0  0  0  0
 15 30  1  0  0  0  0
 16 17  1  0  0  0  0
 16 31  1  0  0  0  0
 17 18  1  0  0  0  0
 17 32  1  0  0  0  0
 17 33  1  0  0  0  0
 18 34  1  0  0  0  0
M  END
> <s_m_source_file>
AV-unprocessed.smi

> <i_m_source_file_index>
798

> <i_lp_mmshare_version>
43012

> <i_f3d_flags>
0

> <s_epik_input>
W0NIMl0xW0NIMl1bQ0BASF0oW0NIMl0yKVtDQEBIXShbQ0gyXVtPSF0pW0NAQEhdKFtDQEhdMTIpW05IXUMoPU8pW05IXWMzbm5bY0hdczM=

> <s_epik_cmdline>
J2VwaWtfcHl0aG9uJywgJy1waCcsICc3LjAnLCAnLXRuJywgJzgnLCAnLW1hJywgJzIwMCcsICctbWV0YWxfYmluZGluZycsICctaW1hZScsICc8aW5maWxlLm1hZT4nLCAnLW9tYWUnLCAnPG91dGZpbGUubWFlPic=

> <r_lp_tautomer_probability>
1

> <r_epik_Ionization_Penalty>
0.000329046

> <r_epik_Ionization_Penalty_Charging>
0

> <r_epik_Ionization_Penalty_Neutral>
0.000329046

> <r_epik_State_Penalty>
-0

> <r_epik_Charging_Adjusted_Penalty>
0

> <i_epik_Tot_Q>
0

> <i_epik_Tot_abs_Q>
0

> <r_epik_Metal_State_Penalty>
0.173433

> <b_epik_Metal_Only>
0

> <s_lp_Force_Field>
OPLS_2005

> <r_lp_Energy>
48.3873

> <b_lp_Chiralities_Consistent>
1

> <s_lp_Variant>
AV-unprocessed.smi:798-1

> <Gold.Version>
5.8.1

> <Gold.Id.Protein>
6NUR|6NUR_protein|mol2

> <Gold.PLP.Fitness>
42.1007

> <Gold.PLP.PLP>
-34.7953

> <Gold.PLP.part.hbond>
-3.9883

> <Gold.PLP.part.metal>
0.0000

> <Gold.PLP.part.buried>
-3.4898

> <Gold.PLP.part.nonpolar>
-26.5720

> <Gold.PLP.part.repulsive>
0.2490

> <Gold.PLP.ligand.clash>
0.0000

> <Gold.PLP.ligand.torsion>
0.7483

> <Gold.PLP.Chemscore.Hbond>
2.9280

> <Gold.PLP.Chemscore.CHOScore>
0.0000

> <Gold.PLP.Chemscore.Metal>
0.0000

> <Gold.Chemscore.Hbonds>
donor molecule, donor type, donor heavy atom, donor atom, acceptor molecule, acceptor atom, score
      L1  H     3    19       P1  8028  0.91
      L1  H     9    21       P1  8028  0.99
      P1  H  7989  7998       L1    18  1.00

> <Gold.PLP.Chemscore.Internal.Correction>
0.0180

> <Gold.Rescore>
     Score         DG    S(hbond)    S(metal)    S(lipo)     H(rot)  DE(clash)    DE(int)     intcor
     15.86     -18.68       2.87        0.00      73.46       1.94       0.07       2.76       ----

> <Gold.Chemscore.Fitness>
15.8553

> <Gold.Chemscore.DG>
-18.6843

> <Gold.Chemscore.ZeroCoef>
-5.4800

> <Gold.Chemscore.Hbond>
2.8704

> <Gold.Chemscore.Metal>
0.0000

> <Gold.Chemscore.Lipo>
73.4558

> <Gold.Chemscore.Internal_Hbond>
0.0000

> <Gold.Chemscore.DEClash>
0.0734

> <Gold.Chemscore.DEInternal>
2.7556

> <Gold.Chemscore.Rot>
1.9442

> <Gold.Chemscore.Internal.Correction>
   9.000000E+99

> <Gold.Chemscore.Hbonds>
donor molecule, donor type, donor heavy atom, donor atom, acceptor molecule, acceptor atom, score
      L1  H     3    19       P1  8028  0.83
      L1  H     9    21       P1  8028  0.92
      P1  H  7989  7998       L1    18  0.92

> <Gold.Chemscore.Hbond.Weighted>
-9.5870

> <Gold.Chemscore.Metal.Weighted>
-0.0000

> <Gold.Chemscore.Lipo.Weighted>
-8.5943

> <Gold.Chemscore.Internal_Hbond.Weighted>
0.0000

> <Gold.Chemscore.DEClash.Weighted>
0.0734

> <Gold.Chemscore.DEInternal.Weighted>
2.7556

> <Gold.Chemscore.Rot.Weighted>
4.9771

> <Gold.Chemscore.Internal.Correction.Weighted>
   9.000000E+99

> <Gold.Protein.RotatedTorsions>
[ 6907 6896 6895 6894 ] final -122.18 input  -60.11 | X-H torsion
[ 7974 7965 7964 7962 ] final   52.78 input  175.53 | X-H torsion
[ 8008 7997 7996 7995 ] final   27.46 input   59.86 | X-H torsion
[ 10167 10162 10161 10158 ] final  -19.15 input  -65.29 | X-H torsion
[ 10718 10713 10712 10709 ] final  134.20 input   66.30 | X-H torsion
[ 10763 10752 10751 10750 ] final  -76.22 input  -60.55 | X-H torsion
[ 11005 11000 10999 10996 ] final   20.49 input  -57.11 | X-H torsion

> <Gold.Protein.ActiveResidues>
 VAL166  LYS551  ARG553  GLY616  TRP617  ASP618  TYR619  PRO620  LYS621  CYS622 
 ASP623  PHE694  ASN695  SER759  ASP760  ASP761  ALA762  ILE779  LEU786  VAL792 
 PHE793  MET794  SER795  GLU796  ALA797  LYS798  CYS799  TRP800  GLU811  SER814 

> <Gold.Protein.RotatedAtoms>
  150.8552  133.7726  159.3011 H   0  0  0  0  0  0  0  0  0  0  0  0  # atno 6907 bound_to 6896
  151.5385  135.1067  159.9930 H   0  0  0  0  0  0  0  0  0  0  0  0  # atno 6908 bound_to 6896
  152.4584  133.7728  159.6864 H   0  0  0  0  0  0  0  0  0  0  0  0  # atno 6909 bound_to 6896
  145.9779  139.4213  143.0150 H   0  0  0  0  0  0  0  0  0  0  0  0  # atno 7974 bound_to 7965
  155.0433  140.3171  155.4717 H   0  0  0  0  0  0  0  0  0  0  0  0  # atno 8008 bound_to 7997
  156.2850  140.2159  156.5500 H   0  0  0  0  0  0  0  0  0  0  0  0  # atno 8009 bound_to 7997
  154.7272  140.0484  157.0681 H   0  0  0  0  0  0  0  0  0  0  0  0  # atno 8010 bound_to 7997
  140.7265  143.4847  151.0071 H   0  0  0  0  0  0  0  0  0  0  0  0  # atno 10167 bound_to 10162
  157.4697  131.1079  150.9818 H   0  0  0  0  0  0  0  0  0  0  0  0  # atno 10718 bound_to 10713
  154.4969  135.5805  153.6502 H   0  0  0  0  0  0  0  0  0  0  0  0  # atno 10763 bound_to 10752
  152.9872  135.6126  154.3052 H   0  0  0  0  0  0  0  0  0  0  0  0  # atno 10764 bound_to 10752
  154.2956  135.2848  155.2614 H   0  0  0  0  0  0  0  0  0  0  0  0  # atno 10765 bound_to 10752
  140.4021  134.1708  155.7664 H   0  0  0  0  0  0  0  0  0  0  0  0  # atno 11005 bound_to 11000
  145.7812  140.9855  143.1098 LP  0  0  0  0  0  0  0  0  0  0  0  0  # atno 17320 bound_to 7965
  144.6853  139.9567  143.7479 LP  0  0  0  0  0  0  0  0  0  0  0  0  # atno 17321 bound_to 7965
  139.8548  143.7392  152.3176 LP  0  0  0  0  0  0  0  0  0  0  0  0  # atno 17342 bound_to 10162
  139.7586  144.7513  151.0398 LP  0  0  0  0  0  0  0  0  0  0  0  0  # atno 17343 bound_to 10162
  157.0587  130.5817  149.5382 LP  0  0  0  0  0  0  0  0  0  0  0  0  # atno 17370 bound_to 10713
  156.0067  130.5155  150.7854 LP  0  0  0  0  0  0  0  0  0  0  0  0  # atno 17371 bound_to 10713
  141.1853  133.8326  157.1110 LP  0  0  0  0  0  0  0  0  0  0  0  0  # atno 17394 bound_to 11000
  140.0329  134.9892  157.0815 LP  0  0  0  0  0  0  0  0  0  0  0  0  # atno 17395 bound_to 11000

$$$$
