AV-unprocessed.smi:1059|AV-procd|sdf|4654|dock10
  -GOLD-   22720 3163D 1   1.00000     0.00000
 Structure written by MMmdl.
 55 56  0  0  0  0  0  0  0  0  2 V2000
  153.3518  142.0208  159.7677 C   0  0  0  0  0  0  0  0  0  0  0  0
  152.4209  142.6428  158.7152 C   0  0  0  0  0  0  0  0  0  0  0  0
  151.6887  143.8608  159.3096 C   0  0  0  0  0  0  0  0  0  0  0  0
  151.4482  141.5767  158.1536 C   0  0  0  0  0  0  0  0  0  0  0  0
  152.0777  140.5247  157.2183 C   0  0  0  0  0  0  0  0  0  0  0  0
  153.0700  139.9009  157.5976 O   0  0  0  0  0  0  0  0  0  0  0  0
  151.5174  140.3095  156.0024 N   0  0  0  0  0  0  0  0  0  0  0  0
  152.0412  139.3188  155.0535 C   0  0  0  0  0  0  0  0  0  0  0  0
  151.0647  138.1314  154.9792 C   0  0  0  0  0  0  0  0  0  0  0  0
  149.6441  138.5984  154.5971 C   0  0  0  0  0  0  0  0  0  0  0  0
  148.7144  137.4778  154.7017 N   0  0  0  0  0  0  0  0  0  0  0  0
  147.4025  137.5345  154.4316 C   0  0  0  0  0  0  0  0  0  0  0  0
  146.8279  138.5595  154.0653 O   0  0  0  0  0  0  0  0  0  0  0  0
  146.8193  136.3344  154.5957 N   0  0  0  0  0  0  0  0  0  0  0  0
  145.4509  135.9893  154.4285 C   0  0  0  0  0  0  0  0  0  0  0  0
  144.5511  137.0161  154.0692 C   0  0  0  0  0  0  0  0  0  0  0  0
  143.1859  136.7171  153.8824 C   0  0  0  0  0  0  0  0  0  0  0  0
  142.7393  135.3897  154.0494 C   0  0  0  0  0  0  0  0  0  0  0  0
  141.3912  135.0469  153.8767 N   0  0  0  0  0  0  0  0  0  0  0  0
  140.5308  136.2090  153.7145 C   0  0  0  0  0  0  0  0  0  0  0  0
  141.1982  133.9729  152.9136 C   0  0  0  0  0  0  0  0  0  0  0  0
  143.6340  134.4277  154.3778 N   0  3  0  0  0  0  0  0  0  0  0  0
  144.9488  134.6719  154.5667 C   0  0  0  0  0  0  0  0  0  0  0  0
  149.1858  139.7811  155.4815 C   0  0  0  0  0  0  0  0  0  0  0  0
  150.2535  140.8889  155.5275 C   0  0  0  0  0  0  0  0  0  0  0  0
  152.7881  141.6382  160.6192 H   0  0  0  0  0  0  0  0  0  0  0  0
  154.0659  142.7536  160.1441 H   0  0  0  0  0  0  0  0  0  0  0  0
  153.9246  141.1928  159.3487 H   0  0  0  0  0  0  0  0  0  0  0  0
  153.0569  142.9967  157.9022 H   0  0  0  0  0  0  0  0  0  0  0  0
  151.0378  143.5665  160.1332 H   0  0  0  0  0  0  0  0  0  0  0  0
  151.0732  144.3710  158.5696 H   0  0  0  0  0  0  0  0  0  0  0  0
  152.3982  144.5932  159.6954 H   0  0  0  0  0  0  0  0  0  0  0  0
  150.9929  141.0365  158.9848 H   0  0  0  0  0  0  0  0  0  0  0  0
  150.6414  142.0884  157.6277 H   0  0  0  0  0  0  0  0  0  0  0  0
  152.1454  139.7803  154.0704 H   0  0  0  0  0  0  0  0  0  0  0  0
  153.0380  138.9634  155.3181 H   0  0  0  0  0  0  0  0  0  0  0  0
  151.4255  137.3983  154.2569 H   0  0  0  0  0  0  0  0  0  0  0  0
  151.0428  137.6275  155.9469 H   0  0  0  0  0  0  0  0  0  0  0  0
  149.6750  138.9358  153.5592 H   0  0  0  0  0  0  0  0  0  0  0  0
  149.1033  136.5928  154.9927 H   0  0  0  0  0  0  0  0  0  0  0  0
  147.4373  135.5679  154.8190 H   0  0  0  0  0  0  0  0  0  0  0  0
  144.9007  138.0306  153.9431 H   0  0  0  0  0  0  0  0  0  0  0  0
  142.4915  137.5001  153.6146 H   0  0  0  0  0  0  0  0  0  0  0  0
  140.7300  136.9521  154.4877 H   0  0  0  0  0  0  0  0  0  0  0  0
  139.4835  135.9161  153.7916 H   0  0  0  0  0  0  0  0  0  0  0  0
  140.6835  136.6753  152.7403 H   0  0  0  0  0  0  0  0  0  0  0  0
  141.8657  133.1368  153.1257 H   0  0  0  0  0  0  0  0  0  0  0  0
  141.3904  134.3187  151.8971 H   0  0  0  0  0  0  0  0  0  0  0  0
  140.1731  133.6046  152.9601 H   0  0  0  0  0  0  0  0  0  0  0  0
  145.5403  133.8018  154.8086 H   0  0  0  0  0  0  0  0  0  0  0  0
  148.2468  140.1913  155.1079 H   0  0  0  0  0  0  0  0  0  0  0  0
  148.9880  139.4313  156.4960 H   0  0  0  0  0  0  0  0  0  0  0  0
  149.8907  141.7180  156.1319 H   0  0  0  0  0  0  0  0  0  0  0  0
  150.4024  141.3023  154.5288 H   0  0  0  0  0  0  0  0  0  0  0  0
  143.3004  133.4698  154.4863 H   0  0  0  0  0  0  0  0  0  0  0  0
  1  2  1  0  0  0  0
  1 26  1  0  0  0  0
  1 27  1  0  0  0  0
  1 28  1  0  0  0  0
  2  3  1  0  0  0  0
  2  4  1  0  0  0  0
  2 29  1  0  0  0  0
  3 30  1  0  0  0  0
  3 31  1  0  0  0  0
  3 32  1  0  0  0  0
  4  5  1  0  0  0  0
  4 33  1  0  0  0  0
  4 34  1  0  0  0  0
  5  6  2  0  0  0  0
  5  7  1  0  0  0  0
  7 25  1  0  0  0  0
  7  8  1  0  0  0  0
  8  9  1  0  0  0  0
  8 35  1  0  0  0  0
  8 36  1  0  0  0  0
  9 10  1  0  0  0  0
  9 37  1  0  0  0  0
  9 38  1  0  0  0  0
 10 11  1  0  0  0  0
 10 24  1  0  0  0  0
 10 39  1  0  0  0  0
 11 12  1  0  0  0  0
 11 40  1  0  0  0  0
 12 13  2  0  0  0  0
 12 14  1  0  0  0  0
 14 15  1  0  0  0  0
 14 41  1  0  0  0  0
 15 23  1  0  0  0  0
 15 16  2  0  0  0  0
 16 17  1  0  0  0  0
 16 42  1  0  0  0  0
 17 18  2  0  0  0  0
 17 43  1  0  0  0  0
 18 19  1  0  0  0  0
 18 22  1  0  0  0  0
 19 20  1  0  0  0  0
 19 21  1  0  0  0  0
 20 44  1  0  0  0  0
 20 45  1  0  0  0  0
 20 46  1  0  0  0  0
 21 47  1  0  0  0  0
 21 48  1  0  0  0  0
 21 49  1  0  0  0  0
 22 23  2  0  0  0  0
 22 55  1  0  0  0  0
 23 50  1  0  0  0  0
 24 25  1  0  0  0  0
 24 51  1  0  0  0  0
 24 52  1  0  0  0  0
 25 53  1  0  0  0  0
 25 54  1  0  0  0  0
M  CHG  1  22   1
M  END
> <s_m_source_file>
AV-unprocessed.smi

> <i_m_source_file_index>
1059

> <i_lp_mmshare_version>
43012

> <i_f3d_flags>
0

> <s_epik_input>
W0NIM11bQ0hdKFtDSDNdKVtDSDJdQyg9TylOMVtDSDJdW0NIMl1bQ0hdKFtDSDJdW0NIMl0xKVtOSF1DKD1PKVtOSF1jMltjSF1bY0hdYyhOKFtDSDNdKVtDSDNdKW5bY0hdMg==

> <s_epik_cmdline>
J2VwaWtfcHl0aG9uJywgJy1waCcsICc3LjAnLCAnLXRuJywgJzgnLCAnLW1hJywgJzIwMCcsICctbWV0YWxfYmluZGluZycsICctaW1hZScsICc8aW5maWxlLm1hZT4nLCAnLW9tYWUnLCAnPG91dGZpbGUubWFlPic=

> <r_lp_tautomer_probability>
0.999994

> <r_epik_Ionization_Penalty>
0.255783

> <r_epik_Ionization_Penalty_Charging>
0.255763

> <r_epik_Ionization_Penalty_Neutral>
1.99447e-05

> <r_epik_State_Penalty>
0.247288

> <r_epik_Charging_Adjusted_Penalty>
0.503051

> <i_epik_Tot_Q>
1

> <i_epik_Tot_abs_Q>
1

> <r_epik_Metal_State_Penalty>
0.537004

> <b_epik_Metal_Only>
0

> <s_lp_Force_Field>
OPLS_2005

> <r_lp_Energy>
38.2328

> <b_lp_Chiralities_Consistent>
1

> <s_lp_Variant>
AV-unprocessed.smi:1059-1

> <Gold.Version>
5.8.1

> <Gold.Id.Protein>
6NUR|6NUR_protein|mol2

> <Gold.PLP.Fitness>
48.4259

> <Gold.PLP.PLP>
-39.3333

> <Gold.PLP.part.hbond>
-3.5967

> <Gold.PLP.part.metal>
0.0000

> <Gold.PLP.part.buried>
-2.5304

> <Gold.PLP.part.nonpolar>
-34.0094

> <Gold.PLP.part.repulsive>
0.3032

> <Gold.PLP.ligand.clash>
1.4986

> <Gold.PLP.ligand.torsion>
0.2689

> <Gold.PLP.Chemscore.Hbond>
3.6338

> <Gold.PLP.Chemscore.CHOScore>
0.0000

> <Gold.PLP.Chemscore.Metal>
0.0000

> <Gold.Chemscore.Hbonds>
donor molecule, donor type, donor heavy atom, donor atom, acceptor molecule, acceptor atom, score
      L1  H    22    55       P1 10957  2.00
      P1  H  7997  8010       L1     6  1.00
      P1  H 11000 11005       L1    19  0.46

> <Gold.PLP.Chemscore.Internal.Correction>
0.2276

> <Gold.Rescore>
     Score         DG    S(hbond)    S(metal)    S(lipo)     H(rot)  DE(clash)    DE(int)     intcor
     17.71     -19.49       2.04        0.00      95.46       1.55       0.09       1.69       ----

> <Gold.Chemscore.Fitness>
17.7092

> <Gold.Chemscore.DG>
-19.4894

> <Gold.Chemscore.ZeroCoef>
-5.4800

> <Gold.Chemscore.Hbond>
2.0394

> <Gold.Chemscore.Metal>
0.0000

> <Gold.Chemscore.Lipo>
95.4650

> <Gold.Chemscore.Internal_Hbond>
0.0000

> <Gold.Chemscore.DEClash>
0.0941

> <Gold.Chemscore.DEInternal>
1.6860

> <Gold.Chemscore.Rot>
1.5514

> <Gold.Chemscore.Internal.Correction>
   9.000000E+99

> <Gold.Chemscore.Hbonds>
donor molecule, donor type, donor heavy atom, donor atom, acceptor molecule, acceptor atom, score
      L1  H    22    55       P1 10957  1.00
      P1  H  7997  8010       L1     6  0.84
      P1  H 11000 11005       L1    19  0.03

> <Gold.Chemscore.Hbond.Weighted>
-6.8116

> <Gold.Chemscore.Metal.Weighted>
-0.0000

> <Gold.Chemscore.Lipo.Weighted>
-11.1694

> <Gold.Chemscore.Internal_Hbond.Weighted>
0.0000

> <Gold.Chemscore.DEClash.Weighted>
0.0941

> <Gold.Chemscore.DEInternal.Weighted>
1.6860

> <Gold.Chemscore.Rot.Weighted>
3.9716

> <Gold.Chemscore.Internal.Correction.Weighted>
   9.000000E+99

> <Gold.Protein.RotatedTorsions>
[ 6907 6896 6895 6894 ] final  118.38 input  -60.11 | X-H torsion
[ 7974 7965 7964 7962 ] final  -98.67 input  175.53 | X-H torsion
[ 8008 7997 7996 7995 ] final   60.22 input   59.86 | X-H torsion
[ 10167 10162 10161 10158 ] final  -56.68 input  -65.29 | X-H torsion
[ 10718 10713 10712 10709 ] final  142.18 input   66.30 | X-H torsion
[ 10763 10752 10751 10750 ] final -158.40 input  -60.55 | X-H torsion
[ 11005 11000 10999 10996 ] final   17.59 input  -57.11 | X-H torsion

> <Gold.Protein.ActiveResidues>
 VAL166  LYS551  ARG553  GLY616  TRP617  ASP618  TYR619  PRO620  LYS621  CYS622 
 ASP623  PHE694  ASN695  SER759  ASP760  ASP761  ALA762  ILE779  LEU786  VAL792 
 PHE793  MET794  SER795  GLU796  ALA797  LYS798  CYS799  TRP800  GLU811  SER814 

> <Gold.Protein.RotatedAtoms>
  152.4547  133.7699  159.6792 H   0  0  0  0  0  0  0  0  0  0  0  0  # atno 6907 bound_to 6896
  150.8469  133.7837  159.3046 H   0  0  0  0  0  0  0  0  0  0  0  0  # atno 6908 bound_to 6896
  151.5445  135.1071  159.9986 H   0  0  0  0  0  0  0  0  0  0  0  0  # atno 6909 bound_to 6896
  145.3176  140.9414  143.2734 H   0  0  0  0  0  0  0  0  0  0  0  0  # atno 7974 bound_to 7965
  155.5788  140.3491  155.4535 H   0  0  0  0  0  0  0  0  0  0  0  0  # atno 8008 bound_to 7997
  156.0389  140.1291  157.0203 H   0  0  0  0  0  0  0  0  0  0  0  0  # atno 8009 bound_to 7997
  154.4383  140.1028  156.6193 H   0  0  0  0  0  0  0  0  0  0  0  0  # atno 8010 bound_to 7997
  140.6303  143.2456  151.5258 H   0  0  0  0  0  0  0  0  0  0  0  0  # atno 10167 bound_to 10162
  157.3835  131.0995  151.0716 H   0  0  0  0  0  0  0  0  0  0  0  0  # atno 10718 bound_to 10713
  154.7559  135.3105  154.8470 H   0  0  0  0  0  0  0  0  0  0  0  0  # atno 10763 bound_to 10752
  153.9244  135.6792  153.4751 H   0  0  0  0  0  0  0  0  0  0  0  0  # atno 10764 bound_to 10752
  153.1157  135.4846  154.9041 H   0  0  0  0  0  0  0  0  0  0  0  0  # atno 10765 bound_to 10752
  140.4342  134.1388  155.7683 H   0  0  0  0  0  0  0  0  0  0  0  0  # atno 11005 bound_to 11000
  144.8965  139.4705  143.6653 LP  0  0  0  0  0  0  0  0  0  0  0  0  # atno 17320 bound_to 7965
  146.3094  139.7694  142.9031 LP  0  0  0  0  0  0  0  0  0  0  0  0  # atno 17321 bound_to 7965
  139.5518  144.2376  152.1543 LP  0  0  0  0  0  0  0  0  0  0  0  0  # atno 17342 bound_to 10162
  140.1618  144.5018  150.6628 LP  0  0  0  0  0  0  0  0  0  0  0  0  # atno 17343 bound_to 10162
  157.1776  130.6295  149.5661 LP  0  0  0  0  0  0  0  0  0  0  0  0  # atno 17370 bound_to 10713
  155.9781  130.4764  150.6635 LP  0  0  0  0  0  0  0  0  0  0  0  0  # atno 17371 bound_to 10713
  141.1733  133.8566  157.1503 LP  0  0  0  0  0  0  0  0  0  0  0  0  # atno 17394 bound_to 11000
  140.0113  134.9987  157.0401 LP  0  0  0  0  0  0  0  0  0  0  0  0  # atno 17395 bound_to 11000

$$$$
