AV-unprocessed.smi:1251|AV-procd|sdf|5261|dock1
  -GOLD-   22720 4373D 1   1.00000     0.00000
 Structure written by MMmdl.
 38 39  0  0  0  0  0  0  0  0  2 V2000
  147.0747  139.0814  154.7337 C   0  0  0  0  0  0  0  0  0  0  0  0
  147.6707  139.9899  153.6528 C   0  0  0  0  0  0  0  0  0  0  0  0
  148.5914  141.0719  154.2343 C   0  0  0  0  0  0  0  0  0  0  0  0
  149.8606  140.5101  154.7822 C   0  0  0  0  0  0  0  0  0  0  0  0
  150.7392  139.8388  154.0333 N   0  0  0  0  0  0  0  0  0  0  0  0
  151.8257  139.3959  154.7736 N   0  0  0  0  0  0  0  0  0  0  0  0
  151.7424  139.7162  156.0726 C   0  0  0  0  0  0  0  0  0  0  0  0
  152.6943  139.3836  156.9599 N   0  5  0  0  0  0  0  0  0  0  0  0
  152.5322  139.6811  158.2694 C   0  0  0  0  0  0  0  0  0  0  0  0
  151.9283  139.0023  159.1033 O   0  0  0  0  0  0  0  0  0  0  0  0
  153.1066  140.8367  158.6331 N   0  0  0  0  0  0  0  0  0  0  0  0
  153.0963  141.4264  159.9702 C   0  0  1  0  0  0  0  0  0  0  0  0
  154.5369  141.5185  160.5030 C   0  0  0  0  0  0  0  0  0  0  0  0
  152.4077  142.8029  159.9040 C   0  0  2  0  0  0  0  0  0  0  0  0
  151.0153  142.7974  159.2737 C   0  0  0  0  0  0  0  0  0  0  0  0
  150.8383  144.2319  158.8052 C   0  0  0  0  0  0  0  0  0  0  0  0
  152.2675  144.7775  158.7332 C   0  0  0  0  0  0  0  0  0  0  0  0
  153.1118  143.6737  159.0310 O   0  0  0  0  0  0  0  0  0  0  0  0
  150.2876  140.6243  156.4810 S   0  0  0  0  0  0  0  0  0  0  0  0
  146.4200  138.3302  154.2914 H   0  0  0  0  0  0  0  0  0  0  0  0
  146.4870  139.6558  155.4502 H   0  0  0  0  0  0  0  0  0  0  0  0
  147.8576  138.5585  155.2838 H   0  0  0  0  0  0  0  0  0  0  0  0
  148.2274  139.3815  152.9391 H   0  0  0  0  0  0  0  0  0  0  0  0
  146.8617  140.4607  153.0928 H   0  0  0  0  0  0  0  0  0  0  0  0
  148.8361  141.8089  153.4684 H   0  0  0  0  0  0  0  0  0  0  0  0
  148.0788  141.6103  155.0319 H   0  0  0  0  0  0  0  0  0  0  0  0
  153.5853  141.3578  157.9133 H   0  0  0  0  0  0  0  0  0  0  0  0
  152.5171  140.7886  160.6402 H   0  0  0  0  0  0  0  0  0  0  0  0
  154.5606  141.9084  161.5203 H   0  0  0  0  0  0  0  0  0  0  0  0
  155.1488  142.1718  159.8802 H   0  0  0  0  0  0  0  0  0  0  0  0
  155.0133  140.5378  160.5226 H   0  0  0  0  0  0  0  0  0  0  0  0
  152.3633  143.2568  160.8962 H   0  0  0  0  0  0  0  0  0  0  0  0
  150.9945  142.1266  158.4135 H   0  0  0  0  0  0  0  0  0  0  0  0
  150.2365  142.4814  159.9682 H   0  0  0  0  0  0  0  0  0  0  0  0
  150.3316  144.2763  157.8408 H   0  0  0  0  0  0  0  0  0  0  0  0
  150.2501  144.8065  159.5216 H   0  0  0  0  0  0  0  0  0  0  0  0
  152.5070  145.1912  157.7535 H   0  0  0  0  0  0  0  0  0  0  0  0
  152.4180  145.5591  159.4789 H   0  0  0  0  0  0  0  0  0  0  0  0
  1  2  1  0  0  0  0
  1 20  1  0  0  0  0
  1 21  1  0  0  0  0
  1 22  1  0  0  0  0
  2  3  1  0  0  0  0
  2 23  1  0  0  0  0
  2 24  1  0  0  0  0
  3  4  1  0  0  0  0
  3 25  1  0  0  0  0
  3 26  1  0  0  0  0
  4 19  1  0  0  0  0
  4  5  2  0  0  0  0
  5  6  1  0  0  0  0
  6  7  2  0  0  0  0
  7  8  1  0  0  0  0
  7 19  1  0  0  0  0
  8  9  1  0  0  0  0
  9 10  2  0  0  0  0
  9 11  1  0  0  0  0
 11 12  1  0  0  0  0
 11 27  1  0  0  0  0
 12 13  1  0  0  0  0
 12 14  1  0  0  0  0
 12 28  1  0  0  0  0
 13 29  1  0  0  0  0
 13 30  1  0  0  0  0
 13 31  1  0  0  0  0
 14 18  1  0  0  0  0
 14 15  1  0  0  0  0
 14 32  1  0  0  0  0
 15 16  1  0  0  0  0
 15 33  1  0  0  0  0
 15 34  1  0  0  0  0
 16 17  1  0  0  0  0
 16 35  1  0  0  0  0
 16 36  1  0  0  0  0
 17 18  1  0  0  0  0
 17 37  1  0  0  0  0
 17 38  1  0  0  0  0
M  CHG  1   8  -1
M  END
> <s_m_source_file>
AV-unprocessed.smi

> <i_m_source_file_index>
1251

> <i_lp_mmshare_version>
43012

> <i_f3d_flags>
0

> <s_epik_input>
W0NIM11bQ0gyXVtDSDJdYzFubmMoczEpW05IXUMoPU8pW05IXVtDQEhdKFtDSDNdKVtDQEBIXTJbQ0gyXVtDSDJdW0NIMl1PMg==

> <s_epik_cmdline>
J2VwaWtfcHl0aG9uJywgJy1waCcsICc3LjAnLCAnLXRuJywgJzgnLCAnLW1hJywgJzIwMCcsICctbWV0YWxfYmluZGluZycsICctaW1hZScsICc8aW5maWxlLm1hZT4nLCAnLW9tYWUnLCAnPG91dGZpbGUubWFlPic=

> <r_lp_tautomer_probability>
1

> <r_epik_Ionization_Penalty>
4.22551

> <r_epik_Ionization_Penalty_Charging>
4.21437

> <r_epik_Ionization_Penalty_Neutral>
0.0111434

> <r_epik_State_Penalty>
4.21389

> <r_epik_Charging_Adjusted_Penalty>
8.42826

> <i_epik_Tot_Q>
-1

> <i_epik_Tot_abs_Q>
1

> <r_epik_Metal_State_Penalty>
0.69377

> <b_epik_Metal_Only>
1

> <s_lp_Force_Field>
OPLS_2005

> <r_lp_Energy>
12.2708

> <b_lp_Chiralities_Consistent>
1

> <s_lp_Variant>
AV-unprocessed.smi:1251-6

> <Gold.Version>
5.8.1

> <Gold.Id.Protein>
6NUR|6NUR_protein|mol2

> <Gold.PLP.Fitness>
42.1753

> <Gold.PLP.PLP>
-35.7375

> <Gold.PLP.part.hbond>
-2.9272

> <Gold.PLP.part.metal>
0.0000

> <Gold.PLP.part.buried>
-1.1942

> <Gold.PLP.part.nonpolar>
-31.8566

> <Gold.PLP.part.repulsive>
0.3782

> <Gold.PLP.ligand.clash>
0.0000

> <Gold.PLP.ligand.torsion>
0.7968

> <Gold.PLP.Chemscore.Hbond>
2.6000

> <Gold.PLP.Chemscore.CHOScore>
0.0000

> <Gold.PLP.Chemscore.Metal>
0.0000

> <Gold.Chemscore.Hbonds>
donor molecule, donor type, donor heavy atom, donor atom, acceptor molecule, acceptor atom, score
      P1  H  7989  7998       L1     5  0.28
      P1  H  7997  8010       L1     8  2.00

> <Gold.PLP.Chemscore.Internal.Correction>
0.2315

> <Gold.Rescore>
     Score         DG    S(hbond)    S(metal)    S(lipo)     H(rot)  DE(clash)    DE(int)     intcor
     12.23     -13.28       0.23        0.00      93.82       1.55       0.16       0.89       ----

> <Gold.Chemscore.Fitness>
12.2344

> <Gold.Chemscore.DG>
-13.2768

> <Gold.Chemscore.ZeroCoef>
-5.4800

> <Gold.Chemscore.Hbond>
0.2334

> <Gold.Chemscore.Metal>
0.0000

> <Gold.Chemscore.Lipo>
93.8210

> <Gold.Chemscore.Internal_Hbond>
0.0000

> <Gold.Chemscore.DEClash>
0.1571

> <Gold.Chemscore.DEInternal>
0.8853

> <Gold.Chemscore.Rot>
1.5469

> <Gold.Chemscore.Internal.Correction>
   9.000000E+99

> <Gold.Chemscore.Hbonds>
donor molecule, donor type, donor heavy atom, donor atom, acceptor molecule, acceptor atom, score
      P1  H  7997  8010       L1     8  0.31

> <Gold.Chemscore.Hbond.Weighted>
-0.7797

> <Gold.Chemscore.Metal.Weighted>
-0.0000

> <Gold.Chemscore.Lipo.Weighted>
-10.9771

> <Gold.Chemscore.Internal_Hbond.Weighted>
0.0000

> <Gold.Chemscore.DEClash.Weighted>
0.1571

> <Gold.Chemscore.DEInternal.Weighted>
0.8853

> <Gold.Chemscore.Rot.Weighted>
3.9600

> <Gold.Chemscore.Internal.Correction.Weighted>
   9.000000E+99

> <Gold.Protein.RotatedTorsions>
[ 6907 6896 6895 6894 ] final  -38.81 input  -60.11 | X-H torsion
[ 7974 7965 7964 7962 ] final  146.62 input  175.53 | X-H torsion
[ 8008 7997 7996 7995 ] final   62.04 input   59.86 | X-H torsion
[ 10167 10162 10161 10158 ] final  -76.82 input  -65.29 | X-H torsion
[ 10718 10713 10712 10709 ] final   93.85 input   66.30 | X-H torsion
[ 10763 10752 10751 10750 ] final   52.66 input  -60.55 | X-H torsion
[ 11005 11000 10999 10996 ] final -129.29 input  -57.11 | X-H torsion

> <Gold.Protein.ActiveResidues>
 VAL166  LYS551  ARG553  GLY616  TRP617  ASP618  TYR619  PRO620  LYS621  CYS622 
 ASP623  PHE694  ASN695  SER759  ASP760  ASP761  ALA762  ILE779  LEU786  VAL792 
 PHE793  MET794  SER795  GLU796  ALA797  LYS798  CYS799  TRP800  GLU811  SER814 

> <Gold.Protein.RotatedAtoms>
  150.9979  134.9298  159.7936 H   0  0  0  0  0  0  0  0  0  0  0  0  # atno 6907 bound_to 6896
  152.5269  134.3193  159.9152 H   0  0  0  0  0  0  0  0  0  0  0  0  # atno 6908 bound_to 6896
  151.3199  133.4003  159.2688 H   0  0  0  0  0  0  0  0  0  0  0  0  # atno 6909 bound_to 6896
  144.8657  139.5927  143.5910 H   0  0  0  0  0  0  0  0  0  0  0  0  # atno 7974 bound_to 7965
  155.6080  140.3494  155.4614 H   0  0  0  0  0  0  0  0  0  0  0  0  # atno 8008 bound_to 7997
  156.0176  140.1246  157.0414 H   0  0  0  0  0  0  0  0  0  0  0  0  # atno 8009 bound_to 7997
  154.4303  140.1069  156.5904 H   0  0  0  0  0  0  0  0  0  0  0  0  # atno 8010 bound_to 7997
  140.4824  143.2399  151.8037 H   0  0  0  0  0  0  0  0  0  0  0  0  # atno 10167 bound_to 10162
  157.6952  131.0492  150.4096 H   0  0  0  0  0  0  0  0  0  0  0  0  # atno 10718 bound_to 10713
  152.9790  135.5805  154.4614 H   0  0  0  0  0  0  0  0  0  0  0  0  # atno 10763 bound_to 10752
  154.4189  135.2771  155.1990 H   0  0  0  0  0  0  0  0  0  0  0  0  # atno 10764 bound_to 10752
  154.3747  135.6160  153.5813 H   0  0  0  0  0  0  0  0  0  0  0  0  # atno 10765 bound_to 10752
  140.9444  134.1150  157.4121 H   0  0  0  0  0  0  0  0  0  0  0  0  # atno 11005 bound_to 11000
  146.2893  139.7094  142.9172 LP  0  0  0  0  0  0  0  0  0  0  0  0  # atno 17320 bound_to 7965
  145.4227  141.0408  143.2955 LP  0  0  0  0  0  0  0  0  0  0  0  0  # atno 17321 bound_to 7965
  139.4836  144.4755  151.9372 LP  0  0  0  0  0  0  0  0  0  0  0  0  # atno 17342 bound_to 10162
  140.3841  144.2699  150.5905 LP  0  0  0  0  0  0  0  0  0  0  0  0  # atno 17343 bound_to 10162
  156.4481  130.4006  149.6653 LP  0  0  0  0  0  0  0  0  0  0  0  0  # atno 17370 bound_to 10713
  156.3812  130.7580  151.2573 LP  0  0  0  0  0  0  0  0  0  0  0  0  # atno 17371 bound_to 10713
  139.8829  135.0047  156.6264 LP  0  0  0  0  0  0  0  0  0  0  0  0  # atno 17394 bound_to 11000
  140.7689  133.8754  155.8476 LP  0  0  0  0  0  0  0  0  0  0  0  0  # atno 17395 bound_to 11000

$$$$
