AV-unprocessed.smi:1199|AV-procd|sdf|5015|dock3
  -GOLD-   22720 4 33D 1   1.00000     0.00000
 Structure written by MMmdl.
 40 41  0  0  0  0  0  0  0  0  2 V2000
  152.0835  138.8683  158.2050 C   0  0  0  0  0  0  0  0  0  0  0  0
  150.8542  139.6015  158.7704 C   0  0  1  0  0  0  0  0  0  0  0  0
  150.5220  140.8983  157.9909 C   0  0  0  0  0  0  0  0  0  0  0  0
  151.5035  141.9809  158.0941 N   0  0  0  0  0  0  0  0  0  0  0  0
  150.9679  143.2897  157.7297 C   0  0  0  0  0  0  0  0  0  0  0  0
  152.0097  144.4106  157.8958 C   0  0  0  0  0  0  0  0  0  0  0  0
  152.5116  144.4120  159.2276 O   0  0  0  0  0  0  0  0  0  0  0  0
  153.0996  143.1672  159.5885 C   0  0  0  0  0  0  0  0  0  0  0  0
  152.0545  142.0482  159.4441 C   0  0  0  0  0  0  0  0  0  0  0  0
  149.7276  138.6748  158.6978 N   0  0  0  0  0  0  0  0  0  0  0  0
  149.7313  137.4096  159.1461 C   0  0  0  0  0  0  0  0  0  0  0  0
  150.7132  136.8869  159.6762 O   0  0  0  0  0  0  0  0  0  0  0  0
  148.4217  136.6299  158.9488 C   0  0  0  0  0  0  0  0  0  0  0  0
  147.8213  136.1400  160.1983 N   0  0  0  0  0  0  0  0  0  0  0  0
  147.5814  137.1865  161.1878 N   0  5  0  0  0  0  0  0  0  0  0  0
  146.9983  136.8580  162.3711 C   0  0  0  0  0  0  0  0  0  0  0  0
  146.7450  137.6872  163.2419 O   0  0  0  0  0  0  0  0  0  0  0  0
  146.6705  135.4618  162.6079 C   0  0  0  0  0  0  0  0  0  0  0  0
  146.9308  134.5120  161.6881 C   0  0  0  0  0  0  0  0  0  0  0  0
  147.5464  134.8199  160.4028 C   0  0  0  0  0  0  0  0  0  0  0  0
  147.7956  133.9561  159.5616 O   0  0  0  0  0  0  0  0  0  0  0  0
  152.9840  139.4781  158.2401 H   0  0  0  0  0  0  0  0  0  0  0  0
  151.9275  138.5785  157.1651 H   0  0  0  0  0  0  0  0  0  0  0  0
  152.2892  137.9600  158.7725 H   0  0  0  0  0  0  0  0  0  0  0  0
  151.0395  139.8392  159.8197 H   0  0  0  0  0  0  0  0  0  0  0  0
  150.3353  140.6619  156.9421 H   0  0  0  0  0  0  0  0  0  0  0  0
  149.5730  141.2850  158.3657 H   0  0  0  0  0  0  0  0  0  0  0  0
  150.6462  143.2840  156.6896 H   0  0  0  0  0  0  0  0  0  0  0  0
  150.0899  143.5145  158.3373 H   0  0  0  0  0  0  0  0  0  0  0  0
  152.8322  144.2789  157.1909 H   0  0  0  0  0  0  0  0  0  0  0  0
  151.5598  145.3804  157.6832 H   0  0  0  0  0  0  0  0  0  0  0  0
  153.9690  142.9691  158.9595 H   0  0  0  0  0  0  0  0  0  0  0  0
  153.4545  143.2249  160.6175 H   0  0  0  0  0  0  0  0  0  0  0  0
  151.2506  142.2134  160.1634 H   0  0  0  0  0  0  0  0  0  0  0  0
  152.5140  141.0941  159.7046 H   0  0  0  0  0  0  0  0  0  0  0  0
  148.8798  139.0201  158.2723 H   0  0  0  0  0  0  0  0  0  0  0  0
  147.7028  137.2642  158.4269 H   0  0  0  0  0  0  0  0  0  0  0  0
  148.6235  135.7985  158.2713 H   0  0  0  0  0  0  0  0  0  0  0  0
  146.2105  135.1799  163.5435 H   0  0  0  0  0  0  0  0  0  0  0  0
  146.6720  133.4870  161.9072 H   0  0  0  0  0  0  0  0  0  0  0  0
  1  2  1  0  0  0  0
  1 22  1  0  0  0  0
  1 23  1  0  0  0  0
  1 24  1  0  0  0  0
  2  3  1  0  0  0  0
  2 10  1  0  0  0  0
  2 25  1  0  0  0  0
  3  4  1  0  0  0  0
  3 26  1  0  0  0  0
  3 27  1  0  0  0  0
  4  9  1  0  0  0  0
  4  5  1  0  0  0  0
  5  6  1  0  0  0  0
  5 28  1  0  0  0  0
  5 29  1  0  0  0  0
  6  7  1  0  0  0  0
  6 30  1  0  0  0  0
  6 31  1  0  0  0  0
  7  8  1  0  0  0  0
  8  9  1  0  0  0  0
  8 32  1  0  0  0  0
  8 33  1  0  0  0  0
  9 34  1  0  0  0  0
  9 35  1  0  0  0  0
 10 11  1  0  0  0  0
 10 36  1  0  0  0  0
 11 12  2  0  0  0  0
 11 13  1  0  0  0  0
 13 37  1  0  0  0  0
 13 38  1  0  0  0  0
 13 14  1  0  0  0  0
 14 15  1  0  0  0  0
 14 20  1  0  0  0  0
 15 16  1  0  0  0  0
 16 17  2  0  0  0  0
 16 18  1  0  0  0  0
 18 39  1  0  0  0  0
 18 19  2  0  0  0  0
 19 40  1  0  0  0  0
 19 20  1  0  0  0  0
 20 21  2  0  0  0  0
M  CHG  1  15  -1
M  END
> <s_m_source_file>
AV-unprocessed.smi

> <i_m_source_file_index>
1199

> <i_lp_mmshare_version>
43012

> <i_f3d_flags>
0

> <s_epik_input>
W0NIMl0xW0NIMl1PW0NIMl1bQ0gyXU4xW0NIMl1bQ0BASF0oW0NIM10pW05IXUMoPU8pW0NIMl1uMltuSF1jKD1PKVtjSF1bY0hdYzI9Tw==

> <s_epik_cmdline>
J2VwaWtfcHl0aG9uJywgJy1waCcsICc3LjAnLCAnLXRuJywgJzgnLCAnLW1hJywgJzIwMCcsICctbWV0YWxfYmluZGluZycsICctaW1hZScsICc8aW5maWxlLm1hZT4nLCAnLW9tYWUnLCAnPG91dGZpbGUubWFlPic=

> <r_lp_tautomer_probability>
1

> <r_epik_Ionization_Penalty>
0.334996

> <r_epik_Ionization_Penalty_Charging>
0.0976136

> <r_epik_Ionization_Penalty_Neutral>
0.237382

> <r_epik_State_Penalty>
0.26804

> <r_epik_Charging_Adjusted_Penalty>
0.365653

> <i_epik_Tot_Q>
-1

> <i_epik_Tot_abs_Q>
1

> <r_epik_Metal_State_Penalty>
0.26804

> <b_epik_Metal_Only>
0

> <s_lp_Force_Field>
OPLS_2005

> <r_lp_Energy>
39.9629

> <b_lp_Chiralities_Consistent>
1

> <s_lp_Variant>
AV-unprocessed.smi:1199-2

> <Gold.Version>
5.8.1

> <Gold.Id.Protein>
6NUR|6NUR_protein|mol2

> <Gold.PLP.Fitness>
50.8599

> <Gold.PLP.PLP>
-38.3585

> <Gold.PLP.part.hbond>
-3.9632

> <Gold.PLP.part.metal>
0.0000

> <Gold.PLP.part.buried>
-5.4311

> <Gold.PLP.part.nonpolar>
-32.4842

> <Gold.PLP.part.repulsive>
0.2239

> <Gold.PLP.ligand.clash>
0.0000

> <Gold.PLP.ligand.torsion>
0.3073

> <Gold.PLP.Chemscore.Hbond>
4.3552

> <Gold.PLP.Chemscore.CHOScore>
0.0000

> <Gold.PLP.Chemscore.Metal>
0.0000

> <Gold.Chemscore.Hbonds>
donor molecule, donor type, donor heavy atom, donor atom, acceptor molecule, acceptor atom, score
      P1  H  6896  6907       L1    12  1.00
      P1  H  6931  6943       L1    15  1.64
      P1  H  6934  6947       L1    15  1.82

> <Gold.PLP.Chemscore.Internal.Correction>
0.0504

> <Gold.Rescore>
     Score         DG    S(hbond)    S(metal)    S(lipo)     H(rot)  DE(clash)    DE(int)     intcor
     13.27     -14.96       1.73        0.00      81.91       2.30       0.13       1.56       ----

> <Gold.Chemscore.Fitness>
13.2665

> <Gold.Chemscore.DG>
-14.9622

> <Gold.Chemscore.ZeroCoef>
-5.4800

> <Gold.Chemscore.Hbond>
1.7291

> <Gold.Chemscore.Metal>
0.0000

> <Gold.Chemscore.Lipo>
81.9098

> <Gold.Chemscore.Internal_Hbond>
0.0000

> <Gold.Chemscore.DEClash>
0.1314

> <Gold.Chemscore.DEInternal>
1.5642

> <Gold.Chemscore.Rot>
2.2955

> <Gold.Chemscore.Internal.Correction>
   9.000000E+99

> <Gold.Chemscore.Hbonds>
donor molecule, donor type, donor heavy atom, donor atom, acceptor molecule, acceptor atom, score
      P1  H  6896  6907       L1    12  1.00
      P1  H  6931  6943       L1    15  0.16
      P1  H  6934  6947       L1    15  0.45

> <Gold.Chemscore.Hbond.Weighted>
-5.7753

> <Gold.Chemscore.Metal.Weighted>
-0.0000

> <Gold.Chemscore.Lipo.Weighted>
-9.5834

> <Gold.Chemscore.Internal_Hbond.Weighted>
0.0000

> <Gold.Chemscore.DEClash.Weighted>
0.1314

> <Gold.Chemscore.DEInternal.Weighted>
1.5642

> <Gold.Chemscore.Rot.Weighted>
5.8766

> <Gold.Chemscore.Internal.Correction.Weighted>
   9.000000E+99

> <Gold.Protein.RotatedTorsions>
[ 6907 6896 6895 6894 ] final  -24.44 input  -60.11 | X-H torsion
[ 7974 7965 7964 7962 ] final  -17.92 input  175.53 | X-H torsion
[ 8008 7997 7996 7995 ] final -136.07 input   59.86 | X-H torsion
[ 10167 10162 10161 10158 ] final  -86.86 input  -65.29 | X-H torsion
[ 10718 10713 10712 10709 ] final -151.15 input   66.30 | X-H torsion
[ 10763 10752 10751 10750 ] final -166.82 input  -60.55 | X-H torsion
[ 11005 11000 10999 10996 ] final  102.09 input  -57.11 | X-H torsion

> <Gold.Protein.ActiveResidues>
 VAL166  LYS551  ARG553  GLY616  TRP617  ASP618  TYR619  PRO620  LYS621  CYS622 
 ASP623  PHE694  ASN695  SER759  ASP760  ASP761  ALA762  ILE779  LEU786  VAL792 
 PHE793  MET794  SER795  GLU796  ALA797  LYS798  CYS799  TRP800  GLU811  SER814 

> <Gold.Protein.RotatedAtoms>
  151.1895  135.0396  159.8826 H   0  0  0  0  0  0  0  0  0  0  0  0  # atno 6907 bound_to 6896
  152.5440  134.0972  159.8312 H   0  0  0  0  0  0  0  0  0  0  0  0  # atno 6908 bound_to 6896
  151.1099  133.5134  159.2638 H   0  0  0  0  0  0  0  0  0  0  0  0  # atno 6909 bound_to 6896
  146.1917  140.3848  142.8455 H   0  0  0  0  0  0  0  0  0  0  0  0  # atno 7974 bound_to 7965
  155.3891  140.0499  157.3041 H   0  0  0  0  0  0  0  0  0  0  0  0  # atno 8008 bound_to 7997
  154.5045  140.2169  155.9241 H   0  0  0  0  0  0  0  0  0  0  0  0  # atno 8009 bound_to 7997
  156.1508  140.3136  155.8650 H   0  0  0  0  0  0  0  0  0  0  0  0  # atno 8010 bound_to 7997
  140.3900  143.2709  151.9276 H   0  0  0  0  0  0  0  0  0  0  0  0  # atno 10167 bound_to 10162
  156.4555  130.8188  151.2419 H   0  0  0  0  0  0  0  0  0  0  0  0  # atno 10718 bound_to 10713
  154.6794  135.2952  154.9633 H   0  0  0  0  0  0  0  0  0  0  0  0  # atno 10763 bound_to 10752
  154.0633  135.6628  153.4818 H   0  0  0  0  0  0  0  0  0  0  0  0  # atno 10764 bound_to 10752
  153.0537  135.5157  154.7830 H   0  0  0  0  0  0  0  0  0  0  0  0  # atno 10765 bound_to 10752
  139.8776  134.9210  156.5006 H   0  0  0  0  0  0  0  0  0  0  0  0  # atno 11005 bound_to 11000
  144.8500  140.6987  143.6174 LP  0  0  0  0  0  0  0  0  0  0  0  0  # atno 17320 bound_to 7965
  145.3771  139.1645  143.4301 LP  0  0  0  0  0  0  0  0  0  0  0  0  # atno 17321 bound_to 7965
  139.4789  144.5736  151.8048 LP  0  0  0  0  0  0  0  0  0  0  0  0  # atno 17342 bound_to 10162
  140.4849  144.1395  150.5939 LP  0  0  0  0  0  0  0  0  0  0  0  0  # atno 17343 bound_to 10162
  157.7501  131.0124  150.3383 LP  0  0  0  0  0  0  0  0  0  0  0  0  # atno 17370 bound_to 10713
  156.3771  130.3874  149.7130 LP  0  0  0  0  0  0  0  0  0  0  0  0  # atno 17371 bound_to 10713
  140.8592  133.8072  155.9248 LP  0  0  0  0  0  0  0  0  0  0  0  0  # atno 17394 bound_to 11000
  140.9066  134.2312  157.5010 LP  0  0  0  0  0  0  0  0  0  0  0  0  # atno 17395 bound_to 11000

$$$$
