AV-unprocessed.smi:1422|AV-procd|sdf|5792|dock8
  -GOLD-   22720 5443D 1   1.00000     0.00000
 Structure written by MMmdl.
 31 32  0  0  0  0  0  0  0  0  1 V2000
  144.3642  131.8080  150.4729 C   0  0  0  0  0  0  0  0  0  0  0  0
  144.6636  133.1353  151.0806 C   0  0  0  0  0  0  0  0  0  0  0  0
  145.7824  133.9199  151.0963 C   0  0  0  0  0  0  0  0  0  0  0  0
  145.3726  135.0457  151.8590 C   0  0  0  0  0  0  0  0  0  0  0  0
  146.2681  136.1151  152.1152 N   0  0  0  0  0  0  0  0  0  0  0  0
  145.9605  137.3765  152.4623 C   0  0  0  0  0  0  0  0  0  0  0  0
  144.8184  137.8132  152.6079 O   0  0  0  0  0  0  0  0  0  0  0  0
  147.0654  138.1176  152.6302 N   0  0  0  0  0  0  0  0  0  0  0  0
  147.0909  139.5292  153.0012 C   0  0  0  0  0  0  0  0  0  0  0  0
  148.0551  139.7951  154.1722 C   0  0  2  0  0  0  0  0  0  0  0  0
  148.3500  141.2630  154.4022 C   0  0  0  0  0  0  0  0  0  0  0  0
  149.6125  141.1993  155.2565 C   0  0  0  0  0  0  0  0  0  0  0  0
  150.3051  140.0266  154.8384 O   0  0  0  0  0  0  0  0  0  0  0  0
  149.4708  139.2425  153.9908 C   0  0  0  0  0  0  0  0  0  0  0  0
  144.1169  134.9573  152.2700 N   0  0  0  0  0  0  0  0  0  0  0  0
  143.6563  133.7320  151.7739 O   0  0  0  0  0  0  0  0  0  0  0  0
  145.1289  131.5305  149.7474 H   0  0  0  0  0  0  0  0  0  0  0  0
  143.4024  131.8240  149.9601 H   0  0  0  0  0  0  0  0  0  0  0  0
  144.3270  131.0331  151.2388 H   0  0  0  0  0  0  0  0  0  0  0  0
  146.7382  133.7174  150.6364 H   0  0  0  0  0  0  0  0  0  0  0  0
  147.2489  135.8946  152.0276 H   0  0  0  0  0  0  0  0  0  0  0  0
  147.9603  137.6722  152.4885 H   0  0  0  0  0  0  0  0  0  0  0  0
  147.3429  140.1549  152.1431 H   0  0  0  0  0  0  0  0  0  0  0  0
  146.0791  139.8103  153.2942 H   0  0  0  0  0  0  0  0  0  0  0  0
  147.6328  139.3824  155.0902 H   0  0  0  0  0  0  0  0  0  0  0  0
  148.5643  141.7621  153.4557 H   0  0  0  0  0  0  0  0  0  0  0  0
  147.5329  141.7944  154.8911 H   0  0  0  0  0  0  0  0  0  0  0  0
  150.2333  142.0891  155.1506 H   0  0  0  0  0  0  0  0  0  0  0  0
  149.3533  141.0903  156.3102 H   0  0  0  0  0  0  0  0  0  0  0  0
  149.5406  138.1824  154.2357 H   0  0  0  0  0  0  0  0  0  0  0  0
  149.8085  139.3744  152.9620 H   0  0  0  0  0  0  0  0  0  0  0  0
  1  2  1  0  0  0  0
  1 17  1  0  0  0  0
  1 18  1  0  0  0  0
  1 19  1  0  0  0  0
  2 16  1  0  0  0  0
  2  3  2  0  0  0  0
  3  4  1  0  0  0  0
  3 20  1  0  0  0  0
  4  5  1  0  0  0  0
  4 15  2  0  0  0  0
  5  6  1  0  0  0  0
  5 21  1  0  0  0  0
  6  7  2  0  0  0  0
  6  8  1  0  0  0  0
  8  9  1  0  0  0  0
  8 22  1  0  0  0  0
  9 10  1  0  0  0  0
  9 23  1  0  0  0  0
  9 24  1  0  0  0  0
 10 14  1  0  0  0  0
 10 11  1  0  0  0  0
 10 25  1  0  0  0  0
 11 12  1  0  0  0  0
 11 26  1  0  0  0  0
 11 27  1  0  0  0  0
 12 13  1  0  0  0  0
 12 28  1  0  0  0  0
 12 29  1  0  0  0  0
 13 14  1  0  0  0  0
 14 30  1  0  0  0  0
 14 31  1  0  0  0  0
 15 16  1  0  0  0  0
M  END
> <s_m_source_file>
AV-unprocessed.smi

> <i_m_source_file_index>
1422

> <i_lp_mmshare_version>
43012

> <i_f3d_flags>
0

> <s_epik_input>
W0NIM11jMVtjSF1jKG5vMSlbTkhdQyg9TylbTkhdW0NIMl1bQ0BASF0yW0NIMl1bQ0gyXU9bQ0gyXTI=

> <s_epik_cmdline>
J2VwaWtfcHl0aG9uJywgJy1waCcsICc3LjAnLCAnLXRuJywgJzgnLCAnLW1hJywgJzIwMCcsICctbWV0YWxfYmluZGluZycsICctaW1hZScsICc8aW5maWxlLm1hZT4nLCAnLW9tYWUnLCAnPG91dGZpbGUubWFlPic=

> <r_lp_tautomer_probability>
1

> <r_epik_Ionization_Penalty>
2.27275e-05

> <r_epik_Ionization_Penalty_Charging>
0

> <r_epik_Ionization_Penalty_Neutral>
2.27275e-05

> <r_epik_State_Penalty>
-0

> <r_epik_Charging_Adjusted_Penalty>
0

> <i_epik_Tot_Q>
0

> <i_epik_Tot_abs_Q>
0

> <r_epik_Metal_State_Penalty>
-0

> <b_epik_Metal_Only>
0

> <s_lp_Force_Field>
OPLS_2005

> <r_lp_Energy>
16.1313

> <b_lp_Chiralities_Consistent>
1

> <s_lp_Variant>
AV-unprocessed.smi:1422-1

> <Gold.Version>
5.8.1

> <Gold.Id.Protein>
6NUR|6NUR_protein|mol2

> <Gold.PLP.Fitness>
34.1081

> <Gold.PLP.PLP>
-25.5086

> <Gold.PLP.part.hbond>
-3.0000

> <Gold.PLP.part.metal>
0.0000

> <Gold.PLP.part.buried>
-2.0236

> <Gold.PLP.part.nonpolar>
-22.3502

> <Gold.PLP.part.repulsive>
1.9456

> <Gold.PLP.ligand.clash>
0.0000

> <Gold.PLP.ligand.torsion>
0.2030

> <Gold.PLP.Chemscore.Hbond>
3.0000

> <Gold.PLP.Chemscore.CHOScore>
0.0000

> <Gold.PLP.Chemscore.Metal>
0.0000

> <Gold.Chemscore.Hbonds>
donor molecule, donor type, donor heavy atom, donor atom, acceptor molecule, acceptor atom, score
      L1  H     5    21       P1  7948  1.00
      L1  H     8    22       P1  7948  1.00
      P1  H  7989  7998       L1    13  0.86

> <Gold.PLP.Chemscore.Internal.Correction>
0.0055

> <Gold.Rescore>
     Score         DG    S(hbond)    S(metal)    S(lipo)     H(rot)  DE(clash)    DE(int)     intcor
     15.22     -18.11       2.64        0.00      60.87       1.30       1.63       1.26       ----

> <Gold.Chemscore.Fitness>
15.2233

> <Gold.Chemscore.DG>
-18.1058

> <Gold.Chemscore.ZeroCoef>
-5.4800

> <Gold.Chemscore.Hbond>
2.6418

> <Gold.Chemscore.Metal>
0.0000

> <Gold.Chemscore.Lipo>
60.8663

> <Gold.Chemscore.Internal_Hbond>
0.0000

> <Gold.Chemscore.DEClash>
1.6256

> <Gold.Chemscore.DEInternal>
1.2570

> <Gold.Chemscore.Rot>
1.2965

> <Gold.Chemscore.Internal.Correction>
   9.000000E+99

> <Gold.Chemscore.Hbonds>
donor molecule, donor type, donor heavy atom, donor atom, acceptor molecule, acceptor atom, score
      L1  H     5    21       P1  7948  0.99
      L1  H     8    22       P1  7948  0.94
      P1  H  7989  7998       L1    13  0.07

> <Gold.Chemscore.Hbond.Weighted>
-8.8236

> <Gold.Chemscore.Metal.Weighted>
-0.0000

> <Gold.Chemscore.Lipo.Weighted>
-7.1214

> <Gold.Chemscore.Internal_Hbond.Weighted>
0.0000

> <Gold.Chemscore.DEClash.Weighted>
1.6256

> <Gold.Chemscore.DEInternal.Weighted>
1.2570

> <Gold.Chemscore.Rot.Weighted>
3.3192

> <Gold.Chemscore.Internal.Correction.Weighted>
   9.000000E+99

> <Gold.Protein.RotatedTorsions>
[ 6907 6896 6895 6894 ] final  178.11 input  -60.11 | X-H torsion
[ 7974 7965 7964 7962 ] final -140.73 input  175.53 | X-H torsion
[ 8008 7997 7996 7995 ] final   43.27 input   59.86 | X-H torsion
[ 10167 10162 10161 10158 ] final  169.32 input  -65.29 | X-H torsion
[ 10718 10713 10712 10709 ] final  164.82 input   66.30 | X-H torsion
[ 10763 10752 10751 10750 ] final   16.12 input  -60.55 | X-H torsion
[ 11005 11000 10999 10996 ] final  145.21 input  -57.11 | X-H torsion

> <Gold.Protein.ActiveResidues>
 VAL166  LYS551  ARG553  GLY616  TRP617  ASP618  TYR619  PRO620  LYS621  CYS622 
 ASP623  PHE694  ASN695  SER759  ASP760  ASP761  ALA762  ILE779  LEU786  VAL792 
 PHE793  MET794  SER795  GLU796  ALA797  LYS798  CYS799  TRP800  GLU811  SER814 

> <Gold.Protein.RotatedAtoms>
  151.6931  133.3311  159.3247 H   0  0  0  0  0  0  0  0  0  0  0  0  # atno 6907 bound_to 6896
  150.7769  134.6681  159.6386 H   0  0  0  0  0  0  0  0  0  0  0  0  # atno 6908 bound_to 6896
  152.3815  134.6586  160.0193 H   0  0  0  0  0  0  0  0  0  0  0  0  # atno 6909 bound_to 6896
  144.8574  140.6164  143.5350 H   0  0  0  0  0  0  0  0  0  0  0  0  # atno 7974 bound_to 7965
  155.3000  140.3384  155.4248 H   0  0  0  0  0  0  0  0  0  0  0  0  # atno 8008 bound_to 7997
  156.2006  140.1731  156.7947 H   0  0  0  0  0  0  0  0  0  0  0  0  # atno 8009 bound_to 7997
  154.5554  140.0697  156.8718 H   0  0  0  0  0  0  0  0  0  0  0  0  # atno 8010 bound_to 7997
  139.4989  144.3718  151.9716 H   0  0  0  0  0  0  0  0  0  0  0  0  # atno 10167 bound_to 10162
  157.0890  131.0412  151.2545 H   0  0  0  0  0  0  0  0  0  0  0  0  # atno 10718 bound_to 10713
  153.1461  135.6769  153.8953 H   0  0  0  0  0  0  0  0  0  0  0  0  # atno 10763 bound_to 10752
  153.8394  135.3107  155.3426 H   0  0  0  0  0  0  0  0  0  0  0  0  # atno 10764 bound_to 10752
  154.7826  135.4880  153.9962 H   0  0  0  0  0  0  0  0  0  0  0  0  # atno 10765 bound_to 10752
  140.0694  134.9160  157.1319 H   0  0  0  0  0  0  0  0  0  0  0  0  # atno 11005 bound_to 11000
  145.4379  139.1539  143.3986 LP  0  0  0  0  0  0  0  0  0  0  0  0  # atno 17320 bound_to 7965
  146.2834  140.4499  142.8767 LP  0  0  0  0  0  0  0  0  0  0  0  0  # atno 17321 bound_to 7965
  140.3155  144.3489  150.6023 LP  0  0  0  0  0  0  0  0  0  0  0  0  # atno 17342 bound_to 10162
  140.5765  143.2176  151.7506 LP  0  0  0  0  0  0  0  0  0  0  0  0  # atno 17343 bound_to 10162
  157.4737  130.7724  149.7348 LP  0  0  0  0  0  0  0  0  0  0  0  0  # atno 17370 bound_to 10713
  155.9903  130.3945  150.3034 LP  0  0  0  0  0  0  0  0  0  0  0  0  # atno 17371 bound_to 10713
  140.3650  134.2452  155.7183 LP  0  0  0  0  0  0  0  0  0  0  0  0  # atno 17394 bound_to 11000
  141.2006  133.7984  157.0483 LP  0  0  0  0  0  0  0  0  0  0  0  0  # atno 17395 bound_to 11000

$$$$
