AV-unprocessed.smi:3289|AV-procd|sdf|12610|dock5
  -GOLD-   2272018543D 1   1.00000     0.00000
 Structure written by MMmdl.
 39 40  0  0  0  0  0  0  0  0  1 V2000
  152.6641  141.3869  159.8966 C   0  0  0  0  0  0  0  0  0  0  0  0
  153.1036  142.7396  160.4743 C   0  0  0  0  0  0  0  0  0  0  0  0
  153.5304  142.6252  161.9456 C   0  0  0  0  0  0  0  0  0  0  0  0
  152.0439  143.7909  160.2818 C   0  0  0  0  0  0  0  0  0  0  0  0
  151.5728  144.5380  161.2778 N   0  0  0  0  0  0  0  0  0  0  0  0
  150.6036  145.3468  160.6980 C   0  0  0  0  0  0  0  0  0  0  0  0
  150.5102  145.0530  159.3605 C   0  0  0  0  0  0  0  0  0  0  0  0
  151.4337  144.0467  159.1028 N   0  0  0  0  0  0  0  0  0  0  0  0
  151.6470  143.4241  157.8041 C   0  0  0  0  0  0  0  0  0  0  0  0
  150.6084  142.3331  157.5335 C   0  0  0  0  0  0  0  0  0  0  0  0
  149.7039  142.1310  158.3436 O   0  0  0  0  0  0  0  0  0  0  0  0
  150.7531  141.6350  156.3966 N   0  0  0  0  0  0  0  0  0  0  0  0
  149.8771  140.5550  155.9574 C   0  0  0  0  0  0  0  0  0  0  0  0
  150.5982  139.1974  155.9853 C   0  0  1  0  0  0  0  0  0  0  0  0
  149.8617  138.0949  155.2312 C   0  0  0  0  0  0  0  0  0  0  0  0
  150.9664  137.0854  154.9998 C   0  0  0  0  0  0  0  0  0  0  0  0
  152.2131  137.9610  154.8544 C   0  0  0  0  0  0  0  0  0  0  0  0
  151.8463  139.2613  155.3079 O   0  0  0  0  0  0  0  0  0  0  0  0
  152.4328  141.4725  158.8343 H   0  0  0  0  0  0  0  0  0  0  0  0
  151.7749  141.0085  160.4017 H   0  0  0  0  0  0  0  0  0  0  0  0
  153.4509  140.6400  160.0032 H   0  0  0  0  0  0  0  0  0  0  0  0
  153.9952  143.0364  159.9261 H   0  0  0  0  0  0  0  0  0  0  0  0
  153.8932  143.5816  162.3234 H   0  0  0  0  0  0  0  0  0  0  0  0
  154.3330  141.8973  162.0664 H   0  0  0  0  0  0  0  0  0  0  0  0
  152.7000  142.3103  162.5785 H   0  0  0  0  0  0  0  0  0  0  0  0
  150.0510  146.0671  161.2827 H   0  0  0  0  0  0  0  0  0  0  0  0
  149.8721  145.4603  158.5901 H   0  0  0  0  0  0  0  0  0  0  0  0
  151.5636  144.1874  157.0296 H   0  0  0  0  0  0  0  0  0  0  0  0
  152.6644  143.0362  157.7456 H   0  0  0  0  0  0  0  0  0  0  0  0
  151.5243  141.8714  155.7892 H   0  0  0  0  0  0  0  0  0  0  0  0
  149.0249  140.5282  156.6368 H   0  0  0  0  0  0  0  0  0  0  0  0
  149.4723  140.7591  154.9646 H   0  0  0  0  0  0  0  0  0  0  0  0
  150.7738  138.8794  157.0148 H   0  0  0  0  0  0  0  0  0  0  0  0
  149.0194  137.6850  155.7891 H   0  0  0  0  0  0  0  0  0  0  0  0
  149.4917  138.4678  154.2750 H   0  0  0  0  0  0  0  0  0  0  0  0
  151.0668  136.4381  155.8723 H   0  0  0  0  0  0  0  0  0  0  0  0
  150.7872  136.4542  154.1289 H   0  0  0  0  0  0  0  0  0  0  0  0
  153.0418  137.5699  155.4452 H   0  0  0  0  0  0  0  0  0  0  0  0
  152.5382  138.0247  153.8156 H   0  0  0  0  0  0  0  0  0  0  0  0
  1  2  1  0  0  0  0
  1 19  1  0  0  0  0
  1 20  1  0  0  0  0
  1 21  1  0  0  0  0
  2  3  1  0  0  0  0
  2  4  1  0  0  0  0
  2 22  1  0  0  0  0
  3 23  1  0  0  0  0
  3 24  1  0  0  0  0
  3 25  1  0  0  0  0
  4  8  1  0  0  0  0
  4  5  2  0  0  0  0
  5  6  1  0  0  0  0
  6  7  2  0  0  0  0
  6 26  1  0  0  0  0
  7  8  1  0  0  0  0
  7 27  1  0  0  0  0
  8  9  1  0  0  0  0
  9 10  1  0  0  0  0
  9 28  1  0  0  0  0
  9 29  1  0  0  0  0
 10 11  2  0  0  0  0
 10 12  1  0  0  0  0
 12 13  1  0  0  0  0
 12 30  1  0  0  0  0
 13 14  1  0  0  0  0
 13 31  1  0  0  0  0
 13 32  1  0  0  0  0
 14 18  1  0  0  0  0
 14 15  1  0  0  0  0
 14 33  1  0  0  0  0
 15 16  1  0  0  0  0
 15 34  1  0  0  0  0
 15 35  1  0  0  0  0
 16 17  1  0  0  0  0
 16 36  1  0  0  0  0
 16 37  1  0  0  0  0
 17 18  1  0  0  0  0
 17 38  1  0  0  0  0
 17 39  1  0  0  0  0
M  END
> <s_m_source_file>
AV-unprocessed.smi

> <i_m_source_file_index>
3289

> <i_lp_mmshare_version>
43012

> <i_f3d_flags>
0

> <s_epik_input>
W0NIM11bQ0hdKFtDSDNdKWMxbltjSF1bY0hdbjFbQ0gyXUMoPU8pW05IXVtDSDJdW0NAQEhdMltDSDJdW0NIMl1bQ0gyXU8y

> <s_epik_cmdline>
J2VwaWtfcHl0aG9uJywgJy1waCcsICc3LjAnLCAnLXRuJywgJzgnLCAnLW1hJywgJzIwMCcsICctbWV0YWxfYmluZGluZycsICctaW1hZScsICc8aW5maWxlLm1hZT4nLCAnLW9tYWUnLCAnPG91dGZpbGUubWFlPic=

> <r_lp_tautomer_probability>
1

> <r_epik_Ionization_Penalty>
0.587725

> <r_epik_Ionization_Penalty_Charging>
0.587725

> <r_epik_Ionization_Penalty_Neutral>
1.43432e-07

> <r_epik_State_Penalty>
0.601029

> <r_epik_Charging_Adjusted_Penalty>
1.18875

> <i_epik_Tot_Q>
0

> <i_epik_Tot_abs_Q>
0

> <r_epik_Metal_State_Penalty>
0.297663

> <b_epik_Metal_Only>
0

> <s_lp_Force_Field>
OPLS_2005

> <r_lp_Energy>
18.4157

> <b_lp_Chiralities_Consistent>
1

> <s_lp_Variant>
AV-unprocessed.smi:3289-4

> <Gold.Version>
5.8.1

> <Gold.Id.Protein>
6NUR|6NUR_protein|mol2

> <Gold.PLP.Fitness>
46.6122

> <Gold.PLP.PLP>
-42.1330

> <Gold.PLP.part.hbond>
-1.0000

> <Gold.PLP.part.metal>
0.0000

> <Gold.PLP.part.buried>
-4.1859

> <Gold.PLP.part.nonpolar>
-38.7038

> <Gold.PLP.part.repulsive>
0.9541

> <Gold.PLP.ligand.clash>
0.0000

> <Gold.PLP.ligand.torsion>
0.5124

> <Gold.PLP.Chemscore.Hbond>
0.8960

> <Gold.PLP.Chemscore.CHOScore>
0.9142

> <Gold.PLP.Chemscore.Metal>
0.0000

> <Gold.Chemscore.Hbonds>
donor molecule, donor type, donor heavy atom, donor atom, acceptor molecule, acceptor atom, score
      P1  H  7989  7998       L1    18  0.03
      L1  C     7    27       P1  8029  1.00

> <Gold.PLP.Chemscore.Internal.Correction>
0.0732

> <Gold.Rescore>
     Score         DG    S(hbond)    S(metal)    S(lipo)     H(rot)  DE(clash)    DE(int)     intcor
     13.22     -14.67       0.61        0.00      98.80       1.72       1.07       0.38       ----

> <Gold.Chemscore.Fitness>
13.2190

> <Gold.Chemscore.DG>
-14.6706

> <Gold.Chemscore.ZeroCoef>
-5.4800

> <Gold.Chemscore.Hbond>
0.6072

> <Gold.Chemscore.Metal>
0.0000

> <Gold.Chemscore.Lipo>
98.7976

> <Gold.Chemscore.Internal_Hbond>
0.0000

> <Gold.Chemscore.DEClash>
1.0684

> <Gold.Chemscore.DEInternal>
0.3831

> <Gold.Chemscore.Rot>
1.7175

> <Gold.Chemscore.Internal.Correction>
   9.000000E+99

> <Gold.Chemscore.Hbonds>
donor molecule, donor type, donor heavy atom, donor atom, acceptor molecule, acceptor atom, score
      P1  H  7989  7998       L1    18  0.05

> <Gold.Chemscore.Hbond.Weighted>
-2.0280

> <Gold.Chemscore.Metal.Weighted>
-0.0000

> <Gold.Chemscore.Lipo.Weighted>
-11.5593

> <Gold.Chemscore.Internal_Hbond.Weighted>
0.0000

> <Gold.Chemscore.DEClash.Weighted>
1.0684

> <Gold.Chemscore.DEInternal.Weighted>
0.3831

> <Gold.Chemscore.Rot.Weighted>
4.3967

> <Gold.Chemscore.Internal.Correction.Weighted>
   9.000000E+99

> <Gold.Protein.RotatedTorsions>
[ 6907 6896 6895 6894 ] final  -85.38 input  -60.11 | X-H torsion
[ 7974 7965 7964 7962 ] final -140.79 input  175.53 | X-H torsion
[ 8008 7997 7996 7995 ] final  100.98 input   59.86 | X-H torsion
[ 10167 10162 10161 10158 ] final    6.92 input  -65.29 | X-H torsion
[ 10718 10713 10712 10709 ] final   29.69 input   66.30 | X-H torsion
[ 10763 10752 10751 10750 ] final -138.56 input  -60.55 | X-H torsion
[ 11005 11000 10999 10996 ] final -164.45 input  -57.11 | X-H torsion

> <Gold.Protein.ActiveResidues>
 VAL166  LYS551  ARG553  GLY616  TRP617  ASP618  TYR619  PRO620  LYS621  CYS622 
 ASP623  PHE694  ASN695  SER759  ASP760  ASP761  ALA762  ILE779  LEU786  VAL792 
 PHE793  MET794  SER795  GLU796  ALA797  LYS798  CYS799  TRP800  GLU811  SER814 

> <Gold.Protein.RotatedAtoms>
  150.6870  134.3214  159.4787 H   0  0  0  0  0  0  0  0  0  0  0  0  # atno 6907 bound_to 6896
  152.1089  134.9286  160.0576 H   0  0  0  0  0  0  0  0  0  0  0  0  # atno 6908 bound_to 6896
  152.0536  133.3995  159.4424 H   0  0  0  0  0  0  0  0  0  0  0  0  # atno 6909 bound_to 6896
  144.8569  140.6157  143.5353 H   0  0  0  0  0  0  0  0  0  0  0  0  # atno 7974 bound_to 7965
  156.1256  140.3204  155.8272 H   0  0  0  0  0  0  0  0  0  0  0  0  # atno 8008 bound_to 7997
  155.4426  140.0526  157.3026 H   0  0  0  0  0  0  0  0  0  0  0  0  # atno 8009 bound_to 7997
  154.4860  140.2073  155.9668 H   0  0  0  0  0  0  0  0  0  0  0  0  # atno 8010 bound_to 7997
  140.6401  143.7794  150.7415 H   0  0  0  0  0  0  0  0  0  0  0  0  # atno 10167 bound_to 10162
  157.2498  130.7109  149.6399 H   0  0  0  0  0  0  0  0  0  0  0  0  # atno 10718 bound_to 10713
  154.8633  135.3608  154.5405 H   0  0  0  0  0  0  0  0  0  0  0  0  # atno 10763 bound_to 10752
  153.6026  135.7012  153.5383 H   0  0  0  0  0  0  0  0  0  0  0  0  # atno 10764 bound_to 10752
  153.3277  135.4133  155.1431 H   0  0  0  0  0  0  0  0  0  0  0  0  # atno 10765 bound_to 10752
  140.5868  134.5085  157.5187 H   0  0  0  0  0  0  0  0  0  0  0  0  # atno 11005 bound_to 11000
  145.4388  139.1538  143.3982 LP  0  0  0  0  0  0  0  0  0  0  0  0  # atno 17320 bound_to 7965
  146.2830  140.4508  142.8769 LP  0  0  0  0  0  0  0  0  0  0  0  0  # atno 17321 bound_to 7965
  140.1424  143.4429  152.2185 LP  0  0  0  0  0  0  0  0  0  0  0  0  # atno 17342 bound_to 10162
  139.5610  144.7405  151.4155 LP  0  0  0  0  0  0  0  0  0  0  0  0  # atno 17343 bound_to 10162
  155.9666  130.4431  150.5408 LP  0  0  0  0  0  0  0  0  0  0  0  0  # atno 17370 bound_to 10713
  157.3290  131.0696  151.1875 LP  0  0  0  0  0  0  0  0  0  0  0  0  # atno 17371 bound_to 10713
  139.9292  134.7996  156.0980 LP  0  0  0  0  0  0  0  0  0  0  0  0  # atno 17394 bound_to 11000
  141.0961  133.6695  156.2647 LP  0  0  0  0  0  0  0  0  0  0  0  0  # atno 17395 bound_to 11000

$$$$
