AV-unprocessed.smi:3258|AV-procd|sdf|12468|dock1
  -GOLD-   2272018363D 1   1.00000     0.00000
 Structure written by MMmdl.
 38 39  0  0  0  0  0  0  0  0  1 V2000
  145.9192  134.1855  155.2157 C   0  0  0  0  0  0  0  0  0  0  0  0
  145.7331  134.3050  153.6942 C   0  0  2  0  0  0  0  0  0  0  0  0
  146.1765  133.0413  152.9247 C   0  0  0  0  0  0  0  0  0  0  0  0
  145.4243  132.8372  151.7002 N   0  0  0  0  0  0  0  0  0  0  0  0
  145.9024  132.4930  150.4537 C   0  0  0  0  0  0  0  0  0  0  0  0
  144.8280  132.4128  149.6149 C   0  0  0  0  0  0  0  0  0  0  0  0
  143.7211  132.7266  150.4524 C   0  0  0  0  0  0  0  0  0  0  0  0
  144.0809  132.9784  151.7007 N   0  0  0  0  0  0  0  0  0  0  0  0
  146.4694  135.4703  153.2122 N   0  0  0  0  0  0  0  0  0  0  0  0
  146.1274  136.7475  153.4333 C   0  0  0  0  0  0  0  0  0  0  0  0
  145.1393  137.0953  154.0800 O   0  0  0  0  0  0  0  0  0  0  0  0
  146.9879  137.5983  152.8570 N   0  0  0  0  0  0  0  0  0  0  0  0
  146.8931  139.0541  152.8975 C   0  0  0  0  0  0  0  0  0  0  0  0
  147.8265  139.6604  153.9622 C   0  0  2  0  0  0  0  0  0  0  0  0
  147.9714  141.1653  153.8635 C   0  0  0  0  0  0  0  0  0  0  0  0
  149.2445  141.4211  154.6667 C   0  0  0  0  0  0  0  0  0  0  0  0
  150.0271  140.2354  154.5550 O   0  0  0  0  0  0  0  0  0  0  0  0
  149.2906  139.2286  153.8688 C   0  0  0  0  0  0  0  0  0  0  0  0
  145.3132  133.3802  155.6312 H   0  0  0  0  0  0  0  0  0  0  0  0
  145.6224  135.1056  155.7205 H   0  0  0  0  0  0  0  0  0  0  0  0
  146.9599  133.9851  155.4723 H   0  0  0  0  0  0  0  0  0  0  0  0
  144.6696  134.4686  153.5092 H   0  0  0  0  0  0  0  0  0  0  0  0
  147.2321  133.1089  152.6586 H   0  0  0  0  0  0  0  0  0  0  0  0
  146.0731  132.1571  153.5562 H   0  0  0  0  0  0  0  0  0  0  0  0
  146.9554  132.3373  150.2703 H   0  0  0  0  0  0  0  0  0  0  0  0
  144.8322  132.1667  148.5634 H   0  0  0  0  0  0  0  0  0  0  0  0
  142.6741  132.7774  150.1926 H   0  0  0  0  0  0  0  0  0  0  0  0
  147.2988  135.2885  152.6660 H   0  0  0  0  0  0  0  0  0  0  0  0
  147.7677  137.2099  152.3468 H   0  0  0  0  0  0  0  0  0  0  0  0
  147.0951  139.4852  151.9154 H   0  0  0  0  0  0  0  0  0  0  0  0
  145.8596  139.3087  153.1335 H   0  0  0  0  0  0  0  0  0  0  0  0
  147.4510  139.4151  154.9573 H   0  0  0  0  0  0  0  0  0  0  0  0
  148.1200  141.4652  152.8249 H   0  0  0  0  0  0  0  0  0  0  0  0
  147.1089  141.7065  154.2537 H   0  0  0  0  0  0  0  0  0  0  0  0
  149.7913  142.2933  154.3074 H   0  0  0  0  0  0  0  0  0  0  0  0
  149.0073  141.5810  155.7189 H   0  0  0  0  0  0  0  0  0  0  0  0
  149.4683  138.2429  154.2994 H   0  0  0  0  0  0  0  0  0  0  0  0
  149.6214  139.2084  152.8294 H   0  0  0  0  0  0  0  0  0  0  0  0
  1  2  1  0  0  0  0
  1 19  1  0  0  0  0
  1 20  1  0  0  0  0
  1 21  1  0  0  0  0
  2  3  1  0  0  0  0
  2  9  1  0  0  0  0
  2 22  1  0  0  0  0
  3  4  1  0  0  0  0
  3 23  1  0  0  0  0
  3 24  1  0  0  0  0
  4  8  1  0  0  0  0
  4  5  1  0  0  0  0
  5  6  2  0  0  0  0
  5 25  1  0  0  0  0
  6  7  1  0  0  0  0
  6 26  1  0  0  0  0
  7  8  2  0  0  0  0
  7 27  1  0  0  0  0
  9 10  1  0  0  0  0
  9 28  1  0  0  0  0
 10 11  2  0  0  0  0
 10 12  1  0  0  0  0
 12 13  1  0  0  0  0
 12 29  1  0  0  0  0
 13 14  1  0  0  0  0
 13 30  1  0  0  0  0
 13 31  1  0  0  0  0
 14 18  1  0  0  0  0
 14 15  1  0  0  0  0
 14 32  1  0  0  0  0
 15 16  1  0  0  0  0
 15 33  1  0  0  0  0
 15 34  1  0  0  0  0
 16 17  1  0  0  0  0
 16 35  1  0  0  0  0
 16 36  1  0  0  0  0
 17 18  1  0  0  0  0
 18 37  1  0  0  0  0
 18 38  1  0  0  0  0
M  END
> <s_m_source_file>
AV-unprocessed.smi

> <i_m_source_file_index>
3258

> <i_lp_mmshare_version>
43012

> <i_f3d_flags>
0

> <s_epik_input>
bjFbY0hdW2NIXVtjSF1uMVtDSDJdW0NAQEhdKFtDSDNdKVtOSF1DKD1PKVtOSF1bQ0gyXVtDQEBIXTJbQ0gyXVtDSDJdT1tDSDJdMg==

> <s_epik_cmdline>
J2VwaWtfcHl0aG9uJywgJy1waCcsICc3LjAnLCAnLXRuJywgJzgnLCAnLW1hJywgJzIwMCcsICctbWV0YWxfYmluZGluZycsICctaW1hZScsICc8aW5maWxlLm1hZT4nLCAnLW9tYWUnLCAnPG91dGZpbGUubWFlPic=

> <r_lp_tautomer_probability>
1

> <r_epik_Ionization_Penalty>
6.85079e-05

> <r_epik_Ionization_Penalty_Charging>
0

> <r_epik_Ionization_Penalty_Neutral>
6.85079e-05

> <r_epik_State_Penalty>
-0

> <r_epik_Charging_Adjusted_Penalty>
0

> <i_epik_Tot_Q>
0

> <i_epik_Tot_abs_Q>
0

> <r_epik_Metal_State_Penalty>
-0

> <b_epik_Metal_Only>
0

> <s_lp_Force_Field>
OPLS_2005

> <r_lp_Energy>
16.0555

> <b_lp_Chiralities_Consistent>
1

> <s_lp_Variant>
AV-unprocessed.smi:3258-1

> <Gold.Version>
5.8.1

> <Gold.Id.Protein>
6NUR|6NUR_protein|mol2

> <Gold.PLP.Fitness>
42.4076

> <Gold.PLP.PLP>
-29.4619

> <Gold.PLP.part.hbond>
-3.0000

> <Gold.PLP.part.metal>
0.0000

> <Gold.PLP.part.buried>
-2.5752

> <Gold.PLP.part.nonpolar>
-24.9171

> <Gold.PLP.part.repulsive>
0.3843

> <Gold.PLP.ligand.clash>
0.0000

> <Gold.PLP.ligand.torsion>
0.8910

> <Gold.PLP.Chemscore.Hbond>
2.8560

> <Gold.PLP.Chemscore.CHOScore>
2.0000

> <Gold.PLP.Chemscore.Metal>
0.0000

> <Gold.Chemscore.Hbonds>
donor molecule, donor type, donor heavy atom, donor atom, acceptor molecule, acceptor atom, score
      L1  H     9    28       P1  7948  0.83
      L1  H    12    29       P1  7948  1.00
      P1  H  7989  7998       L1    17  1.00
      L1  C     5    25       P1 10747  1.00
      L1  C     7    27       P1 10186  1.00

> <Gold.PLP.Chemscore.Internal.Correction>
0.1597

> <Gold.Rescore>
     Score         DG    S(hbond)    S(metal)    S(lipo)     H(rot)  DE(clash)    DE(int)     intcor
     15.78     -17.79       2.57        0.00      72.72       1.87       1.39       0.62       ----

> <Gold.Chemscore.Fitness>
15.7820

> <Gold.Chemscore.DG>
-17.7891

> <Gold.Chemscore.ZeroCoef>
-5.4800

> <Gold.Chemscore.Hbond>
2.5731

> <Gold.Chemscore.Metal>
0.0000

> <Gold.Chemscore.Lipo>
72.7193

> <Gold.Chemscore.Internal_Hbond>
0.0000

> <Gold.Chemscore.DEClash>
1.3883

> <Gold.Chemscore.DEInternal>
0.6189

> <Gold.Chemscore.Rot>
1.8724

> <Gold.Chemscore.Internal.Correction>
   9.000000E+99

> <Gold.Chemscore.Hbonds>
donor molecule, donor type, donor heavy atom, donor atom, acceptor molecule, acceptor atom, score
      L1  H     9    28       P1  7948  0.77
      L1  H    12    29       P1  7948  0.99
      P1  H  7989  7998       L1    17  0.25

> <Gold.Chemscore.Hbond.Weighted>
-8.5942

> <Gold.Chemscore.Metal.Weighted>
-0.0000

> <Gold.Chemscore.Lipo.Weighted>
-8.5082

> <Gold.Chemscore.Internal_Hbond.Weighted>
0.0000

> <Gold.Chemscore.DEClash.Weighted>
1.3883

> <Gold.Chemscore.DEInternal.Weighted>
0.6189

> <Gold.Chemscore.Rot.Weighted>
4.7933

> <Gold.Chemscore.Internal.Correction.Weighted>
   9.000000E+99

> <Gold.Protein.RotatedTorsions>
[ 6907 6896 6895 6894 ] final  -34.97 input  -60.11 | X-H torsion
[ 7974 7965 7964 7962 ] final  114.05 input  175.53 | X-H torsion
[ 8008 7997 7996 7995 ] final  -33.30 input   59.86 | X-H torsion
[ 10167 10162 10161 10158 ] final -110.87 input  -65.29 | X-H torsion
[ 10718 10713 10712 10709 ] final  167.48 input   66.30 | X-H torsion
[ 10763 10752 10751 10750 ] final  128.23 input  -60.55 | X-H torsion
[ 11005 11000 10999 10996 ] final -160.78 input  -57.11 | X-H torsion

> <Gold.Protein.ActiveResidues>
 VAL166  LYS551  ARG553  GLY616  TRP617  ASP618  TYR619  PRO620  LYS621  CYS622 
 ASP623  PHE694  ASN695  SER759  ASP760  ASP761  ALA762  ILE779  LEU786  VAL792 
 PHE793  MET794  SER795  GLU796  ALA797  LYS798  CYS799  TRP800  GLU811  SER814 

> <Gold.Protein.RotatedAtoms>
  151.0458  134.9639  159.8185 H   0  0  0  0  0  0  0  0  0  0  0  0  # atno 6907 bound_to 6896
  152.5372  134.2600  159.8941 H   0  0  0  0  0  0  0  0  0  0  0  0  # atno 6908 bound_to 6896
  151.2614  133.4257  159.2650 H   0  0  0  0  0  0  0  0  0  0  0  0  # atno 6909 bound_to 6896
  145.2093  139.2914  143.4277 H   0  0  0  0  0  0  0  0  0  0  0  0  # atno 7974 bound_to 7965
  154.4153  140.1714  156.1866 H   0  0  0  0  0  0  0  0  0  0  0  0  # atno 8008 bound_to 7997
  155.9638  140.3391  155.6490 H   0  0  0  0  0  0  0  0  0  0  0  0  # atno 8009 bound_to 7997
  155.6714  140.0712  157.2509 H   0  0  0  0  0  0  0  0  0  0  0  0  # atno 8010 bound_to 7997
  140.1397  143.4289  152.1570 H   0  0  0  0  0  0  0  0  0  0  0  0  # atno 10167 bound_to 10162
  157.0509  131.0313  151.2681 H   0  0  0  0  0  0  0  0  0  0  0  0  # atno 10718 bound_to 10713
  153.7222  135.3251  155.3269 H   0  0  0  0  0  0  0  0  0  0  0  0  # atno 10763 bound_to 10752
  154.8352  135.4502  154.1206 H   0  0  0  0  0  0  0  0  0  0  0  0  # atno 10764 bound_to 10752
  153.2329  135.6962  153.7949 H   0  0  0  0  0  0  0  0  0  0  0  0  # atno 10765 bound_to 10752
  140.6277  134.4683  157.5228 H   0  0  0  0  0  0  0  0  0  0  0  0  # atno 11005 bound_to 11000
  146.3401  140.2363  142.8594 LP  0  0  0  0  0  0  0  0  0  0  0  0  # atno 17320 bound_to 7965
  144.9872  140.8513  143.5361 LP  0  0  0  0  0  0  0  0  0  0  0  0  # atno 17321 bound_to 7965
  139.5478  144.7313  151.4529 LP  0  0  0  0  0  0  0  0  0  0  0  0  # atno 17342 bound_to 10162
  140.6768  143.8172  150.7068 LP  0  0  0  0  0  0  0  0  0  0  0  0  # atno 17343 bound_to 10162
  157.5031  130.7892  149.7625 LP  0  0  0  0  0  0  0  0  0  0  0  0  # atno 17370 bound_to 10713
  156.0008  130.3881  150.2614 LP  0  0  0  0  0  0  0  0  0  0  0  0  # atno 17371 bound_to 10713
  139.9128  134.8309  156.1469 LP  0  0  0  0  0  0  0  0  0  0  0  0  # atno 17394 bound_to 11000
  141.0697  133.6802  156.2116 LP  0  0  0  0  0  0  0  0  0  0  0  0  # atno 17395 bound_to 11000

$$$$
