#       Name:                AV-unprocessed.smi:1413
#       Creating user name   scv26
#       Creation time:       Fri Mar 27 05:39:43 2020


#       File generated by GOLD software.
#

@<TRIPOS>MOLECULE
AV-unprocessed.smi:1413
    61    63     1
SMALL
NO_CHARGES


@<TRIPOS>ATOM
      1 ****        -6.4468  -2.4501   0.4290 C.3            1 S1                 0.0000
      2 ****        -6.1122  -1.1775   1.2276 C.3            1 S1                 0.0000
      3 ****        -4.6053  -1.0059   1.5036 C.3            1 S1                 0.0000
      4 ****        -3.8993  -0.5682   0.3030 N.3            1 S1                 0.0000
      5 ****        -2.4927  -0.6620   0.3590 C.ar           1 S1                 0.0000
      6 ****        -1.8782  -1.8961   0.6741 C.ar           1 S1                 0.0000
      7 ****        -0.4736  -1.9694   0.7262 C.ar           1 S1                 0.0000
      8 ****         0.2863  -0.8114   0.4723 C.ar           1 S1                 0.0000
      9 ****         1.7025  -0.9184   0.5110 N.am           1 S1                 0.0000
     10 ****         2.6090   0.0582   0.6844 C.2            1 S1                 0.0000
     11 ****         2.3464   1.2435   0.8864 O.2            1 S1                 0.0000
     12 ****         3.8571  -0.4286   0.6272 N.am           1 S1                 0.0000
     13 ****         5.0883   0.3411   0.7984 C.3            1 S1                 0.0000
     14 ****         6.0367  -0.4457   1.7146 C.3            1 S1                 0.0000
     15 ****         5.7352   0.6408  -0.5696 C.3            1 S1                 0.0000
     16 ****         4.8769   1.4645  -1.5301 C.3            1 S1                 0.0000
     17 ****         5.8991   2.0820  -2.4692 C.3            1 S1                 0.0000
     18 ****         7.2178   1.9877  -1.6957 C.3            1 S1                 0.0000
     19 ****         6.8736   1.4741  -0.4155 O.3            1 S1                 0.0000
     20 ****        -0.4140   0.3749   0.1495 C.ar           1 S1                 0.0000
     21 ****        -1.7608   0.4481   0.0950 N.ar           1 S1                 0.0000
     22 ****        -4.4856   0.6223  -0.3057 C.3            1 S1                 0.0000
     23 ****        -5.9820   0.3979  -0.5869 C.3            1 S1                 0.0000
     24 ****        -6.6628   1.6694  -1.1045 C.3            1 S1                 0.0000
     25 ****        -6.6412   0.0010   0.6151 O.3            1 S1                 0.0000
     26 ****        -6.1463  -3.3411   0.9804 H              1 S1                 0.0000
     27 ****        -5.9382  -2.4809  -0.5343 H              1 S1                 0.0000
     28 ****        -7.5188  -2.5232   0.2451 H              1 S1                 0.0000
     29 ****        -6.6155  -1.2702   2.1904 H              1 S1                 0.0000
     30 ****        -4.4607  -0.2494   2.2759 H              1 S1                 0.0000
     31 ****        -4.2002  -1.9362   1.9003 H              1 S1                 0.0000
     32 ****        -2.4652  -2.7833   0.8593 H              1 S1                 0.0000
     33 ****         0.0108  -2.9062   0.9601 H              1 S1                 0.0000
     34 ****         2.0678  -1.8571   0.4463 H              1 S1                 0.0000
     35 ****         3.9676  -1.4174   0.4571 H              1 S1                 0.0000
     36 ****         4.8663   1.2890   1.2922 H              1 S1                 0.0000
     37 ****         6.9577   0.1081   1.8981 H              1 S1                 0.0000
     38 ****         6.3090  -1.4059   1.2750 H              1 S1                 0.0000
     39 ****         5.5745  -0.6407   2.6828 H              1 S1                 0.0000
     40 ****         6.0430  -0.2877  -1.0552 H              1 S1                 0.0000
     41 ****         4.1281   0.8673  -2.0513 H              1 S1                 0.0000
     42 ****         4.3582   2.2550  -0.9856 H              1 S1                 0.0000
     43 ****         5.9664   1.5184  -3.4004 H              1 S1                 0.0000
     44 ****         5.6398   3.1117  -2.7170 H              1 S1                 0.0000
     45 ****         7.9031   1.2975  -2.1894 H              1 S1                 0.0000
     46 ****         7.7165   2.9526  -1.6021 H              1 S1                 0.0000
     47 ****         0.0976   1.2922  -0.0964 H              1 S1                 0.0000
     48 ****        -4.3498   1.4717   0.3655 H              1 S1                 0.0000
     49 ****        -3.9740   0.8584  -1.2396 H              1 S1                 0.0000
     50 ****        -6.0991  -0.3785  -1.3431 H              1 S1                 0.0000
     51 ****        -6.2007   2.0126  -2.0304 H              1 S1                 0.0000
     52 ****        -6.5946   2.4784  -0.3767 H              1 S1                 0.0000
     53 ****        -7.7192   1.4910  -1.3066 H              1 S1                 0.0000
     54 ****        -4.0734  -1.2676  -0.3902 LP             1 S1                 0.0000
     55 ****         1.3937   1.5438   0.9321 LP             1 S1                 0.0000
     56 ****         3.0858   1.9063   1.0049 LP             1 S1                 0.0000
     57 ****         7.6361   0.9425  -0.0468 LP             1 S1                 0.0000
     58 ****         6.6611   2.2276   0.2066 LP             1 S1                 0.0000
     59 ****        -2.2125   1.3096  -0.1370 LP             1 S1                 0.0000
     60 ****        -6.5696   0.7519   1.2717 LP             1 S1                 0.0000
     61 ****        -7.6040  -0.1646   0.4018 LP             1 S1                 0.0000
@<TRIPOS>BOND
    1    1    2 1     
    2    1   26 1     
    3    1   27 1     
    4    1   28 1     
    5    2   25 1     
    6    2    3 1     
    7    2   29 1     
    8    3    4 1     
    9    3   30 1     
   10    3   31 1     
   11    4    5 1     
   12    4   22 1     
   13    5   21 ar    
   14    5    6 ar    
   15    6    7 ar    
   16    6   32 1     
   17    7    8 ar    
   18    7   33 1     
   19    8    9 1     
   20    8   20 ar    
   21    9   10 am    
   22    9   34 1     
   23   10   11 2     
   24   10   12 am    
   25   12   13 1     
   26   12   35 1     
   27   13   14 1     
   28   13   15 1     
   29   13   36 1     
   30   14   37 1     
   31   14   38 1     
   32   14   39 1     
   33   15   19 1     
   34   15   16 1     
   35   15   40 1     
   36   16   17 1     
   37   16   41 1     
   38   16   42 1     
   39   17   18 1     
   40   17   43 1     
   41   17   44 1     
   42   18   19 1     
   43   18   45 1     
   44   18   46 1     
   45   20   21 ar    
   46   20   47 1     
   47   22   23 1     
   48   22   48 1     
   49   22   49 1     
   50   23   24 1     
   51   23   25 1     
   52   23   50 1     
   53   24   51 1     
   54   24   52 1     
   55   24   53 1     
   56    4   54 1     
   57   11   55 1     
   58   11   56 1     
   59   19   57 1     
   60   19   58 1     
   61   21   59 1     
   62   25   60 1     
   63   25   61 1     
@<TRIPOS>SUBSTRUCTURE
      1 S1             1
@<TRIPOS>SET
LONE_PAIRS      STATIC     ATOMS    <user>   **** ""
8 54 55 56 57 58 59 60 61
DONOR_HYDROGENS      STATIC     ATOMS    <user>   **** ""
2 34 35
ATOM$BLUE        STATIC     ATOMS    COLORGROUP SYSTEM
8 54 55 56 57 58 59 60 61
ATOM$RED        STATIC     ATOMS    COLORGROUP SYSTEM
2 34 35
