#       Name:                AV-unprocessed.smi:749
#       Creating user name   scv26
#       Creation time:       Fri Mar 27 00:58:15 2020


#       File generated by GOLD software.
#

@<TRIPOS>MOLECULE
AV-unprocessed.smi:749
    50    51     1
SMALL
NO_CHARGES


@<TRIPOS>ATOM
      1 ****        -4.0570   0.8754   2.1773 C.3            1 S1                 0.0000
      2 ****        -3.8219   0.7665   0.7365 N.am           1 S1                 0.0000
      3 ****        -2.4081   0.8304   0.3348 C.3            1 S1                 0.0000
      4 ****        -2.1913   1.0858  -1.1664 C.3            1 S1                 0.0000
      5 ****        -0.7966   0.8290  -1.5125 N.am           1 S1                 0.0000
      6 ****        -0.1174   1.3592  -2.5487 C.2            1 S1                 0.0000
      7 ****        -0.6967   2.1395  -3.3035 O.2            1 S1                 0.0000
      8 ****         1.1842   0.9987  -2.7059 N.pl3          1 S1                -1.0000
      9 ****         1.8093   0.1488  -1.8724 C.2            1 S1                 0.0000
     10 ****         2.4793   0.5024  -0.6701 C.2            1 S1                 0.0000
     11 ****         2.9353  -0.6968  -0.1950 C.2            1 S1                 0.0000
     12 ****         3.7108  -1.0974   1.0283 C.3            1 S1                 0.0000
     13 ****         4.0410   0.1343   1.8951 C.3            1 S1                 0.0000
     14 ****         5.0330  -1.7717   0.6168 C.3            1 S1                 0.0000
     15 ****         2.8829  -2.0805   1.8771 C.3            1 S1                 0.0000
     16 ****         2.5793  -1.6970  -1.0487 O.3            1 S1                 0.0000
     17 ****         1.8665  -1.1482  -2.1204 N.2            1 S1                 0.0000
     18 ****        -3.1287   0.1885  -1.9805 C.3            1 S1                 0.0000
     19 ****        -4.5913   0.4789  -1.6232 C.3            1 S1                 0.0000
     20 ****        -4.8568   0.5508  -0.1114 C.2            1 S1                 0.0000
     21 ****        -6.0196   0.4400   0.2788 O.2            1 S1                 0.0000
     22 ****        -4.6496   1.7633   2.4006 H              1 S1                 0.0000
     23 ****        -3.1268   0.9470   2.7424 H              1 S1                 0.0000
     24 ****        -4.5950   0.0026   2.5500 H              1 S1                 0.0000
     25 ****        -1.8948   1.6062   0.9049 H              1 S1                 0.0000
     26 ****        -1.9482  -0.1181   0.6174 H              1 S1                 0.0000
     27 ****        -2.4291   2.1311  -1.3740 H              1 S1                 0.0000
     28 ****        -0.2951   0.1883  -0.9149 H              1 S1                 0.0000
     29 ****         2.5976   1.4798  -0.2267 H              1 S1                 0.0000
     30 ****         4.6037  -0.1449   2.7866 H              1 S1                 0.0000
     31 ****         3.1345   0.6421   2.2274 H              1 S1                 0.0000
     32 ****         4.6413   0.8594   1.3440 H              1 S1                 0.0000
     33 ****         5.6485  -1.1009   0.0165 H              1 S1                 0.0000
     34 ****         4.8559  -2.6710   0.0258 H              1 S1                 0.0000
     35 ****         5.6197  -2.0648   1.4881 H              1 S1                 0.0000
     36 ****         3.4192  -2.3790   2.7785 H              1 S1                 0.0000
     37 ****         2.6490  -2.9895   1.3215 H              1 S1                 0.0000
     38 ****         1.9374  -1.6347   2.1886 H              1 S1                 0.0000
     39 ****        -2.9771   0.3493  -3.0485 H              1 S1                 0.0000
     40 ****        -2.9019  -0.8617  -1.7904 H              1 S1                 0.0000
     41 ****        -4.8858   1.4363  -2.0546 H              1 S1                 0.0000
     42 ****        -5.2389  -0.2760  -2.0704 H              1 S1                 0.0000
     43 ****        -1.6563   2.3708  -3.1430 LP             1 S1                 0.0000
     44 ****        -0.2080   2.5422  -4.0774 LP             1 S1                 0.0000
     45 ****         1.6980   1.3817  -3.4735 LP             1 S1                 0.0000
     46 ****         2.0049  -2.3596  -0.5680 LP             1 S1                 0.0000
     47 ****         3.4003  -2.1540  -1.3909 LP             1 S1                 0.0000
     48 ****         1.4825  -1.6335  -2.9059 LP             1 S1                 0.0000
     49 ****        -6.2284   0.5088   1.2544 LP             1 S1                 0.0000
     50 ****        -6.7551   0.2812  -0.3799 LP             1 S1                 0.0000
@<TRIPOS>BOND
    1    1    2 1     
    2    1   22 1     
    3    1   23 1     
    4    1   24 1     
    5    2   20 am    
    6    2    3 1     
    7    3    4 1     
    8    3   25 1     
    9    3   26 1     
   10    4    5 1     
   11    4   18 1     
   12    4   27 1     
   13    5    6 am    
   14    5   28 1     
   15    6    7 2     
   16    6    8 1     
   17    8    9 1     
   18    9   17 2     
   19    9   10 1     
   20   10   11 2     
   21   10   29 1     
   22   11   12 1     
   23   11   16 1     
   24   12   13 1     
   25   12   14 1     
   26   12   15 1     
   27   13   30 1     
   28   13   31 1     
   29   13   32 1     
   30   14   33 1     
   31   14   34 1     
   32   14   35 1     
   33   15   36 1     
   34   15   37 1     
   35   15   38 1     
   36   16   17 1     
   37   18   19 1     
   38   18   39 1     
   39   18   40 1     
   40   19   20 1     
   41   19   41 1     
   42   19   42 1     
   43   20   21 2     
   44    7   43 1     
   45    7   44 1     
   46    8   45 1     
   47   16   46 1     
   48   16   47 1     
   49   17   48 1     
   50   21   49 1     
   51   21   50 1     
@<TRIPOS>SUBSTRUCTURE
      1 S1             1
@<TRIPOS>SET
LONE_PAIRS      STATIC     ATOMS    <user>   **** ""
8 43 44 45 46 47 48 49 50
DONOR_HYDROGENS      STATIC     ATOMS    <user>   **** ""
1 28
ATOM$BLUE        STATIC     ATOMS    COLORGROUP SYSTEM
8 43 44 45 46 47 48 49 50
ATOM$RED        STATIC     ATOMS    COLORGROUP SYSTEM
1 28
