AV-unprocessed.smi:2244|AV-procd|sdf|9072|dock10
  -GOLD-   2272012273D 1   1.00000     0.00000
 Structure written by MMmdl.
 49 51  0  0  0  0  0  0  0  0  1 V2000
  144.4222  131.5426  151.3414 C   0  0  0  0  0  0  0  0  0  0  0  0
  145.4624  132.6846  151.2984 C   0  0  0  0  0  0  0  0  0  0  0  0
  146.5824  132.3305  152.2984 C   0  0  0  0  0  0  0  0  0  0  0  0
  146.0345  132.7354  149.8662 C   0  0  0  0  0  0  0  0  0  0  0  0
  144.8516  134.0495  151.6637 C   0  0  0  0  0  0  0  0  0  0  0  0
  145.5792  135.2600  151.6183 C   0  0  0  0  0  0  0  0  0  0  0  0
  144.9083  136.4405  151.9789 C   0  0  0  0  0  0  0  0  0  0  0  0
  143.5544  136.3582  152.3625 C   0  0  0  0  0  0  0  0  0  0  0  0
  142.9588  137.6020  152.7233 N   0  0  0  0  0  0  0  0  0  0  0  0
  141.7899  137.8889  153.3348 C   0  0  0  0  0  0  0  0  0  0  0  0
  141.0268  136.9931  153.6930 O   0  0  0  0  0  0  0  0  0  0  0  0
  141.5230  139.1909  153.5300 N   0  0  0  0  0  0  0  0  0  0  0  0
  140.3186  139.7255  154.1568 C   0  0  2  0  0  0  0  0  0  0  0  0
  140.2055  139.1986  155.5936 C   0  0  0  0  0  0  0  0  0  0  0  0
  138.8872  139.6541  156.2376 C   0  0  0  0  0  0  0  0  0  0  0  0
  137.7759  139.2377  155.4466 O   0  0  0  0  0  0  0  0  0  0  0  0
  137.7663  139.7269  154.1045 C   0  0  1  0  0  0  0  0  0  0  0  0
  137.4859  141.2228  154.0485 C   0  0  0  0  0  0  0  0  0  0  0  0
  136.1406  141.7682  154.4642 C   0  0  0  0  0  0  0  0  0  0  0  0
  136.5500  141.7962  153.0105 C   0  0  0  0  0  0  0  0  0  0  0  0
  139.0590  139.3198  153.3702 C   0  0  0  0  0  0  0  0  0  0  0  0
  142.9193  135.1586  152.3819 N   0  0  0  0  0  0  0  0  0  0  0  0
  143.5497  134.0315  152.0398 N   0  0  0  0  0  0  0  0  0  0  0  0
  144.8739  130.5864  151.0743 H   0  0  0  0  0  0  0  0  0  0  0  0
  143.6048  131.7150  150.6402 H   0  0  0  0  0  0  0  0  0  0  0  0
  143.9939  131.4242  152.3373 H   0  0  0  0  0  0  0  0  0  0  0  0
  146.2014  132.2905  153.3195 H   0  0  0  0  0  0  0  0  0  0  0  0
  147.3912  133.0616  152.2783 H   0  0  0  0  0  0  0  0  0  0  0  0
  147.0228  131.3584  152.0738 H   0  0  0  0  0  0  0  0  0  0  0  0
  146.4586  131.7742  149.5733 H   0  0  0  0  0  0  0  0  0  0  0  0
  146.8283  133.4772  149.7721 H   0  0  0  0  0  0  0  0  0  0  0  0
  145.2606  132.9878  149.1401 H   0  0  0  0  0  0  0  0  0  0  0  0
  146.6157  135.3095  151.3226 H   0  0  0  0  0  0  0  0  0  0  0  0
  145.4270  137.3882  151.9609 H   0  0  0  0  0  0  0  0  0  0  0  0
  143.5279  138.4097  152.5165 H   0  0  0  0  0  0  0  0  0  0  0  0
  142.2044  139.8634  153.2070 H   0  0  0  0  0  0  0  0  0  0  0  0
  140.3943  140.8135  154.1914 H   0  0  0  0  0  0  0  0  0  0  0  0
  140.2463  138.1081  155.5939 H   0  0  0  0  0  0  0  0  0  0  0  0
  141.0503  139.5426  156.1913 H   0  0  0  0  0  0  0  0  0  0  0  0
  138.7885  139.2138  157.2301 H   0  0  0  0  0  0  0  0  0  0  0  0
  138.8768  140.7350  156.3782 H   0  0  0  0  0  0  0  0  0  0  0  0
  136.9337  139.2263  153.6085 H   0  0  0  0  0  0  0  0  0  0  0  0
  138.3390  141.8492  154.2989 H   0  0  0  0  0  0  0  0  0  0  0  0
  135.3732  141.0545  154.7569 H   0  0  0  0  0  0  0  0  0  0  0  0
  136.1283  142.7134  155.0031 H   0  0  0  0  0  0  0  0  0  0  0  0
  136.8108  142.7604  152.5789 H   0  0  0  0  0  0  0  0  0  0  0  0
  136.0540  141.1023  152.3349 H   0  0  0  0  0  0  0  0  0  0  0  0
  139.0722  139.7530  152.3692 H   0  0  0  0  0  0  0  0  0  0  0  0
  139.0558  138.2371  153.2338 H   0  0  0  0  0  0  0  0  0  0  0  0
  1  2  1  0  0  0  0
  1 24  1  0  0  0  0
  1 25  1  0  0  0  0
  1 26  1  0  0  0  0
  2  3  1  0  0  0  0
  2  4  1  0  0  0  0
  2  5  1  0  0  0  0
  3 27  1  0  0  0  0
  3 28  1  0  0  0  0
  3 29  1  0  0  0  0
  4 30  1  0  0  0  0
  4 31  1  0  0  0  0
  4 32  1  0  0  0  0
  5 23  1  0  0  0  0
  5  6  2  0  0  0  0
  6  7  1  0  0  0  0
  6 33  1  0  0  0  0
  7  8  2  0  0  0  0
  7 34  1  0  0  0  0
  8  9  1  0  0  0  0
  8 22  1  0  0  0  0
  9 10  1  0  0  0  0
  9 35  1  0  0  0  0
 10 11  2  0  0  0  0
 10 12  1  0  0  0  0
 12 13  1  0  0  0  0
 12 36  1  0  0  0  0
 13 21  1  0  0  0  0
 13 14  1  0  0  0  0
 13 37  1  0  0  0  0
 14 15  1  0  0  0  0
 14 38  1  0  0  0  0
 14 39  1  0  0  0  0
 15 16  1  0  0  0  0
 15 40  1  0  0  0  0
 15 41  1  0  0  0  0
 16 17  1  0  0  0  0
 17 18  1  0  0  0  0
 17 21  1  0  0  0  0
 17 42  1  0  0  0  0
 18 20  1  0  0  0  0
 18 19  1  0  0  0  0
 18 43  1  0  0  0  0
 19 20  1  0  0  0  0
 19 44  1  0  0  0  0
 19 45  1  0  0  0  0
 20 46  1  0  0  0  0
 20 47  1  0  0  0  0
 21 48  1  0  0  0  0
 21 49  1  0  0  0  0
 22 23  2  0  0  0  0
M  END
> <s_m_source_file>
AV-unprocessed.smi

> <i_m_source_file_index>
2244

> <i_lp_mmshare_version>
43012

> <i_f3d_flags>
0

> <s_epik_input>
W0NIM11DKFtDSDNdKShbQ0gzXSljMVtjSF1bY0hdYyhubjEpW05IXUMoPU8pW05IXVtDQEBIXTJbQ0gyXVtDSDJdT1tDQEhdKFtDSDJdMilbQ0hdM1tDSDJdW0NIMl0z

> <s_epik_cmdline>
J2VwaWtfcHl0aG9uJywgJy1waCcsICc3LjAnLCAnLXRuJywgJzgnLCAnLW1hJywgJzIwMCcsICctbWV0YWxfYmluZGluZycsICctaW1hZScsICc8aW5maWxlLm1hZT4nLCAnLW9tYWUnLCAnPG91dGZpbGUubWFlPic=

> <r_lp_tautomer_probability>
1

> <r_epik_Ionization_Penalty>
0.011369

> <r_epik_Ionization_Penalty_Charging>
0

> <r_epik_Ionization_Penalty_Neutral>
0.011369

> <r_epik_State_Penalty>
0.00456331

> <r_epik_Charging_Adjusted_Penalty>
0.00456331

> <i_epik_Tot_Q>
0

> <i_epik_Tot_abs_Q>
0

> <r_epik_Metal_State_Penalty>
-0

> <b_epik_Metal_Only>
0

> <s_lp_Force_Field>
OPLS_2005

> <r_lp_Energy>
29.5867

> <b_lp_Chiralities_Consistent>
1

> <s_lp_Variant>
AV-unprocessed.smi:2244-1

> <Gold.Version>
5.8.1

> <Gold.Id.Protein>
6NUR|6NUR_protein|mol2

> <Gold.PLP.Fitness>
38.8186

> <Gold.PLP.PLP>
-33.3159

> <Gold.PLP.part.hbond>
-3.1966

> <Gold.PLP.part.metal>
0.0000

> <Gold.PLP.part.buried>
-3.6500

> <Gold.PLP.part.nonpolar>
-27.4566

> <Gold.PLP.part.repulsive>
0.5456

> <Gold.PLP.ligand.clash>
0.0000

> <Gold.PLP.ligand.torsion>
0.6790

> <Gold.PLP.Chemscore.Hbond>
1.9280

> <Gold.PLP.Chemscore.CHOScore>
0.0000

> <Gold.PLP.Chemscore.Metal>
0.0000

> <Gold.Chemscore.Hbonds>
donor molecule, donor type, donor heavy atom, donor atom, acceptor molecule, acceptor atom, score
      L1  H     9    35       P1 10175  0.93
      L1  H    12    36       P1 10175  1.00

> <Gold.PLP.Chemscore.Internal.Correction>
1.0767

> <Gold.Rescore>
     Score         DG    S(hbond)    S(metal)    S(lipo)     H(rot)  DE(clash)    DE(int)     intcor
     14.84     -17.89       1.58        0.00      89.31       1.30       0.17       2.88       ----

> <Gold.Chemscore.Fitness>
14.8449

> <Gold.Chemscore.DG>
-17.8919

> <Gold.Chemscore.ZeroCoef>
-5.4800

> <Gold.Chemscore.Hbond>
1.5843

> <Gold.Chemscore.Metal>
0.0000

> <Gold.Chemscore.Lipo>
89.3055

> <Gold.Chemscore.Internal_Hbond>
0.0000

> <Gold.Chemscore.DEClash>
0.1682

> <Gold.Chemscore.DEInternal>
2.8789

> <Gold.Chemscore.Rot>
1.3002

> <Gold.Chemscore.Internal.Correction>
   9.000000E+99

> <Gold.Chemscore.Hbonds>
donor molecule, donor type, donor heavy atom, donor atom, acceptor molecule, acceptor atom, score
      L1  H     9    35       P1 10175  0.84
      L1  H    12    36       P1 10175  0.74

> <Gold.Chemscore.Hbond.Weighted>
-5.2916

> <Gold.Chemscore.Metal.Weighted>
-0.0000

> <Gold.Chemscore.Lipo.Weighted>
-10.4487

> <Gold.Chemscore.Internal_Hbond.Weighted>
0.0000

> <Gold.Chemscore.DEClash.Weighted>
0.1682

> <Gold.Chemscore.DEInternal.Weighted>
2.8789

> <Gold.Chemscore.Rot.Weighted>
3.3284

> <Gold.Chemscore.Internal.Correction.Weighted>
   9.000000E+99

> <Gold.Protein.RotatedTorsions>
[ 6907 6896 6895 6894 ] final -131.41 input  -60.11 | X-H torsion
[ 7974 7965 7964 7962 ] final  -45.76 input  175.53 | X-H torsion
[ 8008 7997 7996 7995 ] final  110.60 input   59.86 | X-H torsion
[ 10167 10162 10161 10158 ] final   95.04 input  -65.29 | X-H torsion
[ 10718 10713 10712 10709 ] final  147.55 input   66.30 | X-H torsion
[ 10763 10752 10751 10750 ] final  146.72 input  -60.55 | X-H torsion
[ 11005 11000 10999 10996 ] final  -97.04 input  -57.11 | X-H torsion

> <Gold.Protein.ActiveResidues>
 VAL166  LYS551  ARG553  GLY616  TRP617  ASP618  TYR619  PRO620  LYS621  CYS622 
 ASP623  PHE694  ASN695  SER759  ASP760  ASP761  ALA762  ILE779  LEU786  VAL792 
 PHE793  MET794  SER795  GLU796  ALA797  LYS798  CYS799  TRP800  GLU811  SER814 

> <Gold.Protein.RotatedAtoms>
  150.9507  133.6553  159.2772 H   0  0  0  0  0  0  0  0  0  0  0  0  # atno 6907 bound_to 6896
  151.3910  135.0955  159.9536 H   0  0  0  0  0  0  0  0  0  0  0  0  # atno 6908 bound_to 6896
  152.5108  133.9021  159.7501 H   0  0  0  0  0  0  0  0  0  0  0  0  # atno 6909 bound_to 6896
  145.9787  140.7306  142.9374 H   0  0  0  0  0  0  0  0  0  0  0  0  # atno 7974 bound_to 7965
  156.2064  140.3035  155.9636 H   0  0  0  0  0  0  0  0  0  0  0  0  # atno 8008 bound_to 7997
  155.2831  140.0438  157.3034 H   0  0  0  0  0  0  0  0  0  0  0  0  # atno 8009 bound_to 7997
  154.5639  140.2328  155.8302 H   0  0  0  0  0  0  0  0  0  0  0  0  # atno 8010 bound_to 7997
  139.8027  144.6807  150.9744 H   0  0  0  0  0  0  0  0  0  0  0  0  # atno 10167 bound_to 10162
  157.3196  131.0902  151.1251 H   0  0  0  0  0  0  0  0  0  0  0  0  # atno 10718 bound_to 10713
  154.0265  135.2901  155.3374 H   0  0  0  0  0  0  0  0  0  0  0  0  # atno 10763 bound_to 10752
  154.7014  135.5187  153.8535 H   0  0  0  0  0  0  0  0  0  0  0  0  # atno 10764 bound_to 10752
  153.0658  135.6630  154.0482 H   0  0  0  0  0  0  0  0  0  0  0  0  # atno 10765 bound_to 10752
  141.1392  133.8141  157.0652 H   0  0  0  0  0  0  0  0  0  0  0  0  # atno 11005 bound_to 11000
  144.6856  140.2872  143.7283 LP  0  0  0  0  0  0  0  0  0  0  0  0  # atno 17320 bound_to 7965
  145.7800  139.1888  143.2163 LP  0  0  0  0  0  0  0  0  0  0  0  0  # atno 17321 bound_to 7965
  140.7820  143.4265  151.0760 LP  0  0  0  0  0  0  0  0  0  0  0  0  # atno 17342 bound_to 10162
  139.7936  143.8183  152.3155 LP  0  0  0  0  0  0  0  0  0  0  0  0  # atno 17343 bound_to 10162
  157.2541  130.6628  149.5945 LP  0  0  0  0  0  0  0  0  0  0  0  0  # atno 17370 bound_to 10713
  155.9684  130.4529  150.5791 LP  0  0  0  0  0  0  0  0  0  0  0  0  # atno 17371 bound_to 10713
  140.0546  134.9787  157.1197 LP  0  0  0  0  0  0  0  0  0  0  0  0  # atno 17394 bound_to 11000
  140.3939  134.2155  155.7165 LP  0  0  0  0  0  0  0  0  0  0  0  0  # atno 17395 bound_to 11000

$$$$
