AV-unprocessed.smi:2990|AV-procd|sdf|11396|dock8
  -GOLD-   2272016323D 1   1.00000     0.00000
 Structure written by MMmdl.
 40 42  0  0  0  0  0  0  0  0  2 V2000
  151.6865  137.6785  154.1952 C   0  0  0  0  0  0  0  0  0  0  0  0
  150.5170  138.6024  154.1273 C   0  0  0  0  0  0  0  0  0  0  0  0
  149.3428  138.3625  153.4779 N   0  3  0  0  0  0  0  0  0  0  0  0
  148.4871  139.4549  153.6294 C   0  0  0  0  0  0  0  0  0  0  0  0
  147.1981  139.6768  153.1546 C   0  0  0  0  0  0  0  0  0  0  0  0
  146.6028  140.9100  153.4930 C   0  0  0  0  0  0  0  0  0  0  0  0
  147.2861  141.8663  154.2725 C   0  0  0  0  0  0  0  0  0  0  0  0
  148.5936  141.6307  154.7467 C   0  0  0  0  0  0  0  0  0  0  0  0
  149.1733  140.4081  154.4092 C   0  0  0  0  0  0  0  0  0  0  0  0
  150.4180  139.8379  154.6963 N   0  0  0  0  0  0  0  0  0  0  0  0
  151.3846  140.5960  155.5047 C   0  0  0  0  0  0  0  0  0  0  0  0
  151.0641  140.5677  157.0130 C   0  0  1  0  0  0  0  0  0  0  0  0
  150.6069  139.2816  157.3807 O   0  0  0  0  0  0  0  0  0  0  0  0
  152.2845  140.9192  157.8752 C   0  0  0  0  0  0  0  0  0  0  0  0
  152.2691  142.3150  158.1446 O   0  0  0  0  0  0  0  0  0  0  0  0
  152.5503  142.7351  159.4269 C   0  0  0  0  0  0  0  0  0  0  0  0
  152.0328  143.9875  159.8177 C   0  0  0  0  0  0  0  0  0  0  0  0
  152.2716  144.4954  161.1092 C   0  0  0  0  0  0  0  0  0  0  0  0
  153.0336  143.7505  162.0280 C   0  0  0  0  0  0  0  0  0  0  0  0
  153.5547  142.4985  161.6524 C   0  0  0  0  0  0  0  0  0  0  0  0
  153.3161  141.9909  160.3602 C   0  0  0  0  0  0  0  0  0  0  0  0
  151.4375  136.7117  153.7571 H   0  0  0  0  0  0  0  0  0  0  0  0
  151.9857  137.5218  155.2318 H   0  0  0  0  0  0  0  0  0  0  0  0
  152.5300  138.1007  153.6486 H   0  0  0  0  0  0  0  0  0  0  0  0
  146.6732  138.9463  152.5565 H   0  0  0  0  0  0  0  0  0  0  0  0
  145.6022  141.1268  153.1477 H   0  0  0  0  0  0  0  0  0  0  0  0
  146.7976  142.7998  154.5114 H   0  0  0  0  0  0  0  0  0  0  0  0
  149.1096  142.3691  155.3425 H   0  0  0  0  0  0  0  0  0  0  0  0
  152.3740  140.1761  155.3199 H   0  0  0  0  0  0  0  0  0  0  0  0
  151.4136  141.6200  155.1303 H   0  0  0  0  0  0  0  0  0  0  0  0
  150.2627  141.2727  157.2348 H   0  0  0  0  0  0  0  0  0  0  0  0
  150.4345  138.7893  156.5930 H   0  0  0  0  0  0  0  0  0  0  0  0
  152.2408  140.3672  158.8159 H   0  0  0  0  0  0  0  0  0  0  0  0
  153.2022  140.6352  157.3572 H   0  0  0  0  0  0  0  0  0  0  0  0
  151.4473  144.5665  159.1185 H   0  0  0  0  0  0  0  0  0  0  0  0
  151.8699  145.4565  161.3943 H   0  0  0  0  0  0  0  0  0  0  0  0
  153.2178  144.1384  163.0191 H   0  0  0  0  0  0  0  0  0  0  0  0
  154.1390  141.9248  162.3568 H   0  0  0  0  0  0  0  0  0  0  0  0
  153.7311  141.0265  160.1103 H   0  0  0  0  0  0  0  0  0  0  0  0
  149.1442  137.5120  152.9666 H   0  0  0  0  0  0  0  0  0  0  0  0
  1  2  1  0  0  0  0
  1 22  1  0  0  0  0
  1 23  1  0  0  0  0
  1 24  1  0  0  0  0
  2 10  1  0  0  0  0
  2  3  2  0  0  0  0
  3  4  1  0  0  0  0
  3 40  1  0  0  0  0
  4  9  2  0  0  0  0
  4  5  1  0  0  0  0
  5  6  2  0  0  0  0
  5 25  1  0  0  0  0
  6  7  1  0  0  0  0
  6 26  1  0  0  0  0
  7  8  2  0  0  0  0
  7 27  1  0  0  0  0
  8  9  1  0  0  0  0
  8 28  1  0  0  0  0
  9 10  1  0  0  0  0
 10 11  1  0  0  0  0
 11 12  1  0  0  0  0
 11 29  1  0  0  0  0
 11 30  1  0  0  0  0
 12 13  1  0  0  0  0
 12 14  1  0  0  0  0
 12 31  1  0  0  0  0
 13 32  1  0  0  0  0
 14 15  1  0  0  0  0
 14 33  1  0  0  0  0
 14 34  1  0  0  0  0
 15 16  1  0  0  0  0
 16 21  1  0  0  0  0
 16 17  2  0  0  0  0
 17 18  1  0  0  0  0
 17 35  1  0  0  0  0
 18 19  2  0  0  0  0
 18 36  1  0  0  0  0
 19 20  1  0  0  0  0
 19 37  1  0  0  0  0
 20 21  2  0  0  0  0
 20 38  1  0  0  0  0
 21 39  1  0  0  0  0
M  CHG  1   3   1
M  END
> <s_m_source_file>
AV-unprocessed.smi

> <i_m_source_file_index>
2990

> <i_lp_mmshare_version>
43012

> <i_f3d_flags>
0

> <s_epik_input>
W2NIXTFbY0hdW2NIXVtjSF1jKGMxMiluKGMobjIpW0NIM10pW0NIMl1bQ0BIXShbT0hdKVtDSDJdT2MzW2NIXVtjSF1bY0hdW2NIXVtjSF0z

> <s_epik_cmdline>
J2VwaWtfcHl0aG9uJywgJy1waCcsICc3LjAnLCAnLXRuJywgJzgnLCAnLW1hJywgJzIwMCcsICctbWV0YWxfYmluZGluZycsICctaW1hZScsICc8aW5maWxlLm1hZT4nLCAnLW9tYWUnLCAnPG91dGZpbGUubWFlPic=

> <r_lp_tautomer_probability>
1

> <r_epik_Ionization_Penalty>
1.00673

> <r_epik_Ionization_Penalty_Charging>
1.00673

> <r_epik_Ionization_Penalty_Neutral>
2.3993e-06

> <r_epik_State_Penalty>
1.05579

> <r_epik_Charging_Adjusted_Penalty>
2.06252

> <i_epik_Tot_Q>
1

> <i_epik_Tot_abs_Q>
1

> <r_epik_Metal_State_Penalty>
5.03947

> <b_epik_Metal_Only>
0

> <s_lp_Force_Field>
OPLS_2005

> <r_lp_Energy>
17.9265

> <b_lp_Chiralities_Consistent>
1

> <s_lp_Variant>
AV-unprocessed.smi:2990-4

> <Gold.Version>
5.8.1

> <Gold.Id.Protein>
6NUR|6NUR_protein|mol2

> <Gold.PLP.Fitness>
55.3099

> <Gold.PLP.PLP>
-52.3531

> <Gold.PLP.part.hbond>
-2.0000

> <Gold.PLP.part.metal>
0.0000

> <Gold.PLP.part.buried>
2.7073

> <Gold.PLP.part.nonpolar>
-51.2022

> <Gold.PLP.part.repulsive>
0.0644

> <Gold.PLP.ligand.clash>
0.0000

> <Gold.PLP.ligand.torsion>
1.5410

> <Gold.PLP.Chemscore.Hbond>
2.0000

> <Gold.PLP.Chemscore.CHOScore>
0.0000

> <Gold.PLP.Chemscore.Metal>
0.0000

> <Gold.Chemscore.Hbonds>
donor molecule, donor type, donor heavy atom, donor atom, acceptor molecule, acceptor atom, score
      L1  H     3    40       P1  7948  2.00

> <Gold.PLP.Chemscore.Internal.Correction>
0.0388

> <Gold.Rescore>
     Score         DG    S(hbond)    S(metal)    S(lipo)     H(rot)  DE(clash)    DE(int)     intcor
     17.78     -19.37       0.99        0.00     136.77       2.12       0.25       1.35       ----

> <Gold.Chemscore.Fitness>
17.7752

> <Gold.Chemscore.DG>
-19.3707

> <Gold.Chemscore.ZeroCoef>
-5.4800

> <Gold.Chemscore.Hbond>
0.9915

> <Gold.Chemscore.Metal>
0.0000

> <Gold.Chemscore.Lipo>
136.7721

> <Gold.Chemscore.Internal_Hbond>
0.0000

> <Gold.Chemscore.DEClash>
0.2459

> <Gold.Chemscore.DEInternal>
1.3496

> <Gold.Chemscore.Rot>
2.1184

> <Gold.Chemscore.Internal.Correction>
   9.000000E+99

> <Gold.Chemscore.Hbonds>
donor molecule, donor type, donor heavy atom, donor atom, acceptor molecule, acceptor atom, score
      L1  H     3    40       P1  7948  0.99

> <Gold.Chemscore.Hbond.Weighted>
-3.3115

> <Gold.Chemscore.Metal.Weighted>
-0.0000

> <Gold.Chemscore.Lipo.Weighted>
-16.0023

> <Gold.Chemscore.Internal_Hbond.Weighted>
0.0000

> <Gold.Chemscore.DEClash.Weighted>
0.2459

> <Gold.Chemscore.DEInternal.Weighted>
1.3496

> <Gold.Chemscore.Rot.Weighted>
5.4231

> <Gold.Chemscore.Internal.Correction.Weighted>
   9.000000E+99

> <Gold.Protein.RotatedTorsions>
[ 6907 6896 6895 6894 ] final   94.24 input  -60.11 | X-H torsion
[ 7974 7965 7964 7962 ] final  116.29 input  175.53 | X-H torsion
[ 8008 7997 7996 7995 ] final -131.87 input   59.86 | X-H torsion
[ 10167 10162 10161 10158 ] final  133.01 input  -65.29 | X-H torsion
[ 10718 10713 10712 10709 ] final   57.33 input   66.30 | X-H torsion
[ 10763 10752 10751 10750 ] final  104.92 input  -60.55 | X-H torsion
[ 11005 11000 10999 10996 ] final  -12.22 input  -57.11 | X-H torsion

> <Gold.Protein.ActiveResidues>
 VAL166  LYS551  ARG553  GLY616  TRP617  ASP618  TYR619  PRO620  LYS621  CYS622 
 ASP623  PHE694  ASN695  SER759  ASP760  ASP761  ALA762  ILE779  LEU786  VAL792 
 PHE793  MET794  SER795  GLU796  ALA797  LYS798  CYS799  TRP800  GLU811  SER814 

> <Gold.Protein.RotatedAtoms>
  152.5450  134.1225  159.8404 H   0  0  0  0  0  0  0  0  0  0  0  0  # atno 6907 bound_to 6896
  151.1279  133.5050  159.2607 H   0  0  0  0  0  0  0  0  0  0  0  0  # atno 6908 bound_to 6896
  151.1707  135.0326  159.8805 H   0  0  0  0  0  0  0  0  0  0  0  0  # atno 6909 bound_to 6896
  145.1814  139.3048  143.4416 H   0  0  0  0  0  0  0  0  0  0  0  0  # atno 7974 bound_to 7965
  155.3195  140.0461  157.3038 H   0  0  0  0  0  0  0  0  0  0  0  0  # atno 8008 bound_to 7997
  154.5388  140.2281  155.8643 H   0  0  0  0  0  0  0  0  0  0  0  0  # atno 8009 bound_to 7997
  156.1861  140.3062  155.9247 H   0  0  0  0  0  0  0  0  0  0  0  0  # atno 8010 bound_to 7997
  139.5315  144.6636  151.4933 H   0  0  0  0  0  0  0  0  0  0  0  0  # atno 10167 bound_to 10162
  157.5506  130.8763  149.8957 H   0  0  0  0  0  0  0  0  0  0  0  0  # atno 10718 bound_to 10713
  153.3724  135.3927  155.1798 H   0  0  0  0  0  0  0  0  0  0  0  0  # atno 10763 bound_to 10752
  154.8696  135.3705  154.4961 H   0  0  0  0  0  0  0  0  0  0  0  0  # atno 10764 bound_to 10752
  153.5430  135.7084  153.5688 H   0  0  0  0  0  0  0  0  0  0  0  0  # atno 10765 bound_to 10752
  140.7635  133.8496  155.9145 H   0  0  0  0  0  0  0  0  0  0  0  0  # atno 11005 bound_to 11000
  146.3452  140.1995  142.8589 LP  0  0  0  0  0  0  0  0  0  0  0  0  # atno 17320 bound_to 7965
  145.0132  140.8732  143.5211 LP  0  0  0  0  0  0  0  0  0  0  0  0  # atno 17321 bound_to 7965
  140.6496  143.8723  150.6772 LP  0  0  0  0  0  0  0  0  0  0  0  0  # atno 17342 bound_to 10162
  140.2084  143.3903  152.1737 LP  0  0  0  0  0  0  0  0  0  0  0  0  # atno 17343 bound_to 10162
  156.0573  130.3706  150.1061 LP  0  0  0  0  0  0  0  0  0  0  0  0  # atno 17370 bound_to 10713
  156.9234  130.9690  151.3545 LP  0  0  0  0  0  0  0  0  0  0  0  0  # atno 17371 bound_to 10713
  140.9641  134.1617  157.4630 LP  0  0  0  0  0  0  0  0  0  0  0  0  # atno 17394 bound_to 11000
  139.8767  134.9955  156.5749 LP  0  0  0  0  0  0  0  0  0  0  0  0  # atno 17395 bound_to 11000

$$$$
