AV-unprocessed.smi:1213|AV-procd|sdf|5086|dock8
  -GOLD-   22720 4133D 1   1.00000     0.00000
 Structure written by MMmdl.
 37 38  0  0  0  0  0  0  0  0  2 V2000
  146.5799  140.1653  152.8857 N   0  0  0  0  0  0  0  0  0  0  0  0
  146.7716  138.8511  152.7498 C   0  0  0  0  0  0  0  0  0  0  0  0
  146.6843  138.2853  151.6614 O   0  0  0  0  0  0  0  0  0  0  0  0
  147.0890  138.0638  154.0260 C   0  0  0  0  0  0  0  0  0  0  0  0
  148.5083  137.6311  154.1074 N   0  3  2  0  0  0  0  0  0  0  0  0
  148.7439  136.6666  155.2118 C   0  0  0  0  0  0  0  0  0  0  0  0
  150.1846  136.1231  155.1817 C   0  0  0  0  0  0  0  0  0  0  0  0
  151.2312  137.2506  155.2067 C   0  0  2  0  0  0  0  0  0  0  0  0
  151.2799  137.8768  156.5280 N   0  0  0  0  0  0  0  0  0  0  0  0
  151.9601  138.9928  156.8299 C   0  0  0  0  0  0  0  0  0  0  0  0
  152.6257  139.6230  156.0081 O   0  0  0  0  0  0  0  0  0  0  0  0
  151.8117  139.3192  158.1259 N   0  0  0  0  0  0  0  0  0  0  0  0
  152.3542  140.4348  158.8164 C   0  0  0  0  0  0  0  0  0  0  0  0
  153.3065  140.3523  159.7528 N   0  0  0  0  0  0  0  0  0  0  0  0
  153.6508  141.6066  160.2626 C   0  0  0  0  0  0  0  0  0  0  0  0
  152.9469  142.6409  159.6977 C   0  0  0  0  0  0  0  0  0  0  0  0
  151.8153  142.0769  158.4975 S   0  0  0  0  0  0  0  0  0  0  0  0
  150.9186  138.2741  154.0965 C   0  0  0  0  0  0  0  0  0  0  0  0
  149.4637  138.7696  154.1635 C   0  0  0  0  0  0  0  0  0  0  0  0
  146.3625  140.7261  152.0737 H   0  0  0  0  0  0  0  0  0  0  0  0
  146.6459  140.5981  153.7958 H   0  0  0  0  0  0  0  0  0  0  0  0
  146.8229  138.6449  154.9106 H   0  0  0  0  0  0  0  0  0  0  0  0
  146.4387  137.1881  154.0195 H   0  0  0  0  0  0  0  0  0  0  0  0
  148.5379  137.1492  156.1682 H   0  0  0  0  0  0  0  0  0  0  0  0
  148.0488  135.8307  155.1239 H   0  0  0  0  0  0  0  0  0  0  0  0
  150.3453  135.4377  156.0151 H   0  0  0  0  0  0  0  0  0  0  0  0
  150.3202  135.5319  154.2749 H   0  0  0  0  0  0  0  0  0  0  0  0
  152.2092  136.8071  155.0107 H   0  0  0  0  0  0  0  0  0  0  0  0
  150.7675  137.4211  157.2689 H   0  0  0  0  0  0  0  0  0  0  0  0
  151.2386  138.7034  158.6833 H   0  0  0  0  0  0  0  0  0  0  0  0
  154.4103  141.6719  161.0275 H   0  0  0  0  0  0  0  0  0  0  0  0
  153.0253  143.6959  159.9145 H   0  0  0  0  0  0  0  0  0  0  0  0
  151.6046  139.1204  154.1466 H   0  0  0  0  0  0  0  0  0  0  0  0
  151.0897  137.8088  153.1248 H   0  0  0  0  0  0  0  0  0  0  0  0
  149.2838  139.4533  153.3336 H   0  0  0  0  0  0  0  0  0  0  0  0
  149.3007  139.3407  155.0789 H   0  0  0  0  0  0  0  0  0  0  0  0
  148.6964  137.1318  153.2494 H   0  0  0  0  0  0  0  0  0  0  0  0
  1  2  1  0  0  0  0
  1 20  1  0  0  0  0
  1 21  1  0  0  0  0
  2  3  2  0  0  0  0
  2  4  1  0  0  0  0
  4  5  1  0  0  0  0
  4 22  1  0  0  0  0
  4 23  1  0  0  0  0
  5 19  1  0  0  0  0
  5  6  1  0  0  0  0
  5 37  1  0  0  0  0
  6  7  1  0  0  0  0
  6 24  1  0  0  0  0
  6 25  1  0  0  0  0
  7  8  1  0  0  0  0
  7 26  1  0  0  0  0
  7 27  1  0  0  0  0
  8  9  1  0  0  0  0
  8 18  1  0  0  0  0
  8 28  1  0  0  0  0
  9 10  1  0  0  0  0
  9 29  1  0  0  0  0
 10 11  2  0  0  0  0
 10 12  1  0  0  0  0
 12 13  1  0  0  0  0
 12 30  1  0  0  0  0
 13 17  1  0  0  0  0
 13 14  2  0  0  0  0
 14 15  1  0  0  0  0
 15 16  2  0  0  0  0
 15 31  1  0  0  0  0
 16 17  1  0  0  0  0
 16 32  1  0  0  0  0
 18 19  1  0  0  0  0
 18 33  1  0  0  0  0
 18 34  1  0  0  0  0
 19 35  1  0  0  0  0
 19 36  1  0  0  0  0
M  CHG  1   5   1
M  END
> <s_m_source_file>
AV-unprocessed.smi

> <i_m_source_file_index>
1213

> <i_lp_mmshare_version>
43012

> <i_f3d_flags>
0

> <s_epik_input>
W05IMl1DKD1PKVtDSDJdTjFbQ0gyXVtDSDJdW0NIXShbQ0gyXVtDSDJdMSlbTkhdQyg9TylbTkhdYzJuW2NIXVtjSF1zMg==

> <s_epik_cmdline>
J2VwaWtfcHl0aG9uJywgJy1waCcsICc3LjAnLCAnLXRuJywgJzgnLCAnLW1hJywgJzIwMCcsICctbWV0YWxfYmluZGluZycsICctaW1hZScsICc8aW5maWxlLm1hZT4nLCAnLW9tYWUnLCAnPG91dGZpbGUubWFlPic=

> <r_lp_tautomer_probability>
0.999

> <r_epik_Ionization_Penalty>
0.86253

> <r_epik_Ionization_Penalty_Charging>
0.862349

> <r_epik_Ionization_Penalty_Neutral>
0.000180085

> <r_epik_State_Penalty>
0.898939

> <r_epik_Charging_Adjusted_Penalty>
1.76129

> <i_epik_Tot_Q>
1

> <i_epik_Tot_abs_Q>
1

> <r_epik_Metal_State_Penalty>
0.948529

> <b_epik_Metal_Only>
0

> <s_lp_Force_Field>
OPLS_2005

> <r_lp_Energy>
11.1317

> <b_lp_Chiralities_Consistent>
1

> <s_lp_Variant>
AV-unprocessed.smi:1213-3

> <Gold.Version>
5.8.1

> <Gold.Id.Protein>
6NUR|6NUR_protein|mol2

> <Gold.PLP.Fitness>
41.5201

> <Gold.PLP.PLP>
-31.3680

> <Gold.PLP.part.hbond>
-4.5899

> <Gold.PLP.part.metal>
0.0000

> <Gold.PLP.part.buried>
-4.7636

> <Gold.PLP.part.nonpolar>
-23.2855

> <Gold.PLP.part.repulsive>
1.0387

> <Gold.PLP.ligand.clash>
0.0000

> <Gold.PLP.ligand.torsion>
0.9362

> <Gold.PLP.Chemscore.Hbond>
4.0000

> <Gold.PLP.Chemscore.CHOScore>
0.0000

> <Gold.PLP.Chemscore.Metal>
0.0000

> <Gold.Chemscore.Hbonds>
donor molecule, donor type, donor heavy atom, donor atom, acceptor molecule, acceptor atom, score
      L1  H     5    37       P1  7948  2.00
      P1  H  7954  7966       L1     3  0.23
      P1  H  7997  8009       L1    11  1.00

> <Gold.PLP.Chemscore.Internal.Correction>
0.0244

> <Gold.Rescore>
     Score         DG    S(hbond)    S(metal)    S(lipo)     H(rot)  DE(clash)    DE(int)     intcor
     14.84     -17.25       2.90        0.00      63.05       2.06       0.52       1.88       ----

> <Gold.Chemscore.Fitness>
14.8420

> <Gold.Chemscore.DG>
-17.2499

> <Gold.Chemscore.ZeroCoef>
-5.4800

> <Gold.Chemscore.Hbond>
2.8964

> <Gold.Chemscore.Metal>
0.0000

> <Gold.Chemscore.Lipo>
63.0548

> <Gold.Chemscore.Internal_Hbond>
0.0000

> <Gold.Chemscore.DEClash>
0.5244

> <Gold.Chemscore.DEInternal>
1.8835

> <Gold.Chemscore.Rot>
2.0631

> <Gold.Chemscore.Internal.Correction>
   9.000000E+99

> <Gold.Chemscore.Hbonds>
donor molecule, donor type, donor heavy atom, donor atom, acceptor molecule, acceptor atom, score
      L1  H     5    37       P1  7948  1.00
      P1  H  7954  7966       L1     3  0.23
      P1  H  7997  8009       L1    11  1.00

> <Gold.Chemscore.Hbond.Weighted>
-9.6741

> <Gold.Chemscore.Metal.Weighted>
-0.0000

> <Gold.Chemscore.Lipo.Weighted>
-7.3774

> <Gold.Chemscore.Internal_Hbond.Weighted>
0.0000

> <Gold.Chemscore.DEClash.Weighted>
0.5244

> <Gold.Chemscore.DEInternal.Weighted>
1.8835

> <Gold.Chemscore.Rot.Weighted>
5.2816

> <Gold.Chemscore.Internal.Correction.Weighted>
   9.000000E+99

> <Gold.Protein.RotatedTorsions>
[ 6907 6896 6895 6894 ] final  -17.56 input  -60.11 | X-H torsion
[ 7974 7965 7964 7962 ] final  166.15 input  175.53 | X-H torsion
[ 8008 7997 7996 7995 ] final -158.49 input   59.86 | X-H torsion
[ 10167 10162 10161 10158 ] final   99.99 input  -65.29 | X-H torsion
[ 10718 10713 10712 10709 ] final   59.28 input   66.30 | X-H torsion
[ 10763 10752 10751 10750 ] final  -68.21 input  -60.55 | X-H torsion
[ 11005 11000 10999 10996 ] final  -10.08 input  -57.11 | X-H torsion

> <Gold.Protein.ActiveResidues>
 VAL166  LYS551  ARG553  GLY616  TRP617  ASP618  TYR619  PRO620  LYS621  CYS622 
 ASP623  PHE694  ASN695  SER759  ASP760  ASP761  ALA762  ILE779  LEU786  VAL792 
 PHE793  MET794  SER795  GLU796  ALA797  LYS798  CYS799  TRP800  GLU811  SER814 

> <Gold.Protein.RotatedAtoms>
  151.2915  135.0743  159.9205 H   0  0  0  0  0  0  0  0  0  0  0  0  # atno 6907 bound_to 6896
  152.5315  133.9927  159.7868 H   0  0  0  0  0  0  0  0  0  0  0  0  # atno 6908 bound_to 6896
  151.0198  133.5836  159.2703 H   0  0  0  0  0  0  0  0  0  0  0  0  # atno 6909 bound_to 6896
  144.7474  139.8574  143.6377 H   0  0  0  0  0  0  0  0  0  0  0  0  # atno 7974 bound_to 7965
  155.7484  140.0823  157.2213 H   0  0  0  0  0  0  0  0  0  0  0  0  # atno 8008 bound_to 7997
  154.4014  140.1565  156.2751 H   0  0  0  0  0  0  0  0  0  0  0  0  # atno 8009 bound_to 7997
  155.8954  140.3413  155.5990 H   0  0  0  0  0  0  0  0  0  0  0  0  # atno 8010 bound_to 7997
  139.7567  144.6967  151.0351 H   0  0  0  0  0  0  0  0  0  0  0  0  # atno 10167 bound_to 10162
  157.5663  130.8873  149.9193 H   0  0  0  0  0  0  0  0  0  0  0  0  # atno 10718 bound_to 10713
  154.3858  135.6064  153.5815 H   0  0  0  0  0  0  0  0  0  0  0  0  # atno 10763 bound_to 10752
  152.9787  135.5871  154.4357 H   0  0  0  0  0  0  0  0  0  0  0  0  # atno 10764 bound_to 10752
  154.4133  135.2844  155.2001 H   0  0  0  0  0  0  0  0  0  0  0  0  # atno 10765 bound_to 10752
  140.7410  133.8670  155.8967 H   0  0  0  0  0  0  0  0  0  0  0  0  # atno 11005 bound_to 11000
  146.1373  139.4421  143.0131 LP  0  0  0  0  0  0  0  0  0  0  0  0  # atno 17320 bound_to 7965
  145.7072  141.0117  143.1472 LP  0  0  0  0  0  0  0  0  0  0  0  0  # atno 17321 bound_to 7965
  140.7803  143.4744  151.0102 LP  0  0  0  0  0  0  0  0  0  0  0  0  # atno 17342 bound_to 10162
  139.8431  143.7537  152.3180 LP  0  0  0  0  0  0  0  0  0  0  0  0  # atno 17343 bound_to 10162
  156.0711  130.3685  150.0774 LP  0  0  0  0  0  0  0  0  0  0  0  0  # atno 17370 bound_to 10713
  156.8932  130.9595  151.3586 LP  0  0  0  0  0  0  0  0  0  0  0  0  # atno 17371 bound_to 10713
  140.9837  134.1372  157.4472 LP  0  0  0  0  0  0  0  0  0  0  0  0  # atno 17394 bound_to 11000
  139.8806  135.0018  156.6092 LP  0  0  0  0  0  0  0  0  0  0  0  0  # atno 17395 bound_to 11000

$$$$
