#       Name:                AV-unprocessed.smi:2439
#       Creating user name   scv26
#       Creation time:       Fri Mar 27 13:23:48 2020


#       File generated by GOLD software.
#

@<TRIPOS>MOLECULE
AV-unprocessed.smi:2439
    45    47     1
SMALL
NO_CHARGES


@<TRIPOS>ATOM
      1 ****        -1.9588  -5.3693  -1.2097 N.1            1 S1                 0.0000
      2 ****        -2.5138  -4.3544  -1.2316 C.1            1 S1                 0.0000
      3 ****        -3.2115  -3.0746  -1.2587 C.ar           1 S1                 0.0000
      4 ****        -4.6215  -3.0632  -1.2148 C.ar           1 S1                 0.0000
      5 ****        -5.2981  -1.8300  -1.2373 C.ar           1 S1                 0.0000
      6 ****        -4.5335  -0.6513  -1.3041 C.ar           1 S1                 0.0000
      7 ****        -3.1845  -0.6474  -1.3465 N.ar           1 S1                 0.0000
      8 ****        -2.5255  -1.8320  -1.3242 C.ar           1 S1                 0.0000
      9 ****        -1.1205  -1.7943  -1.3677 N.pl3          1 S1                 0.0000
     10 ****        -0.3990  -0.5321  -1.2881 C.3            1 S1                 0.0000
     11 ****         1.1184  -0.7557  -1.1366 C.3            1 S1                 0.0000
     12 ****         1.9253   0.5561  -1.1619 C.3            1 S1                 0.0000
     13 ****         1.7211   1.3390   0.0797 N.4            1 S1                 1.0000
     14 ****         2.4586   2.6280   0.0566 C.3            1 S1                 0.0000
     15 ****         2.1630   3.4605   1.3139 C.3            1 S1                 0.0000
     16 ****         2.4907   2.6643   2.5830 C.3            1 S1                 0.0000
     17 ****         1.7357   1.3288   2.5725 C.3            1 S1                 0.0000
     18 ****         2.0278   0.5264   1.2881 C.3            1 S1                 0.0000
     19 ****         1.2206  -0.7856   1.2613 C.3            1 S1                 0.0000
     20 ****         1.4493  -1.4878   0.0440 O.3            1 S1                 0.0000
     21 ****        -5.1830  -3.9852  -1.1633 H              1 S1                 0.0000
     22 ****        -6.3769  -1.7892  -1.2039 H              1 S1                 0.0000
     23 ****        -5.0168   0.3143  -1.3228 H              1 S1                 0.0000
     24 ****        -0.5968  -2.6575  -1.3306 H              1 S1                 0.0000
     25 ****        -0.5919   0.0283  -2.2036 H              1 S1                 0.0000
     26 ****        -0.7897   0.0702  -0.4682 H              1 S1                 0.0000
     27 ****         1.4470  -1.3609  -1.9825 H              1 S1                 0.0000
     28 ****         2.9873   0.3285  -1.2687 H              1 S1                 0.0000
     29 ****         1.6425   1.1536  -2.0295 H              1 S1                 0.0000
     30 ****         3.5299   2.4351  -0.0200 H              1 S1                 0.0000
     31 ****         2.1744   3.1951  -0.8307 H              1 S1                 0.0000
     32 ****         2.7417   4.3845   1.2941 H              1 S1                 0.0000
     33 ****         1.1121   3.7528   1.3234 H              1 S1                 0.0000
     34 ****         3.5647   2.4817   2.6383 H              1 S1                 0.0000
     35 ****         2.2246   3.2411   3.4693 H              1 S1                 0.0000
     36 ****         2.0123   0.7439   3.4505 H              1 S1                 0.0000
     37 ****         0.6644   1.5194   2.6543 H              1 S1                 0.0000
     38 ****         3.0903   0.2769   1.2657 H              1 S1                 0.0000
     39 ****         1.5276  -1.4274   2.0874 H              1 S1                 0.0000
     40 ****         0.1557  -0.5983   1.4012 H              1 S1                 0.0000
     41 ****         0.7379   1.5667   0.1235 H              1 S1                 0.0000
     42 ****        -1.4791  -6.2465  -1.1908 LP             1 S1                 0.0000
     43 ****        -2.6797   0.2146  -1.3936 LP             1 S1                 0.0000
     44 ****         2.4189  -1.7283   0.0002 LP             1 S1                 0.0000
     45 ****         0.8991  -2.3227   0.0575 LP             1 S1                 0.0000
@<TRIPOS>BOND
    1    1    2 3     
    2    2    3 1     
    3    3    8 ar    
    4    3    4 ar    
    5    4    5 ar    
    6    4   21 1     
    7    5    6 ar    
    8    5   22 1     
    9    6    7 ar    
   10    6   23 1     
   11    7    8 ar    
   12    8    9 1     
   13    9   10 1     
   14    9   24 1     
   15   10   11 1     
   16   10   25 1     
   17   10   26 1     
   18   11   20 1     
   19   11   12 1     
   20   11   27 1     
   21   12   13 1     
   22   12   28 1     
   23   12   29 1     
   24   13   18 1     
   25   13   14 1     
   26   13   41 1     
   27   14   15 1     
   28   14   30 1     
   29   14   31 1     
   30   15   16 1     
   31   15   32 1     
   32   15   33 1     
   33   16   17 1     
   34   16   34 1     
   35   16   35 1     
   36   17   18 1     
   37   17   36 1     
   38   17   37 1     
   39   18   19 1     
   40   18   38 1     
   41   19   20 1     
   42   19   39 1     
   43   19   40 1     
   44    1   42 1     
   45    7   43 1     
   46   20   44 1     
   47   20   45 1     
@<TRIPOS>SUBSTRUCTURE
      1 S1             1
@<TRIPOS>SET
LONE_PAIRS      STATIC     ATOMS    <user>   **** ""
4 42 43 44 45
DONOR_HYDROGENS      STATIC     ATOMS    <user>   **** ""
2 24 41
ATOM$BLUE        STATIC     ATOMS    COLORGROUP SYSTEM
4 42 43 44 45
ATOM$RED        STATIC     ATOMS    COLORGROUP SYSTEM
2 24 41
