AV-unprocessed.smi:1609|AV-procd|sdf|6469|dock1
  -GOLD-   22720 7123D 1   1.00000     0.00000
 Structure written by MMmdl.
 40 41  0  0  0  0  0  0  0  0  3 V2000
  151.6423  140.4198  155.2814 O   0  0  0  0  0  0  0  0  0  0  0  0
  150.5647  140.6431  155.8350 C   0  0  0  0  0  0  0  0  0  0  0  0
  149.2553  140.0655  155.2782 C   0  0  0  0  0  0  0  0  0  0  0  0
  148.1649  141.0527  155.1923 N   0  0  0  0  0  0  0  0  0  0  0  0
  147.8458  141.5359  153.9097 C   0  0  0  0  0  0  0  0  0  0  0  0
  146.8724  142.4364  153.7136 C   0  0  0  0  0  0  0  0  0  0  0  0
  146.1364  142.9067  154.8615 C   0  0  0  0  0  0  0  0  0  0  0  0
  146.4276  142.4605  156.1054 C   0  0  0  0  0  0  0  0  0  0  0  0
  145.6442  142.9666  157.2096 N   0  3  0  0  0  0  0  0  0  0  0  0
  144.7210  143.7408  156.9762 O   0  0  0  0  0  0  0  0  0  0  0  0
  145.9407  142.6156  158.3480 O   0  5  0  0  0  0  0  0  0  0  0  0
  147.5141  141.4811  156.3187 C   0  0  0  0  0  0  0  0  0  0  0  0
  147.8339  141.0691  157.4355 O   0  0  0  0  0  0  0  0  0  0  0  0
  150.4487  141.3821  156.9493 N   0  0  0  0  0  0  0  0  0  0  0  0
  151.5469  142.0355  157.6580 C   0  0  0  0  0  0  0  0  0  0  0  0
  151.6232  141.4597  159.0875 C   0  0  0  0  0  0  0  0  0  0  0  0
  152.9246  141.8233  159.8218 C   0  0  0  0  0  0  0  0  0  0  0  0
  152.9058  143.1602  160.5836 C   0  0  0  0  0  0  0  0  0  0  0  0
  152.2152  144.3418  159.8805 C   0  0  0  0  0  0  0  0  0  0  0  0
  152.3962  144.3978  158.3551 C   0  0  0  0  0  0  0  0  0  0  0  0
  151.3458  143.5644  157.6005 C   0  0  0  0  0  0  0  0  0  0  0  0
  149.4628  139.6402  154.2952 H   0  0  0  0  0  0  0  0  0  0  0  0
  148.9471  139.2180  155.8936 H   0  0  0  0  0  0  0  0  0  0  0  0
  148.4463  141.1381  153.1043 H   0  0  0  0  0  0  0  0  0  0  0  0
  146.6454  142.8008  152.7225 H   0  0  0  0  0  0  0  0  0  0  0  0
  145.3368  143.6172  154.7094 H   0  0  0  0  0  0  0  0  0  0  0  0
  149.5243  141.5089  157.3353 H   0  0  0  0  0  0  0  0  0  0  0  0
  152.4799  141.7874  157.1481 H   0  0  0  0  0  0  0  0  0  0  0  0
  150.7513  141.7484  159.6761 H   0  0  0  0  0  0  0  0  0  0  0  0
  151.5854  140.3716  159.0149 H   0  0  0  0  0  0  0  0  0  0  0  0
  153.1556  141.0359  160.5401 H   0  0  0  0  0  0  0  0  0  0  0  0
  153.7554  141.8155  159.1151 H   0  0  0  0  0  0  0  0  0  0  0  0
  152.4276  143.0147  161.5529 H   0  0  0  0  0  0  0  0  0  0  0  0
  153.9377  143.4340  160.8065 H   0  0  0  0  0  0  0  0  0  0  0  0
  151.1508  144.3358  160.1181 H   0  0  0  0  0  0  0  0  0  0  0  0
  152.5996  145.2637  160.3184 H   0  0  0  0  0  0  0  0  0  0  0  0
  152.2767  145.4360  158.0432 H   0  0  0  0  0  0  0  0  0  0  0  0
  153.4092  144.1158  158.0656 H   0  0  0  0  0  0  0  0  0  0  0  0
  151.3612  143.8739  156.5545 H   0  0  0  0  0  0  0  0  0  0  0  0
  150.3501  143.8209  157.9650 H   0  0  0  0  0  0  0  0  0  0  0  0
  1  2  2  0  0  0  0
  2  3  1  0  0  0  0
  2 14  1  0  0  0  0
  3  4  1  0  0  0  0
  3 22  1  0  0  0  0
  3 23  1  0  0  0  0
  4 12  1  0  0  0  0
  4  5  1  0  0  0  0
  5  6  2  0  0  0  0
  5 24  1  0  0  0  0
  6  7  1  0  0  0  0
  6 25  1  0  0  0  0
  7  8  2  0  0  0  0
  7 26  1  0  0  0  0
  8  9  1  0  0  0  0
  8 12  1  0  0  0  0
  9 10  2  0  0  0  0
  9 11  1  0  0  0  0
 12 13  2  0  0  0  0
 14 15  1  0  0  0  0
 14 27  1  0  0  0  0
 15 21  1  0  0  0  0
 15 16  1  0  0  0  0
 15 28  1  0  0  0  0
 16 17  1  0  0  0  0
 16 29  1  0  0  0  0
 16 30  1  0  0  0  0
 17 18  1  0  0  0  0
 17 31  1  0  0  0  0
 17 32  1  0  0  0  0
 18 19  1  0  0  0  0
 18 33  1  0  0  0  0
 18 34  1  0  0  0  0
 19 20  1  0  0  0  0
 19 35  1  0  0  0  0
 19 36  1  0  0  0  0
 20 21  1  0  0  0  0
 20 37  1  0  0  0  0
 20 38  1  0  0  0  0
 21 39  1  0  0  0  0
 21 40  1  0  0  0  0
M  CHG  1   9   1
M  CHG  1  11  -1
M  END
> <s_m_source_file>
AV-unprocessed.smi

> <i_m_source_file_index>
1609

> <i_lp_mmshare_version>
43012

> <i_f3d_flags>
0

> <s_epik_input>
W0NIMl0xW0NIMl1bQ0gyXVtDSDJdW0NIMl1bQ0gyXVtDSF0xW05IXUMoPU8pW0NIMl1uMltjSF1bY0hdW2NIXWMoW04rXSg9TylbTy1dKWMyPU8=

> <s_epik_cmdline>
J2VwaWtfcHl0aG9uJywgJy1waCcsICc3LjAnLCAnLXRuJywgJzgnLCAnLW1hJywgJzIwMCcsICctbWV0YWxfYmluZGluZycsICctaW1hZScsICc8aW5maWxlLm1hZT4nLCAnLW9tYWUnLCAnPG91dGZpbGUubWFlPic=

> <r_lp_tautomer_probability>
1

> <r_epik_Ionization_Penalty>
2.03564e-08

> <r_epik_Ionization_Penalty_Charging>
1.41597e-10

> <r_epik_Ionization_Penalty_Neutral>
2.02148e-08

> <r_epik_State_Penalty>
-0

> <r_epik_Charging_Adjusted_Penalty>
1.41597e-10

> <i_epik_Tot_Q>
0

> <i_epik_Tot_abs_Q>
2

> <r_epik_Metal_State_Penalty>
-0

> <b_epik_Metal_Only>
0

> <s_lp_Force_Field>
OPLS_2005

> <r_lp_Energy>
27.8729

> <b_lp_Chiralities_Consistent>
1

> <s_lp_Variant>
AV-unprocessed.smi:1609-1

> <Gold.Version>
5.8.1

> <Gold.Id.Protein>
6NUR|6NUR_protein|mol2

> <Gold.PLP.Fitness>
47.2859

> <Gold.PLP.PLP>
-42.3231

> <Gold.PLP.part.hbond>
-1.0000

> <Gold.PLP.part.metal>
0.0000

> <Gold.PLP.part.buried>
-6.9930

> <Gold.PLP.part.nonpolar>
-35.4322

> <Gold.PLP.part.repulsive>
0.2680

> <Gold.PLP.ligand.clash>
0.0000

> <Gold.PLP.ligand.torsion>
0.3386

> <Gold.PLP.Chemscore.Hbond>
0.8640

> <Gold.PLP.Chemscore.CHOScore>
1.0000

> <Gold.PLP.Chemscore.Metal>
0.0000

> <Gold.Chemscore.Hbonds>
donor molecule, donor type, donor heavy atom, donor atom, acceptor molecule, acceptor atom, score
      P1  H  7989  7998       L1     1  0.83
      L1  C     5    24       P1  7957  1.00

> <Gold.PLP.Chemscore.Internal.Correction>
0.0481

> <Gold.Rescore>
     Score         DG    S(hbond)    S(metal)    S(lipo)     H(rot)  DE(clash)    DE(int)     intcor
     14.77     -17.14       0.95        0.00     106.41       1.55       0.33       2.04       ----

> <Gold.Chemscore.Fitness>
14.7695

> <Gold.Chemscore.DG>
-17.1395

> <Gold.Chemscore.ZeroCoef>
-5.4800

> <Gold.Chemscore.Hbond>
0.9516

> <Gold.Chemscore.Metal>
0.0000

> <Gold.Chemscore.Lipo>
106.4124

> <Gold.Chemscore.Internal_Hbond>
0.0000

> <Gold.Chemscore.DEClash>
0.3281

> <Gold.Chemscore.DEInternal>
2.0419

> <Gold.Chemscore.Rot>
1.5505

> <Gold.Chemscore.Internal.Correction>
   9.000000E+99

> <Gold.Chemscore.Hbonds>
donor molecule, donor type, donor heavy atom, donor atom, acceptor molecule, acceptor atom, score
      P1  H  7989  7998       L1     1  0.71

> <Gold.Chemscore.Hbond.Weighted>
-3.1784

> <Gold.Chemscore.Metal.Weighted>
-0.0000

> <Gold.Chemscore.Lipo.Weighted>
-12.4502

> <Gold.Chemscore.Internal_Hbond.Weighted>
0.0000

> <Gold.Chemscore.DEClash.Weighted>
0.3281

> <Gold.Chemscore.DEInternal.Weighted>
2.0419

> <Gold.Chemscore.Rot.Weighted>
3.9692

> <Gold.Chemscore.Internal.Correction.Weighted>
   9.000000E+99

> <Gold.Protein.RotatedTorsions>
[ 6907 6896 6895 6894 ] final   11.53 input  -60.11 | X-H torsion
[ 7974 7965 7964 7962 ] final  162.39 input  175.53 | X-H torsion
[ 8008 7997 7996 7995 ] final  111.78 input   59.86 | X-H torsion
[ 10167 10162 10161 10158 ] final   66.16 input  -65.29 | X-H torsion
[ 10718 10713 10712 10709 ] final   13.58 input   66.30 | X-H torsion
[ 10763 10752 10751 10750 ] final   84.21 input  -60.55 | X-H torsion
[ 11005 11000 10999 10996 ] final   47.24 input  -57.11 | X-H torsion

> <Gold.Protein.ActiveResidues>
 VAL166  LYS551  ARG553  GLY616  TRP617  ASP618  TYR619  PRO620  LYS621  CYS622 
 ASP623  PHE694  ASN695  SER759  ASP760  ASP761  ALA762  ILE779  LEU786  VAL792 
 PHE793  MET794  SER795  GLU796  ALA797  LYS798  CYS799  TRP800  GLU811  SER814 

> <Gold.Protein.RotatedAtoms>
  151.7558  135.0822  160.0337 H   0  0  0  0  0  0  0  0  0  0  0  0  # atno 6907 bound_to 6896
  152.3386  133.6036  159.5869 H   0  0  0  0  0  0  0  0  0  0  0  0  # atno 6908 bound_to 6896
  150.7465  133.9673  159.3576 H   0  0  0  0  0  0  0  0  0  0  0  0  # atno 6909 bound_to 6896
  144.7639  139.8033  143.6322 H   0  0  0  0  0  0  0  0  0  0  0  0  # atno 7974 bound_to 7965
  156.2147  140.3012  155.9813 H   0  0  0  0  0  0  0  0  0  0  0  0  # atno 8008 bound_to 7997
  155.2635  140.0430  157.3017 H   0  0  0  0  0  0  0  0  0  0  0  0  # atno 8009 bound_to 7997
  154.5751  140.2359  155.8143 H   0  0  0  0  0  0  0  0  0  0  0  0  # atno 8010 bound_to 7997
  140.1034  144.4883  150.7023 H   0  0  0  0  0  0  0  0  0  0  0  0  # atno 10167 bound_to 10162
  157.0267  130.6176  149.5729 H   0  0  0  0  0  0  0  0  0  0  0  0  # atno 10718 bound_to 10713
  153.1361  135.4662  154.9424 H   0  0  0  0  0  0  0  0  0  0  0  0  # atno 10763 bound_to 10752
  154.7707  135.3158  154.8198 H   0  0  0  0  0  0  0  0  0  0  0  0  # atno 10764 bound_to 10752
  153.8730  135.6901  153.4827 H   0  0  0  0  0  0  0  0  0  0  0  0  # atno 10765 bound_to 10752
  140.1297  134.4722  155.8531 H   0  0  0  0  0  0  0  0  0  0  0  0  # atno 11005 bound_to 11000
  146.1728  139.4886  142.9916 LP  0  0  0  0  0  0  0  0  0  0  0  0  # atno 17320 bound_to 7965
  145.6532  141.0258  143.1749 LP  0  0  0  0  0  0  0  0  0  0  0  0  # atno 17321 bound_to 7965
  140.6965  143.2407  151.4986 LP  0  0  0  0  0  0  0  0  0  0  0  0  # atno 17342 bound_to 10162
  139.5658  144.2045  152.1763 LP  0  0  0  0  0  0  0  0  0  0  0  0  # atno 17343 bound_to 10162
  156.0083  130.5173  150.7906 LP  0  0  0  0  0  0  0  0  0  0  0  0  # atno 17370 bound_to 10713
  157.5209  131.0931  151.0080 LP  0  0  0  0  0  0  0  0  0  0  0  0  # atno 17371 bound_to 10713
  141.2168  133.6791  156.7046 LP  0  0  0  0  0  0  0  0  0  0  0  0  # atno 17394 bound_to 11000
  140.2858  134.8280  157.3973 LP  0  0  0  0  0  0  0  0  0  0  0  0  # atno 17395 bound_to 11000

$$$$
