AV-unprocessed.smi:1546|AV-procd|sdf|6219|dock4
  -GOLD-   22720 6393D 1   1.00000     0.00000
 Structure written by MMmdl.
 29 30  0  0  0  0  0  0  0  0  2 V2000
  148.8396  141.5941  156.9519 O   0  0  0  0  0  0  0  0  0  0  0  0
  149.9749  141.7675  157.3961 C   0  0  0  0  0  0  0  0  0  0  0  0
  150.2208  142.8004  158.4972 C   0  0  0  0  0  0  0  0  0  0  0  0
  150.9219  142.1976  159.5746 O   0  0  0  0  0  0  0  0  0  0  0  0
  152.3244  142.3692  159.4740 C   0  0  0  0  0  0  0  0  0  0  0  0
  152.6894  143.7545  159.9624 C   0  0  0  0  0  0  0  0  0  0  0  0
  151.6610  144.6160  160.6598 C   0  0  0  0  0  0  0  0  0  0  0  0
  152.1370  144.9837  159.2771 C   0  0  0  0  0  0  0  0  0  0  0  0
  151.0728  141.1166  156.9718 N   0  0  0  0  0  0  0  0  0  0  0  0
  151.1884  140.1096  155.9726 C   0  0  0  0  0  0  0  0  0  0  0  0
  150.2751  139.9607  154.8983 C   0  0  0  0  0  0  0  0  0  0  0  0
  150.3742  138.9926  153.9618 N   0  0  0  0  0  0  0  0  0  0  0  0
  151.3968  138.1185  154.0629 C   0  0  0  0  0  0  0  0  0  0  0  0
  152.3522  138.1616  155.0961 C   0  0  0  0  0  0  0  0  0  0  0  0
  152.2437  139.1719  156.0714 C   0  0  0  0  0  0  0  0  0  0  0  0
  153.1572  139.2273  157.0879 O   0  5  0  0  0  0  0  0  0  0  0  0
  150.7981  143.6309  158.0876 H   0  0  0  0  0  0  0  0  0  0  0  0
  149.2627  143.1928  158.8416 H   0  0  0  0  0  0  0  0  0  0  0  0
  152.8448  141.6181  160.0706 H   0  0  0  0  0  0  0  0  0  0  0  0
  152.6486  142.2612  158.4380 H   0  0  0  0  0  0  0  0  0  0  0  0
  153.7088  143.8338  160.3360 H   0  0  0  0  0  0  0  0  0  0  0  0
  150.6496  144.2254  160.7539 H   0  0  0  0  0  0  0  0  0  0  0  0
  152.0020  145.2309  161.4903 H   0  0  0  0  0  0  0  0  0  0  0  0
  152.7975  145.8434  159.1831 H   0  0  0  0  0  0  0  0  0  0  0  0
  151.4441  144.8359  158.4510 H   0  0  0  0  0  0  0  0  0  0  0  0
  151.9516  141.4257  157.3624 H   0  0  0  0  0  0  0  0  0  0  0  0
  149.4227  140.6106  154.7793 H   0  0  0  0  0  0  0  0  0  0  0  0
  151.4520  137.3565  153.2996 H   0  0  0  0  0  0  0  0  0  0  0  0
  153.1486  137.4331  155.1373 H   0  0  0  0  0  0  0  0  0  0  0  0
  1  2  2  0  0  0  0
  2  3  1  0  0  0  0
  2  9  1  0  0  0  0
  3  4  1  0  0  0  0
  3 17  1  0  0  0  0
  3 18  1  0  0  0  0
  4  5  1  0  0  0  0
  5  6  1  0  0  0  0
  5 19  1  0  0  0  0
  5 20  1  0  0  0  0
  6  8  1  0  0  0  0
  6  7  1  0  0  0  0
  6 21  1  0  0  0  0
  7  8  1  0  0  0  0
  7 22  1  0  0  0  0
  7 23  1  0  0  0  0
  8 24  1  0  0  0  0
  8 25  1  0  0  0  0
  9 26  1  0  0  0  0
  9 10  1  0  0  0  0
 10 15  1  0  0  0  0
 10 11  2  0  0  0  0
 11 27  1  0  0  0  0
 11 12  1  0  0  0  0
 12 13  2  0  0  0  0
 13 28  1  0  0  0  0
 13 14  1  0  0  0  0
 14 15  2  0  0  0  0
 14 29  1  0  0  0  0
 15 16  1  0  0  0  0
M  CHG  1  16  -1
M  END
> <s_m_source_file>
AV-unprocessed.smi

> <i_m_source_file_index>
1546

> <i_lp_mmshare_version>
43012

> <i_f3d_flags>
0

> <s_epik_input>
W0NIMl0xW0NIMl1bQ0hdMVtDSDJdT1tDSDJdQyg9TylbTkhdYzJbY0hdbltjSF1bY0hdYzJbT0hd

> <s_epik_cmdline>
J2VwaWtfcHl0aG9uJywgJy1waCcsICc3LjAnLCAnLXRuJywgJzgnLCAnLW1hJywgJzIwMCcsICctbWV0YWxfYmluZGluZycsICctaW1hZScsICc8aW5maWxlLm1hZT4nLCAnLW9tYWUnLCAnPG91dGZpbGUubWFlPic=

> <r_lp_tautomer_probability>
1

> <r_epik_Ionization_Penalty>
6.21828

> <r_epik_Ionization_Penalty_Charging>
1.1523

> <r_epik_Ionization_Penalty_Neutral>
5.06598

> <r_epik_State_Penalty>
5.06586

> <r_epik_Charging_Adjusted_Penalty>
6.21817

> <i_epik_Tot_Q>
-1

> <i_epik_Tot_abs_Q>
1

> <r_epik_Metal_State_Penalty>
1.16681

> <b_epik_Metal_Only>
1

> <s_lp_Force_Field>
OPLS_2005

> <r_lp_Energy>
16.9925

> <b_lp_Chiralities_Consistent>
1

> <s_lp_Variant>
AV-unprocessed.smi:1546-2

> <Gold.Version>
5.8.1

> <Gold.Id.Protein>
6NUR|6NUR_protein|mol2

> <Gold.PLP.Fitness>
43.1769

> <Gold.PLP.PLP>
-35.3518

> <Gold.PLP.part.hbond>
-2.0000

> <Gold.PLP.part.metal>
0.0000

> <Gold.PLP.part.buried>
-5.9022

> <Gold.PLP.part.nonpolar>
-29.2539

> <Gold.PLP.part.repulsive>
0.4023

> <Gold.PLP.ligand.clash>
0.0000

> <Gold.PLP.ligand.torsion>
0.8704

> <Gold.PLP.Chemscore.Hbond>
2.0000

> <Gold.PLP.Chemscore.CHOScore>
1.0000

> <Gold.PLP.Chemscore.Metal>
0.0000

> <Gold.Chemscore.Hbonds>
donor molecule, donor type, donor heavy atom, donor atom, acceptor molecule, acceptor atom, score
      P1  H  7997  8009       L1    16  2.00
      L1  C    13    28       P1  7949  1.00

> <Gold.PLP.Chemscore.Internal.Correction>
0.5660

> <Gold.Rescore>
     Score         DG    S(hbond)    S(metal)    S(lipo)     H(rot)  DE(clash)    DE(int)     intcor
     13.63     -15.65       1.00        0.00      93.89       1.62       0.01       2.01       ----

> <Gold.Chemscore.Fitness>
13.6315

> <Gold.Chemscore.DG>
-15.6481

> <Gold.Chemscore.ZeroCoef>
-5.4800

> <Gold.Chemscore.Hbond>
0.9973

> <Gold.Chemscore.Metal>
0.0000

> <Gold.Chemscore.Lipo>
93.8875

> <Gold.Chemscore.Internal_Hbond>
0.0000

> <Gold.Chemscore.DEClash>
0.0089

> <Gold.Chemscore.DEInternal>
2.0077

> <Gold.Chemscore.Rot>
1.6202

> <Gold.Chemscore.Internal.Correction>
   9.000000E+99

> <Gold.Chemscore.Hbonds>
donor molecule, donor type, donor heavy atom, donor atom, acceptor molecule, acceptor atom, score
      P1  H  7997  8009       L1    16  0.78

> <Gold.Chemscore.Hbond.Weighted>
-3.3309

> <Gold.Chemscore.Metal.Weighted>
-0.0000

> <Gold.Chemscore.Lipo.Weighted>
-10.9848

> <Gold.Chemscore.Internal_Hbond.Weighted>
0.0000

> <Gold.Chemscore.DEClash.Weighted>
0.0089

> <Gold.Chemscore.DEInternal.Weighted>
2.0077

> <Gold.Chemscore.Rot.Weighted>
4.1476

> <Gold.Chemscore.Internal.Correction.Weighted>
   9.000000E+99

> <Gold.Protein.RotatedTorsions>
[ 6907 6896 6895 6894 ] final   62.56 input  -60.11 | X-H torsion
[ 7974 7965 7964 7962 ] final   16.61 input  175.53 | X-H torsion
[ 8008 7997 7996 7995 ] final  175.56 input   59.86 | X-H torsion
[ 10167 10162 10161 10158 ] final -118.48 input  -65.29 | X-H torsion
[ 10718 10713 10712 10709 ] final   52.07 input   66.30 | X-H torsion
[ 10763 10752 10751 10750 ] final   76.57 input  -60.55 | X-H torsion
[ 11005 11000 10999 10996 ] final   20.40 input  -57.11 | X-H torsion

> <Gold.Protein.ActiveResidues>
 VAL166  LYS551  ARG553  GLY616  TRP617  ASP618  TYR619  PRO620  LYS621  CYS622 
 ASP623  PHE694  ASN695  SER759  ASP760  ASP761  ALA762  ILE779  LEU786  VAL792 
 PHE793  MET794  SER795  GLU796  ALA797  LYS798  CYS799  TRP800  GLU811  SER814 

> <Gold.Protein.RotatedAtoms>
  152.4182  134.6003  159.9997 H   0  0  0  0  0  0  0  0  0  0  0  0  # atno 6907 bound_to 6896
  151.6160  133.3337  159.3085 H   0  0  0  0  0  0  0  0  0  0  0  0  # atno 6908 bound_to 6896
  150.8070  134.7241  159.6719 H   0  0  0  0  0  0  0  0  0  0  0  0  # atno 6909 bound_to 6896
  146.2244  139.8722  142.8585 H   0  0  0  0  0  0  0  0  0  0  0  0  # atno 7974 bound_to 7965
  156.0858  140.1406  156.9655 H   0  0  0  0  0  0  0  0  0  0  0  0  # atno 8008 bound_to 7997
  154.4612  140.0942  156.6945 H   0  0  0  0  0  0  0  0  0  0  0  0  # atno 8009 bound_to 7997
  155.5001  140.3450  155.4372 H   0  0  0  0  0  0  0  0  0  0  0  0  # atno 8010 bound_to 7997
  140.0571  143.5004  152.2052 H   0  0  0  0  0  0  0  0  0  0  0  0  # atno 10167 bound_to 10162
  157.5040  130.8457  149.8352 H   0  0  0  0  0  0  0  0  0  0  0  0  # atno 10718 bound_to 10713
  153.0735  135.4946  154.8355 H   0  0  0  0  0  0  0  0  0  0  0  0  # atno 10763 bound_to 10752
  154.7055  135.3010  154.9278 H   0  0  0  0  0  0  0  0  0  0  0  0  # atno 10764 bound_to 10752
  153.9988  135.6769  153.4811 H   0  0  0  0  0  0  0  0  0  0  0  0  # atno 10765 bound_to 10752
  140.4031  134.1698  155.7664 H   0  0  0  0  0  0  0  0  0  0  0  0  # atno 11005 bound_to 11000
  145.2596  141.0072  143.3834 LP  0  0  0  0  0  0  0  0  0  0  0  0  # atno 17320 bound_to 7965
  144.9309  139.4300  143.6496 LP  0  0  0  0  0  0  0  0  0  0  0  0  # atno 17321 bound_to 7965
  139.5917  144.7552  151.3385 LP  0  0  0  0  0  0  0  0  0  0  0  0  # atno 17342 bound_to 10162
  140.7190  143.7189  150.7711 LP  0  0  0  0  0  0  0  0  0  0  0  0  # atno 17343 bound_to 10162
  156.0247  130.3783  150.1859 LP  0  0  0  0  0  0  0  0  0  0  0  0  # atno 17370 bound_to 10713
  157.0048  130.9933  151.3381 LP  0  0  0  0  0  0  0  0  0  0  0  0  # atno 17371 bound_to 10713
  141.1849  133.8333  157.1122 LP  0  0  0  0  0  0  0  0  0  0  0  0  # atno 17394 bound_to 11000
  140.0322  134.9895  157.0802 LP  0  0  0  0  0  0  0  0  0  0  0  0  # atno 17395 bound_to 11000

$$$$
