AV-unprocessed.smi:492|AV-procd|sdf|2708|dock3
  -GOLD-   2262023153D 1   1.00000     0.00000
 Structure written by MMmdl.
 46 48  0  0  0  0  0  0  0  0  1 V2000
  142.9990  146.2633  154.3061 C   0  0  0  0  0  0  0  0  0  0  0  0
  143.4234  145.4136  155.3620 O   0  0  0  0  0  0  0  0  0  0  0  0
  144.4583  144.5374  155.1135 C   0  0  0  0  0  0  0  0  0  0  0  0
  145.0467  144.3391  153.8390 C   0  0  0  0  0  0  0  0  0  0  0  0
  146.1027  143.4213  153.6750 C   0  0  0  0  0  0  0  0  0  0  0  0
  146.5917  142.6932  154.7782 C   0  0  0  0  0  0  0  0  0  0  0  0
  147.7169  141.6927  154.5932 C   0  0  0  0  0  0  0  0  0  0  0  0
  148.1411  141.1416  155.8286 O   0  0  0  0  0  0  0  0  0  0  0  0
  149.5247  140.8300  155.8555 C   0  0  0  0  0  0  0  0  0  0  0  0
  150.1918  141.5373  157.0459 C   0  0  2  0  0  0  0  0  0  0  0  0
  149.8842  142.9162  156.9888 O   0  0  0  0  0  0  0  0  0  0  0  0
  151.7126  141.2891  157.1362 C   0  0  0  0  0  0  0  0  0  0  0  0
  152.2055  141.2994  158.5060 N   0  0  0  0  0  0  0  0  0  0  0  0
  152.8193  140.2981  159.1827 C   0  0  0  0  0  0  0  0  0  0  0  0
  153.0888  138.9684  158.5526 C   0  0  0  0  0  0  0  0  0  0  0  0
  153.1691  140.5741  160.4392 N   0  0  0  0  0  0  0  0  0  0  0  0
  152.7438  141.8800  160.5916 C   0  0  0  0  0  0  0  0  0  0  0  0
  152.8240  142.7487  161.7036 C   0  0  0  0  0  0  0  0  0  0  0  0
  152.3151  144.0616  161.6221 C   0  0  0  0  0  0  0  0  0  0  0  0
  151.7187  144.5240  160.4312 C   0  0  0  0  0  0  0  0  0  0  0  0
  151.6274  143.6746  159.3121 C   0  0  0  0  0  0  0  0  0  0  0  0
  152.1378  142.3652  159.3981 C   0  0  0  0  0  0  0  0  0  0  0  0
  146.0036  142.8795  156.0458 C   0  0  0  0  0  0  0  0  0  0  0  0
  144.9482  143.7971  156.2089 C   0  0  0  0  0  0  0  0  0  0  0  0
  142.1792  146.8900  154.6569 H   0  0  0  0  0  0  0  0  0  0  0  0
  142.6330  145.6890  153.4539 H   0  0  0  0  0  0  0  0  0  0  0  0
  143.8025  146.9245  153.9788 H   0  0  0  0  0  0  0  0  0  0  0  0
  144.7046  144.8784  152.9691 H   0  0  0  0  0  0  0  0  0  0  0  0
  146.5368  143.2797  152.6960 H   0  0  0  0  0  0  0  0  0  0  0  0
  147.3658  140.8994  153.9316 H   0  0  0  0  0  0  0  0  0  0  0  0
  148.5605  142.1797  154.1014 H   0  0  0  0  0  0  0  0  0  0  0  0
  149.6798  139.7511  155.9118 H   0  0  0  0  0  0  0  0  0  0  0  0
  149.9834  141.1741  154.9272 H   0  0  0  0  0  0  0  0  0  0  0  0
  149.7232  141.1662  157.9572 H   0  0  0  0  0  0  0  0  0  0  0  0
  149.4032  143.0817  156.1924 H   0  0  0  0  0  0  0  0  0  0  0  0
  151.9688  140.3362  156.6728 H   0  0  0  0  0  0  0  0  0  0  0  0
  152.2582  142.0500  156.5774 H   0  0  0  0  0  0  0  0  0  0  0  0
  153.5823  138.3032  159.2619 H   0  0  0  0  0  0  0  0  0  0  0  0
  153.7382  139.0854  157.6850 H   0  0  0  0  0  0  0  0  0  0  0  0
  152.1564  138.5003  158.2380 H   0  0  0  0  0  0  0  0  0  0  0  0
  153.2781  142.4041  162.6207 H   0  0  0  0  0  0  0  0  0  0  0  0
  152.3819  144.7170  162.4780 H   0  0  0  0  0  0  0  0  0  0  0  0
  151.3307  145.5306  160.3775 H   0  0  0  0  0  0  0  0  0  0  0  0
  151.1693  144.0254  158.3993 H   0  0  0  0  0  0  0  0  0  0  0  0
  146.3584  142.3202  156.8992 H   0  0  0  0  0  0  0  0  0  0  0  0
  144.5083  143.9328  157.1862 H   0  0  0  0  0  0  0  0  0  0  0  0
  1  2  1  0  0  0  0
  1 25  1  0  0  0  0
  1 26  1  0  0  0  0
  1 27  1  0  0  0  0
  2  3  1  0  0  0  0
  3 24  1  0  0  0  0
  3  4  2  0  0  0  0
  4  5  1  0  0  0  0
  4 28  1  0  0  0  0
  5  6  2  0  0  0  0
  5 29  1  0  0  0  0
  6  7  1  0  0  0  0
  6 23  1  0  0  0  0
  7  8  1  0  0  0  0
  7 30  1  0  0  0  0
  7 31  1  0  0  0  0
  8  9  1  0  0  0  0
  9 10  1  0  0  0  0
  9 32  1  0  0  0  0
  9 33  1  0  0  0  0
 10 11  1  0  0  0  0
 10 12  1  0  0  0  0
 10 34  1  0  0  0  0
 11 35  1  0  0  0  0
 12 13  1  0  0  0  0
 12 36  1  0  0  0  0
 12 37  1  0  0  0  0
 13 22  1  0  0  0  0
 13 14  1  0  0  0  0
 14 15  1  0  0  0  0
 14 16  2  0  0  0  0
 15 38  1  0  0  0  0
 15 39  1  0  0  0  0
 15 40  1  0  0  0  0
 16 17  1  0  0  0  0
 17 22  2  0  0  0  0
 17 18  1  0  0  0  0
 18 19  2  0  0  0  0
 18 41  1  0  0  0  0
 19 20  1  0  0  0  0
 19 42  1  0  0  0  0
 20 21  2  0  0  0  0
 20 43  1  0  0  0  0
 21 22  1  0  0  0  0
 21 44  1  0  0  0  0
 23 24  2  0  0  0  0
 23 45  1  0  0  0  0
 24 46  1  0  0  0  0
M  END
> <s_m_source_file>
AV-unprocessed.smi

> <i_m_source_file_index>
492

> <i_lp_mmshare_version>
43012

> <i_f3d_flags>
0

> <s_epik_input>
W0NIM11PYzFbY0hdW2NIXWMoW2NIXVtjSF0xKVtDSDJdT1tDSDJdW0NASF0oW09IXSlbQ0gyXW4oYyhuMilbQ0gzXSljKGMyMylbY0hdW2NIXVtjSF1bY0hdMw==

> <s_epik_cmdline>
J2VwaWtfcHl0aG9uJywgJy1waCcsICc3LjAnLCAnLXRuJywgJzgnLCAnLW1hJywgJzIwMCcsICctbWV0YWxfYmluZGluZycsICctaW1hZScsICc8aW5maWxlLm1hZT4nLCAnLW9tYWUnLCAnPG91dGZpbGUubWFlPic=

> <r_lp_tautomer_probability>
1

> <r_epik_Ionization_Penalty>
0.132603

> <r_epik_Ionization_Penalty_Charging>
0

> <r_epik_Ionization_Penalty_Neutral>
0.132603

> <r_epik_State_Penalty>
0.121982

> <r_epik_Charging_Adjusted_Penalty>
0.121982

> <i_epik_Tot_Q>
0

> <i_epik_Tot_abs_Q>
0

> <r_epik_Metal_State_Penalty>
0.000135431

> <b_epik_Metal_Only>
0

> <s_lp_Force_Field>
OPLS_2005

> <r_lp_Energy>
19.0412

> <b_lp_Chiralities_Consistent>
1

> <s_lp_Variant>
AV-unprocessed.smi:492-1

> <Gold.Version>
5.8.1

> <Gold.Id.Protein>
6NUR|6NUR_protein|mol2

> <Gold.PLP.Fitness>
50.5018

> <Gold.PLP.PLP>
-51.0559

> <Gold.PLP.part.hbond>
-0.6897

> <Gold.PLP.part.metal>
0.0000

> <Gold.PLP.part.buried>
-8.6249

> <Gold.PLP.part.nonpolar>
-42.5372

> <Gold.PLP.part.repulsive>
0.1062

> <Gold.PLP.ligand.clash>
0.0000

> <Gold.PLP.ligand.torsion>
1.0186

> <Gold.PLP.Chemscore.Hbond>
0.4320

> <Gold.PLP.Chemscore.CHOScore>
0.0000

> <Gold.PLP.Chemscore.Metal>
0.0000

> <Gold.Chemscore.Hbonds>
donor molecule, donor type, donor heavy atom, donor atom, acceptor molecule, acceptor atom, score
      L1  H    11    35       P1  8028  0.48

> <Gold.PLP.Chemscore.Internal.Correction>
0.1869

> <Gold.Rescore>
     Score         DG    S(hbond)    S(metal)    S(lipo)     H(rot)  DE(clash)    DE(int)     intcor
     16.92     -18.21       0.83        0.00     137.61       2.40       0.36       0.93       ----

> <Gold.Chemscore.Fitness>
16.9213

> <Gold.Chemscore.DG>
-18.2092

> <Gold.Chemscore.ZeroCoef>
-5.4800

> <Gold.Chemscore.Hbond>
0.8294

> <Gold.Chemscore.Metal>
0.0000

> <Gold.Chemscore.Lipo>
137.6130

> <Gold.Chemscore.Internal_Hbond>
0.0000

> <Gold.Chemscore.DEClash>
0.3576

> <Gold.Chemscore.DEInternal>
0.9303

> <Gold.Chemscore.Rot>
2.3991

> <Gold.Chemscore.Internal.Correction>
   9.000000E+99

> <Gold.Chemscore.Hbonds>
donor molecule, donor type, donor heavy atom, donor atom, acceptor molecule, acceptor atom, score
      L1  H    11    35       P1  8028  0.48

> <Gold.Chemscore.Hbond.Weighted>
-2.7703

> <Gold.Chemscore.Metal.Weighted>
-0.0000

> <Gold.Chemscore.Lipo.Weighted>
-16.1007

> <Gold.Chemscore.Internal_Hbond.Weighted>
0.0000

> <Gold.Chemscore.DEClash.Weighted>
0.3576

> <Gold.Chemscore.DEInternal.Weighted>
0.9303

> <Gold.Chemscore.Rot.Weighted>
6.1417

> <Gold.Chemscore.Internal.Correction.Weighted>
   9.000000E+99

> <Gold.Protein.RotatedTorsions>
[ 6907 6896 6895 6894 ] final  -49.34 input  -60.11 | X-H torsion
[ 7974 7965 7964 7962 ] final  -33.07 input  175.53 | X-H torsion
[ 8008 7997 7996 7995 ] final  -80.47 input   59.86 | X-H torsion
[ 10167 10162 10161 10158 ] final  -30.18 input  -65.29 | X-H torsion
[ 10718 10713 10712 10709 ] final  160.72 input   66.30 | X-H torsion
[ 10763 10752 10751 10750 ] final    6.38 input  -60.55 | X-H torsion
[ 11005 11000 10999 10996 ] final -152.77 input  -57.11 | X-H torsion

> <Gold.Protein.ActiveResidues>
 VAL166  LYS551  ARG553  GLY616  TRP617  ASP618  TYR619  PRO620  LYS621  CYS622 
 ASP623  PHE694  ASN695  SER759  ASP760  ASP761  ALA762  ILE779  LEU786  VAL792 
 PHE793  MET794  SER795  GLU796  ALA797  LYS798  CYS799  TRP800  GLU811  SER814 

> <Gold.Protein.RotatedAtoms>
  150.8815  134.8206  159.7227 H   0  0  0  0  0  0  0  0  0  0  0  0  # atno 6907 bound_to 6896
  152.4781  134.4789  159.9669 H   0  0  0  0  0  0  0  0  0  0  0  0  # atno 6908 bound_to 6896
  151.4863  133.3496  159.2881 H   0  0  0  0  0  0  0  0  0  0  0  0  # atno 6909 bound_to 6896
  146.0940  140.5871  142.8851 H   0  0  0  0  0  0  0  0  0  0  0  0  # atno 7974 bound_to 7965
  154.5886  140.0662  156.9207 H   0  0  0  0  0  0  0  0  0  0  0  0  # atno 8008 bound_to 7997
  155.2335  140.3339  155.4282 H   0  0  0  0  0  0  0  0  0  0  0  0  # atno 8009 bound_to 7997
  156.2240  140.1811  156.7392 H   0  0  0  0  0  0  0  0  0  0  0  0  # atno 8010 bound_to 7997
  140.7252  143.3869  151.1499 H   0  0  0  0  0  0  0  0  0  0  0  0  # atno 10167 bound_to 10162
  157.1464  131.0553  151.2301 H   0  0  0  0  0  0  0  0  0  0  0  0  # atno 10718 bound_to 10713
  153.2484  135.6911  153.7706 H   0  0  0  0  0  0  0  0  0  0  0  0  # atno 10763 bound_to 10752
  153.6810  135.3328  155.3179 H   0  0  0  0  0  0  0  0  0  0  0  0  # atno 10764 bound_to 10752
  154.8384  135.4522  154.1432 H   0  0  0  0  0  0  0  0  0  0  0  0  # atno 10765 bound_to 10752
  140.7153  134.3787  157.5192 H   0  0  0  0  0  0  0  0  0  0  0  0  # atno 11005 bound_to 11000
  144.7381  140.4866  143.6889 LP  0  0  0  0  0  0  0  0  0  0  0  0  # atno 17320 bound_to 7965
  145.5984  139.1501  143.3143 LP  0  0  0  0  0  0  0  0  0  0  0  0  # atno 17321 bound_to 7965
  139.7468  143.8840  152.3066 LP  0  0  0  0  0  0  0  0  0  0  0  0  # atno 17342 bound_to 10162
  139.8680  144.7083  150.9021 LP  0  0  0  0  0  0  0  0  0  0  0  0  # atno 17343 bound_to 10162
  157.4260  130.7464  149.6951 LP  0  0  0  0  0  0  0  0  0  0  0  0  # atno 17370 bound_to 10713
  155.9778  130.4058  150.3685 LP  0  0  0  0  0  0  0  0  0  0  0  0  # atno 17371 bound_to 10713
  139.8861  134.8918  156.2603 LP  0  0  0  0  0  0  0  0  0  0  0  0  # atno 17394 bound_to 11000
  141.0050  133.7129  156.1020 LP  0  0  0  0  0  0  0  0  0  0  0  0  # atno 17395 bound_to 11000

$$$$
