AV-unprocessed.smi:2510|AV-procd|sdf|9884|dock9
  -GOLD-   2272013523D 1   1.00000     0.00000
 Structure written by MMmdl.
 48 49  0  0  0  0  0  0  0  0  1 V2000
  147.1103  141.8160  153.8778 C   0  0  0  0  0  0  0  0  0  0  0  0
  148.5994  141.5218  154.1406 C   0  0  0  0  0  0  0  0  0  0  0  0
  148.9293  140.3049  155.0521 C   0  0  0  0  0  0  0  0  0  0  0  0
  148.0659  140.3772  156.3304 C   0  0  0  0  0  0  0  0  0  0  0  0
  148.3034  141.6237  157.1983 C   0  0  0  0  0  0  0  0  0  0  0  0
  149.0114  138.8991  154.3929 C   0  0  1  0  0  0  0  0  0  0  0  0
  148.2190  138.7229  153.1817 N   0  0  0  0  0  0  0  0  0  0  0  0
  147.1000  137.9871  153.1068 C   0  0  0  0  0  0  0  0  0  0  0  0
  146.6051  137.4032  154.0708 O   0  0  0  0  0  0  0  0  0  0  0  0
  146.4348  137.8981  151.7338 C   0  0  0  0  0  0  0  0  0  0  0  0
  145.7747  136.5697  151.5507 C   0  0  0  0  0  0  0  0  0  0  0  0
  146.2064  135.3025  151.8265 C   0  0  0  0  0  0  0  0  0  0  0  0
  145.1258  134.4654  151.4216 C   0  0  0  0  0  0  0  0  0  0  0  0
  145.0393  132.9688  151.4854 C   0  0  0  0  0  0  0  0  0  0  0  0
  144.1036  135.1564  150.9391 N   0  0  0  0  0  0  0  0  0  0  0  0
  144.5091  136.4368  151.0246 N   0  0  0  0  0  0  0  0  0  0  0  0
  150.4930  139.1417  154.0904 C   0  0  2  0  0  0  0  0  0  0  0  0
  151.4588  137.9631  154.0662 C   0  0  0  0  0  0  0  0  0  0  0  0
  150.4567  140.1152  155.2828 C   0  0  2  0  0  0  0  0  0  0  0  0
  150.7388  139.4697  156.5205 O   0  0  0  0  0  0  0  0  0  0  0  0
  152.1267  139.3207  156.7673 C   0  0  0  0  0  0  0  0  0  0  0  0
  143.9201  137.1992  150.7217 H   0  0  0  0  0  0  0  0  0  0  0  0
  147.0074  142.6091  153.1371 H   0  0  0  0  0  0  0  0  0  0  0  0
  146.5978  142.1576  154.7766 H   0  0  0  0  0  0  0  0  0  0  0  0
  146.5765  140.9479  153.4974 H   0  0  0  0  0  0  0  0  0  0  0  0
  149.0797  141.4013  153.1699 H   0  0  0  0  0  0  0  0  0  0  0  0
  149.0531  142.4229  154.5537 H   0  0  0  0  0  0  0  0  0  0  0  0
  147.0067  140.2963  156.0886 H   0  0  0  0  0  0  0  0  0  0  0  0
  148.2583  139.5024  156.9523 H   0  0  0  0  0  0  0  0  0  0  0  0
  147.7174  141.5683  158.1159 H   0  0  0  0  0  0  0  0  0  0  0  0
  148.0125  142.5387  156.6836 H   0  0  0  0  0  0  0  0  0  0  0  0
  149.3513  141.7169  157.4834 H   0  0  0  0  0  0  0  0  0  0  0  0
  148.8895  138.0908  155.1187 H   0  0  0  0  0  0  0  0  0  0  0  0
  148.5537  139.1744  152.3430 H   0  0  0  0  0  0  0  0  0  0  0  0
  145.6978  138.6967  151.6417 H   0  0  0  0  0  0  0  0  0  0  0  0
  147.1741  138.0669  150.9493 H   0  0  0  0  0  0  0  0  0  0  0  0
  147.1567  135.0149  152.2516 H   0  0  0  0  0  0  0  0  0  0  0  0
  145.9583  132.5371  151.8822 H   0  0  0  0  0  0  0  0  0  0  0  0
  144.8739  132.5423  150.4957 H   0  0  0  0  0  0  0  0  0  0  0  0
  144.2189  132.6504  152.1286 H   0  0  0  0  0  0  0  0  0  0  0  0
  150.5975  139.7198  153.1705 H   0  0  0  0  0  0  0  0  0  0  0  0
  151.3776  137.3582  154.9695 H   0  0  0  0  0  0  0  0  0  0  0  0
  152.4920  138.3001  153.9832 H   0  0  0  0  0  0  0  0  0  0  0  0
  151.2568  137.3098  153.2174 H   0  0  0  0  0  0  0  0  0  0  0  0
  151.0285  141.0329  155.1318 H   0  0  0  0  0  0  0  0  0  0  0  0
  152.2765  138.7870  157.7057 H   0  0  0  0  0  0  0  0  0  0  0  0
  152.6130  140.2931  156.8537 H   0  0  0  0  0  0  0  0  0  0  0  0
  152.6188  138.7554  155.9759 H   0  0  0  0  0  0  0  0  0  0  0  0
  1  2  1  0  0  0  0
  1 23  1  0  0  0  0
  1 24  1  0  0  0  0
  1 25  1  0  0  0  0
  2  3  1  0  0  0  0
  2 26  1  0  0  0  0
  2 27  1  0  0  0  0
  3 19  1  0  0  0  0
  3  4  1  0  0  0  0
  3  6  1  0  0  0  0
  4  5  1  0  0  0  0
  4 28  1  0  0  0  0
  4 29  1  0  0  0  0
  5 30  1  0  0  0  0
  5 31  1  0  0  0  0
  5 32  1  0  0  0  0
  6  7  1  0  0  0  0
  6 17  1  0  0  0  0
  6 33  1  0  0  0  0
  7  8  1  0  0  0  0
  7 34  1  0  0  0  0
  8  9  2  0  0  0  0
  8 10  1  0  0  0  0
 10 35  1  0  0  0  0
 10 36  1  0  0  0  0
 10 11  1  0  0  0  0
 11 16  1  0  0  0  0
 11 12  2  0  0  0  0
 12 13  1  0  0  0  0
 12 37  1  0  0  0  0
 13 14  1  0  0  0  0
 13 15  2  0  0  0  0
 14 38  1  0  0  0  0
 14 39  1  0  0  0  0
 14 40  1  0  0  0  0
 15 16  1  0  0  0  0
 16 22  1  0  0  0  0
 17 18  1  0  0  0  0
 17 19  1  0  0  0  0
 17 41  1  0  0  0  0
 18 42  1  0  0  0  0
 18 43  1  0  0  0  0
 18 44  1  0  0  0  0
 19 20  1  0  0  0  0
 19 45  1  0  0  0  0
 20 21  1  0  0  0  0
 21 46  1  0  0  0  0
 21 47  1  0  0  0  0
 21 48  1  0  0  0  0
M  END
> <s_m_source_file>
AV-unprocessed.smi

> <i_m_source_file_index>
2510

> <i_lp_mmshare_version>
43012

> <i_f3d_flags>
0

> <s_epik_input>
W0NIM11PW0NAQEhdMVtDQEhdKFtDSDNdKVtDQEBIXShDMShbQ0gyXVtDSDNdKVtDSDJdW0NIM10pW05IXUMoPU8pW0NIMl1jMltjSF1jKFtDSDNdKVtuSF1uMg==

> <s_epik_cmdline>
J2VwaWtfcHl0aG9uJywgJy1waCcsICc3LjAnLCAnLXRuJywgJzgnLCAnLW1hJywgJzIwMCcsICctbWV0YWxfYmluZGluZycsICctaW1hZScsICc8aW5maWxlLm1hZT4nLCAnLW9tYWUnLCAnPG91dGZpbGUubWFlPic=

> <r_lp_tautomer_probability>
0.5

> <r_epik_Ionization_Penalty>
0.000134763

> <r_epik_Ionization_Penalty_Charging>
0

> <r_epik_Ionization_Penalty_Neutral>
0.000134763

> <r_epik_State_Penalty>
0.41068

> <r_epik_Charging_Adjusted_Penalty>
0.41068

> <i_epik_Tot_Q>
0

> <i_epik_Tot_abs_Q>
0

> <r_epik_Metal_State_Penalty>
0.410661

> <b_epik_Metal_Only>
0

> <s_lp_Force_Field>
OPLS_2005

> <r_lp_Energy>
27.4462

> <b_lp_Chiralities_Consistent>
1

> <s_lp_Variant>
AV-unprocessed.smi:2510-15

> <Gold.Version>
5.8.1

> <Gold.Id.Protein>
6NUR|6NUR_protein|mol2

> <Gold.PLP.Fitness>
36.7789

> <Gold.PLP.PLP>
-32.9925

> <Gold.PLP.part.hbond>
-2.7101

> <Gold.PLP.part.metal>
0.0000

> <Gold.PLP.part.buried>
1.2934

> <Gold.PLP.part.nonpolar>
-31.1715

> <Gold.PLP.part.repulsive>
0.4326

> <Gold.PLP.ligand.clash>
0.0000

> <Gold.PLP.ligand.torsion>
1.1887

> <Gold.PLP.Chemscore.Hbond>
1.8320

> <Gold.PLP.Chemscore.CHOScore>
0.0000

> <Gold.PLP.Chemscore.Metal>
0.0000

> <Gold.Chemscore.Hbonds>
donor molecule, donor type, donor heavy atom, donor atom, acceptor molecule, acceptor atom, score
      L1  H     7    34       P1  7957  1.00
      L1  H    16    22       P1 10171  0.90

> <Gold.PLP.Chemscore.Internal.Correction>
0.6678

> <Gold.Rescore>
     Score         DG    S(hbond)    S(metal)    S(lipo)     H(rot)  DE(clash)    DE(int)     intcor
     13.98     -17.65       1.84        0.00      91.07       1.81       2.58       1.09       ----

> <Gold.Chemscore.Fitness>
13.9833

> <Gold.Chemscore.DG>
-17.6515

> <Gold.Chemscore.ZeroCoef>
-5.4800

> <Gold.Chemscore.Hbond>
1.8414

> <Gold.Chemscore.Metal>
0.0000

> <Gold.Chemscore.Lipo>
91.0718

> <Gold.Chemscore.Internal_Hbond>
0.0000

> <Gold.Chemscore.DEClash>
2.5759

> <Gold.Chemscore.DEInternal>
1.0924

> <Gold.Chemscore.Rot>
1.8102

> <Gold.Chemscore.Internal.Correction>
   9.000000E+99

> <Gold.Chemscore.Hbonds>
donor molecule, donor type, donor heavy atom, donor atom, acceptor molecule, acceptor atom, score
      L1  H     7    34       P1  7957  1.00
      L1  H    16    22       P1 10171  0.88

> <Gold.Chemscore.Hbond.Weighted>
-6.1502

> <Gold.Chemscore.Metal.Weighted>
-0.0000

> <Gold.Chemscore.Lipo.Weighted>
-10.6554

> <Gold.Chemscore.Internal_Hbond.Weighted>
0.0000

> <Gold.Chemscore.DEClash.Weighted>
2.5759

> <Gold.Chemscore.DEInternal.Weighted>
1.0924

> <Gold.Chemscore.Rot.Weighted>
4.6341

> <Gold.Chemscore.Internal.Correction.Weighted>
   9.000000E+99

> <Gold.Protein.RotatedTorsions>
[ 6907 6896 6895 6894 ] final  -97.39 input  -60.11 | X-H torsion
[ 7974 7965 7964 7962 ] final   -8.15 input  175.53 | X-H torsion
[ 8008 7997 7996 7995 ] final  153.05 input   59.86 | X-H torsion
[ 10167 10162 10161 10158 ] final  -11.70 input  -65.29 | X-H torsion
[ 10718 10713 10712 10709 ] final -169.23 input   66.30 | X-H torsion
[ 10763 10752 10751 10750 ] final -130.07 input  -60.55 | X-H torsion
[ 11005 11000 10999 10996 ] final   42.45 input  -57.11 | X-H torsion

> <Gold.Protein.ActiveResidues>
 VAL166  LYS551  ARG553  GLY616  TRP617  ASP618  TYR619  PRO620  LYS621  CYS622 
 ASP623  PHE694  ASN695  SER759  ASP760  ASP761  ALA762  ILE779  LEU786  VAL792 
 PHE793  MET794  SER795  GLU796  ALA797  LYS798  CYS799  TRP800  GLU811  SER814 

> <Gold.Protein.RotatedAtoms>
  150.7015  134.1355  159.4085 H   0  0  0  0  0  0  0  0  0  0  0  0  # atno 6907 bound_to 6896
  151.9340  135.0241  160.0540 H   0  0  0  0  0  0  0  0  0  0  0  0  # atno 6908 bound_to 6896
  152.2151  133.4905  159.5168 H   0  0  0  0  0  0  0  0  0  0  0  0  # atno 6909 bound_to 6896
  146.2288  140.2426  142.8344 H   0  0  0  0  0  0  0  0  0  0  0  0  # atno 7974 bound_to 7965
  156.2600  140.2004  156.6429 H   0  0  0  0  0  0  0  0  0  0  0  0  # atno 8008 bound_to 7997
  154.6596  140.0562  157.0071 H   0  0  0  0  0  0  0  0  0  0  0  0  # atno 8009 bound_to 7997
  155.1296  140.3232  155.4480 H   0  0  0  0  0  0  0  0  0  0  0  0  # atno 8010 bound_to 7997
  140.7144  143.5611  150.9195 H   0  0  0  0  0  0  0  0  0  0  0  0  # atno 10167 bound_to 10162
  156.7084  130.9224  151.3087 H   0  0  0  0  0  0  0  0  0  0  0  0  # atno 10718 bound_to 10713
  154.8756  135.3874  154.4023 H   0  0  0  0  0  0  0  0  0  0  0  0  # atno 10763 bound_to 10752
  153.4746  135.7030  153.5978 H   0  0  0  0  0  0  0  0  0  0  0  0  # atno 10764 bound_to 10752
  153.4420  135.3854  155.2201 H   0  0  0  0  0  0  0  0  0  0  0  0  # atno 10765 bound_to 10752
  140.1738  134.4189  155.8241 H   0  0  0  0  0  0  0  0  0  0  0  0  # atno 11005 bound_to 11000
  144.9473  140.8141  143.5593 LP  0  0  0  0  0  0  0  0  0  0  0  0  # atno 17320 bound_to 7965
  145.2383  139.2084  143.5006 LP  0  0  0  0  0  0  0  0  0  0  0  0  # atno 17321 bound_to 7965
  139.9336  143.6464  152.3070 LP  0  0  0  0  0  0  0  0  0  0  0  0  # atno 17342 bound_to 10162
  139.6923  144.7645  151.1416 LP  0  0  0  0  0  0  0  0  0  0  0  0  # atno 17343 bound_to 10162
  157.6945  130.9268  150.0607 LP  0  0  0  0  0  0  0  0  0  0  0  0  # atno 17370 bound_to 10713
  156.1678  130.3645  149.9207 LP  0  0  0  0  0  0  0  0  0  0  0  0  # atno 17371 bound_to 10713
  141.2219  133.6968  156.7811 LP  0  0  0  0  0  0  0  0  0  0  0  0  # atno 17394 bound_to 11000
  140.2346  134.8660  157.3512 LP  0  0  0  0  0  0  0  0  0  0  0  0  # atno 17395 bound_to 11000

$$$$
