AV-unprocessed.smi:36|AV-procd|sdf|288|dock5
  -GOLD-   2262016 73D 1   1.00000     0.00000
 Structure written by MMmdl.
 64 67  0  0  0  0  0  0  0  0  1 V2000
  146.8844  133.4563  160.6890 C   0  0  0  0  0  0  0  0  0  0  0  0
  146.4299  134.4873  161.7353 C   0  0  0  0  0  0  0  0  0  0  0  0
  145.0933  134.0485  162.3564 C   0  0  0  0  0  0  0  0  0  0  0  0
  147.4943  134.6186  162.8377 C   0  0  0  0  0  0  0  0  0  0  0  0
  146.1990  136.1861  160.8928 Si  0  0  0  0  0  0  0  0  0  0  0  0
  145.6510  137.5019  162.1509 C   0  0  0  0  0  0  0  0  0  0  0  0
  147.7948  136.7507  160.0304 C   0  0  0  0  0  0  0  0  0  0  0  0
  144.9939  136.0216  159.7170 O   0  0  0  0  0  0  0  0  0  0  0  0
  145.0551  135.0779  158.6692 C   0  0  0  0  0  0  0  0  0  0  0  0
  143.9302  135.3763  157.6579 C   0  0  1  0  0  0  0  0  0  0  0  0
  143.8812  136.7798  157.4076 O   0  0  0  0  0  0  0  0  0  0  0  0
  144.6519  137.1173  156.2879 C   0  0  1  0  0  0  0  0  0  0  0  0
  145.8247  137.9332  156.7377 N   0  0  0  0  0  0  0  0  0  0  0  0
  146.0552  138.4442  157.9635 C   0  0  0  0  0  0  0  0  0  0  0  0
  147.1739  139.1536  158.0866 N   0  0  0  0  0  0  0  0  0  0  0  0
  147.7050  139.1066  156.8025 C   0  0  0  0  0  0  0  0  0  0  0  0
  148.9411  139.7072  156.2563 C   0  0  0  0  0  0  0  0  0  0  0  0
  149.6895  140.3907  157.0683 N   0  0  0  0  0  0  0  0  0  0  0  0
  150.8584  140.9828  156.6079 C   0  0  0  0  0  0  0  0  0  0  0  0
  151.4506  140.7999  155.5408 O   0  0  0  0  0  0  0  0  0  0  0  0
  151.4523  141.9484  157.5807 C   0  0  0  0  0  0  0  0  0  0  0  0
  152.1068  141.4757  158.7379 C   0  0  0  0  0  0  0  0  0  0  0  0
  152.6739  142.3867  159.6506 C   0  0  0  0  0  0  0  0  0  0  0  0
  152.5902  143.7715  159.4082 C   0  0  0  0  0  0  0  0  0  0  0  0
  151.9395  144.2461  158.2527 C   0  0  0  0  0  0  0  0  0  0  0  0
  151.3720  143.3364  157.3390 C   0  0  0  0  0  0  0  0  0  0  0  0
  149.0574  139.3991  154.8947 N   0  0  0  0  0  0  0  0  0  0  0  0
  148.1483  138.6402  154.1415 C   0  0  0  0  0  0  0  0  0  0  0  0
  147.0527  138.1056  154.6104 N   0  0  0  0  0  0  0  0  0  0  0  0
  146.8918  138.3771  155.9620 C   0  0  0  0  0  0  0  0  0  0  0  0
  145.1201  135.8034  155.6480 C   0  0  0  0  0  0  0  0  0  0  0  0
  144.1530  134.8064  156.2525 C   0  0  1  0  0  0  0  0  0  0  0  0
  144.6648  133.4892  156.2359 O   0  0  0  0  0  0  0  0  0  0  0  0
  147.0246  132.4723  161.1377 H   0  0  0  0  0  0  0  0  0  0  0  0
  147.8306  133.7456  160.2313 H   0  0  0  0  0  0  0  0  0  0  0  0
  146.1502  133.3511  159.8898 H   0  0  0  0  0  0  0  0  0  0  0  0
  144.3186  133.9383  161.5973 H   0  0  0  0  0  0  0  0  0  0  0  0
  144.7379  134.7772  163.0858 H   0  0  0  0  0  0  0  0  0  0  0  0
  145.1896  133.0905  162.8681 H   0  0  0  0  0  0  0  0  0  0  0  0
  147.6532  133.6700  163.3514 H   0  0  0  0  0  0  0  0  0  0  0  0
  147.1982  135.3527  163.5878 H   0  0  0  0  0  0  0  0  0  0  0  0
  148.4544  134.9354  162.4295 H   0  0  0  0  0  0  0  0  0  0  0  0
  146.3957  137.6413  162.9338 H   0  0  0  0  0  0  0  0  0  0  0  0
  144.7166  137.2279  162.6391 H   0  0  0  0  0  0  0  0  0  0  0  0
  145.4966  138.4706  161.6767 H   0  0  0  0  0  0  0  0  0  0  0  0
  148.6172  136.8554  160.7375 H   0  0  0  0  0  0  0  0  0  0  0  0
  147.6631  137.7155  159.5412 H   0  0  0  0  0  0  0  0  0  0  0  0
  148.1106  136.0407  159.2663 H   0  0  0  0  0  0  0  0  0  0  0  0
  146.0379  135.1104  158.2004 H   0  0  0  0  0  0  0  0  0  0  0  0
  144.9336  134.0818  159.0951 H   0  0  0  0  0  0  0  0  0  0  0  0
  142.9778  135.0367  158.0661 H   0  0  0  0  0  0  0  0  0  0  0  0
  144.0956  137.7695  155.6139 H   0  0  0  0  0  0  0  0  0  0  0  0
  145.3864  138.2911  158.7972 H   0  0  0  0  0  0  0  0  0  0  0  0
  152.1763  140.4146  158.9294 H   0  0  0  0  0  0  0  0  0  0  0  0
  153.1734  142.0230  160.5363 H   0  0  0  0  0  0  0  0  0  0  0  0
  153.0255  144.4696  160.1080 H   0  0  0  0  0  0  0  0  0  0  0  0
  151.8760  145.3081  158.0665 H   0  0  0  0  0  0  0  0  0  0  0  0
  150.8757  143.7080  156.4540 H   0  0  0  0  0  0  0  0  0  0  0  0
  148.4303  138.5222  153.0943 H   0  0  0  0  0  0  0  0  0  0  0  0
  145.0711  135.8549  154.5600 H   0  0  0  0  0  0  0  0  0  0  0  0
  146.1474  135.5851  155.9456 H   0  0  0  0  0  0  0  0  0  0  0  0
  143.2139  134.8305  155.6979 H   0  0  0  0  0  0  0  0  0  0  0  0
  143.9996  132.9134  155.8909 H   0  0  0  0  0  0  0  0  0  0  0  0
  149.8694  139.7567  154.4126 H   0  0  0  0  0  0  0  0  0  0  0  0
  1  2  1  0  0  0  0
  1 34  1  0  0  0  0
  1 35  1  0  0  0  0
  1 36  1  0  0  0  0
  2  3  1  0  0  0  0
  2  4  1  0  0  0  0
  2  5  1  0  0  0  0
  3 37  1  0  0  0  0
  3 38  1  0  0  0  0
  3 39  1  0  0  0  0
  4 40  1  0  0  0  0
  4 41  1  0  0  0  0
  4 42  1  0  0  0  0
  5  6  1  0  0  0  0
  5  7  1  0  0  0  0
  5  8  1  0  0  0  0
  6 43  1  0  0  0  0
  6 44  1  0  0  0  0
  6 45  1  0  0  0  0
  7 46  1  0  0  0  0
  7 47  1  0  0  0  0
  7 48  1  0  0  0  0
  8  9  1  0  0  0  0
  9 10  1  0  0  0  0
  9 49  1  0  0  0  0
  9 50  1  0  0  0  0
 10 32  1  0  0  0  0
 10 11  1  0  0  0  0
 10 51  1  0  0  0  0
 11 12  1  0  0  0  0
 12 13  1  0  0  0  0
 12 31  1  0  0  0  0
 12 52  1  0  0  0  0
 13 30  1  0  0  0  0
 13 14  1  0  0  0  0
 14 15  2  0  0  0  0
 14 53  1  0  0  0  0
 15 16  1  0  0  0  0
 16 30  2  0  0  0  0
 16 17  1  0  0  0  0
 17 18  2  0  0  0  0
 17 27  1  0  0  0  0
 18 19  1  0  0  0  0
 19 20  2  0  0  0  0
 19 21  1  0  0  0  0
 21 26  1  0  0  0  0
 21 22  2  0  0  0  0
 22 23  1  0  0  0  0
 22 54  1  0  0  0  0
 23 24  2  0  0  0  0
 23 55  1  0  0  0  0
 24 25  1  0  0  0  0
 24 56  1  0  0  0  0
 25 26  2  0  0  0  0
 25 57  1  0  0  0  0
 26 58  1  0  0  0  0
 27 28  1  0  0  0  0
 27 64  1  0  0  0  0
 28 29  2  0  0  0  0
 28 59  1  0  0  0  0
 29 30  1  0  0  0  0
 31 32  1  0  0  0  0
 31 60  1  0  0  0  0
 31 61  1  0  0  0  0
 32 33  1  0  0  0  0
 32 62  1  0  0  0  0
 33 63  1  0  0  0  0
M  END
> <s_m_source_file>
AV-unprocessed.smi

> <i_m_source_file_index>
36

> <i_lp_mmshare_version>
43012

> <i_f3d_flags>
0

> <s_epik_input>
W0NIM11DKFtDSDNdKShbQ0gzXSlbU2ldKFtDSDNdKShbQ0gzXSlPW0NIMl1bQ0BASF0xT1tDQEhdKFtDSDJdW0NASF0xW09IXSluKFtjSF1uMiljKGMyMyluW2NIXW5jM1tOSF1DKD1PKWM0W2NIXVtjSF1bY0hdW2NIXVtjSF00

> <s_epik_cmdline>
J2VwaWtfcHl0aG9uJywgJy1waCcsICc3LjAnLCAnLXRuJywgJzgnLCAnLW1hJywgJzIwMCcsICctbWV0YWxfYmluZGluZycsICctaW1hZScsICc8aW5maWxlLm1hZT4nLCAnLW9tYWUnLCAnPG91dGZpbGUubWFlPic=

> <r_epik_Ionization_Penalty>
0.0850405

> <r_epik_Ionization_Penalty_Charging>
0.0850403

> <r_epik_Ionization_Penalty_Neutral>
1.47497e-07

> <r_epik_State_Penalty>
2.6133

> <r_epik_Charging_Adjusted_Penalty>
2.69834

> <i_epik_Tot_Q>
0

> <i_epik_Tot_abs_Q>
0

> <r_epik_Metal_State_Penalty>
2.92945

> <b_epik_Metal_Only>
0

> <s_epik_Chemistry_Notes>
This compound contains an acetal/aminal-like group ( X-CH(R)-Y where X, Y are N, S, or O) that may be acid/base labile, releasing an aldehyde.

> <s_lp_Force_Field>
OPLS_2005

> <r_lp_Energy>
49.0467

> <b_lp_Chiralities_Consistent>
1

> <s_lp_Variant>
AV-unprocessed.smi:36-10

> <Gold.Version>
5.8.1

> <Gold.Id.Protein>
6NUR|6NUR_protein|mol2

> <Gold.PLP.Fitness>
49.1835

> <Gold.PLP.PLP>
-42.2755

> <Gold.PLP.part.hbond>
-2.6301

> <Gold.PLP.part.metal>
0.0000

> <Gold.PLP.part.buried>
-3.8427

> <Gold.PLP.part.nonpolar>
-34.9104

> <Gold.PLP.part.repulsive>
0.1750

> <Gold.PLP.ligand.clash>
0.0000

> <Gold.PLP.ligand.torsion>
1.7034

> <Gold.PLP.Chemscore.Hbond>
1.6978

> <Gold.PLP.Chemscore.CHOScore>
1.5738

> <Gold.PLP.Chemscore.Metal>
0.0000

> <Gold.Chemscore.Hbonds>
donor molecule, donor type, donor heavy atom, donor atom, acceptor molecule, acceptor atom, score
      L1  H    33    63       P1 10957  0.94
      P1  H  7989  7998       L1    20  0.67
      L1  C    28    59       P1  7948  0.71
      L1  C    28    59       P1  7957  0.55

> <Gold.PLP.Chemscore.Internal.Correction>
0.4999

> <Gold.Rescore>
     Score         DG    S(hbond)    S(metal)    S(lipo)     H(rot)  DE(clash)    DE(int)     intcor
     15.59     -17.22       1.84        0.00     107.01       2.70       0.09       1.54       ----

> <Gold.Chemscore.Fitness>
15.5866

> <Gold.Chemscore.DG>
-17.2233

> <Gold.Chemscore.ZeroCoef>
-5.4800

> <Gold.Chemscore.Hbond>
1.8399

> <Gold.Chemscore.Metal>
0.0000

> <Gold.Chemscore.Lipo>
107.0137

> <Gold.Chemscore.Internal_Hbond>
0.0000

> <Gold.Chemscore.DEClash>
0.0917

> <Gold.Chemscore.DEInternal>
1.5449

> <Gold.Chemscore.Rot>
2.7041

> <Gold.Chemscore.Internal.Correction>
   9.000000E+99

> <Gold.Chemscore.Hbonds>
donor molecule, donor type, donor heavy atom, donor atom, acceptor molecule, acceptor atom, score
      L1  H    33    63       P1 10957  0.90
      P1  H  7989  7998       L1    20  0.65

> <Gold.Chemscore.Hbond.Weighted>
-6.1451

> <Gold.Chemscore.Metal.Weighted>
-0.0000

> <Gold.Chemscore.Lipo.Weighted>
-12.5206

> <Gold.Chemscore.Internal_Hbond.Weighted>
0.0000

> <Gold.Chemscore.DEClash.Weighted>
0.0917

> <Gold.Chemscore.DEInternal.Weighted>
1.5449

> <Gold.Chemscore.Rot.Weighted>
6.9225

> <Gold.Chemscore.Internal.Correction.Weighted>
   9.000000E+99

> <Gold.Protein.RotatedTorsions>
[ 6907 6896 6895 6894 ] final -110.14 input  -60.11 | X-H torsion
[ 7974 7965 7964 7962 ] final -117.54 input  175.53 | X-H torsion
[ 8008 7997 7996 7995 ] final  -26.53 input   59.86 | X-H torsion
[ 10167 10162 10161 10158 ] final   90.46 input  -65.29 | X-H torsion
[ 10718 10713 10712 10709 ] final -118.50 input   66.30 | X-H torsion
[ 10763 10752 10751 10750 ] final  -74.65 input  -60.55 | X-H torsion
[ 11005 11000 10999 10996 ] final   -9.98 input  -57.11 | X-H torsion

> <Gold.Protein.ActiveResidues>
 VAL166  LYS551  ARG553  GLY616  TRP617  ASP618  TYR619  PRO620  LYS621  CYS622 
 ASP623  PHE694  ASN695  SER759  ASP760  ASP761  ALA762  ILE779  LEU786  VAL792 
 PHE793  MET794  SER795  GLU796  ALA797  LYS798  CYS799  TRP800  GLU811  SER814 

> <Gold.Protein.RotatedAtoms>
  150.7606  133.9425  159.3460 H   0  0  0  0  0  0  0  0  0  0  0  0  # atno 6907 bound_to 6896
  151.7335  135.0868  160.0313 H   0  0  0  0  0  0  0  0  0  0  0  0  # atno 6908 bound_to 6896
  152.3574  133.6217  159.6026 H   0  0  0  0  0  0  0  0  0  0  0  0  # atno 6909 bound_to 6896
  145.0840  140.8445  143.4022 H   0  0  0  0  0  0  0  0  0  0  0  0  # atno 7974 bound_to 7965
  154.4420  140.1897  156.0790 H   0  0  0  0  0  0  0  0  0  0  0  0  # atno 8008 bound_to 7997
  156.0453  140.3315  155.7263 H   0  0  0  0  0  0  0  0  0  0  0  0  # atno 8009 bound_to 7997
  155.5638  140.0606  157.2813 H   0  0  0  0  0  0  0  0  0  0  0  0  # atno 8010 bound_to 7997
  139.8471  144.6612  150.9214 H   0  0  0  0  0  0  0  0  0  0  0  0  # atno 10167 bound_to 10162
  156.1111  130.6249  150.9298 H   0  0  0  0  0  0  0  0  0  0  0  0  # atno 10718 bound_to 10713
  154.4759  135.5857  153.6355 H   0  0  0  0  0  0  0  0  0  0  0  0  # atno 10763 bound_to 10752
  152.9841  135.6078  154.3307 H   0  0  0  0  0  0  0  0  0  0  0  0  # atno 10764 bound_to 10752
  154.3194  135.2844  155.2506 H   0  0  0  0  0  0  0  0  0  0  0  0  # atno 10765 bound_to 10752
  140.7399  133.8679  155.8959 H   0  0  0  0  0  0  0  0  0  0  0  0  # atno 11005 bound_to 11000
  145.1144  139.2735  143.5621 LP  0  0  0  0  0  0  0  0  0  0  0  0  # atno 17320 bound_to 7965
  146.3531  140.0749  142.8621 LP  0  0  0  0  0  0  0  0  0  0  0  0  # atno 17321 bound_to 7965
  140.7792  143.3861  151.1392 LP  0  0  0  0  0  0  0  0  0  0  0  0  # atno 17342 bound_to 10162
  139.7502  143.8790  152.3074 LP  0  0  0  0  0  0  0  0  0  0  0  0  # atno 17343 bound_to 10162
  157.6292  131.0923  150.8475 LP  0  0  0  0  0  0  0  0  0  0  0  0  # atno 17370 bound_to 10713
  156.8586  130.5105  149.5305 LP  0  0  0  0  0  0  0  0  0  0  0  0  # atno 17371 bound_to 10713
  140.9846  134.1359  157.4463 LP  0  0  0  0  0  0  0  0  0  0  0  0  # atno 17394 bound_to 11000
  139.8808  135.0021  156.6109 LP  0  0  0  0  0  0  0  0  0  0  0  0  # atno 17395 bound_to 11000

$$$$
