AV-unprocessed.smi:100|AV-procd|sdf|904|dock2
  -GOLD-   2262017403D 1   1.00000     0.00000
 Structure written by MMmdl.
 31 33  0  0  0  0  0  0  0  0  1 V2000
  147.7834  140.5283  152.6741 N   0  0  0  0  0  0  0  0  0  0  0  0
  147.8095  140.9818  153.9350 C   0  0  0  0  0  0  0  0  0  0  0  0
  146.6827  141.5338  154.4421 N   0  0  0  0  0  0  0  0  0  0  0  0
  146.6834  141.9949  155.6969 C   0  0  0  0  0  0  0  0  0  0  0  0
  147.6815  141.9992  156.5844 N   0  0  0  0  0  0  0  0  0  0  0  0
  148.8184  141.4427  156.0723 C   0  0  0  0  0  0  0  0  0  0  0  0
  148.9605  140.9110  154.7601 C   0  0  0  0  0  0  0  0  0  0  0  0
  150.2481  140.4241  154.5830 N   0  0  0  0  0  0  0  0  0  0  0  0
  150.8314  140.6576  155.7277 C   0  0  0  0  0  0  0  0  0  0  0  0
  150.0466  141.2678  156.6820 N   0  0  0  0  0  0  0  0  0  0  0  0
  150.4516  141.6518  158.0750 C   0  0  1  0  0  0  0  0  0  0  0  0
  151.6094  140.9539  158.4376 O   0  0  0  0  0  0  0  0  0  0  0  0
  152.6611  141.8668  158.7484 C   0  0  2  0  0  0  0  0  0  0  0  0
  153.5883  141.2514  159.8066 C   0  0  0  0  0  0  0  0  0  0  0  0
  154.3662  140.2169  159.2433 O   0  0  0  0  0  0  0  0  0  0  0  0
  151.9088  143.1185  159.1990 C   0  0  1  0  0  0  0  0  0  0  0  0
  152.6384  144.2354  159.1843 F   0  0  0  0  0  0  0  0  0  0  0  0
  150.7408  143.1583  158.2309 C   0  0  1  0  0  0  0  0  0  0  0  0
  151.0862  143.7998  157.0140 O   0  0  0  0  0  0  0  0  0  0  0  0
  148.6112  140.1126  152.2714 H   0  0  0  0  0  0  0  0  0  0  0  0
  146.9379  140.6076  152.1280 H   0  0  0  0  0  0  0  0  0  0  0  0
  145.7524  142.4220  156.0391 H   0  0  0  0  0  0  0  0  0  0  0  0
  151.8615  140.3873  155.9098 H   0  0  0  0  0  0  0  0  0  0  0  0
  149.6294  141.3121  158.7065 H   0  0  0  0  0  0  0  0  0  0  0  0
  153.2176  142.0749  157.8334 H   0  0  0  0  0  0  0  0  0  0  0  0
  154.2426  142.0067  160.2424 H   0  0  0  0  0  0  0  0  0  0  0  0
  152.9964  140.8293  160.6191 H   0  0  0  0  0  0  0  0  0  0  0  0
  154.2900  139.4504  159.7909 H   0  0  0  0  0  0  0  0  0  0  0  0
  151.5400  142.9896  160.2175 H   0  0  0  0  0  0  0  0  0  0  0  0
  149.8714  143.6609  158.6558 H   0  0  0  0  0  0  0  0  0  0  0  0
  150.3422  144.3011  156.7172 H   0  0  0  0  0  0  0  0  0  0  0  0
  1  2  1  0  0  0  0
  1 20  1  0  0  0  0
  1 21  1  0  0  0  0
  2  7  1  0  0  0  0
  2  3  2  0  0  0  0
  3  4  1  0  0  0  0
  4  5  2  0  0  0  0
  4 22  1  0  0  0  0
  5  6  1  0  0  0  0
  6 10  1  0  0  0  0
  6  7  2  0  0  0  0
  7  8  1  0  0  0  0
  8  9  2  0  0  0  0
  9 10  1  0  0  0  0
  9 23  1  0  0  0  0
 10 11  1  0  0  0  0
 11 18  1  0  0  0  0
 11 12  1  0  0  0  0
 11 24  1  0  0  0  0
 12 13  1  0  0  0  0
 13 14  1  0  0  0  0
 13 16  1  0  0  0  0
 13 25  1  0  0  0  0
 14 15  1  0  0  0  0
 14 26  1  0  0  0  0
 14 27  1  0  0  0  0
 15 28  1  0  0  0  0
 16 17  1  0  0  0  0
 16 18  1  0  0  0  0
 16 29  1  0  0  0  0
 18 19  1  0  0  0  0
 18 30  1  0  0  0  0
 19 31  1  0  0  0  0
M  END
> <s_m_source_file>
AV-unprocessed.smi

> <i_m_source_file_index>
100

> <i_lp_mmshare_version>
43012

> <i_f3d_flags>
0

> <s_epik_input>
bjFbY0hdbmMoW05IMl0pYyhjMTIpbltjSF1uMltDQEBIXTNPW0NAQEhdKFtDSDJdW09IXSlbQ0BIXShGKVtDQEhdM1tPSF0=

> <s_epik_cmdline>
J2VwaWtfcHl0aG9uJywgJy1waCcsICc3LjAnLCAnLXRuJywgJzgnLCAnLW1hJywgJzIwMCcsICctbWV0YWxfYmluZGluZycsICctaW1hZScsICc8aW5maWxlLm1hZT4nLCAnLW9tYWUnLCAnPG91dGZpbGUubWFlPic=

> <r_lp_tautomer_probability>
1

> <r_epik_Ionization_Penalty>
0.000750324

> <r_epik_Ionization_Penalty_Charging>
0

> <r_epik_Ionization_Penalty_Neutral>
0.000750324

> <r_epik_State_Penalty>
-0

> <r_epik_Charging_Adjusted_Penalty>
0

> <i_epik_Tot_Q>
0

> <i_epik_Tot_abs_Q>
0

> <r_epik_Metal_State_Penalty>
-0

> <b_epik_Metal_Only>
0

> <s_epik_Chemistry_Notes>
This compound contains an acetal/aminal-like group ( X-CH(R)-Y where X, Y are N, S, or O) that may be acid/base labile, releasing an aldehyde.

> <s_lp_Force_Field>
OPLS_2005

> <r_lp_Energy>
38.5283

> <b_lp_Chiralities_Consistent>
1

> <s_lp_Variant>
AV-unprocessed.smi:100-8

> <Gold.Version>
5.8.1

> <Gold.Id.Protein>
6NUR|6NUR_protein|mol2

> <Gold.PLP.Fitness>
44.5253

> <Gold.PLP.PLP>
-33.9912

> <Gold.PLP.part.hbond>
-3.7318

> <Gold.PLP.part.metal>
0.0000

> <Gold.PLP.part.buried>
-5.8152

> <Gold.PLP.part.nonpolar>
-25.0573

> <Gold.PLP.part.repulsive>
0.7178

> <Gold.PLP.ligand.clash>
0.0000

> <Gold.PLP.ligand.torsion>
0.5316

> <Gold.PLP.Chemscore.Hbond>
3.8639

> <Gold.PLP.Chemscore.CHOScore>
0.0000

> <Gold.PLP.Chemscore.Metal>
0.0000

> <Gold.Chemscore.Hbonds>
donor molecule, donor type, donor heavy atom, donor atom, acceptor molecule, acceptor atom, score
      L1  H     1    20       P1  7957  0.87
      L1  H    19    31       P1  8028  1.00
      P1  H  7989  7998       L1     8  0.93
      P1  H  7997  8009       L1    15  0.90

> <Gold.PLP.Chemscore.Internal.Correction>
0.0056

> <Gold.Rescore>
     Score         DG    S(hbond)    S(metal)    S(lipo)     H(rot)  DE(clash)    DE(int)     intcor
     12.02     -12.72       3.00        0.00      45.97       3.19       0.08       0.62       ----

> <Gold.Chemscore.Fitness>
12.0216

> <Gold.Chemscore.DG>
-12.7225

> <Gold.Chemscore.ZeroCoef>
-5.4800

> <Gold.Chemscore.Hbond>
3.0031

> <Gold.Chemscore.Metal>
0.0000

> <Gold.Chemscore.Lipo>
45.9717

> <Gold.Chemscore.Internal_Hbond>
0.0000

> <Gold.Chemscore.DEClash>
0.0835

> <Gold.Chemscore.DEInternal>
0.6174

> <Gold.Chemscore.Rot>
3.1901

> <Gold.Chemscore.Internal.Correction>
   9.000000E+99

> <Gold.Chemscore.Hbonds>
donor molecule, donor type, donor heavy atom, donor atom, acceptor molecule, acceptor atom, score
      L1  H     1    20       P1  7957  0.80
      L1  H    19    31       P1  8028  0.97
      P1  H  7989  7998       L1     8  0.20
      P1  H  7997  8009       L1    15  0.80

> <Gold.Chemscore.Hbond.Weighted>
-10.0305

> <Gold.Chemscore.Metal.Weighted>
-0.0000

> <Gold.Chemscore.Lipo.Weighted>
-5.3787

> <Gold.Chemscore.Internal_Hbond.Weighted>
0.0000

> <Gold.Chemscore.DEClash.Weighted>
0.0835

> <Gold.Chemscore.DEInternal.Weighted>
0.6174

> <Gold.Chemscore.Rot.Weighted>
8.1667

> <Gold.Chemscore.Internal.Correction.Weighted>
   9.000000E+99

> <Gold.Protein.RotatedTorsions>
[ 6907 6896 6895 6894 ] final   68.18 input  -60.11 | X-H torsion
[ 7974 7965 7964 7962 ] final -168.15 input  175.53 | X-H torsion
[ 8008 7997 7996 7995 ] final  121.93 input   59.86 | X-H torsion
[ 10167 10162 10161 10158 ] final   64.06 input  -65.29 | X-H torsion
[ 10718 10713 10712 10709 ] final -131.02 input   66.30 | X-H torsion
[ 10763 10752 10751 10750 ] final -120.60 input  -60.55 | X-H torsion
[ 11005 11000 10999 10996 ] final -128.00 input  -57.11 | X-H torsion

> <Gold.Protein.ActiveResidues>
 VAL166  LYS551  ARG553  GLY616  TRP617  ASP618  TYR619  PRO620  LYS621  CYS622 
 ASP623  PHE694  ASN695  SER759  ASP760  ASP761  ALA762  ILE779  LEU786  VAL792 
 PHE793  MET794  SER795  GLU796  ALA797  LYS798  CYS799  TRP800  GLU811  SER814 

> <Gold.Protein.RotatedAtoms>
  152.4603  134.5200  159.9779 H   0  0  0  0  0  0  0  0  0  0  0  0  # atno 6907 bound_to 6896
  151.5250  133.3453  159.2916 H   0  0  0  0  0  0  0  0  0  0  0  0  # atno 6908 bound_to 6896
  150.8563  134.7932  159.7110 H   0  0  0  0  0  0  0  0  0  0  0  0  # atno 6909 bound_to 6896
  144.7209  140.2413  143.6291 H   0  0  0  0  0  0  0  0  0  0  0  0  # atno 7974 bound_to 7965
  156.2707  140.2797  156.1386 H   0  0  0  0  0  0  0  0  0  0  0  0  # atno 8008 bound_to 7997
  155.0978  140.0389  157.2705 H   0  0  0  0  0  0  0  0  0  0  0  0  # atno 8009 bound_to 7997
  154.6839  140.2614  155.6886 H   0  0  0  0  0  0  0  0  0  0  0  0  # atno 8010 bound_to 7997
  140.1263  144.4684  150.6890 H   0  0  0  0  0  0  0  0  0  0  0  0  # atno 10167 bound_to 10162
  156.2202  130.6973  151.0747 H   0  0  0  0  0  0  0  0  0  0  0  0  # atno 10718 bound_to 10713
  154.8648  135.4197  154.2485 H   0  0  0  0  0  0  0  0  0  0  0  0  # atno 10763 bound_to 10752
  153.3436  135.6995  153.6852 H   0  0  0  0  0  0  0  0  0  0  0  0  # atno 10764 bound_to 10752
  153.5820  135.3571  155.2851 H   0  0  0  0  0  0  0  0  0  0  0  0  # atno 10765 bound_to 10752
  140.9553  134.1011  157.4023 H   0  0  0  0  0  0  0  0  0  0  0  0  # atno 11005 bound_to 11000
  145.8316  139.2089  143.1879 LP  0  0  0  0  0  0  0  0  0  0  0  0  # atno 17320 bound_to 7965
  146.0425  140.8150  142.9821 LP  0  0  0  0  0  0  0  0  0  0  0  0  # atno 17321 bound_to 7965
  140.6843  143.2342  151.5302 LP  0  0  0  0  0  0  0  0  0  0  0  0  # atno 17342 bound_to 10162
  139.5542  144.2317  152.1584 LP  0  0  0  0  0  0  0  0  0  0  0  0  # atno 17343 bound_to 10162
  157.7083  131.0746  150.6589 LP  0  0  0  0  0  0  0  0  0  0  0  0  # atno 17370 bound_to 10713
  156.6652  130.4523  149.5675 LP  0  0  0  0  0  0  0  0  0  0  0  0  # atno 17371 bound_to 10713
  139.8860  135.0077  156.6471 LP  0  0  0  0  0  0  0  0  0  0  0  0  # atno 17394 bound_to 11000
  140.7545  133.8869  155.8372 LP  0  0  0  0  0  0  0  0  0  0  0  0  # atno 17395 bound_to 11000

$$$$
