AV-unprocessed.smi:1203|AV-procd|sdf|5036|dock3
  -GOLD-   22720 4 63D 1   1.00000     0.00000
 Structure written by MMmdl.
 40 41  0  0  0  0  0  0  0  0  2 V2000
  151.9760  138.9499  157.0728 C   0  0  0  0  0  0  0  0  0  0  0  0
  151.9396  138.6833  155.2521 S   0  0  0  0  0  0  0  0  0  0  0  0
  152.9391  139.5741  154.6433 O   0  0  0  0  0  0  0  0  0  0  0  0
  151.9815  137.2373  154.9848 O   0  0  0  0  0  0  0  0  0  0  0  0
  150.3732  139.2711  154.7934 N   0  0  0  0  0  0  0  0  0  0  0  0
  149.9421  140.6406  155.0623 C   0  0  0  0  0  0  0  0  0  0  0  0
  148.6340  140.7796  154.2887 C   0  0  0  0  0  0  0  0  0  0  0  0
  148.0422  139.3727  154.3106 C   0  0  0  0  0  0  0  0  0  0  0  0
  149.2627  138.4275  154.3183 C   0  0  2  0  0  0  0  0  0  0  0  0
  148.9999  137.1587  155.1429 C   0  0  0  0  0  0  0  0  0  0  0  0
  148.9370  137.2139  156.3717 O   0  0  0  0  0  0  0  0  0  0  0  0
  148.8464  136.0190  154.4503 N   0  0  0  0  0  0  0  0  0  0  0  0
  148.5731  134.7042  155.0253 C   0  0  0  0  0  0  0  0  0  0  0  0
  148.7127  133.5700  153.9907 C   0  0  0  0  0  0  0  0  0  0  0  0
  147.4188  133.2432  153.2646 C   0  0  0  0  0  0  0  0  0  0  0  0
  147.3766  133.2138  151.8530 C   0  0  0  0  0  0  0  0  0  0  0  0
  146.1707  132.8760  151.2041 C   0  0  0  0  0  0  0  0  0  0  0  0
  145.0331  132.5781  151.9816 C   0  0  0  0  0  0  0  0  0  0  0  0
  145.1098  132.6208  153.3298 N   0  3  0  0  0  0  0  0  0  0  0  0
  146.2453  132.9394  153.9888 C   0  0  0  0  0  0  0  0  0  0  0  0
  152.9598  138.6790  157.4550 H   0  0  0  0  0  0  0  0  0  0  0  0
  151.2248  138.3304  157.5588 H   0  0  0  0  0  0  0  0  0  0  0  0
  151.7821  139.9994  157.2927 H   0  0  0  0  0  0  0  0  0  0  0  0
  149.7813  140.7605  156.1341 H   0  0  0  0  0  0  0  0  0  0  0  0
  150.6919  141.3623  154.7369 H   0  0  0  0  0  0  0  0  0  0  0  0
  147.9667  141.5272  154.7181 H   0  0  0  0  0  0  0  0  0  0  0  0
  148.8469  141.0722  153.2596 H   0  0  0  0  0  0  0  0  0  0  0  0
  147.4295  139.2616  155.2067 H   0  0  0  0  0  0  0  0  0  0  0  0
  147.3929  139.1958  153.4527 H   0  0  0  0  0  0  0  0  0  0  0  0
  149.4931  138.1442  153.2899 H   0  0  0  0  0  0  0  0  0  0  0  0
  148.9347  136.0645  153.4451 H   0  0  0  0  0  0  0  0  0  0  0  0
  149.2783  134.5405  155.8403 H   0  0  0  0  0  0  0  0  0  0  0  0
  147.5802  134.6827  155.4777 H   0  0  0  0  0  0  0  0  0  0  0  0
  149.4758  133.8359  153.2578 H   0  0  0  0  0  0  0  0  0  0  0  0
  149.0720  132.6668  154.4852 H   0  0  0  0  0  0  0  0  0  0  0  0
  148.2608  133.4355  151.2732 H   0  0  0  0  0  0  0  0  0  0  0  0
  146.1206  132.8429  150.1255 H   0  0  0  0  0  0  0  0  0  0  0  0
  144.0716  132.3092  151.5691 H   0  0  0  0  0  0  0  0  0  0  0  0
  146.1831  132.9299  155.0675 H   0  0  0  0  0  0  0  0  0  0  0  0
  144.2747  132.4018  153.8737 H   0  0  0  0  0  0  0  0  0  0  0  0
  1  2  1  0  0  0  0
  1 21  1  0  0  0  0
  1 22  1  0  0  0  0
  1 23  1  0  0  0  0
  2  3  2  0  0  0  0
  2  4  2  0  0  0  0
  2  5  1  0  0  0  0
  5  9  1  0  0  0  0
  5  6  1  0  0  0  0
  6  7  1  0  0  0  0
  6 24  1  0  0  0  0
  6 25  1  0  0  0  0
  7  8  1  0  0  0  0
  7 26  1  0  0  0  0
  7 27  1  0  0  0  0
  8  9  1  0  0  0  0
  8 28  1  0  0  0  0
  8 29  1  0  0  0  0
  9 10  1  0  0  0  0
  9 30  1  0  0  0  0
 10 11  2  0  0  0  0
 10 12  1  0  0  0  0
 12 13  1  0  0  0  0
 12 31  1  0  0  0  0
 13 14  1  0  0  0  0
 13 32  1  0  0  0  0
 13 33  1  0  0  0  0
 14 15  1  0  0  0  0
 14 34  1  0  0  0  0
 14 35  1  0  0  0  0
 15 20  1  0  0  0  0
 15 16  2  0  0  0  0
 16 17  1  0  0  0  0
 16 36  1  0  0  0  0
 17 18  2  0  0  0  0
 17 37  1  0  0  0  0
 18 19  1  0  0  0  0
 18 38  1  0  0  0  0
 19 20  2  0  0  0  0
 19 40  1  0  0  0  0
 20 39  1  0  0  0  0
M  CHG  1  19   1
M  END
> <s_m_source_file>
AV-unprocessed.smi

> <i_m_source_file_index>
1203

> <i_lp_mmshare_version>
43012

> <i_f3d_flags>
0

> <s_epik_input>
W0NIM11TKD1PKSg9TylOMVtDSDJdW0NIMl1bQ0gyXVtDQEhdMUMoPU8pW05IXVtDSDJdW0NIMl1jMltjSF1bY0hdW2NIXW5bY0hdMg==

> <s_epik_cmdline>
J2VwaWtfcHl0aG9uJywgJy1waCcsICc3LjAnLCAnLXRuJywgJzgnLCAnLW1hJywgJzIwMCcsICctbWV0YWxfYmluZGluZycsICctaW1hZScsICc8aW5maWxlLm1hZT4nLCAnLW9tYWUnLCAnPG91dGZpbGUubWFlPic=

> <r_epik_Ionization_Penalty>
2.2835

> <r_epik_Ionization_Penalty_Charging>
2.2835

> <r_epik_Ionization_Penalty_Neutral>
1.4017e-07

> <r_epik_State_Penalty>
2.43297

> <r_epik_Charging_Adjusted_Penalty>
4.71647

> <i_epik_Tot_Q>
1

> <i_epik_Tot_abs_Q>
1

> <r_epik_Metal_State_Penalty>
2.44558

> <b_epik_Metal_Only>
0

> <s_lp_Force_Field>
OPLS_2005

> <r_lp_Energy>
15.5637

> <b_lp_Chiralities_Consistent>
1

> <s_lp_Variant>
AV-unprocessed.smi:1203-4

> <Gold.Version>
5.8.1

> <Gold.Id.Protein>
6NUR|6NUR_protein|mol2

> <Gold.PLP.Fitness>
47.2267

> <Gold.PLP.PLP>
-32.7297

> <Gold.PLP.part.hbond>
-4.9796

> <Gold.PLP.part.metal>
0.0000

> <Gold.PLP.part.buried>
-3.9554

> <Gold.PLP.part.nonpolar>
-25.2932

> <Gold.PLP.part.repulsive>
0.1397

> <Gold.PLP.ligand.clash>
0.0000

> <Gold.PLP.ligand.torsion>
1.6046

> <Gold.PLP.Chemscore.Hbond>
5.2002

> <Gold.PLP.Chemscore.CHOScore>
0.0000

> <Gold.PLP.Chemscore.Metal>
0.0000

> <Gold.Chemscore.Hbonds>
donor molecule, donor type, donor heavy atom, donor atom, acceptor molecule, acceptor atom, score
      L1  H    12    31       P1  7948  1.00
      L1  H    19    40       P1 10957  2.00
      P1  H  7989  7998       L1     3  0.32
      P1  H  7997  8008       L1     3  0.96
      P1  H 10752 10763       L1     4  0.90

> <Gold.PLP.Chemscore.Internal.Correction>
2.1056

> <Gold.Rescore>
     Score         DG    S(hbond)    S(metal)    S(lipo)     H(rot)  DE(clash)    DE(int)     intcor
     18.25     -21.12       3.80        0.00      62.42       1.70       0.02       2.85       ----

> <Gold.Chemscore.Fitness>
18.2459

> <Gold.Chemscore.DG>
-21.1160

> <Gold.Chemscore.ZeroCoef>
-5.4800

> <Gold.Chemscore.Hbond>
3.7987

> <Gold.Chemscore.Metal>
0.0000

> <Gold.Chemscore.Lipo>
62.4219

> <Gold.Chemscore.Internal_Hbond>
0.0000

> <Gold.Chemscore.DEClash>
0.0234

> <Gold.Chemscore.DEInternal>
2.8466

> <Gold.Chemscore.Rot>
1.7012

> <Gold.Chemscore.Internal.Correction>
   9.000000E+99

> <Gold.Chemscore.Hbonds>
donor molecule, donor type, donor heavy atom, donor atom, acceptor molecule, acceptor atom, score
      L1  H    12    31       P1  7948  0.96
      L1  H    19    40       P1 10957  0.39
      P1  H  7989  7998       L1     3  0.09
      P1  H  7997  8008       L1     3  0.87
      P1  H 10752 10763       L1     4  0.88

> <Gold.Chemscore.Hbond.Weighted>
-12.6877

> <Gold.Chemscore.Metal.Weighted>
-0.0000

> <Gold.Chemscore.Lipo.Weighted>
-7.3034

> <Gold.Chemscore.Internal_Hbond.Weighted>
0.0000

> <Gold.Chemscore.DEClash.Weighted>
0.0234

> <Gold.Chemscore.DEInternal.Weighted>
2.8466

> <Gold.Chemscore.Rot.Weighted>
4.3551

> <Gold.Chemscore.Internal.Correction.Weighted>
   9.000000E+99

> <Gold.Protein.RotatedTorsions>
[ 6907 6896 6895 6894 ] final  -94.31 input  -60.11 | X-H torsion
[ 7974 7965 7964 7962 ] final   42.02 input  175.53 | X-H torsion
[ 8008 7997 7996 7995 ] final  -11.55 input   59.86 | X-H torsion
[ 10167 10162 10161 10158 ] final  -62.87 input  -65.29 | X-H torsion
[ 10718 10713 10712 10709 ] final -177.95 input   66.30 | X-H torsion
[ 10763 10752 10751 10750 ] final   60.73 input  -60.55 | X-H torsion
[ 11005 11000 10999 10996 ] final  124.30 input  -57.11 | X-H torsion

> <Gold.Protein.ActiveResidues>
 VAL166  LYS551  ARG553  GLY616  TRP617  ASP618  TYR619  PRO620  LYS621  CYS622 
 ASP623  PHE694  ASN695  SER759  ASP760  ASP761  ALA762  ILE779  LEU786  VAL792 
 PHE793  MET794  SER795  GLU796  ALA797  LYS798  CYS799  TRP800  GLU811  SER814 

> <Gold.Protein.RotatedAtoms>
  150.6939  134.1833  159.4256 H   0  0  0  0  0  0  0  0  0  0  0  0  # atno 6907 bound_to 6896
  151.9806  135.0028  160.0566 H   0  0  0  0  0  0  0  0  0  0  0  0  # atno 6908 bound_to 6896
  152.1758  133.4639  159.4969 H   0  0  0  0  0  0  0  0  0  0  0  0  # atno 6909 bound_to 6896
  146.0775  139.5348  142.9558 H   0  0  0  0  0  0  0  0  0  0  0  0  # atno 7974 bound_to 7965
  154.5455  140.2299  155.8571 H   0  0  0  0  0  0  0  0  0  0  0  0  # atno 8008 bound_to 7997
  156.1898  140.3080  155.9272 H   0  0  0  0  0  0  0  0  0  0  0  0  # atno 8009 bound_to 7997
  155.3174  140.0438  157.3028 H   0  0  0  0  0  0  0  0  0  0  0  0  # atno 8010 bound_to 7997
  140.5910  143.2342  151.6140 H   0  0  0  0  0  0  0  0  0  0  0  0  # atno 10167 bound_to 10162
  156.8371  130.9673  151.3102 H   0  0  0  0  0  0  0  0  0  0  0  0  # atno 10718 bound_to 10713
  152.9929  135.5526  154.5920 H   0  0  0  0  0  0  0  0  0  0  0  0  # atno 10763 bound_to 10752
  154.5280  135.2812  155.1207 H   0  0  0  0  0  0  0  0  0  0  0  0  # atno 10764 bound_to 10752
  154.2534  135.6394  153.5301 H   0  0  0  0  0  0  0  0  0  0  0  0  # atno 10765 bound_to 10752
  139.9352  134.9640  156.8389 H   0  0  0  0  0  0  0  0  0  0  0  0  # atno 11005 bound_to 11000
  145.6279  141.0310  143.1879 LP  0  0  0  0  0  0  0  0  0  0  0  0  # atno 17320 bound_to 7965
  144.7271  139.7841  143.7361 LP  0  0  0  0  0  0  0  0  0  0  0  0  # atno 17321 bound_to 7965
  139.5227  144.3154  152.0957 LP  0  0  0  0  0  0  0  0  0  0  0  0  # atno 17342 bound_to 10162
  140.2319  144.4360  150.6296 LP  0  0  0  0  0  0  0  0  0  0  0  0  # atno 17343 bound_to 10162
  157.6376  130.8779  149.9387 LP  0  0  0  0  0  0  0  0  0  0  0  0  # atno 17370 bound_to 10713
  156.0901  130.3664  150.0411 LP  0  0  0  0  0  0  0  0  0  0  0  0  # atno 17371 bound_to 10713
  140.6094  134.0097  155.7570 LP  0  0  0  0  0  0  0  0  0  0  0  0  # atno 17394 bound_to 11000
  141.0962  133.9839  157.3155 LP  0  0  0  0  0  0  0  0  0  0  0  0  # atno 17395 bound_to 11000

$$$$
