AV-unprocessed.smi:3337|AV-procd|sdf|12868|dock1
  -GOLD-   2272019263D 1   1.00000     0.00000
 Structure written by MMmdl.
 46 47  0  0  0  0  0  0  0  0  2 V2000
  145.9635  136.8419  150.8788 C   0  0  0  0  0  0  0  0  0  0  0  0
  145.0381  135.7960  151.5254 C   0  0  1  0  0  0  0  0  0  0  0  0
  144.9236  134.5026  150.6981 C   0  0  0  0  0  0  0  0  0  0  0  0
  146.1982  133.6458  150.8013 C   0  0  2  0  0  0  0  0  0  0  0  0
  146.0494  132.3284  150.0273 C   0  0  0  0  0  0  0  0  0  0  0  0
  146.5550  133.3943  152.2793 C   0  0  0  0  0  0  0  0  0  0  0  0
  146.6967  134.6698  153.0288 N   0  3  2  0  0  0  0  0  0  0  0  0
  147.2016  134.4567  154.4088 C   0  0  0  0  0  0  0  0  0  0  0  0
  148.7154  134.1711  154.4448 C   0  0  0  0  0  0  0  0  0  0  0  0
  149.4942  135.3820  154.2161 N   0  0  0  0  0  0  0  0  0  0  0  0
  150.3529  135.9230  155.0959 C   0  0  0  0  0  0  0  0  0  0  0  0
  150.5340  135.4552  156.2208 O   0  0  0  0  0  0  0  0  0  0  0  0
  151.1078  137.1835  154.6340 C   0  0  1  0  0  0  0  0  0  0  0  0
  150.1676  138.3337  154.2208 C   0  0  0  0  0  0  0  0  0  0  0  0
  152.0665  137.6188  155.6434 N   0  0  0  0  0  0  0  0  0  0  0  0
  152.3148  138.8391  156.1239 C   0  0  0  0  0  0  0  0  0  0  0  0
  153.2850  138.8752  157.0265 N   0  0  0  0  0  0  0  0  0  0  0  0
  153.6158  137.5503  157.0594 C   0  0  0  0  0  0  0  0  0  0  0  0
  152.9204  136.7545  156.2471 N   0  0  0  0  0  0  0  0  0  0  0  0
  145.4461  135.4739  152.9763 C   0  0  0  0  0  0  0  0  0  0  0  0
  146.9961  136.4975  150.8249 H   0  0  0  0  0  0  0  0  0  0  0  0
  145.9578  137.7724  151.4475 H   0  0  0  0  0  0  0  0  0  0  0  0
  145.6394  137.0780  149.8648 H   0  0  0  0  0  0  0  0  0  0  0  0
  144.0452  136.2465  151.5587 H   0  0  0  0  0  0  0  0  0  0  0  0
  144.0725  133.9243  151.0607 H   0  0  0  0  0  0  0  0  0  0  0  0
  144.7070  134.7397  149.6556 H   0  0  0  0  0  0  0  0  0  0  0  0
  147.0215  134.1953  150.3437 H   0  0  0  0  0  0  0  0  0  0  0  0
  145.2422  131.7175  150.4329 H   0  0  0  0  0  0  0  0  0  0  0  0
  146.9664  131.7402  150.0714 H   0  0  0  0  0  0  0  0  0  0  0  0
  145.8294  132.5141  148.9757 H   0  0  0  0  0  0  0  0  0  0  0  0
  145.7929  132.7756  152.7562 H   0  0  0  0  0  0  0  0  0  0  0  0
  147.4913  132.8369  152.3287 H   0  0  0  0  0  0  0  0  0  0  0  0
  146.9540  135.3182  155.0311 H   0  0  0  0  0  0  0  0  0  0  0  0
  146.6828  133.6022  154.8460 H   0  0  0  0  0  0  0  0  0  0  0  0
  148.9972  133.7191  155.3976 H   0  0  0  0  0  0  0  0  0  0  0  0
  148.9978  133.4598  153.6701 H   0  0  0  0  0  0  0  0  0  0  0  0
  149.3972  135.8257  153.3140 H   0  0  0  0  0  0  0  0  0  0  0  0
  151.6798  136.8973  153.7501 H   0  0  0  0  0  0  0  0  0  0  0  0
  149.4963  138.0284  153.4174 H   0  0  0  0  0  0  0  0  0  0  0  0
  150.7379  139.1901  153.8592 H   0  0  0  0  0  0  0  0  0  0  0  0
  149.5534  138.6761  155.0546 H   0  0  0  0  0  0  0  0  0  0  0  0
  151.7772  139.7202  155.8048 H   0  0  0  0  0  0  0  0  0  0  0  0
  154.3959  137.1616  157.6970 H   0  0  0  0  0  0  0  0  0  0  0  0
  145.5597  136.4057  153.5286 H   0  0  0  0  0  0  0  0  0  0  0  0
  144.6461  134.9195  153.4701 H   0  0  0  0  0  0  0  0  0  0  0  0
  147.4081  135.1996  152.5455 H   0  0  0  0  0  0  0  0  0  0  0  0
  1  2  1  0  0  0  0
  1 21  1  0  0  0  0
  1 22  1  0  0  0  0
  1 23  1  0  0  0  0
  2 20  1  0  0  0  0
  2  3  1  0  0  0  0
  2 24  1  0  0  0  0
  3  4  1  0  0  0  0
  3 25  1  0  0  0  0
  3 26  1  0  0  0  0
  4  5  1  0  0  0  0
  4  6  1  0  0  0  0
  4 27  1  0  0  0  0
  5 28  1  0  0  0  0
  5 29  1  0  0  0  0
  5 30  1  0  0  0  0
  6  7  1  0  0  0  0
  6 31  1  0  0  0  0
  6 32  1  0  0  0  0
  7  8  1  0  0  0  0
  7 20  1  0  0  0  0
  7 46  1  0  0  0  0
  8  9  1  0  0  0  0
  8 33  1  0  0  0  0
  8 34  1  0  0  0  0
  9 10  1  0  0  0  0
  9 35  1  0  0  0  0
  9 36  1  0  0  0  0
 10 11  1  0  0  0  0
 10 37  1  0  0  0  0
 11 12  2  0  0  0  0
 11 13  1  0  0  0  0
 13 14  1  0  0  0  0
 13 15  1  0  0  0  0
 13 38  1  0  0  0  0
 14 39  1  0  0  0  0
 14 40  1  0  0  0  0
 14 41  1  0  0  0  0
 15 19  1  0  0  0  0
 15 16  1  0  0  0  0
 16 17  2  0  0  0  0
 16 42  1  0  0  0  0
 17 18  1  0  0  0  0
 18 19  2  0  0  0  0
 18 43  1  0  0  0  0
 20 44  1  0  0  0  0
 20 45  1  0  0  0  0
M  CHG  1   7   1
M  END
> <s_m_source_file>
AV-unprocessed.smi

> <i_m_source_file_index>
3337

> <i_lp_mmshare_version>
43012

> <i_f3d_flags>
0

> <s_epik_input>
W0NIM11bQ0BASF0xW0NIMl1bQ0BASF0oW0NIM10pW0NIMl1OKFtDSDJdMSlbQ0gyXVtDSDJdW05IXUMoPU8pW0NASF0oW0NIM10pbjJbY0hdbltjSF1uMg==

> <s_epik_cmdline>
J2VwaWtfcHl0aG9uJywgJy1waCcsICc3LjAnLCAnLXRuJywgJzgnLCAnLW1hJywgJzIwMCcsICctbWV0YWxfYmluZGluZycsICctaW1hZScsICc8aW5maWxlLm1hZT4nLCAnLW9tYWUnLCAnPG91dGZpbGUubWFlPic=

> <r_lp_tautomer_probability>
1

> <r_epik_Ionization_Penalty>
0.00175613

> <r_epik_Ionization_Penalty_Charging>
0.00174812

> <r_epik_Ionization_Penalty_Neutral>
8.01354e-06

> <r_epik_State_Penalty>
0.00118332

> <r_epik_Charging_Adjusted_Penalty>
0.00293143

> <i_epik_Tot_Q>
1

> <i_epik_Tot_abs_Q>
1

> <r_epik_Metal_State_Penalty>
-0

> <b_epik_Metal_Only>
0

> <s_lp_Force_Field>
OPLS_2005

> <r_lp_Energy>
24.7561

> <b_lp_Chiralities_Consistent>
1

> <s_lp_Variant>
AV-unprocessed.smi:3337-8

> <Gold.Version>
5.8.1

> <Gold.Id.Protein>
6NUR|6NUR_protein|mol2

> <Gold.PLP.Fitness>
44.7783

> <Gold.PLP.PLP>
-31.0056

> <Gold.PLP.part.hbond>
-4.2300

> <Gold.PLP.part.metal>
0.0000

> <Gold.PLP.part.buried>
-0.0832

> <Gold.PLP.part.nonpolar>
-28.2062

> <Gold.PLP.part.repulsive>
0.0533

> <Gold.PLP.ligand.clash>
0.0000

> <Gold.PLP.ligand.torsion>
0.4776

> <Gold.PLP.Chemscore.Hbond>
4.8640

> <Gold.PLP.Chemscore.CHOScore>
0.0000

> <Gold.PLP.Chemscore.Metal>
0.0000

> <Gold.Chemscore.Hbonds>
donor molecule, donor type, donor heavy atom, donor atom, acceptor molecule, acceptor atom, score
      L1  H     7    46       P1  7948  2.00
      L1  H    10    37       P1  7948  1.00
      P1  H  7997  8009       L1    17  1.00
      P1  H 10752 10765       L1    19  0.86

> <Gold.PLP.Chemscore.Internal.Correction>
0.1359

> <Gold.Rescore>
     Score         DG    S(hbond)    S(metal)    S(lipo)     H(rot)  DE(clash)    DE(int)     intcor
     15.59     -18.59       3.51        0.00      66.81       2.51       1.05       1.95       ----

> <Gold.Chemscore.Fitness>
15.5868

> <Gold.Chemscore.DG>
-18.5875

> <Gold.Chemscore.ZeroCoef>
-5.4800

> <Gold.Chemscore.Hbond>
3.5100

> <Gold.Chemscore.Metal>
0.0000

> <Gold.Chemscore.Lipo>
66.8137

> <Gold.Chemscore.Internal_Hbond>
0.0000

> <Gold.Chemscore.DEClash>
1.0536

> <Gold.Chemscore.DEInternal>
1.9471

> <Gold.Chemscore.Rot>
2.5129

> <Gold.Chemscore.Internal.Correction>
   9.000000E+99

> <Gold.Chemscore.Hbonds>
donor molecule, donor type, donor heavy atom, donor atom, acceptor molecule, acceptor atom, score
      L1  H     7    46       P1  7948  0.99
      L1  H    10    37       P1  7948  0.32
      P1  H  7997  8009       L1    17  0.86
      P1  H 10752 10765       L1    19  0.68

> <Gold.Chemscore.Hbond.Weighted>
-11.7234

> <Gold.Chemscore.Metal.Weighted>
-0.0000

> <Gold.Chemscore.Lipo.Weighted>
-7.8172

> <Gold.Chemscore.Internal_Hbond.Weighted>
0.0000

> <Gold.Chemscore.DEClash.Weighted>
1.0536

> <Gold.Chemscore.DEInternal.Weighted>
1.9471

> <Gold.Chemscore.Rot.Weighted>
6.4331

> <Gold.Chemscore.Internal.Correction.Weighted>
   9.000000E+99

> <Gold.Protein.RotatedTorsions>
[ 6907 6896 6895 6894 ] final -114.06 input  -60.11 | X-H torsion
[ 7974 7965 7964 7962 ] final  163.50 input  175.53 | X-H torsion
[ 8008 7997 7996 7995 ] final  172.70 input   59.86 | X-H torsion
[ 10167 10162 10161 10158 ] final -167.02 input  -65.29 | X-H torsion
[ 10718 10713 10712 10709 ] final  -84.83 input   66.30 | X-H torsion
[ 10763 10752 10751 10750 ] final -136.31 input  -60.55 | X-H torsion
[ 11005 11000 10999 10996 ] final  126.19 input  -57.11 | X-H torsion

> <Gold.Protein.ActiveResidues>
 VAL166  LYS551  ARG553  GLY616  TRP617  ASP618  TYR619  PRO620  LYS621  CYS622 
 ASP623  PHE694  ASN695  SER759  ASP760  ASP761  ALA762  ILE779  LEU786  VAL792 
 PHE793  MET794  SER795  GLU796  ALA797  LYS798  CYS799  TRP800  GLU811  SER814 

> <Gold.Protein.RotatedAtoms>
  150.7874  133.8856  159.3298 H   0  0  0  0  0  0  0  0  0  0  0  0  # atno 6907 bound_to 6896
  151.6703  135.0975  160.0206 H   0  0  0  0  0  0  0  0  0  0  0  0  # atno 6908 bound_to 6896
  152.3941  133.6682  159.6297 H   0  0  0  0  0  0  0  0  0  0  0  0  # atno 6909 bound_to 6896
  144.7587  139.8192  143.6340 H   0  0  0  0  0  0  0  0  0  0  0  0  # atno 7974 bound_to 7965
  156.1148  140.1479  156.9288 H   0  0  0  0  0  0  0  0  0  0  0  0  # atno 8008 bound_to 7997
  154.4793  140.0884  156.7381 H   0  0  0  0  0  0  0  0  0  0  0  0  # atno 8009 bound_to 7997
  155.4532  140.3435  155.4305 H   0  0  0  0  0  0  0  0  0  0  0  0  # atno 8010 bound_to 7997
  139.6077  144.0880  152.1809 H   0  0  0  0  0  0  0  0  0  0  0  0  # atno 10167 bound_to 10162
  156.0002  130.4710  150.4469 H   0  0  0  0  0  0  0  0  0  0  0  0  # atno 10718 bound_to 10713
  154.8686  135.3676  154.5040 H   0  0  0  0  0  0  0  0  0  0  0  0  # atno 10763 bound_to 10752
  153.5679  135.7021  153.5522 H   0  0  0  0  0  0  0  0  0  0  0  0  # atno 10764 bound_to 10752
  153.3568  135.4057  155.1651 H   0  0  0  0  0  0  0  0  0  0  0  0  # atno 10765 bound_to 10752
  139.9444  134.9631  156.8670 H   0  0  0  0  0  0  0  0  0  0  0  0  # atno 11005 bound_to 11000
  146.1626  139.4746  142.9978 LP  0  0  0  0  0  0  0  0  0  0  0  0  # atno 17320 bound_to 7965
  145.6692  141.0221  143.1666 LP  0  0  0  0  0  0  0  0  0  0  0  0  # atno 17321 bound_to 7965
  140.0491  144.5947  150.7350 LP  0  0  0  0  0  0  0  0  0  0  0  0  # atno 17342 bound_to 10162
  140.7296  143.2674  151.3998 LP  0  0  0  0  0  0  0  0  0  0  0  0  # atno 17343 bound_to 10162
  157.2505  131.0545  151.2382 LP  0  0  0  0  0  0  0  0  0  0  0  0  # atno 17370 bound_to 10713
  157.3532  130.7093  149.6454 LP  0  0  0  0  0  0  0  0  0  0  0  0  # atno 17371 bound_to 10713
  140.5872  134.0296  155.7486 LP  0  0  0  0  0  0  0  0  0  0  0  0  # atno 17394 bound_to 11000
  141.1089  133.9648  157.2946 LP  0  0  0  0  0  0  0  0  0  0  0  0  # atno 17395 bound_to 11000

$$$$
