AV-unprocessed.smi:223|AV-procd|sdf|1704|dock4
  -GOLD-   2262020163D 1   1.00000     0.00000
 Structure written by MMmdl.
 47 50  0  0  0  0  0  0  0  0  1 V2000
  145.7317  130.9358  151.4984 C   0  0  0  0  0  0  0  0  0  0  0  0
  145.1921  132.3379  151.1942 C   0  0  1  0  0  0  0  0  0  0  0  0
  143.9622  132.2515  150.3896 C   0  0  0  0  0  0  0  0  0  0  0  0
  142.9962  132.1820  149.7564 N   0  0  0  0  0  0  0  0  0  0  0  0
  144.9929  133.1483  152.4924 C   0  0  0  0  0  0  0  0  0  0  0  0
  146.2151  133.7761  152.9955 N   0  0  0  0  0  0  0  0  0  0  0  0
  146.2321  135.1358  153.0438 C   0  0  0  0  0  0  0  0  0  0  0  0
  145.6670  135.8438  152.0288 N   0  0  0  0  0  0  0  0  0  0  0  0
  145.6923  137.1788  152.0353 C   0  0  0  0  0  0  0  0  0  0  0  0
  146.2200  137.9977  152.9457 N   0  0  0  0  0  0  0  0  0  0  0  0
  146.7778  137.2990  153.9750 C   0  0  0  0  0  0  0  0  0  0  0  0
  146.8321  135.8809  154.1010 C   0  0  0  0  0  0  0  0  0  0  0  0
  147.4817  135.5419  155.2824 N   0  0  0  0  0  0  0  0  0  0  0  0
  147.8000  136.6886  155.8167 C   0  0  0  0  0  0  0  0  0  0  0  0
  147.4040  137.7975  155.1048 N   0  0  0  0  0  0  0  0  0  0  0  0
  147.6261  139.1906  155.4642 C   0  0  0  0  0  0  0  0  0  0  0  0
  148.4963  139.9799  154.4522 C   0  0  1  0  0  0  0  0  0  0  0  0
  147.7851  140.1290  153.2374 O   0  0  0  0  0  0  0  0  0  0  0  0
  148.9365  141.3605  154.9454 C   0  0  0  0  0  0  0  0  0  0  0  0
  150.3617  141.1182  155.4214 C   0  0  0  0  0  0  0  0  0  0  0  0
  150.8561  140.2176  154.4471 O   0  0  0  0  0  0  0  0  0  0  0  0
  149.8353  139.2639  154.1804 C   0  0  0  0  0  0  0  0  0  0  0  0
  146.9874  133.0427  153.9959 C   0  0  0  0  0  0  0  0  0  0  0  0
  146.5545  131.6451  154.3795 C   0  0  0  0  0  0  0  0  0  0  0  0
  146.3631  132.7885  155.3479 C   0  0  0  0  0  0  0  0  0  0  0  0
  145.9023  130.3752  150.5788 H   0  0  0  0  0  0  0  0  0  0  0  0
  145.0307  130.3671  152.1100 H   0  0  0  0  0  0  0  0  0  0  0  0
  146.6799  130.9875  152.0344 H   0  0  0  0  0  0  0  0  0  0  0  0
  145.9274  132.8403  150.5656 H   0  0  0  0  0  0  0  0  0  0  0  0
  144.2528  133.9289  152.3124 H   0  0  0  0  0  0  0  0  0  0  0  0
  144.5611  132.5193  153.2693 H   0  0  0  0  0  0  0  0  0  0  0  0
  145.2240  137.6593  151.1890 H   0  0  0  0  0  0  0  0  0  0  0  0
  148.3314  136.7564  156.7550 H   0  0  0  0  0  0  0  0  0  0  0  0
  146.6526  139.6703  155.5739 H   0  0  0  0  0  0  0  0  0  0  0  0
  148.0884  139.2142  156.4519 H   0  0  0  0  0  0  0  0  0  0  0  0
  148.3769  139.9591  152.5207 H   0  0  0  0  0  0  0  0  0  0  0  0
  148.9628  142.0753  154.1212 H   0  0  0  0  0  0  0  0  0  0  0  0
  148.3047  141.7873  155.7223 H   0  0  0  0  0  0  0  0  0  0  0  0
  150.9543  142.0321  155.4653 H   0  0  0  0  0  0  0  0  0  0  0  0
  150.3745  140.6464  156.4052 H   0  0  0  0  0  0  0  0  0  0  0  0
  149.9739  138.4165  154.8535 H   0  0  0  0  0  0  0  0  0  0  0  0
  149.9254  138.8862  153.1610 H   0  0  0  0  0  0  0  0  0  0  0  0
  148.0606  133.2198  153.9917 H   0  0  0  0  0  0  0  0  0  0  0  0
  145.6656  131.2381  153.9010 H   0  0  0  0  0  0  0  0  0  0  0  0
  147.3372  130.9225  154.6006 H   0  0  0  0  0  0  0  0  0  0  0  0
  147.0167  132.8268  156.2170 H   0  0  0  0  0  0  0  0  0  0  0  0
  145.3463  133.1392  155.5134 H   0  0  0  0  0  0  0  0  0  0  0  0
  1  2  1  0  0  0  0
  1 26  1  0  0  0  0
  1 27  1  0  0  0  0
  1 28  1  0  0  0  0
  2  3  1  0  0  0  0
  2  5  1  0  0  0  0
  2 29  1  0  0  0  0
  3  4  3  0  0  0  0
  5  6  1  0  0  0  0
  5 30  1  0  0  0  0
  5 31  1  0  0  0  0
  6  7  1  0  0  0  0
  6 23  1  0  0  0  0
  7 12  1  0  0  0  0
  7  8  2  0  0  0  0
  8  9  1  0  0  0  0
  9 10  2  0  0  0  0
  9 32  1  0  0  0  0
 10 11  1  0  0  0  0
 11 15  1  0  0  0  0
 11 12  2  0  0  0  0
 12 13  1  0  0  0  0
 13 14  2  0  0  0  0
 14 15  1  0  0  0  0
 14 33  1  0  0  0  0
 15 16  1  0  0  0  0
 16 17  1  0  0  0  0
 16 34  1  0  0  0  0
 16 35  1  0  0  0  0
 17 22  1  0  0  0  0
 17 18  1  0  0  0  0
 17 19  1  0  0  0  0
 18 36  1  0  0  0  0
 19 20  1  0  0  0  0
 19 37  1  0  0  0  0
 19 38  1  0  0  0  0
 20 21  1  0  0  0  0
 20 39  1  0  0  0  0
 20 40  1  0  0  0  0
 21 22  1  0  0  0  0
 22 41  1  0  0  0  0
 22 42  1  0  0  0  0
 23 25  1  0  0  0  0
 23 24  1  0  0  0  0
 23 43  1  0  0  0  0
 24 25  1  0  0  0  0
 24 44  1  0  0  0  0
 24 45  1  0  0  0  0
 25 46  1  0  0  0  0
 25 47  1  0  0  0  0
M  END
> <s_m_source_file>
AV-unprocessed.smi

> <i_m_source_file_index>
223

> <i_lp_mmshare_version>
43012

> <i_f3d_flags>
0

> <s_epik_input>
TiNDW0NAQEhdKFtDSDNdKVtDSDJdTihbQ0hdMVtDSDJdW0NIMl0xKWMobltjSF1uMiljKGMyMyluW2NIXW4zW0NIMl1bQ0BAXTQoW09IXSlbQ0gyXVtDSDJdT1tDSDJdNA==

> <s_epik_cmdline>
J2VwaWtfcHl0aG9uJywgJy1waCcsICc3LjAnLCAnLXRuJywgJzgnLCAnLW1hJywgJzIwMCcsICctbWV0YWxfYmluZGluZycsICctaW1hZScsICc8aW5maWxlLm1hZT4nLCAnLW9tYWUnLCAnPG91dGZpbGUubWFlPic=

> <r_lp_tautomer_probability>
1

> <r_epik_Ionization_Penalty>
0.000756152

> <r_epik_Ionization_Penalty_Charging>
0

> <r_epik_Ionization_Penalty_Neutral>
0.000756152

> <r_epik_State_Penalty>
0.00038036

> <r_epik_Charging_Adjusted_Penalty>
0.00038036

> <i_epik_Tot_Q>
0

> <i_epik_Tot_abs_Q>
0

> <r_epik_Metal_State_Penalty>
-0

> <b_epik_Metal_Only>
0

> <s_lp_Force_Field>
OPLS_2005

> <r_lp_Energy>
37.1098

> <b_lp_Chiralities_Consistent>
1

> <s_lp_Variant>
AV-unprocessed.smi:223-2

> <Gold.Version>
5.8.1

> <Gold.Id.Protein>
6NUR|6NUR_protein|mol2

> <Gold.PLP.Fitness>
41.4986

> <Gold.PLP.PLP>
-30.6264

> <Gold.PLP.part.hbond>
-2.9369

> <Gold.PLP.part.metal>
0.0000

> <Gold.PLP.part.buried>
-2.9385

> <Gold.PLP.part.nonpolar>
-25.9204

> <Gold.PLP.part.repulsive>
1.1494

> <Gold.PLP.ligand.clash>
0.0000

> <Gold.PLP.ligand.torsion>
1.1907

> <Gold.PLP.Chemscore.Hbond>
2.9760

> <Gold.PLP.Chemscore.CHOScore>
1.0000

> <Gold.PLP.Chemscore.Metal>
0.0000

> <Gold.Chemscore.Hbonds>
donor molecule, donor type, donor heavy atom, donor atom, acceptor molecule, acceptor atom, score
      L1  H    18    36       P1  7957  1.00
      P1  H  7989  7998       L1    21  0.65
      P1  H 10785 10796       L1     4  0.36
      L1  C     9    32       P1 10171  1.00

> <Gold.PLP.Chemscore.Internal.Correction>
1.3256

> <Gold.Rescore>
     Score         DG    S(hbond)    S(metal)    S(lipo)     H(rot)  DE(clash)    DE(int)     intcor
     10.65     -14.34       2.85        0.00      53.75       2.72       0.10       3.59       ----

> <Gold.Chemscore.Fitness>
10.6536

> <Gold.Chemscore.DG>
-14.3430

> <Gold.Chemscore.ZeroCoef>
-5.4800

> <Gold.Chemscore.Hbond>
2.8531

> <Gold.Chemscore.Metal>
0.0000

> <Gold.Chemscore.Lipo>
53.7539

> <Gold.Chemscore.Internal_Hbond>
0.0000

> <Gold.Chemscore.DEClash>
0.0958

> <Gold.Chemscore.DEInternal>
3.5935

> <Gold.Chemscore.Rot>
2.7171

> <Gold.Chemscore.Internal.Correction>
   9.000000E+99

> <Gold.Chemscore.Hbonds>
donor molecule, donor type, donor heavy atom, donor atom, acceptor molecule, acceptor atom, score
      L1  H    18    36       P1  7957  1.00
      P1  H  7989  7998       L1    21  0.51
      P1  H 10785 10796       L1     4  0.14

> <Gold.Chemscore.Hbond.Weighted>
-9.5295

> <Gold.Chemscore.Metal.Weighted>
-0.0000

> <Gold.Chemscore.Lipo.Weighted>
-6.2892

> <Gold.Chemscore.Internal_Hbond.Weighted>
0.0000

> <Gold.Chemscore.DEClash.Weighted>
0.0958

> <Gold.Chemscore.DEInternal.Weighted>
3.5935

> <Gold.Chemscore.Rot.Weighted>
6.9558

> <Gold.Chemscore.Internal.Correction.Weighted>
   9.000000E+99

> <Gold.Protein.RotatedTorsions>
[ 6907 6896 6895 6894 ] final  -98.19 input  -60.11 | X-H torsion
[ 7974 7965 7964 7962 ] final  -26.87 input  175.53 | X-H torsion
[ 8008 7997 7996 7995 ] final   74.47 input   59.86 | X-H torsion
[ 10167 10162 10161 10158 ] final   60.60 input  -65.29 | X-H torsion
[ 10718 10713 10712 10709 ] final  106.82 input   66.30 | X-H torsion
[ 10763 10752 10751 10750 ] final   33.15 input  -60.55 | X-H torsion
[ 11005 11000 10999 10996 ] final -152.17 input  -57.11 | X-H torsion

> <Gold.Protein.ActiveResidues>
 VAL166  LYS551  ARG553  GLY616  TRP617  ASP618  TYR619  PRO620  LYS621  CYS622 
 ASP623  PHE694  ASN695  SER759  ASP760  ASP761  ALA762  ILE779  LEU786  VAL792 
 PHE793  MET794  SER795  GLU796  ALA797  LYS798  CYS799  TRP800  GLU811  SER814 

> <Gold.Protein.RotatedAtoms>
  150.7039  134.1233  159.4042 H   0  0  0  0  0  0  0  0  0  0  0  0  # atno 6907 bound_to 6896
  151.9219  135.0292  160.0532 H   0  0  0  0  0  0  0  0  0  0  0  0  # atno 6908 bound_to 6896
  152.2248  133.4977  159.5219 H   0  0  0  0  0  0  0  0  0  0  0  0  # atno 6909 bound_to 6896
  146.1396  140.5077  142.8658 H   0  0  0  0  0  0  0  0  0  0  0  0  # atno 7974 bound_to 7965
  155.7989  140.3477  155.5391 H   0  0  0  0  0  0  0  0  0  0  0  0  # atno 8008 bound_to 7997
  155.8559  140.0963  157.1665 H   0  0  0  0  0  0  0  0  0  0  0  0  # atno 8009 bound_to 7997
  154.4009  140.1368  156.3888 H   0  0  0  0  0  0  0  0  0  0  0  0  # atno 8010 bound_to 7997
  140.1638  144.4344  150.6696 H   0  0  0  0  0  0  0  0  0  0  0  0  # atno 10167 bound_to 10162
  157.6653  131.0859  150.6064 H   0  0  0  0  0  0  0  0  0  0  0  0  # atno 10718 bound_to 10713
  153.0226  135.6394  154.1467 H   0  0  0  0  0  0  0  0  0  0  0  0  # atno 10763 bound_to 10752
  154.1200  135.2847  155.3212 H   0  0  0  0  0  0  0  0  0  0  0  0  # atno 10764 bound_to 10752
  154.6270  135.5505  153.7701 H   0  0  0  0  0  0  0  0  0  0  0  0  # atno 10765 bound_to 10752
  140.7218  134.3719  157.5182 H   0  0  0  0  0  0  0  0  0  0  0  0  # atno 11005 bound_to 11000
  144.7778  140.5776  143.6626 LP  0  0  0  0  0  0  0  0  0  0  0  0  # atno 17320 bound_to 7965
  145.5077  139.1480  143.3622 LP  0  0  0  0  0  0  0  0  0  0  0  0  # atno 17321 bound_to 7965
  140.6626  143.2257  151.5819 LP  0  0  0  0  0  0  0  0  0  0  0  0  # atno 17342 bound_to 10162
  139.5369  144.2756  152.1270 LP  0  0  0  0  0  0  0  0  0  0  0  0  # atno 17343 bound_to 10162
  156.6365  130.4446  149.5768 LP  0  0  0  0  0  0  0  0  0  0  0  0  # atno 17370 bound_to 10713
  156.2242  130.6755  151.1399 LP  0  0  0  0  0  0  0  0  0  0  0  0  # atno 17371 bound_to 10713
  139.8846  134.8960  156.2691 LP  0  0  0  0  0  0  0  0  0  0  0  0  # atno 17394 bound_to 11000
  140.9997  133.7159  156.0941 LP  0  0  0  0  0  0  0  0  0  0  0  0  # atno 17395 bound_to 11000

$$$$
