#       Name:                AV-unprocessed.smi:1098
#       Creating user name   scv26
#       Creation time:       Fri Mar 27 03:29:03 2020


#       File generated by GOLD software.
#

@<TRIPOS>MOLECULE
AV-unprocessed.smi:1098
    46    47     1
SMALL
NO_CHARGES


@<TRIPOS>ATOM
      1 ****        -8.6774   2.0441  -0.5364 C.3            1 S1                 0.0000
      2 ****        -7.1770   1.8088  -0.3421 C.3            1 S1                 0.0000
      3 ****        -6.3775   1.3052  -1.8913 S.3            1 S1                 0.0000
      4 ****        -4.6617   1.0357  -1.5584 C.ar           1 S1                 0.0000
      5 ****        -4.0872   1.2730  -0.2921 C.ar           1 S1                 0.0000
      6 ****        -2.7092   1.0319  -0.1306 C.ar           1 S1                 0.0000
      7 ****        -1.9609   0.5564  -1.2355 C.ar           1 S1                 0.0000
      8 ****        -0.5637   0.2944  -1.2093 N.am           1 S1                 0.0000
      9 ****         0.2402   0.1121  -0.1475 C.2            1 S1                 0.0000
     10 ****        -0.1212   0.0971   1.0288 O.2            1 S1                 0.0000
     11 ****         1.5118  -0.0759  -0.5294 N.am           1 S1                 0.0000
     12 ****         2.6364  -0.2946   0.3761 C.3            1 S1                 0.0000
     13 ****         3.9514   0.0980  -0.3169 C.3            1 S1                 0.0000
     14 ****         5.1626  -0.1938   0.5852 C.3            1 S1                 0.0000
     15 ****         5.1910  -1.6196   0.9967 N.4            1 S1                 1.0000
     16 ****         6.4061  -1.9581   1.7684 C.3            1 S1                 0.0000
     17 ****         3.9464  -2.0210   1.6987 C.3            1 S1                 0.0000
     18 ****         2.7086  -1.7674   0.8217 C.3            1 S1                 0.0000
     19 ****        -2.6419   0.3655  -2.4567 C.ar           1 S1                 0.0000
     20 ****        -3.9617   0.5937  -2.6232 N.ar           1 S1                 0.0000
     21 ****        -9.1499   2.3333   0.4023 H              1 S1                 0.0000
     22 ****        -9.1736   1.1421  -0.8952 H              1 S1                 0.0000
     23 ****        -8.8601   2.8388  -1.2599 H              1 S1                 0.0000
     24 ****        -6.7046   2.7207   0.0236 H              1 S1                 0.0000
     25 ****        -7.0172   1.0336   0.4077 H              1 S1                 0.0000
     26 ****        -4.6686   1.6359   0.5410 H              1 S1                 0.0000
     27 ****        -2.2584   1.2308   0.8287 H              1 S1                 0.0000
     28 ****        -0.1286   0.2007  -2.1154 H              1 S1                 0.0000
     29 ****         1.7182  -0.0549  -1.5175 H              1 S1                 0.0000
     30 ****         2.5125   0.3390   1.2568 H              1 S1                 0.0000
     31 ****         4.0569  -0.4516  -1.2537 H              1 S1                 0.0000
     32 ****         3.9351   1.1565  -0.5791 H              1 S1                 0.0000
     33 ****         6.0812   0.0506   0.0505 H              1 S1                 0.0000
     34 ****         5.1323   0.4421   1.4716 H              1 S1                 0.0000
     35 ****         6.4374  -1.4090   2.7105 H              1 S1                 0.0000
     36 ****         7.3042  -1.7142   1.1998 H              1 S1                 0.0000
     37 ****         6.4349  -3.0249   1.9928 H              1 S1                 0.0000
     38 ****         3.9977  -3.0795   1.9573 H              1 S1                 0.0000
     39 ****         3.8611  -1.4688   2.6363 H              1 S1                 0.0000
     40 ****         1.8085  -2.0408   1.3738 H              1 S1                 0.0000
     41 ****         2.7441  -2.4191  -0.0527 H              1 S1                 0.0000
     42 ****        -2.1116   0.0157  -3.3305 H              1 S1                 0.0000
     43 ****         5.2316  -2.1643   0.1471 H              1 S1                 0.0000
     44 ****        -1.0859   0.2278   1.2571 LP             1 S1                 0.0000
     45 ****         0.5499  -0.0457   1.7562 LP             1 S1                 0.0000
     46 ****        -4.4055   0.4403  -3.5061 LP             1 S1                 0.0000
@<TRIPOS>BOND
    1    1    2 1     
    2    1   21 1     
    3    1   22 1     
    4    1   23 1     
    5    2    3 1     
    6    2   24 1     
    7    2   25 1     
    8    3    4 1     
    9    4   20 ar    
   10    4    5 ar    
   11    5    6 ar    
   12    5   26 1     
   13    6    7 ar    
   14    6   27 1     
   15    7    8 1     
   16    7   19 ar    
   17    8    9 am    
   18    8   28 1     
   19    9   10 2     
   20    9   11 am    
   21   11   12 1     
   22   11   29 1     
   23   12   18 1     
   24   12   13 1     
   25   12   30 1     
   26   13   14 1     
   27   13   31 1     
   28   13   32 1     
   29   14   15 1     
   30   14   33 1     
   31   14   34 1     
   32   15   16 1     
   33   15   17 1     
   34   15   43 1     
   35   16   35 1     
   36   16   36 1     
   37   16   37 1     
   38   17   18 1     
   39   17   38 1     
   40   17   39 1     
   41   18   40 1     
   42   18   41 1     
   43   19   20 ar    
   44   19   42 1     
   45   10   44 1     
   46   10   45 1     
   47   20   46 1     
@<TRIPOS>SUBSTRUCTURE
      1 S1             1
@<TRIPOS>SET
LONE_PAIRS      STATIC     ATOMS    <user>   **** ""
3 44 45 46
DONOR_HYDROGENS      STATIC     ATOMS    <user>   **** ""
3 28 29 43
ATOM$BLUE        STATIC     ATOMS    COLORGROUP SYSTEM
3 44 45 46
ATOM$RED        STATIC     ATOMS    COLORGROUP SYSTEM
3 28 29 43
