AV-unprocessed.smi:2060|AV-procd|sdf|8358|dock7
  -GOLD-   2272011 33D 1   1.00000     0.00000
 Structure written by MMmdl.
 45 46  0  0  0  0  0  0  0  0  3 V2000
  150.7878  135.2158  156.2662 C   0  0  0  0  0  0  0  0  0  0  0  0
  149.8971  135.7128  155.1014 C   0  0  0  0  0  0  0  0  0  0  0  0
  149.5525  137.2511  154.9910 C   0  0  1  0  0  0  0  0  0  0  0  0
  149.2889  137.7627  156.4386 C   0  0  0  0  0  0  0  0  0  0  0  0
  150.7524  138.0401  154.3475 C   0  0  0  0  0  0  0  0  0  0  0  0
  152.0329  137.5915  154.9049 N   0  5  0  0  0  0  0  0  0  0  0  0
  152.7737  138.2970  155.8020 C   0  0  0  0  0  0  0  0  0  0  0  0
  153.9991  138.2582  155.9623 O   0  0  0  0  0  0  0  0  0  0  0  0
  152.0124  139.1034  156.5641 N   0  0  0  0  0  0  0  0  0  0  0  0
  152.4151  139.9960  157.5921 C   0  0  0  0  0  0  0  0  0  0  0  0
  151.5311  141.0032  158.0631 C   0  0  0  0  0  0  0  0  0  0  0  0
  152.2697  141.6394  159.0209 C   0  0  0  0  0  0  0  0  0  0  0  0
  151.9848  142.7895  159.9245 C   0  0  0  0  0  0  0  0  0  0  0  0
  153.4998  141.0679  159.1281 O   0  0  0  0  0  0  0  0  0  0  0  0
  153.5870  140.0151  158.2098 N   0  0  0  0  0  0  0  0  0  0  0  0
  148.3306  137.4921  154.1169 N   0  3  0  0  0  0  0  0  0  0  0  0
  147.0867  136.7338  154.4380 C   0  0  0  0  0  0  0  0  0  0  0  0
  146.0353  136.9126  153.3279 C   0  0  0  0  0  0  0  0  0  0  0  0
  145.7588  138.2901  153.1231 O   0  0  0  0  0  0  0  0  0  0  0  0
  146.9208  138.9996  152.7212 C   0  0  0  0  0  0  0  0  0  0  0  0
  147.9690  138.9175  153.8397 C   0  0  0  0  0  0  0  0  0  0  0  0
  150.8974  134.1326  156.2134 H   0  0  0  0  0  0  0  0  0  0  0  0
  150.3577  135.4397  157.2412 H   0  0  0  0  0  0  0  0  0  0  0  0
  151.7947  135.6315  156.2333 H   0  0  0  0  0  0  0  0  0  0  0  0
  150.3483  135.3546  154.1737 H   0  0  0  0  0  0  0  0  0  0  0  0
  148.9685  135.1519  155.2089 H   0  0  0  0  0  0  0  0  0  0  0  0
  150.1387  137.6047  157.1036 H   0  0  0  0  0  0  0  0  0  0  0  0
  148.4414  137.2399  156.8836 H   0  0  0  0  0  0  0  0  0  0  0  0
  149.0706  138.8302  156.4948 H   0  0  0  0  0  0  0  0  0  0  0  0
  150.7332  137.8952  153.2671 H   0  0  0  0  0  0  0  0  0  0  0  0
  150.5965  139.1098  154.4878 H   0  0  0  0  0  0  0  0  0  0  0  0
  151.0218  139.0776  156.3749 H   0  0  0  0  0  0  0  0  0  0  0  0
  150.5217  141.2252  157.7505 H   0  0  0  0  0  0  0  0  0  0  0  0
  151.0081  143.2227  159.7077 H   0  0  0  0  0  0  0  0  0  0  0  0
  152.7352  143.5707  159.8042 H   0  0  0  0  0  0  0  0  0  0  0  0
  151.9902  142.4716  160.9671 H   0  0  0  0  0  0  0  0  0  0  0  0
  147.2699  135.6634  154.5108 H   0  0  0  0  0  0  0  0  0  0  0  0
  146.6894  137.0677  155.3976 H   0  0  0  0  0  0  0  0  0  0  0  0
  146.3772  136.4586  152.3962 H   0  0  0  0  0  0  0  0  0  0  0  0
  145.1102  136.4066  153.6044 H   0  0  0  0  0  0  0  0  0  0  0  0
  147.3128  138.5973  151.7854 H   0  0  0  0  0  0  0  0  0  0  0  0
  146.6514  140.0391  152.5345 H   0  0  0  0  0  0  0  0  0  0  0  0
  147.5666  139.3843  154.7399 H   0  0  0  0  0  0  0  0  0  0  0  0
  148.8378  139.5020  153.5385 H   0  0  0  0  0  0  0  0  0  0  0  0
  148.6270  137.1159  153.2260 H   0  0  0  0  0  0  0  0  0  0  0  0
  1  2  1  0  0  0  0
  1 22  1  0  0  0  0
  1 23  1  0  0  0  0
  1 24  1  0  0  0  0
  2  3  1  0  0  0  0
  2 25  1  0  0  0  0
  2 26  1  0  0  0  0
  3  4  1  0  0  0  0
  3  5  1  0  0  0  0
  3 16  1  0  0  0  0
  4 27  1  0  0  0  0
  4 28  1  0  0  0  0
  4 29  1  0  0  0  0
  5  6  1  0  0  0  0
  5 30  1  0  0  0  0
  5 31  1  0  0  0  0
  6  7  1  0  0  0  0
  7  8  2  0  0  0  0
  7  9  1  0  0  0  0
  9 10  1  0  0  0  0
  9 32  1  0  0  0  0
 10 15  2  0  0  0  0
 10 11  1  0  0  0  0
 11 12  2  0  0  0  0
 11 33  1  0  0  0  0
 12 13  1  0  0  0  0
 12 14  1  0  0  0  0
 13 34  1  0  0  0  0
 13 35  1  0  0  0  0
 13 36  1  0  0  0  0
 14 15  1  0  0  0  0
 16 21  1  0  0  0  0
 16 17  1  0  0  0  0
 16 45  1  0  0  0  0
 17 18  1  0  0  0  0
 17 37  1  0  0  0  0
 17 38  1  0  0  0  0
 18 19  1  0  0  0  0
 18 39  1  0  0  0  0
 18 40  1  0  0  0  0
 19 20  1  0  0  0  0
 20 21  1  0  0  0  0
 20 41  1  0  0  0  0
 20 42  1  0  0  0  0
 21 43  1  0  0  0  0
 21 44  1  0  0  0  0
M  CHG  1   6  -1
M  CHG  1  16   1
M  END
> <s_m_source_file>
AV-unprocessed.smi

> <i_m_source_file_index>
2060

> <i_lp_mmshare_version>
43012

> <i_f3d_flags>
0

> <s_epik_input>
W0NIMl0xW0NIMl1PW0NIMl1bQ0gyXU4xW0NAQF0oW0NIM10pKFtDSDJdW0NIM10pW0NIMl1bTkhdQyg9TylbTkhdYzJbY0hdYyhbQ0gzXSlvbjI=

> <s_epik_cmdline>
J2VwaWtfcHl0aG9uJywgJy1waCcsICc3LjAnLCAnLXRuJywgJzgnLCAnLW1hJywgJzIwMCcsICctbWV0YWxfYmluZGluZycsICctaW1hZScsICc8aW5maWxlLm1hZT4nLCAnLW9tYWUnLCAnPG91dGZpbGUubWFlPic=

> <r_epik_Ionization_Penalty>
6.79469

> <r_epik_Ionization_Penalty_Charging>
6.79469

> <r_epik_Ionization_Penalty_Neutral>
5.68576e-06

> <r_epik_State_Penalty>
7.33145

> <r_epik_Charging_Adjusted_Penalty>
14.1261

> <i_epik_Tot_Q>
0

> <i_epik_Tot_abs_Q>
2

> <r_epik_Metal_State_Penalty>
3.24803

> <b_epik_Metal_Only>
1

> <s_lp_Force_Field>
OPLS_2005

> <r_lp_Energy>
29.3309

> <b_lp_Chiralities_Consistent>
1

> <s_lp_Variant>
AV-unprocessed.smi:2060-5

> <Gold.Version>
5.8.1

> <Gold.Id.Protein>
6NUR|6NUR_protein|mol2

> <Gold.PLP.Fitness>
39.2621

> <Gold.PLP.PLP>
-26.0084

> <Gold.PLP.part.hbond>
-5.1963

> <Gold.PLP.part.metal>
0.0000

> <Gold.PLP.part.buried>
-2.9017

> <Gold.PLP.part.nonpolar>
-19.8433

> <Gold.PLP.part.repulsive>
1.0705

> <Gold.PLP.ligand.clash>
0.0000

> <Gold.PLP.ligand.torsion>
0.8217

> <Gold.PLP.Chemscore.Hbond>
4.8880

> <Gold.PLP.Chemscore.CHOScore>
0.0000

> <Gold.PLP.Chemscore.Metal>
0.0000

> <Gold.Chemscore.Hbonds>
donor molecule, donor type, donor heavy atom, donor atom, acceptor molecule, acceptor atom, score
      L1  H    16    45       P1  7948  2.00
      P1  H  7997  8009       L1    15  1.00
      P1  H 10752 10765       L1     6  0.89

> <Gold.PLP.Chemscore.Internal.Correction>
0.2332

> <Gold.Rescore>
     Score         DG    S(hbond)    S(metal)    S(lipo)     H(rot)  DE(clash)    DE(int)     intcor
     13.25     -16.62       2.50        0.00      61.61       1.73       0.11       3.26       ----

> <Gold.Chemscore.Fitness>
13.2511

> <Gold.Chemscore.DG>
-16.6212

> <Gold.Chemscore.ZeroCoef>
-5.4800

> <Gold.Chemscore.Hbond>
2.5031

> <Gold.Chemscore.Metal>
0.0000

> <Gold.Chemscore.Lipo>
61.6079

> <Gold.Chemscore.Internal_Hbond>
0.0000

> <Gold.Chemscore.DEClash>
0.1064

> <Gold.Chemscore.DEInternal>
3.2636

> <Gold.Chemscore.Rot>
1.7294

> <Gold.Chemscore.Internal.Correction>
   9.000000E+99

> <Gold.Chemscore.Hbonds>
donor molecule, donor type, donor heavy atom, donor atom, acceptor molecule, acceptor atom, score
      L1  H    16    45       P1  7948  1.00
      P1  H  7997  8009       L1    15  0.54
      P1  H  7997  8010       L1     8  0.01
      P1  H 10752 10765       L1     6  0.32

> <Gold.Chemscore.Hbond.Weighted>
-8.3603

> <Gold.Chemscore.Metal.Weighted>
-0.0000

> <Gold.Chemscore.Lipo.Weighted>
-7.2081

> <Gold.Chemscore.Internal_Hbond.Weighted>
0.0000

> <Gold.Chemscore.DEClash.Weighted>
0.1064

> <Gold.Chemscore.DEInternal.Weighted>
3.2636

> <Gold.Chemscore.Rot.Weighted>
4.4272

> <Gold.Chemscore.Internal.Correction.Weighted>
   9.000000E+99

> <Gold.Protein.RotatedTorsions>
[ 6907 6896 6895 6894 ] final -105.21 input  -60.11 | X-H torsion
[ 7974 7965 7964 7962 ] final   19.96 input  175.53 | X-H torsion
[ 8008 7997 7996 7995 ] final  148.55 input   59.86 | X-H torsion
[ 10167 10162 10161 10158 ] final  -99.85 input  -65.29 | X-H torsion
[ 10718 10713 10712 10709 ] final -151.42 input   66.30 | X-H torsion
[ 10763 10752 10751 10750 ] final -179.02 input  -60.55 | X-H torsion
[ 11005 11000 10999 10996 ] final  113.92 input  -57.11 | X-H torsion

> <Gold.Protein.ActiveResidues>
 VAL166  LYS551  ARG553  GLY616  TRP617  ASP618  TYR619  PRO620  LYS621  CYS622 
 ASP623  PHE694  ASN695  SER759  ASP760  ASP761  ALA762  ILE779  LEU786  VAL792 
 PHE793  MET794  SER795  GLU796  ALA797  LYS798  CYS799  TRP800  GLU811  SER814 

> <Gold.Protein.RotatedAtoms>
  150.7325  134.0160  159.3685 H   0  0  0  0  0  0  0  0  0  0  0  0  # atno 6907 bound_to 6896
  151.8123  135.0675  160.0424 H   0  0  0  0  0  0  0  0  0  0  0  0  # atno 6908 bound_to 6896
  152.3064  133.5671  159.5688 H   0  0  0  0  0  0  0  0  0  0  0  0  # atno 6909 bound_to 6896
  146.2130  139.8238  142.8674 H   0  0  0  0  0  0  0  0  0  0  0  0  # atno 7974 bound_to 7965
  156.2787  140.2126  156.5716 H   0  0  0  0  0  0  0  0  0  0  0  0  # atno 8008 bound_to 7997
  154.7131  140.0510  157.0592 H   0  0  0  0  0  0  0  0  0  0  0  0  # atno 8009 bound_to 7997
  155.0579  140.3163  155.4673 H   0  0  0  0  0  0  0  0  0  0  0  0  # atno 8010 bound_to 7997
  140.2581  143.3426  152.0652 H   0  0  0  0  0  0  0  0  0  0  0  0  # atno 10167 bound_to 10162
  156.4590  130.8204  151.2435 H   0  0  0  0  0  0  0  0  0  0  0  0  # atno 10718 bound_to 10713
  154.5404  135.2805  155.1101 H   0  0  0  0  0  0  0  0  0  0  0  0  # atno 10763 bound_to 10752
  154.2586  135.6326  153.5270 H   0  0  0  0  0  0  0  0  0  0  0  0  # atno 10764 bound_to 10752
  152.9977  135.5600  154.5941 H   0  0  0  0  0  0  0  0  0  0  0  0  # atno 10765 bound_to 10752
  139.8966  134.9558  156.6812 H   0  0  0  0  0  0  0  0  0  0  0  0  # atno 11005 bound_to 11000
  145.3068  141.0209  143.3577 LP  0  0  0  0  0  0  0  0  0  0  0  0  # atno 17320 bound_to 7965
  144.8965  139.4706  143.6653 LP  0  0  0  0  0  0  0  0  0  0  0  0  # atno 17321 bound_to 7965
  139.5025  144.6736  151.6182 LP  0  0  0  0  0  0  0  0  0  0  0  0  # atno 17342 bound_to 10162
  140.5988  143.9648  150.6372 LP  0  0  0  0  0  0  0  0  0  0  0  0  # atno 17343 bound_to 10162
  157.7499  131.0113  150.3340 LP  0  0  0  0  0  0  0  0  0  0  0  0  # atno 17370 bound_to 10713
  156.3736  130.3868  149.7156 LP  0  0  0  0  0  0  0  0  0  0  0  0  # atno 17371 bound_to 10713
  140.7297  133.9069  155.8203 LP  0  0  0  0  0  0  0  0  0  0  0  0  # atno 17394 bound_to 11000
  141.0163  134.0951  157.4169 LP  0  0  0  0  0  0  0  0  0  0  0  0  # atno 17395 bound_to 11000

$$$$
