AV-unprocessed.smi:544|AV-procd|sdf|2877|dock3
  -GOLD-   2262023373D 1   1.00000     0.00000
 Structure written by MMmdl.
 49 51  0  0  0  0  0  0  0  0  1 V2000
  147.3499  144.3316  152.8970 C   0  0  0  0  0  0  0  0  0  0  0  0
  147.3678  142.8114  153.0687 C   0  0  0  0  0  0  0  0  0  0  0  0
  147.6005  142.5132  154.4334 O   0  0  0  0  0  0  0  0  0  0  0  0
  148.9474  142.1687  154.7054 C   0  0  0  0  0  0  0  0  0  0  0  0
  149.0838  141.7292  156.1711 C   0  0  0  0  0  0  0  0  0  0  0  0
  150.1962  140.8058  156.3777 N   0  0  0  0  0  0  0  0  0  0  0  0
  151.2002  140.8845  157.2891 C   0  0  0  0  0  0  0  0  0  0  0  0
  151.2729  141.9410  158.1901 N   0  0  0  0  0  0  0  0  0  0  0  0
  151.0438  143.3399  157.8420 C   0  0  0  0  0  0  0  0  0  0  0  0
  152.1578  144.2448  158.3932 C   0  0  0  0  0  0  0  0  0  0  0  0
  152.2701  144.0902  159.9164 C   0  0  0  0  0  0  0  0  0  0  0  0
  152.4208  142.6054  160.2939 C   0  0  1  0  0  0  0  0  0  0  0  0
  152.4470  142.4095  161.8156 C   0  0  0  0  0  0  0  0  0  0  0  0
  151.2969  141.7753  159.6404 C   0  0  0  0  0  0  0  0  0  0  0  0
  152.0951  139.8955  157.2305 N   0  0  0  0  0  0  0  0  0  0  0  0
  151.6158  139.1108  156.1911 C   0  0  0  0  0  0  0  0  0  0  0  0
  150.4841  139.6438  155.6632 C   0  0  0  0  0  0  0  0  0  0  0  0
  149.7743  139.0305  154.5344 C   0  0  0  0  0  0  0  0  0  0  0  0
  148.7515  139.5010  154.0414 O   0  0  0  0  0  0  0  0  0  0  0  0
  150.3674  137.8965  154.0881 N   0  0  0  0  0  0  0  0  0  0  0  0
  151.5050  137.3081  154.5695 C   0  0  0  0  0  0  0  0  0  0  0  0
  151.9332  136.2798  154.0459 O   0  0  0  0  0  0  0  0  0  0  0  0
  152.1308  137.9056  155.6343 N   0  0  0  0  0  0  0  0  0  0  0  0
  153.3508  137.3222  156.1953 C   0  0  0  0  0  0  0  0  0  0  0  0
  149.9220  137.4361  153.3079 H   0  0  0  0  0  0  0  0  0  0  0  0
  147.1722  144.6044  151.8568 H   0  0  0  0  0  0  0  0  0  0  0  0
  148.3003  144.7707  153.2018 H   0  0  0  0  0  0  0  0  0  0  0  0
  146.5629  144.7835  153.5013 H   0  0  0  0  0  0  0  0  0  0  0  0
  146.4155  142.3881  152.7468 H   0  0  0  0  0  0  0  0  0  0  0  0
  148.1523  142.3753  152.4489 H   0  0  0  0  0  0  0  0  0  0  0  0
  149.2632  141.3671  154.0369 H   0  0  0  0  0  0  0  0  0  0  0  0
  149.5979  143.0239  154.5169 H   0  0  0  0  0  0  0  0  0  0  0  0
  149.2234  142.5969  156.8156 H   0  0  0  0  0  0  0  0  0  0  0  0
  148.1574  141.2624  156.5029 H   0  0  0  0  0  0  0  0  0  0  0  0
  150.9767  143.4414  156.7591 H   0  0  0  0  0  0  0  0  0  0  0  0
  150.0768  143.6511  158.2391 H   0  0  0  0  0  0  0  0  0  0  0  0
  153.1085  143.9869  157.9252 H   0  0  0  0  0  0  0  0  0  0  0  0
  151.9572  145.2848  158.1349 H   0  0  0  0  0  0  0  0  0  0  0  0
  153.1167  144.6671  160.2900 H   0  0  0  0  0  0  0  0  0  0  0  0
  151.3772  144.5028  160.3886 H   0  0  0  0  0  0  0  0  0  0  0  0
  153.3746  142.2517  159.9003 H   0  0  0  0  0  0  0  0  0  0  0  0
  151.5150  142.7418  162.2738 H   0  0  0  0  0  0  0  0  0  0  0  0
  153.2624  142.9729  162.2703 H   0  0  0  0  0  0  0  0  0  0  0  0
  152.5879  141.3594  162.0727 H   0  0  0  0  0  0  0  0  0  0  0  0
  150.3260  142.0602  160.0477 H   0  0  0  0  0  0  0  0  0  0  0  0
  151.4341  140.7188  159.8744 H   0  0  0  0  0  0  0  0  0  0  0  0
  153.2476  136.2450  156.3336 H   0  0  0  0  0  0  0  0  0  0  0  0
  153.5997  137.7429  157.1693 H   0  0  0  0  0  0  0  0  0  0  0  0
  154.1951  137.5016  155.5291 H   0  0  0  0  0  0  0  0  0  0  0  0
  1  2  1  0  0  0  0
  1 26  1  0  0  0  0
  1 27  1  0  0  0  0
  1 28  1  0  0  0  0
  2  3  1  0  0  0  0
  2 29  1  0  0  0  0
  2 30  1  0  0  0  0
  3  4  1  0  0  0  0
  4  5  1  0  0  0  0
  4 31  1  0  0  0  0
  4 32  1  0  0  0  0
  5  6  1  0  0  0  0
  5 33  1  0  0  0  0
  5 34  1  0  0  0  0
  6 17  1  0  0  0  0
  6  7  1  0  0  0  0
  7  8  1  0  0  0  0
  7 15  2  0  0  0  0
  8 14  1  0  0  0  0
  8  9  1  0  0  0  0
  9 10  1  0  0  0  0
  9 35  1  0  0  0  0
  9 36  1  0  0  0  0
 10 11  1  0  0  0  0
 10 37  1  0  0  0  0
 10 38  1  0  0  0  0
 11 12  1  0  0  0  0
 11 39  1  0  0  0  0
 11 40  1  0  0  0  0
 12 13  1  0  0  0  0
 12 14  1  0  0  0  0
 12 41  1  0  0  0  0
 13 42  1  0  0  0  0
 13 43  1  0  0  0  0
 13 44  1  0  0  0  0
 14 45  1  0  0  0  0
 14 46  1  0  0  0  0
 15 16  1  0  0  0  0
 16 23  1  0  0  0  0
 16 17  2  0  0  0  0
 17 18  1  0  0  0  0
 18 19  2  0  0  0  0
 18 20  1  0  0  0  0
 20 25  1  0  0  0  0
 20 21  1  0  0  0  0
 21 22  2  0  0  0  0
 21 23  1  0  0  0  0
 23 24  1  0  0  0  0
 24 47  1  0  0  0  0
 24 48  1  0  0  0  0
 24 49  1  0  0  0  0
M  END
> <s_m_source_file>
AV-unprocessed.smi

> <i_m_source_file_index>
544

> <i_lp_mmshare_version>
43012

> <i_f3d_flags>
0

> <s_epik_input>
W0NIM11uMWMoPU8pW25IXWMoPU8pYyhjMTIpbihbQ0gyXVtDSDJdT1tDSDJdW0NIM10pYyhuMilOM1tDSDJdW0NIMl1bQ0gyXVtDQEBIXShbQ0gzXSlbQ0gyXTM=

> <s_epik_cmdline>
J2VwaWtfcHl0aG9uJywgJy1waCcsICc3LjAnLCAnLXRuJywgJzgnLCAnLW1hJywgJzIwMCcsICctbWV0YWxfYmluZGluZycsICctaW1hZScsICc8aW5maWxlLm1hZT4nLCAnLW9tYWUnLCAnPG91dGZpbGUubWFlPic=

> <r_lp_tautomer_probability>
1

> <r_epik_Ionization_Penalty>
0.000382477

> <r_epik_Ionization_Penalty_Charging>
0.000119472

> <r_epik_Ionization_Penalty_Neutral>
0.000263005

> <r_epik_State_Penalty>
-0

> <r_epik_Charging_Adjusted_Penalty>
0.000119472

> <i_epik_Tot_Q>
0

> <i_epik_Tot_abs_Q>
0

> <r_epik_Metal_State_Penalty>
0.0919313

> <b_epik_Metal_Only>
0

> <s_lp_Force_Field>
OPLS_2005

> <r_lp_Energy>
37.8306

> <b_lp_Chiralities_Consistent>
1

> <s_lp_Variant>
AV-unprocessed.smi:544-1

> <Gold.Version>
5.8.1

> <Gold.Id.Protein>
6NUR|6NUR_protein|mol2

> <Gold.PLP.Fitness>
48.9295

> <Gold.PLP.PLP>
-41.9819

> <Gold.PLP.part.hbond>
-3.0997

> <Gold.PLP.part.metal>
0.0000

> <Gold.PLP.part.buried>
1.9814

> <Gold.PLP.part.nonpolar>
-47.5416

> <Gold.PLP.part.repulsive>
5.4220

> <Gold.PLP.ligand.clash>
0.0000

> <Gold.PLP.ligand.torsion>
1.4233

> <Gold.PLP.Chemscore.Hbond>
2.9425

> <Gold.PLP.Chemscore.CHOScore>
0.0000

> <Gold.PLP.Chemscore.Metal>
0.0000

> <Gold.Chemscore.Hbonds>
donor molecule, donor type, donor heavy atom, donor atom, acceptor molecule, acceptor atom, score
      L1  H    20    25       P1  7948  0.89
      P1  H  7997  8009       L1    15  0.10
      P1  H 10752 10764       L1    22  0.41

> <Gold.PLP.Chemscore.Internal.Correction>
0.9668

> <Gold.Rescore>
     Score         DG    S(hbond)    S(metal)    S(lipo)     H(rot)  DE(clash)    DE(int)     intcor
     15.10     -21.76       2.55        0.00     101.02       1.58       4.83       1.83       ----

> <Gold.Chemscore.Fitness>
15.0959

> <Gold.Chemscore.DG>
-21.7597

> <Gold.Chemscore.ZeroCoef>
-5.4800

> <Gold.Chemscore.Hbond>
2.5469

> <Gold.Chemscore.Metal>
0.0000

> <Gold.Chemscore.Lipo>
101.0186

> <Gold.Chemscore.Internal_Hbond>
0.0000

> <Gold.Chemscore.DEClash>
4.8340

> <Gold.Chemscore.DEInternal>
1.8298

> <Gold.Chemscore.Rot>
1.5806

> <Gold.Chemscore.Internal.Correction>
   9.000000E+99

> <Gold.Chemscore.Hbonds>
donor molecule, donor type, donor heavy atom, donor atom, acceptor molecule, acceptor atom, score
      L1  H    20    25       P1  7948  0.39
      P1  H  7997  8009       L1    15  0.02
      P1  H 10752 10764       L1    22  0.40

> <Gold.Chemscore.Hbond.Weighted>
-8.5068

> <Gold.Chemscore.Metal.Weighted>
-0.0000

> <Gold.Chemscore.Lipo.Weighted>
-11.8192

> <Gold.Chemscore.Internal_Hbond.Weighted>
0.0000

> <Gold.Chemscore.DEClash.Weighted>
4.8340

> <Gold.Chemscore.DEInternal.Weighted>
1.8298

> <Gold.Chemscore.Rot.Weighted>
4.0463

> <Gold.Chemscore.Internal.Correction.Weighted>
   9.000000E+99

> <Gold.Protein.RotatedTorsions>
[ 6907 6896 6895 6894 ] final  154.35 input  -60.11 | X-H torsion
[ 7974 7965 7964 7962 ] final -162.79 input  175.53 | X-H torsion
[ 8008 7997 7996 7995 ] final -167.36 input   59.86 | X-H torsion
[ 10167 10162 10161 10158 ] final   -7.68 input  -65.29 | X-H torsion
[ 10718 10713 10712 10709 ] final -160.02 input   66.30 | X-H torsion
[ 10763 10752 10751 10750 ] final -120.11 input  -60.55 | X-H torsion
[ 11005 11000 10999 10996 ] final -117.64 input  -57.11 | X-H torsion

> <Gold.Protein.ActiveResidues>
 VAL166  LYS551  ARG553  GLY616  TRP617  ASP618  TYR619  PRO620  LYS621  CYS622 
 ASP623  PHE694  ASN695  SER759  ASP760  ASP761  ALA762  ILE779  LEU786  VAL792 
 PHE793  MET794  SER795  GLU796  ALA797  LYS798  CYS799  TRP800  GLU811  SER814 

> <Gold.Protein.RotatedAtoms>
  152.0597  133.4056  159.4412 H   0  0  0  0  0  0  0  0  0  0  0  0  # atno 6907 bound_to 6896
  150.6866  134.3214  159.4797 H   0  0  0  0  0  0  0  0  0  0  0  0  # atno 6908 bound_to 6896
  152.1033  134.9325  160.0619 H   0  0  0  0  0  0  0  0  0  0  0  0  # atno 6909 bound_to 6896
  144.7346  140.3202  143.6172 H   0  0  0  0  0  0  0  0  0  0  0  0  # atno 7974 bound_to 7965
  155.8767  140.1002  157.1513 H   0  0  0  0  0  0  0  0  0  0  0  0  # atno 8008 bound_to 7997
  154.4001  140.1337  156.4208 H   0  0  0  0  0  0  0  0  0  0  0  0  # atno 8009 bound_to 7997
  155.7690  140.3461  155.5239 H   0  0  0  0  0  0  0  0  0  0  0  0  # atno 8010 bound_to 7997
  140.7036  143.6054  150.8756 H   0  0  0  0  0  0  0  0  0  0  0  0  # atno 10167 bound_to 10162
  156.5762  130.8710  151.2852 H   0  0  0  0  0  0  0  0  0  0  0  0  # atno 10718 bound_to 10713
  154.8635  135.4214  154.2407 H   0  0  0  0  0  0  0  0  0  0  0  0  # atno 10763 bound_to 10752
  153.3373  135.6991  153.6902 H   0  0  0  0  0  0  0  0  0  0  0  0  # atno 10764 bound_to 10752
  153.5895  135.3557  155.2878 H   0  0  0  0  0  0  0  0  0  0  0  0  # atno 10765 bound_to 10752
  141.0341  133.9937  157.3098 H   0  0  0  0  0  0  0  0  0  0  0  0  # atno 11005 bound_to 11000
  145.7577  139.1814  143.2285 LP  0  0  0  0  0  0  0  0  0  0  0  0  # atno 17320 bound_to 7965
  146.1011  140.7542  142.9548 LP  0  0  0  0  0  0  0  0  0  0  0  0  # atno 17321 bound_to 7965
  139.9778  143.5985  152.2953 LP  0  0  0  0  0  0  0  0  0  0  0  0  # atno 17342 bound_to 10162
  139.6595  144.7662  151.1990 LP  0  0  0  0  0  0  0  0  0  0  0  0  # atno 17343 bound_to 10162
  157.7337  130.9734  150.1991 LP  0  0  0  0  0  0  0  0  0  0  0  0  # atno 17370 bound_to 10713
  156.2671  130.3717  149.8070 LP  0  0  0  0  0  0  0  0  0  0  0  0  # atno 17371 bound_to 10713
  139.9228  135.0201  156.8126 LP  0  0  0  0  0  0  0  0  0  0  0  0  # atno 17394 bound_to 11000
  140.6355  133.9867  155.7682 LP  0  0  0  0  0  0  0  0  0  0  0  0  # atno 17395 bound_to 11000

$$$$
