#       Name:                AV-unprocessed.smi:2559
#       Creating user name   scv26
#       Creation time:       Fri Mar 27 14:07:55 2020


#       File generated by GOLD software.
#

@<TRIPOS>MOLECULE
AV-unprocessed.smi:2559
    53    55     1
SMALL
NO_CHARGES


@<TRIPOS>ATOM
      1 ****        -1.4083   4.2247  -2.2373 C.3            1 S1                 0.0000
      2 ****        -1.1274   2.8403  -2.6233 N.am           1 S1                 0.0000
      3 ****        -1.0912   2.4934  -3.9492 C.2            1 S1                 0.0000
      4 ****        -1.2943   3.3088  -4.8488 O.2            1 S1                 0.0000
      5 ****        -0.8160   1.1898  -4.2568 N.am           1 S1                 0.0000
      6 ****        -0.5730   0.1726  -3.3950 C.2            1 S1                 0.0000
      7 ****        -0.3160  -0.9713  -3.7623 O.2            1 S1                 0.0000
      8 ****        -0.6442   0.5808  -1.9834 C.2            1 S1                 0.0000
      9 ****        -0.9016   1.8617  -1.6135 C.2            1 S1                 0.0000
     10 ****        -0.8798   1.9914  -0.2340 N.2            1 S1                 0.0000
     11 ****        -0.6255   0.7488   0.1841 C.2            1 S1                 0.0000
     12 ****        -0.5028   0.4107   1.5330 N.pl3          1 S1                 0.0000
     13 ****        -1.2989  -0.5901   2.2448 C.3            1 S1                 0.0000
     14 ****        -0.4117  -1.5504   3.0562 C.3            1 S1                 0.0000
     15 ****         0.4476  -0.7672   4.0577 C.3            1 S1                 0.0000
     16 ****         1.2015   0.3580   3.3353 C.3            1 S1                 0.0000
     17 ****         0.2334   1.2191   2.5041 C.3            1 S1                 0.0000
     18 ****        -0.4495  -0.1607  -0.8141 N.pl3          1 S1                 0.0000
     19 ****        -0.0823  -1.5725  -0.7009 C.3            1 S1                 0.0000
     20 ****         1.4276  -1.7656  -0.4475 C.3            1 S1                 0.0000
     21 ****         2.2011  -1.2171  -1.4969 O.3            1 S1                 0.0000
     22 ****         1.8399  -3.2313  -0.2159 C.3            1 S1                 0.0000
     23 ****         1.4053  -4.0713  -1.2662 O.3            1 S1                 0.0000
     24 ****        -0.7872   0.9594  -5.2393 H              1 S1                 0.0000
     25 ****        -0.6972   4.9073  -2.7055 H              1 S1                 0.0000
     26 ****        -1.3450   4.3817  -1.1607 H              1 S1                 0.0000
     27 ****        -2.4128   4.5109  -2.5522 H              1 S1                 0.0000
     28 ****        -1.9876  -0.0741   2.9153 H              1 S1                 0.0000
     29 ****        -1.9305  -1.1410   1.5490 H              1 S1                 0.0000
     30 ****        -1.0304  -2.2770   3.5832 H              1 S1                 0.0000
     31 ****         0.2318  -2.1194   2.3852 H              1 S1                 0.0000
     32 ****        -0.1922  -0.3392   4.8305 H              1 S1                 0.0000
     33 ****         1.1478  -1.4330   4.5630 H              1 S1                 0.0000
     34 ****         1.7284   0.9797   4.0597 H              1 S1                 0.0000
     35 ****         1.9628  -0.0703   2.6821 H              1 S1                 0.0000
     36 ****         0.7955   1.9941   1.9820 H              1 S1                 0.0000
     37 ****        -0.4735   1.7340   3.1559 H              1 S1                 0.0000
     38 ****        -0.6530  -2.0344   0.0992 H              1 S1                 0.0000
     39 ****        -0.3957  -2.1049  -1.5958 H              1 S1                 0.0000
     40 ****         1.6989  -1.2074   0.4487 H              1 S1                 0.0000
     41 ****         1.9820  -0.3023  -1.5849 H              1 S1                 0.0000
     42 ****         2.9217  -3.3162  -0.1074 H              1 S1                 0.0000
     43 ****         1.4003  -3.5982   0.7119 H              1 S1                 0.0000
     44 ****         1.7006  -4.9514  -1.0891 H              1 S1                 0.0000
     45 ****        -1.4942   4.2623  -4.6236 LP             1 S1                 0.0000
     46 ****        -1.2593   3.0176  -5.8048 LP             1 S1                 0.0000
     47 ****        -0.2786  -1.1866  -4.7382 LP             1 S1                 0.0000
     48 ****        -0.1441  -1.6871  -3.0854 LP             1 S1                 0.0000
     49 ****        -1.0203   2.8153   0.3150 LP             1 S1                 0.0000
     50 ****         1.9985  -1.6961  -2.3511 LP             1 S1                 0.0000
     51 ****         3.1736  -1.3120  -1.2842 LP             1 S1                 0.0000
     52 ****         1.7907  -3.7544  -2.1328 LP             1 S1                 0.0000
     53 ****         0.4069  -4.0551  -1.3197 LP             1 S1                 0.0000
@<TRIPOS>BOND
    1    1    2 1     
    2    1   25 1     
    3    1   26 1     
    4    1   27 1     
    5    2    9 1     
    6    2    3 1     
    7    3    4 2     
    8    3    5 1     
    9    5   24 1     
   10    5    6 1     
   11    6    7 2     
   12    6    8 1     
   13    8   18 1     
   14    8    9 2     
   15    9   10 1     
   16   10   11 2     
   17   11   12 1     
   18   11   18 1     
   19   12   17 1     
   20   12   13 1     
   21   13   14 1     
   22   13   28 1     
   23   13   29 1     
   24   14   15 1     
   25   14   30 1     
   26   14   31 1     
   27   15   16 1     
   28   15   32 1     
   29   15   33 1     
   30   16   17 1     
   31   16   34 1     
   32   16   35 1     
   33   17   36 1     
   34   17   37 1     
   35   18   19 1     
   36   19   20 1     
   37   19   38 1     
   38   19   39 1     
   39   20   21 1     
   40   20   22 1     
   41   20   40 1     
   42   21   41 1     
   43   22   23 1     
   44   22   42 1     
   45   22   43 1     
   46   23   44 1     
   47    4   45 1     
   48    4   46 1     
   49    7   47 1     
   50    7   48 1     
   51   10   49 1     
   52   21   50 1     
   53   21   51 1     
   54   23   52 1     
   55   23   53 1     
@<TRIPOS>SUBSTRUCTURE
      1 S1             1
@<TRIPOS>SET
LONE_PAIRS      STATIC     ATOMS    <user>   **** ""
9 45 46 47 48 49 50 51 52 53
DONOR_HYDROGENS      STATIC     ATOMS    <user>   **** ""
3 24 41 44
ATOM$BLUE        STATIC     ATOMS    COLORGROUP SYSTEM
9 45 46 47 48 49 50 51 52 53
ATOM$RED        STATIC     ATOMS    COLORGROUP SYSTEM
3 24 41 44
