#       Name:                AV-unprocessed.smi:957
#       Creating user name   scv26
#       Creation time:       Fri Mar 27 02:17:41 2020


#       File generated by GOLD software.
#

@<TRIPOS>MOLECULE
AV-unprocessed.smi:957
    32    33     1
SMALL
NO_CHARGES


@<TRIPOS>ATOM
      1 ****        -1.7180   1.8300   1.9989 C.3            1 S1                 0.0000
      2 ****        -1.5145   0.3495   2.3433 C.3            1 S1                 0.0000
      3 ****        -0.1141  -0.0318   2.2815 N.pl3          1 S1                 0.0000
      4 ****         0.7399  -0.1954   3.3037 C.2            1 S1                 0.0000
      5 ****         1.9760  -0.5490   2.9569 N.2            1 S1                 0.0000
      6 ****         1.9405  -0.6264   1.5805 N.2            1 S1                 0.0000
      7 ****         0.6853  -0.3166   1.2294 C.2            1 S1                 0.0000
      8 ****         0.2201  -0.2768  -0.2000 C.3            1 S1                 0.0000
      9 ****         0.9283   0.8295  -1.0055 C.3            1 S1                 0.0000
     10 ****         0.4412   0.8303  -2.4625 C.3            1 S1                 0.0000
     11 ****         0.6079  -0.5601  -3.0974 C.3            1 S1                 0.0000
     12 ****        -0.0912  -1.5881  -2.2960 N.4            1 S1                 1.0000
     13 ****         0.3776  -1.6458  -0.8937 C.3            1 S1                 0.0000
     14 ****        -2.7721   2.1004   2.0630 H              1 S1                 0.0000
     15 ****        -1.3787   2.0570   0.9883 H              1 S1                 0.0000
     16 ****        -1.1685   2.4722   2.6879 H              1 S1                 0.0000
     17 ****        -1.8841   0.1504   3.3499 H              1 S1                 0.0000
     18 ****        -2.0892  -0.2891   1.6723 H              1 S1                 0.0000
     19 ****         0.4498  -0.0507   4.3341 H              1 S1                 0.0000
     20 ****        -0.8434  -0.0413  -0.2077 H              1 S1                 0.0000
     21 ****         0.7450   1.8042  -0.5521 H              1 S1                 0.0000
     22 ****         2.0079   0.6745  -0.9851 H              1 S1                 0.0000
     23 ****        -0.6079   1.1274  -2.4988 H              1 S1                 0.0000
     24 ****         0.9927   1.5731  -3.0398 H              1 S1                 0.0000
     25 ****         0.2065  -0.5645  -4.1110 H              1 S1                 0.0000
     26 ****         1.6649  -0.8197  -3.1711 H              1 S1                 0.0000
     27 ****        -1.0792  -1.3789  -2.2968 H              1 S1                 0.0000
     28 ****         1.4206  -1.9655  -0.8839 H              1 S1                 0.0000
     29 ****        -0.1940  -2.4079  -0.3631 H              1 S1                 0.0000
     30 ****         0.0509  -2.4913  -2.7256 H              1 S1                 0.0000
     31 ****         2.7554  -0.7201   3.5596 LP             1 S1                 0.0000
     32 ****         2.6960  -0.8647   0.9702 LP             1 S1                 0.0000
@<TRIPOS>BOND
    1    1    2 1     
    2    1   14 1     
    3    1   15 1     
    4    1   16 1     
    5    2    3 1     
    6    2   17 1     
    7    2   18 1     
    8    3    7 1     
    9    3    4 1     
   10    4    5 2     
   11    4   19 1     
   12    5    6 1     
   13    6    7 2     
   14    7    8 1     
   15    8   13 1     
   16    8    9 1     
   17    8   20 1     
   18    9   10 1     
   19    9   21 1     
   20    9   22 1     
   21   10   11 1     
   22   10   23 1     
   23   10   24 1     
   24   11   12 1     
   25   11   25 1     
   26   11   26 1     
   27   12   13 1     
   28   12   27 1     
   29   12   30 1     
   30   13   28 1     
   31   13   29 1     
   32    5   31 1     
   33    6   32 1     
@<TRIPOS>SUBSTRUCTURE
      1 S1             1
@<TRIPOS>SET
LONE_PAIRS      STATIC     ATOMS    <user>   **** ""
2 31 32
DONOR_HYDROGENS      STATIC     ATOMS    <user>   **** ""
2 27 30
ATOM$BLUE        STATIC     ATOMS    COLORGROUP SYSTEM
2 31 32
ATOM$RED        STATIC     ATOMS    COLORGROUP SYSTEM
2 27 30
