AV-unprocessed.smi:290|AV-procd|sdf|2232|dock4
  -GOLD-   2262022 93D 1   1.00000     0.00000
 Structure written by MMmdl.
 59 62  0  0  0  0  0  0  0  0  2 V2000
  151.3073  139.3856  157.8893 C   0  0  0  0  0  0  0  0  0  0  0  0
  150.2084  140.4187  157.5847 C   0  0  1  0  0  0  0  0  0  0  0  0
  150.3556  141.4646  158.5473 O   0  0  0  0  0  0  0  0  0  0  0  0
  150.4730  142.7259  157.9033 C   0  0  0  0  0  0  0  0  0  0  0  0
  151.0305  142.3883  156.5291 C   0  0  0  0  0  0  0  0  0  0  0  0
  150.2934  141.0969  156.1942 C   0  0  1  0  0  0  0  0  0  0  0  0
  151.0648  140.3553  155.2649 O   0  0  0  0  0  0  0  0  0  0  0  0
  148.8793  141.3114  155.5914 C   0  0  0  0  0  0  0  0  0  0  0  0
  148.2207  140.0870  155.1620 N   0  0  0  0  0  0  0  0  0  0  0  0
  148.2391  139.5359  153.9002 C   0  0  0  0  0  0  0  0  0  0  0  0
  147.5703  138.4224  153.7683 N   0  0  0  0  0  0  0  0  0  0  0  0
  147.0589  138.1844  155.0385 C   0  0  0  0  0  0  0  0  0  0  0  0
  146.2492  137.1624  155.6096 C   0  0  0  0  0  0  0  0  0  0  0  0
  145.7664  136.0964  154.9348 N   0  0  0  0  0  0  0  0  0  0  0  0
  144.9212  136.4206  153.7950 C   0  0  0  0  0  0  0  0  0  0  0  0
  145.4961  135.6585  152.6067 C   0  0  0  0  0  0  0  0  0  0  0  0
  146.2408  134.4725  153.2352 C   0  0  1  0  0  0  0  0  0  0  0  0
  147.2773  133.9406  152.2978 N   0  3  1  0  0  0  0  0  0  0  0  0
  148.2356  132.9793  152.8942 C   0  0  0  0  0  0  0  0  0  0  0  0
  146.6915  133.4099  151.0365 C   0  0  0  0  0  0  0  0  0  0  0  0
  145.7389  132.2316  151.2976 C   0  0  0  0  0  0  0  0  0  0  0  0
  146.4747  131.0337  151.4298 O   0  0  0  0  0  0  0  0  0  0  0  0
  146.7674  135.1028  154.5484 C   0  0  2  0  0  0  0  0  0  0  0  0
  146.9743  134.1142  155.7147 C   0  0  0  0  0  0  0  0  0  0  0  0
  145.9408  137.2538  156.9258 N   0  0  0  0  0  0  0  0  0  0  0  0
  146.3956  138.2830  157.6474 C   0  0  0  0  0  0  0  0  0  0  0  0
  147.1565  139.3072  157.2543 N   0  0  0  0  0  0  0  0  0  0  0  0
  147.4656  139.2168  155.9287 C   0  0  0  0  0  0  0  0  0  0  0  0
  145.5268  133.6840  153.4815 H   0  0  0  0  0  0  0  0  0  0  0  0
  147.7096  135.6128  154.3424 H   0  0  0  0  0  0  0  0  0  0  0  0
  151.2402  138.5256  157.2227 H   0  0  0  0  0  0  0  0  0  0  0  0
  151.2165  139.0141  158.9101 H   0  0  0  0  0  0  0  0  0  0  0  0
  152.3021  139.8194  157.7825 H   0  0  0  0  0  0  0  0  0  0  0  0
  149.2363  139.9437  157.7236 H   0  0  0  0  0  0  0  0  0  0  0  0
  149.4867  143.1845  157.8220 H   0  0  0  0  0  0  0  0  0  0  0  0
  151.1175  143.4027  158.4643 H   0  0  0  0  0  0  0  0  0  0  0  0
  150.9017  143.1899  155.8032 H   0  0  0  0  0  0  0  0  0  0  0  0
  152.1019  142.2016  156.6194 H   0  0  0  0  0  0  0  0  0  0  0  0
  150.8191  139.4454  155.3310 H   0  0  0  0  0  0  0  0  0  0  0  0
  148.2345  141.8037  156.3207 H   0  0  0  0  0  0  0  0  0  0  0  0
  148.9283  141.9866  154.7363 H   0  0  0  0  0  0  0  0  0  0  0  0
  148.7665  139.9914  153.0742 H   0  0  0  0  0  0  0  0  0  0  0  0
  143.9128  136.0689  154.0151 H   0  0  0  0  0  0  0  0  0  0  0  0
  144.8560  137.4907  153.5912 H   0  0  0  0  0  0  0  0  0  0  0  0
  144.7194  135.3648  151.9007 H   0  0  0  0  0  0  0  0  0  0  0  0
  146.2001  136.3027  152.0773 H   0  0  0  0  0  0  0  0  0  0  0  0
  147.7155  132.1178  153.3141 H   0  0  0  0  0  0  0  0  0  0  0  0
  148.8354  133.4500  153.6724 H   0  0  0  0  0  0  0  0  0  0  0  0
  148.9384  132.6089  152.1484 H   0  0  0  0  0  0  0  0  0  0  0  0
  146.1636  134.2118  150.5180 H   0  0  0  0  0  0  0  0  0  0  0  0
  147.4644  133.0794  150.3429 H   0  0  0  0  0  0  0  0  0  0  0  0
  145.1326  132.3877  152.1895 H   0  0  0  0  0  0  0  0  0  0  0  0
  145.0489  132.1170  150.4612 H   0  0  0  0  0  0  0  0  0  0  0  0
  147.3561  131.1828  151.1217 H   0  0  0  0  0  0  0  0  0  0  0  0
  147.7276  133.3585  155.5079 H   0  0  0  0  0  0  0  0  0  0  0  0
  146.0471  133.5940  155.9569 H   0  0  0  0  0  0  0  0  0  0  0  0
  147.2983  134.6375  156.6147 H   0  0  0  0  0  0  0  0  0  0  0  0
  146.1095  138.2865  158.6889 H   0  0  0  0  0  0  0  0  0  0  0  0
  147.8265  134.7448  152.0278 H   0  0  0  0  0  0  0  0  0  0  0  0
  1  2  1  0  0  0  0
  1 31  1  0  0  0  0
  1 32  1  0  0  0  0
  1 33  1  0  0  0  0
  2  6  1  0  0  0  0
  2  3  1  0  0  0  0
  2 34  1  0  0  0  0
  3  4  1  0  0  0  0
  4  5  1  0  0  0  0
  4 35  1  0  0  0  0
  4 36  1  0  0  0  0
  5  6  1  0  0  0  0
  5 37  1  0  0  0  0
  5 38  1  0  0  0  0
  6  7  1  0  0  0  0
  6  8  1  0  0  0  0
  7 39  1  0  0  0  0
  8  9  1  0  0  0  0
  8 40  1  0  0  0  0
  8 41  1  0  0  0  0
  9 28  1  0  0  0  0
  9 10  1  0  0  0  0
 10 11  2  0  0  0  0
 10 42  1  0  0  0  0
 11 12  1  0  0  0  0
 12 28  2  0  0  0  0
 12 13  1  0  0  0  0
 13 14  1  0  0  0  0
 13 25  2  0  0  0  0
 14 23  1  0  0  0  0
 14 15  1  0  0  0  0
 15 16  1  0  0  0  0
 15 43  1  0  0  0  0
 15 44  1  0  0  0  0
 16 17  1  0  0  0  0
 16 45  1  0  0  0  0
 16 46  1  0  0  0  0
 17 29  1  0  0  0  0
 17 18  1  0  0  0  0
 17 23  1  0  0  0  0
 18 19  1  0  0  0  0
 18 20  1  0  0  0  0
 18 59  1  0  0  0  0
 19 47  1  0  0  0  0
 19 48  1  0  0  0  0
 19 49  1  0  0  0  0
 20 21  1  0  0  0  0
 20 50  1  0  0  0  0
 20 51  1  0  0  0  0
 21 22  1  0  0  0  0
 21 52  1  0  0  0  0
 21 53  1  0  0  0  0
 22 54  1  0  0  0  0
 23 30  1  0  0  0  0
 23 24  1  0  0  0  0
 24 55  1  0  0  0  0
 24 56  1  0  0  0  0
 24 57  1  0  0  0  0
 25 26  1  0  0  0  0
 26 27  2  0  0  0  0
 26 58  1  0  0  0  0
 27 28  1  0  0  0  0
M  CHG  1  18   1
M  END
> <s_m_source_file>
AV-unprocessed.smi

> <i_m_source_file_index>
290

> <i_lp_mmshare_version>
43012

> <i_f3d_flags>
0

> <s_epik_input>
W0NIMl0xW0NIMl1PW0NAQEhdKFtDSDNdKVtDQEBdMShbT0hdKVtDSDJdbihbY0hdbjIpYyhjMjMpbltjSF1uYzNONFtDSDJdW0NIMl1bQ0BIXShbQ0BIXTRbQ0gzXSlOKFtDSDNdKVtDSDJdW0NIMl1bT0hd

> <s_epik_cmdline>
J2VwaWtfcHl0aG9uJywgJy1waCcsICc3LjAnLCAnLXRuJywgJzgnLCAnLW1hJywgJzIwMCcsICctbWV0YWxfYmluZGluZycsICctaW1hZScsICc8aW5maWxlLm1hZT4nLCAnLW9tYWUnLCAnPG91dGZpbGUubWFlPic=

> <r_lp_tautomer_probability>
1

> <r_epik_Ionization_Penalty>
0.0036983

> <r_epik_Ionization_Penalty_Charging>
0.0032725

> <r_epik_Ionization_Penalty_Neutral>
0.000425798

> <r_epik_State_Penalty>
-0

> <r_epik_Charging_Adjusted_Penalty>
0.0032725

> <i_epik_Tot_Q>
1

> <i_epik_Tot_abs_Q>
1

> <r_epik_Metal_State_Penalty>
-0

> <b_epik_Metal_Only>
0

> <s_lp_Force_Field>
OPLS_2005

> <r_lp_Energy>
64.3392

> <b_lp_Chiralities_Consistent>
1

> <s_lp_Variant>
AV-unprocessed.smi:290-18

> <Gold.Version>
5.8.1

> <Gold.Id.Protein>
6NUR|6NUR_protein|mol2

> <Gold.PLP.Fitness>
42.8183

> <Gold.PLP.PLP>
-28.9398

> <Gold.PLP.part.hbond>
-3.0000

> <Gold.PLP.part.metal>
0.0000

> <Gold.PLP.part.buried>
-5.4837

> <Gold.PLP.part.nonpolar>
-20.6681

> <Gold.PLP.part.repulsive>
0.2589

> <Gold.PLP.ligand.clash>
0.0000

> <Gold.PLP.ligand.torsion>
0.7063

> <Gold.PLP.Chemscore.Hbond>
4.0000

> <Gold.PLP.Chemscore.CHOScore>
1.0000

> <Gold.PLP.Chemscore.Metal>
0.0000

> <Gold.Chemscore.Hbonds>
donor molecule, donor type, donor heavy atom, donor atom, acceptor molecule, acceptor atom, score
      L1  H    18    59       P1  7948  2.00
      L1  H    22    54       P1 10747  1.00
      P1  H  7989  7998       L1     7  1.00
      L1  C    10    42       P1  7957  1.00

> <Gold.PLP.Chemscore.Internal.Correction>
0.2912

> <Gold.Rescore>
     Score         DG    S(hbond)    S(metal)    S(lipo)     H(rot)  DE(clash)    DE(int)     intcor
     11.45     -12.28       2.47        0.00      67.89       3.67       0.02       0.81       ----

> <Gold.Chemscore.Fitness>
11.4492

> <Gold.Chemscore.DG>
-12.2822

> <Gold.Chemscore.ZeroCoef>
-5.4800

> <Gold.Chemscore.Hbond>
2.4680

> <Gold.Chemscore.Metal>
0.0000

> <Gold.Chemscore.Lipo>
67.8917

> <Gold.Chemscore.Internal_Hbond>
0.0000

> <Gold.Chemscore.DEClash>
0.0194

> <Gold.Chemscore.DEInternal>
0.8136

> <Gold.Chemscore.Rot>
3.6658

> <Gold.Chemscore.Internal.Correction>
   9.000000E+99

> <Gold.Chemscore.Hbonds>
donor molecule, donor type, donor heavy atom, donor atom, acceptor molecule, acceptor atom, score
      L1  H    18    59       P1  7948  0.50
      L1  H    22    54       P1 10747  0.99
      P1  H  7989  7998       L1     7  0.84

> <Gold.Chemscore.Hbond.Weighted>
-8.2433

> <Gold.Chemscore.Metal.Weighted>
-0.0000

> <Gold.Chemscore.Lipo.Weighted>
-7.9433

> <Gold.Chemscore.Internal_Hbond.Weighted>
0.0000

> <Gold.Chemscore.DEClash.Weighted>
0.0194

> <Gold.Chemscore.DEInternal.Weighted>
0.8136

> <Gold.Chemscore.Rot.Weighted>
9.3844

> <Gold.Chemscore.Internal.Correction.Weighted>
   9.000000E+99

> <Gold.Protein.RotatedTorsions>
[ 6907 6896 6895 6894 ] final  118.17 input  -60.11 | X-H torsion
[ 7974 7965 7964 7962 ] final    5.84 input  175.53 | X-H torsion
[ 8008 7997 7996 7995 ] final -125.61 input   59.86 | X-H torsion
[ 10167 10162 10161 10158 ] final   -3.62 input  -65.29 | X-H torsion
[ 10718 10713 10712 10709 ] final -126.62 input   66.30 | X-H torsion
[ 10763 10752 10751 10750 ] final   98.02 input  -60.55 | X-H torsion
[ 11005 11000 10999 10996 ] final   62.08 input  -57.11 | X-H torsion

> <Gold.Protein.ActiveResidues>
 VAL166  LYS551  ARG553  GLY616  TRP617  ASP618  TYR619  PRO620  LYS621  CYS622 
 ASP623  PHE694  ASN695  SER759  ASP760  ASP761  ALA762  ILE779  LEU786  VAL792 
 PHE793  MET794  SER795  GLU796  ALA797  LYS798  CYS799  TRP800  GLU811  SER814 

> <Gold.Protein.RotatedAtoms>
  152.4561  133.7727  159.6807 H   0  0  0  0  0  0  0  0  0  0  0  0  # atno 6907 bound_to 6896
  150.8488  133.7809  159.3039 H   0  0  0  0  0  0  0  0  0  0  0  0  # atno 6908 bound_to 6896
  151.5411  135.1071  159.9978 H   0  0  0  0  0  0  0  0  0  0  0  0  # atno 6909 bound_to 6896
  146.2438  140.0323  142.8389 H   0  0  0  0  0  0  0  0  0  0  0  0  # atno 7974 bound_to 7965
  155.2162  140.0420  157.2941 H   0  0  0  0  0  0  0  0  0  0  0  0  # atno 8008 bound_to 7997
  154.5979  140.2444  155.7802 H   0  0  0  0  0  0  0  0  0  0  0  0  # atno 8009 bound_to 7997
  156.2302  140.2941  156.0178 H   0  0  0  0  0  0  0  0  0  0  0  0  # atno 8010 bound_to 7997
  140.6897  143.6519  150.8343 H   0  0  0  0  0  0  0  0  0  0  0  0  # atno 10167 bound_to 10162
  156.1782  130.6714  151.0270 H   0  0  0  0  0  0  0  0  0  0  0  0  # atno 10718 bound_to 10713
  153.2840  135.4163  155.1105 H   0  0  0  0  0  0  0  0  0  0  0  0  # atno 10763 bound_to 10752
  154.8499  135.3502  154.6073 H   0  0  0  0  0  0  0  0  0  0  0  0  # atno 10764 bound_to 10752
  153.6494  135.7053  153.5272 H   0  0  0  0  0  0  0  0  0  0  0  0  # atno 10765 bound_to 10752
  140.0117  134.6287  155.9771 H   0  0  0  0  0  0  0  0  0  0  0  0  # atno 11005 bound_to 11000
  145.1144  140.9424  143.4637 LP  0  0  0  0  0  0  0  0  0  0  0  0  # atno 17320 bound_to 7965
  145.0544  139.3156  143.5912 LP  0  0  0  0  0  0  0  0  0  0  0  0  # atno 17321 bound_to 7965
  140.0230  143.5522  152.2792 LP  0  0  0  0  0  0  0  0  0  0  0  0  # atno 17342 bound_to 10162
  139.6288  144.7641  151.2582 LP  0  0  0  0  0  0  0  0  0  0  0  0  # atno 17343 bound_to 10162
  157.6850  131.0827  150.7267 LP  0  0  0  0  0  0  0  0  0  0  0  0  # atno 17370 bound_to 10713
  156.7324  130.4714  149.5496 LP  0  0  0  0  0  0  0  0  0  0  0  0  # atno 17371 bound_to 10713
  141.1715  133.6537  156.4669 LP  0  0  0  0  0  0  0  0  0  0  0  0  # atno 17394 bound_to 11000
  140.4543  134.6899  157.5055 LP  0  0  0  0  0  0  0  0  0  0  0  0  # atno 17395 bound_to 11000

$$$$
