AV-unprocessed.smi:1088|AV-procd|sdf|4733|dock8
  -GOLD-   22720 3273D 1   1.00000     0.00000
 Structure written by MMmdl.
 47 48  0  0  0  0  0  0  0  0  1 V2000
  148.1495  127.4357  151.8842 C   0  0  0  0  0  0  0  0  0  0  0  0
  146.9509  128.0940  151.5153 O   0  0  0  0  0  0  0  0  0  0  0  0
  146.2487  128.6127  152.6333 C   0  0  0  0  0  0  0  0  0  0  0  0
  146.8766  129.9392  153.0895 C   0  0  0  0  0  0  0  0  0  0  0  0
  146.5956  131.0919  152.2302 N   0  0  0  0  0  0  0  0  0  0  0  0
  145.2143  131.1415  151.7808 C   0  0  0  0  0  0  0  0  0  0  0  0
  144.9674  132.5700  151.2933 C   0  0  0  0  0  0  0  0  0  0  0  0
  146.0837  133.3842  151.9575 C   0  0  0  0  0  0  0  0  0  0  0  0
  146.7889  132.3834  152.8840 C   0  0  2  0  0  0  0  0  0  0  0  0
  148.2550  132.7879  153.1466 C   0  0  0  0  0  0  0  0  0  0  0  0
  148.3393  133.8921  154.0959 N   0  0  0  0  0  0  0  0  0  0  0  0
  149.2866  134.0442  155.0326 C   0  0  0  0  0  0  0  0  0  0  0  0
  150.2443  133.2809  155.1622 O   0  0  0  0  0  0  0  0  0  0  0  0
  149.1264  135.2566  155.9588 C   0  0  0  0  0  0  0  0  0  0  0  0
  150.2046  136.2396  155.7950 N   0  0  0  0  0  0  0  0  0  0  0  0
  150.5568  136.6662  154.5276 C   0  0  0  0  0  0  0  0  0  0  0  0
  151.5490  137.5512  154.2887 C   0  0  0  0  0  0  0  0  0  0  0  0
  152.3226  138.1229  155.3842 C   0  0  0  0  0  0  0  0  0  0  0  0
  153.2500  138.9142  155.2096 O   0  0  0  0  0  0  0  0  0  0  0  0
  151.9302  137.6837  156.6715 N   0  0  0  0  0  0  0  0  0  0  0  0
  152.6573  138.1837  157.8201 C   0  0  0  0  0  0  0  0  0  0  0  0
  150.9020  136.7451  156.9139 C   0  0  0  0  0  0  0  0  0  0  0  0
  150.6188  136.3670  158.0537 O   0  0  0  0  0  0  0  0  0  0  0  0
  148.6449  127.0509  150.9928 H   0  0  0  0  0  0  0  0  0  0  0  0
  147.9501  126.5939  152.5484 H   0  0  0  0  0  0  0  0  0  0  0  0
  148.8371  128.1204  152.3818 H   0  0  0  0  0  0  0  0  0  0  0  0
  145.2102  128.7882  152.3480 H   0  0  0  0  0  0  0  0  0  0  0  0
  146.2410  127.8953  153.4556 H   0  0  0  0  0  0  0  0  0  0  0  0
  146.5925  130.1515  154.1211 H   0  0  0  0  0  0  0  0  0  0  0  0
  147.9513  129.7729  153.1010 H   0  0  0  0  0  0  0  0  0  0  0  0
  145.0200  130.4079  150.9980 H   0  0  0  0  0  0  0  0  0  0  0  0
  144.5428  130.9256  152.6138 H   0  0  0  0  0  0  0  0  0  0  0  0
  145.0444  132.6323  150.2072 H   0  0  0  0  0  0  0  0  0  0  0  0
  143.9758  132.9197  151.5818 H   0  0  0  0  0  0  0  0  0  0  0  0
  146.7700  133.7530  151.1934 H   0  0  0  0  0  0  0  0  0  0  0  0
  145.7006  134.2462  152.5043 H   0  0  0  0  0  0  0  0  0  0  0  0
  146.2429  132.3875  153.8298 H   0  0  0  0  0  0  0  0  0  0  0  0
  148.8358  131.9193  153.4621 H   0  0  0  0  0  0  0  0  0  0  0  0
  148.7100  133.1417  152.2208 H   0  0  0  0  0  0  0  0  0  0  0  0
  147.5956  134.5741  154.0632 H   0  0  0  0  0  0  0  0  0  0  0  0
  148.1613  135.7191  155.7482 H   0  0  0  0  0  0  0  0  0  0  0  0
  149.0770  134.9308  156.9995 H   0  0  0  0  0  0  0  0  0  0  0  0
  150.0168  136.2676  153.6811 H   0  0  0  0  0  0  0  0  0  0  0  0
  151.7768  137.8370  153.2723 H   0  0  0  0  0  0  0  0  0  0  0  0
  151.9566  138.3358  158.6429 H   0  0  0  0  0  0  0  0  0  0  0  0
  153.1170  139.1446  157.5869 H   0  0  0  0  0  0  0  0  0  0  0  0
  153.4097  137.4339  158.0689 H   0  0  0  0  0  0  0  0  0  0  0  0
  1  2  1  0  0  0  0
  1 24  1  0  0  0  0
  1 25  1  0  0  0  0
  1 26  1  0  0  0  0
  2  3  1  0  0  0  0
  3  4  1  0  0  0  0
  3 27  1  0  0  0  0
  3 28  1  0  0  0  0
  4  5  1  0  0  0  0
  4 29  1  0  0  0  0
  4 30  1  0  0  0  0
  5  9  1  0  0  0  0
  5  6  1  0  0  0  0
  6  7  1  0  0  0  0
  6 31  1  0  0  0  0
  6 32  1  0  0  0  0
  7  8  1  0  0  0  0
  7 33  1  0  0  0  0
  7 34  1  0  0  0  0
  8  9  1  0  0  0  0
  8 35  1  0  0  0  0
  8 36  1  0  0  0  0
  9 10  1  0  0  0  0
  9 37  1  0  0  0  0
 10 11  1  0  0  0  0
 10 38  1  0  0  0  0
 10 39  1  0  0  0  0
 11 12  1  0  0  0  0
 11 40  1  0  0  0  0
 12 13  2  0  0  0  0
 12 14  1  0  0  0  0
 14 15  1  0  0  0  0
 14 41  1  0  0  0  0
 14 42  1  0  0  0  0
 15 22  1  0  0  0  0
 15 16  1  0  0  0  0
 16 17  2  0  0  0  0
 16 43  1  0  0  0  0
 17 18  1  0  0  0  0
 17 44  1  0  0  0  0
 18 19  2  0  0  0  0
 18 20  1  0  0  0  0
 20 21  1  0  0  0  0
 20 22  1  0  0  0  0
 21 45  1  0  0  0  0
 21 46  1  0  0  0  0
 21 47  1  0  0  0  0
 22 23  2  0  0  0  0
M  END
> <s_m_source_file>
AV-unprocessed.smi

> <i_m_source_file_index>
1088

> <i_lp_mmshare_version>
43012

> <i_f3d_flags>
0

> <s_epik_input>
W0NIM11PW0NIMl1bQ0gyXU4xW0NIMl1bQ0gyXVtDSDJdW0NASF0xW0NIMl1bTkhdQyg9TylbQ0gyXW4yW2NIXVtjSF1jKD1PKW4oW0NIM10pYzI9Tw==

> <s_epik_cmdline>
J2VwaWtfcHl0aG9uJywgJy1waCcsICc3LjAnLCAnLXRuJywgJzgnLCAnLW1hJywgJzIwMCcsICctbWV0YWxfYmluZGluZycsICctaW1hZScsICc8aW5maWxlLm1hZT4nLCAnLW9tYWUnLCAnPG91dGZpbGUubWFlPic=

> <r_lp_tautomer_probability>
1

> <r_epik_Ionization_Penalty>
2.28131

> <r_epik_Ionization_Penalty_Charging>
1.22971e-08

> <r_epik_Ionization_Penalty_Neutral>
2.28131

> <r_epik_State_Penalty>
2.43063

> <r_epik_Charging_Adjusted_Penalty>
2.43063

> <i_epik_Tot_Q>
0

> <i_epik_Tot_abs_Q>
0

> <r_epik_Metal_State_Penalty>
2.43056

> <b_epik_Metal_Only>
0

> <s_lp_Force_Field>
OPLS_2005

> <r_lp_Energy>
54.0247

> <b_lp_Chiralities_Consistent>
1

> <s_lp_Variant>
AV-unprocessed.smi:1088-6

> <Gold.Version>
5.8.1

> <Gold.Id.Protein>
6NUR|6NUR_protein|mol2

> <Gold.PLP.Fitness>
42.5702

> <Gold.PLP.PLP>
-35.8849

> <Gold.PLP.part.hbond>
-2.2046

> <Gold.PLP.part.metal>
0.0000

> <Gold.PLP.part.buried>
-7.6185

> <Gold.PLP.part.nonpolar>
-28.5319

> <Gold.PLP.part.repulsive>
1.3360

> <Gold.PLP.ligand.clash>
0.0000

> <Gold.PLP.ligand.torsion>
0.7245

> <Gold.PLP.Chemscore.Hbond>
1.6880

> <Gold.PLP.Chemscore.CHOScore>
1.0000

> <Gold.PLP.Chemscore.Metal>
0.0000

> <Gold.Chemscore.Hbonds>
donor molecule, donor type, donor heavy atom, donor atom, acceptor molecule, acceptor atom, score
      P1  H  6896  6909       L1    23  0.37
      P1  H  7997  8008       L1    19  0.85
      L1  C    16    43       P1  7948  0.77

> <Gold.PLP.Chemscore.Internal.Correction>
0.0702

> <Gold.Rescore>
     Score         DG    S(hbond)    S(metal)    S(lipo)     H(rot)  DE(clash)    DE(int)     intcor
     13.71     -14.58       1.95        0.00      76.71       2.49       0.05       0.83       ----

> <Gold.Chemscore.Fitness>
13.7075

> <Gold.Chemscore.DG>
-14.5822

> <Gold.Chemscore.ZeroCoef>
-5.4800

> <Gold.Chemscore.Hbond>
1.9494

> <Gold.Chemscore.Metal>
0.0000

> <Gold.Chemscore.Lipo>
76.7111

> <Gold.Chemscore.Internal_Hbond>
0.0000

> <Gold.Chemscore.DEClash>
0.0456

> <Gold.Chemscore.DEInternal>
0.8291

> <Gold.Chemscore.Rot>
2.4938

> <Gold.Chemscore.Internal.Correction>
   9.000000E+99

> <Gold.Chemscore.Hbonds>
donor molecule, donor type, donor heavy atom, donor atom, acceptor molecule, acceptor atom, score
      P1  H  6896  6909       L1    23  0.38
      P1  H  7997  8008       L1    19  0.82

> <Gold.Chemscore.Hbond.Weighted>
-6.5111

> <Gold.Chemscore.Metal.Weighted>
-0.0000

> <Gold.Chemscore.Lipo.Weighted>
-8.9752

> <Gold.Chemscore.Internal_Hbond.Weighted>
0.0000

> <Gold.Chemscore.DEClash.Weighted>
0.0456

> <Gold.Chemscore.DEInternal.Weighted>
0.8291

> <Gold.Chemscore.Rot.Weighted>
6.3841

> <Gold.Chemscore.Internal.Correction.Weighted>
   9.000000E+99

> <Gold.Protein.RotatedTorsions>
[ 6907 6896 6895 6894 ] final   69.17 input  -60.11 | X-H torsion
[ 7974 7965 7964 7962 ] final  -57.00 input  175.53 | X-H torsion
[ 8008 7997 7996 7995 ] final  -43.13 input   59.86 | X-H torsion
[ 10167 10162 10161 10158 ] final -112.69 input  -65.29 | X-H torsion
[ 10718 10713 10712 10709 ] final   13.23 input   66.30 | X-H torsion
[ 10763 10752 10751 10750 ] final   44.39 input  -60.55 | X-H torsion
[ 11005 11000 10999 10996 ] final   -6.59 input  -57.11 | X-H torsion

> <Gold.Protein.ActiveResidues>
 VAL166  LYS551  ARG553  GLY616  TRP617  ASP618  TYR619  PRO620  LYS621  CYS622 
 ASP623  PHE694  ASN695  SER759  ASP760  ASP761  ALA762  ILE779  LEU786  VAL792 
 PHE793  MET794  SER795  GLU796  ALA797  LYS798  CYS799  TRP800  GLU811  SER814 

> <Gold.Protein.RotatedAtoms>
  152.4668  134.5055  159.9737 H   0  0  0  0  0  0  0  0  0  0  0  0  # atno 6907 bound_to 6896
  151.5091  133.3482  159.2890 H   0  0  0  0  0  0  0  0  0  0  0  0  # atno 6908 bound_to 6896
  150.8657  134.8048  159.7179 H   0  0  0  0  0  0  0  0  0  0  0  0  # atno 6909 bound_to 6896
  145.8561  140.8318  142.9961 H   0  0  0  0  0  0  0  0  0  0  0  0  # atno 7974 bound_to 7965
  154.3997  140.1456  156.3468 H   0  0  0  0  0  0  0  0  0  0  0  0  # atno 8008 bound_to 7997
  155.8305  140.3466  155.5548 H   0  0  0  0  0  0  0  0  0  0  0  0  # atno 8009 bound_to 7997
  155.8192  140.0895  157.1849 H   0  0  0  0  0  0  0  0  0  0  0  0  # atno 8010 bound_to 7997
  140.1200  143.4452  152.1697 H   0  0  0  0  0  0  0  0  0  0  0  0  # atno 10167 bound_to 10162
  157.0217  130.6157  149.5722 H   0  0  0  0  0  0  0  0  0  0  0  0  # atno 10718 bound_to 10713
  152.9842  135.6072  154.3266 H   0  0  0  0  0  0  0  0  0  0  0  0  # atno 10763 bound_to 10752
  154.2972  135.2773  155.2629 H   0  0  0  0  0  0  0  0  0  0  0  0  # atno 10764 bound_to 10752
  154.4898  135.5895  153.6507 H   0  0  0  0  0  0  0  0  0  0  0  0  # atno 10765 bound_to 10752
  140.7037  133.8968  155.8701 H   0  0  0  0  0  0  0  0  0  0  0  0  # atno 11005 bound_to 11000
  144.6727  140.1026  143.7460 LP  0  0  0  0  0  0  0  0  0  0  0  0  # atno 17320 bound_to 7965
  145.9302  139.2601  143.1330 LP  0  0  0  0  0  0  0  0  0  0  0  0  # atno 17321 bound_to 7965
  139.5574  144.7382  151.4255 LP  0  0  0  0  0  0  0  0  0  0  0  0  # atno 17342 bound_to 10162
  140.6877  143.7934  150.7210 LP  0  0  0  0  0  0  0  0  0  0  0  0  # atno 17343 bound_to 10162
  156.0100  130.5190  150.7957 LP  0  0  0  0  0  0  0  0  0  0  0  0  # atno 17370 bound_to 10713
  157.5244  131.0933  151.0036 LP  0  0  0  0  0  0  0  0  0  0  0  0  # atno 17371 bound_to 10713
  141.0143  134.0978  157.4189 LP  0  0  0  0  0  0  0  0  0  0  0  0  # atno 17394 bound_to 11000
  139.8890  135.0102  156.6653 LP  0  0  0  0  0  0  0  0  0  0  0  0  # atno 17395 bound_to 11000

$$$$
