AV-unprocessed.smi:339|AV-procd|sdf|2378|dock7
  -GOLD-   2262022303D 1   1.00000     0.00000
 Structure written by MMmdl.
 45 46  0  0  0  0  0  0  0  0  1 V2000
  149.6716  141.7427  157.5467 C   0  0  0  0  0  0  0  0  0  0  0  0
  150.9946  142.1766  158.1506 C   0  0  0  0  0  0  0  0  0  0  0  0
  151.5603  143.4099  157.7668 C   0  0  0  0  0  0  0  0  0  0  0  0
  152.7929  143.8228  158.3053 C   0  0  0  0  0  0  0  0  0  0  0  0
  153.4681  143.0020  159.2273 C   0  0  0  0  0  0  0  0  0  0  0  0
  152.9119  141.7669  159.6193 C   0  0  0  0  0  0  0  0  0  0  0  0
  153.6581  140.8900  160.6075 C   0  0  0  0  0  0  0  0  0  0  0  0
  151.6650  141.3576  159.0905 C   0  0  0  0  0  0  0  0  0  0  0  0
  151.1235  140.1554  159.4664 O   0  0  0  0  0  0  0  0  0  0  0  0
  151.0460  139.2082  158.4111 C   0  0  0  0  0  0  0  0  0  0  0  0
  150.5811  137.8608  158.9871 C   0  0  2  0  0  0  0  0  0  0  0  0
  151.3671  136.8531  158.3806 O   0  0  0  0  0  0  0  0  0  0  0  0
  149.0998  137.5723  158.6554 C   0  0  0  0  0  0  0  0  0  0  0  0
  148.5163  136.5738  159.5601 N   0  0  0  0  0  0  0  0  0  0  0  0
  147.9293  137.1144  160.6870 N   0  0  0  0  0  0  0  0  0  0  0  0
  147.3539  136.3670  161.5707 C   0  0  0  0  0  0  0  0  0  0  0  0
  146.7470  137.0673  162.7568 C   0  0  0  0  0  0  0  0  0  0  0  0
  147.3198  134.9202  161.3825 C   0  0  0  0  0  0  0  0  0  0  0  0
  146.6256  134.0900  162.4539 C   0  0  0  0  0  0  0  0  0  0  0  0
  147.9095  134.4005  160.2770 C   0  0  0  0  0  0  0  0  0  0  0  0
  147.9322  132.9980  160.0121 C   0  0  0  0  0  0  0  0  0  0  0  0
  147.9314  131.8593  159.8035 N   0  0  0  0  0  0  0  0  0  0  0  0
  148.5642  135.2417  159.2724 C   0  0  0  0  0  0  0  0  0  0  0  0
  149.1061  134.8022  158.2570 O   0  0  0  0  0  0  0  0  0  0  0  0
  149.4942  142.2425  156.5940 H   0  0  0  0  0  0  0  0  0  0  0  0
  148.8504  141.9892  158.2194 H   0  0  0  0  0  0  0  0  0  0  0  0
  149.6582  140.6676  157.3656 H   0  0  0  0  0  0  0  0  0  0  0  0
  151.0517  144.0430  157.0544 H   0  0  0  0  0  0  0  0  0  0  0  0
  153.2232  144.7675  158.0069 H   0  0  0  0  0  0  0  0  0  0  0  0
  154.4169  143.3239  159.6312 H   0  0  0  0  0  0  0  0  0  0  0  0
  153.6003  139.8408  160.3170 H   0  0  0  0  0  0  0  0  0  0  0  0
  153.2301  140.9962  161.6040 H   0  0  0  0  0  0  0  0  0  0  0  0
  154.7120  141.1636  160.6589 H   0  0  0  0  0  0  0  0  0  0  0  0
  150.3149  139.5748  157.6894 H   0  0  0  0  0  0  0  0  0  0  0  0
  151.9926  139.1051  157.8772 H   0  0  0  0  0  0  0  0  0  0  0  0
  150.7394  137.8563  160.0662 H   0  0  0  0  0  0  0  0  0  0  0  0
  152.1241  136.6951  158.9232 H   0  0  0  0  0  0  0  0  0  0  0  0
  148.5154  138.4907  158.7342 H   0  0  0  0  0  0  0  0  0  0  0  0
  148.9940  137.2650  157.6129 H   0  0  0  0  0  0  0  0  0  0  0  0
  147.1383  136.6607  163.6896 H   0  0  0  0  0  0  0  0  0  0  0  0
  145.6635  136.9472  162.7627 H   0  0  0  0  0  0  0  0  0  0  0  0
  146.9604  138.1373  162.7505 H   0  0  0  0  0  0  0  0  0  0  0  0
  146.5506  133.0389  162.1766 H   0  0  0  0  0  0  0  0  0  0  0  0
  145.6116  134.4517  162.6273 H   0  0  0  0  0  0  0  0  0  0  0  0
  147.1762  134.1460  163.3932 H   0  0  0  0  0  0  0  0  0  0  0  0
  1  2  1  0  0  0  0
  1 25  1  0  0  0  0
  1 26  1  0  0  0  0
  1 27  1  0  0  0  0
  2  8  1  0  0  0  0
  2  3  2  0  0  0  0
  3  4  1  0  0  0  0
  3 28  1  0  0  0  0
  4  5  2  0  0  0  0
  4 29  1  0  0  0  0
  5  6  1  0  0  0  0
  5 30  1  0  0  0  0
  6  7  1  0  0  0  0
  6  8  2  0  0  0  0
  7 31  1  0  0  0  0
  7 32  1  0  0  0  0
  7 33  1  0  0  0  0
  8  9  1  0  0  0  0
  9 10  1  0  0  0  0
 10 11  1  0  0  0  0
 10 34  1  0  0  0  0
 10 35  1  0  0  0  0
 11 12  1  0  0  0  0
 11 13  1  0  0  0  0
 11 36  1  0  0  0  0
 12 37  1  0  0  0  0
 13 14  1  0  0  0  0
 13 38  1  0  0  0  0
 13 39  1  0  0  0  0
 14 23  1  0  0  0  0
 14 15  1  0  0  0  0
 15 16  2  0  0  0  0
 16 17  1  0  0  0  0
 16 18  1  0  0  0  0
 17 40  1  0  0  0  0
 17 41  1  0  0  0  0
 17 42  1  0  0  0  0
 18 19  1  0  0  0  0
 18 20  2  0  0  0  0
 19 43  1  0  0  0  0
 19 44  1  0  0  0  0
 19 45  1  0  0  0  0
 20 21  1  0  0  0  0
 20 23  1  0  0  0  0
 21 22  3  0  0  0  0
 23 24  2  0  0  0  0
M  END
> <s_m_source_file>
AV-unprocessed.smi

> <i_m_source_file_index>
339

> <i_lp_mmshare_version>
43012

> <i_f3d_flags>
0

> <s_epik_input>
W0NIM11jMVtjSF1bY0hdW2NIXWMoW0NIM10pYzFPW0NIMl1bQ0BIXShbT0hdKVtDSDJdbjJuYyhbQ0gzXSljKFtDSDNdKWMoQyNOKWMyPU8=

> <s_epik_cmdline>
J2VwaWtfcHl0aG9uJywgJy1waCcsICc3LjAnLCAnLXRuJywgJzgnLCAnLW1hJywgJzIwMCcsICctbWV0YWxfYmluZGluZycsICctaW1hZScsICc8aW5maWxlLm1hZT4nLCAnLW9tYWUnLCAnPG91dGZpbGUubWFlPic=

> <r_lp_tautomer_probability>
1

> <r_epik_Ionization_Penalty>
1.17331e-07

> <r_epik_Ionization_Penalty_Charging>
1.57223e-10

> <r_epik_Ionization_Penalty_Neutral>
1.17174e-07

> <r_epik_State_Penalty>
-0

> <r_epik_Charging_Adjusted_Penalty>
1.57223e-10

> <i_epik_Tot_Q>
0

> <i_epik_Tot_abs_Q>
0

> <r_epik_Metal_State_Penalty>
-0

> <b_epik_Metal_Only>
0

> <s_lp_Force_Field>
OPLS_2005

> <r_lp_Energy>
35.9352

> <b_lp_Chiralities_Consistent>
1

> <s_lp_Variant>
AV-unprocessed.smi:339-1

> <Gold.Version>
5.8.1

> <Gold.Id.Protein>
6NUR|6NUR_protein|mol2

> <Gold.PLP.Fitness>
50.5487

> <Gold.PLP.PLP>
-45.9851

> <Gold.PLP.part.hbond>
-4.9471

> <Gold.PLP.part.metal>
0.0000

> <Gold.PLP.part.buried>
-2.4517

> <Gold.PLP.part.nonpolar>
-41.1917

> <Gold.PLP.part.repulsive>
0.0000

> <Gold.PLP.ligand.clash>
0.0000

> <Gold.PLP.ligand.torsion>
1.2457

> <Gold.PLP.Chemscore.Hbond>
2.3268

> <Gold.PLP.Chemscore.CHOScore>
0.0000

> <Gold.PLP.Chemscore.Metal>
0.0000

> <Gold.Chemscore.Hbonds>
donor molecule, donor type, donor heavy atom, donor atom, acceptor molecule, acceptor atom, score
      P1  H  6896  6909       L1    24  0.40
      P1  H  6931  6943       L1    15  0.85
      P1  H  6934  6947       L1    15  0.76

> <Gold.PLP.Chemscore.Internal.Correction>
0.0747

> <Gold.Rescore>
     Score         DG    S(hbond)    S(metal)    S(lipo)     H(rot)  DE(clash)    DE(int)     intcor
     15.41     -17.95       0.97        0.00     129.05       2.29       0.14       2.40       ----

> <Gold.Chemscore.Fitness>
15.4106

> <Gold.Chemscore.DG>
-17.9493

> <Gold.Chemscore.ZeroCoef>
-5.4800

> <Gold.Chemscore.Hbond>
0.9681

> <Gold.Chemscore.Metal>
0.0000

> <Gold.Chemscore.Lipo>
129.0532

> <Gold.Chemscore.Internal_Hbond>
0.0000

> <Gold.Chemscore.DEClash>
0.1430

> <Gold.Chemscore.DEInternal>
2.3957

> <Gold.Chemscore.Rot>
2.2905

> <Gold.Chemscore.Internal.Correction>
   9.000000E+99

> <Gold.Chemscore.Hbonds>
donor molecule, donor type, donor heavy atom, donor atom, acceptor molecule, acceptor atom, score
      P1  H  6896  6909       L1    24  0.01
      P1  H  6931  6943       L1    15  0.20
      P1  H  6934  6947       L1    15  0.47

> <Gold.Chemscore.Hbond.Weighted>
-3.2336

> <Gold.Chemscore.Metal.Weighted>
-0.0000

> <Gold.Chemscore.Lipo.Weighted>
-15.0992

> <Gold.Chemscore.Internal_Hbond.Weighted>
0.0000

> <Gold.Chemscore.DEClash.Weighted>
0.1430

> <Gold.Chemscore.DEInternal.Weighted>
2.3957

> <Gold.Chemscore.Rot.Weighted>
5.8636

> <Gold.Chemscore.Internal.Correction.Weighted>
   9.000000E+99

> <Gold.Protein.RotatedTorsions>
[ 6907 6896 6895 6894 ] final   28.65 input  -60.11 | X-H torsion
[ 7974 7965 7964 7962 ] final  142.29 input  175.53 | X-H torsion
[ 8008 7997 7996 7995 ] final  157.60 input   59.86 | X-H torsion
[ 10167 10162 10161 10158 ] final  140.02 input  -65.29 | X-H torsion
[ 10718 10713 10712 10709 ] final  103.07 input   66.30 | X-H torsion
[ 10763 10752 10751 10750 ] final  -29.96 input  -60.55 | X-H torsion
[ 11005 11000 10999 10996 ] final   72.96 input  -57.11 | X-H torsion

> <Gold.Protein.ActiveResidues>
 VAL166  LYS551  ARG553  GLY616  TRP617  ASP618  TYR619  PRO620  LYS621  CYS622 
 ASP623  PHE694  ASN695  SER759  ASP760  ASP761  ALA762  ILE779  LEU786  VAL792 
 PHE793  MET794  SER795  GLU796  ALA797  LYS798  CYS799  TRP800  GLU811  SER814 

> <Gold.Protein.RotatedAtoms>
  152.0200  134.9828  160.0570 H   0  0  0  0  0  0  0  0  0  0  0  0  # atno 6907 bound_to 6896
  152.1346  133.4423  159.4745 H   0  0  0  0  0  0  0  0  0  0  0  0  # atno 6908 bound_to 6896
  150.6859  134.2298  159.4473 H   0  0  0  0  0  0  0  0  0  0  0  0  # atno 6909 bound_to 6896
  144.9021  139.5409  143.5749 H   0  0  0  0  0  0  0  0  0  0  0  0  # atno 7974 bound_to 7965
  156.2354  140.1881  156.7133 H   0  0  0  0  0  0  0  0  0  0  0  0  # atno 8008 bound_to 7997
  154.6097  140.0624  156.9504 H   0  0  0  0  0  0  0  0  0  0  0  0  # atno 8009 bound_to 7997
  155.2037  140.3294  155.4342 H   0  0  0  0  0  0  0  0  0  0  0  0  # atno 8010 bound_to 7997
  139.5061  144.6260  151.5937 H   0  0  0  0  0  0  0  0  0  0  0  0  # atno 10167 bound_to 10162
  157.6784  131.0769  150.5499 H   0  0  0  0  0  0  0  0  0  0  0  0  # atno 10718 bound_to 10713
  153.7732  135.6911  153.4902 H   0  0  0  0  0  0  0  0  0  0  0  0  # atno 10763 bound_to 10752
  153.1861  135.4488  155.0088 H   0  0  0  0  0  0  0  0  0  0  0  0  # atno 10764 bound_to 10752
  154.8110  135.3377  154.7240 H   0  0  0  0  0  0  0  0  0  0  0  0  # atno 10765 bound_to 10752
  139.9464  134.7305  156.0969 H   0  0  0  0  0  0  0  0  0  0  0  0  # atno 11005 bound_to 11000
  146.3114  139.7759  142.9017 LP  0  0  0  0  0  0  0  0  0  0  0  0  # atno 17320 bound_to 7965
  145.3599  141.0324  143.3291 LP  0  0  0  0  0  0  0  0  0  0  0  0  # atno 17321 bound_to 7965
  140.5977  143.9667  150.6365 LP  0  0  0  0  0  0  0  0  0  0  0  0  # atno 17342 bound_to 10162
  140.2868  143.3351  152.1100 LP  0  0  0  0  0  0  0  0  0  0  0  0  # atno 17343 bound_to 10162
  156.5804  130.4303  149.5980 LP  0  0  0  0  0  0  0  0  0  0  0  0  # atno 17370 bound_to 10713
  156.2666  130.6993  151.1778 LP  0  0  0  0  0  0  0  0  0  0  0  0  # atno 17371 bound_to 10713
  141.1115  133.6641  156.2991 LP  0  0  0  0  0  0  0  0  0  0  0  0  # atno 17394 bound_to 11000
  140.5824  134.5732  157.5482 LP  0  0  0  0  0  0  0  0  0  0  0  0  # atno 17395 bound_to 11000

$$$$
