#       Name:                AV-unprocessed.smi:1830
#       Creating user name   scv26
#       Creation time:       Fri Mar 27 09:13:32 2020


#       File generated by GOLD software.
#

@<TRIPOS>MOLECULE
AV-unprocessed.smi:1830
    59    62     1
SMALL
NO_CHARGES


@<TRIPOS>ATOM
      1 ****         0.2818   2.3490   0.3095 O.2            1 S1                 0.0000
      2 ****        -0.2429   1.2517   0.1215 C.2            1 S1                 0.0000
      3 ****         0.4244   0.0916   0.1949 N.am           1 S1                 0.0000
      4 ****         1.8471  -0.0334   0.4947 C.3            1 S1                 0.0000
      5 ****         2.7256   0.2805  -0.7374 C.3            1 S1                 0.0000
      6 ****         4.2419   0.2123  -0.4315 C.3            1 S1                 0.0000
      7 ****         4.6535  -1.2005  -0.3328 N.4            1 S1                 1.0000
      8 ****         6.0680  -1.4932  -0.0432 C.3            1 S1                 0.0000
      9 ****         6.3009  -2.9120  -0.5996 C.3            1 S1                 0.0000
     10 ****         5.0047  -3.2884  -1.3394 C.3            1 S1                 0.0000
     11 ****         4.3252  -1.9395  -1.5535 C.3            1 S1                 0.0000
     12 ****         2.8058  -1.9230  -1.7552 C.3            1 S1                 0.0000
     13 ****         2.3887  -0.5582  -1.8541 O.3            1 S1                 0.0000
     14 ****        -1.5407   1.0536  -0.1631 N.am           1 S1                 0.0000
     15 ****        -2.5683   2.0323  -0.2828 C.ar           1 S1                 0.0000
     16 ****        -2.3094   3.3326  -0.7871 C.ar           1 S1                 0.0000
     17 ****        -3.3657   4.2534  -0.9248 C.ar           1 S1                 0.0000
     18 ****        -4.6665   3.8578  -0.5667 C.ar           1 S1                 0.0000
     19 ****        -4.8825   2.6087  -0.1045 N.pl3          1 S1                 1.0000
     20 ****        -3.9059   1.6803   0.0480 C.ar           1 S1                 0.0000
     21 ****        -4.2453   0.4112   0.5638 N.3            1 S1                 0.0000
     22 ****        -3.7465   0.1620   1.9141 C.3            1 S1                 0.0000
     23 ****        -4.8220  -0.6576   2.6303 C.3            1 S1                 0.0000
     24 ****        -6.1019  -0.2544   1.9087 C.3            1 S1                 0.0000
     25 ****        -5.6238  -0.0677   0.4701 C.3            1 S1                 0.0000
     26 ****        -0.0840  -0.7649   0.0292 H              1 S1                 0.0000
     27 ****         2.1058   0.6350   1.3179 H              1 S1                 0.0000
     28 ****         2.0319  -1.0422   0.8626 H              1 S1                 0.0000
     29 ****         2.5061   1.3034  -1.0448 H              1 S1                 0.0000
     30 ****         4.8059   0.6985  -1.2289 H              1 S1                 0.0000
     31 ****         4.4780   0.7385   0.4941 H              1 S1                 0.0000
     32 ****         6.7111  -0.7779  -0.5586 H              1 S1                 0.0000
     33 ****         6.2703  -1.4239   1.0260 H              1 S1                 0.0000
     34 ****         7.1515  -2.9120  -1.2822 H              1 S1                 0.0000
     35 ****         6.5175  -3.6272   0.1947 H              1 S1                 0.0000
     36 ****         5.1886  -3.8216  -2.2728 H              1 S1                 0.0000
     37 ****         4.3876  -3.9250  -0.7038 H              1 S1                 0.0000
     38 ****         4.8033  -1.4445  -2.4018 H              1 S1                 0.0000
     39 ****         2.5388  -2.4424  -2.6757 H              1 S1                 0.0000
     40 ****         2.2879  -2.4308  -0.9413 H              1 S1                 0.0000
     41 ****        -1.8480   0.0927  -0.2004 H              1 S1                 0.0000
     42 ****        -1.3176   3.6347  -1.0876 H              1 S1                 0.0000
     43 ****        -3.1800   5.2471  -1.3058 H              1 S1                 0.0000
     44 ****        -5.5358   4.4953  -0.6394 H              1 S1                 0.0000
     45 ****        -2.7950  -0.3697   1.8922 H              1 S1                 0.0000
     46 ****        -3.5900   1.1072   2.4367 H              1 S1                 0.0000
     47 ****        -4.6367  -1.7224   2.4823 H              1 S1                 0.0000
     48 ****        -4.8567  -0.4669   3.7033 H              1 S1                 0.0000
     49 ****        -6.8969  -0.9949   2.0001 H              1 S1                 0.0000
     50 ****        -6.4706   0.6925   2.3056 H              1 S1                 0.0000
     51 ****        -6.2946   0.5768  -0.0976 H              1 S1                 0.0000
     52 ****        -5.6046  -1.0306  -0.0416 H              1 S1                 0.0000
     53 ****         4.1165  -1.6222   0.4114 H              1 S1                 0.0000
     54 ****        -5.8365   2.3499   0.1479 H              1 S1                 0.0000
     55 ****         1.2555   2.4064   0.5300 LP             1 S1                 0.0000
     56 ****        -0.2655   3.1831   0.2417 LP             1 S1                 0.0000
     57 ****         2.8120  -0.1664  -2.6710 LP             1 S1                 0.0000
     58 ****         1.3940  -0.5480  -1.9566 LP             1 S1                 0.0000
     59 ****        -3.7525  -0.1368  -0.1121 LP             1 S1                 0.0000
@<TRIPOS>BOND
    1    1    2 2     
    2    2    3 am    
    3    2   14 am    
    4    3    4 1     
    5    3   26 1     
    6    4    5 1     
    7    4   27 1     
    8    4   28 1     
    9    5   13 1     
   10    5    6 1     
   11    5   29 1     
   12    6    7 1     
   13    6   30 1     
   14    6   31 1     
   15    7   11 1     
   16    7    8 1     
   17    7   53 1     
   18    8    9 1     
   19    8   32 1     
   20    8   33 1     
   21    9   10 1     
   22    9   34 1     
   23    9   35 1     
   24   10   11 1     
   25   10   36 1     
   26   10   37 1     
   27   11   12 1     
   28   11   38 1     
   29   12   13 1     
   30   12   39 1     
   31   12   40 1     
   32   14   15 1     
   33   14   41 1     
   34   15   20 ar    
   35   15   16 ar    
   36   16   17 ar    
   37   16   42 1     
   38   17   18 ar    
   39   17   43 1     
   40   18   19 ar    
   41   18   44 1     
   42   19   20 ar    
   43   19   54 1     
   44   20   21 1     
   45   21   25 1     
   46   21   22 1     
   47   22   23 1     
   48   22   45 1     
   49   22   46 1     
   50   23   24 1     
   51   23   47 1     
   52   23   48 1     
   53   24   25 1     
   54   24   49 1     
   55   24   50 1     
   56   25   51 1     
   57   25   52 1     
   58    1   55 1     
   59    1   56 1     
   60   13   57 1     
   61   13   58 1     
   62   21   59 1     
@<TRIPOS>SUBSTRUCTURE
      1 S1             1
@<TRIPOS>SET
LONE_PAIRS      STATIC     ATOMS    <user>   **** ""
5 55 56 57 58 59
DONOR_HYDROGENS      STATIC     ATOMS    <user>   **** ""
4 26 53 41 54
ATOM$BLUE        STATIC     ATOMS    COLORGROUP SYSTEM
5 55 56 57 58 59
ATOM$RED        STATIC     ATOMS    COLORGROUP SYSTEM
4 26 53 41 54
