AV-unprocessed.smi:3309|AV-procd|sdf|12716|dock6
  -GOLD-   2272019 53D 1   1.00000     0.00000
 Structure written by MMmdl.
 41 42  0  0  0  0  0  0  0  0  2 V2000
  145.0609  136.0329  152.5648 O   0  0  0  0  0  0  0  0  0  0  0  0
  145.5019  136.1612  151.4226 C   0  0  0  0  0  0  0  0  0  0  0  0
  146.2490  137.4344  151.0132 C   0  0  0  0  0  0  0  0  0  0  0  0
  146.5060  138.3900  152.1916 C   0  0  0  0  0  0  0  0  0  0  0  0
  147.9509  138.5167  152.4645 N   0  3  0  0  0  0  0  0  0  0  0  0
  148.2638  139.0730  153.7950 C   0  0  0  0  0  0  0  0  0  0  0  0
  149.7694  138.9912  154.0862 C   0  0  0  0  0  0  0  0  0  0  0  0
  150.1671  139.9114  155.1341 N   0  0  0  0  0  0  0  0  0  0  0  0
  150.7593  139.6290  156.3472 C   0  0  0  0  0  0  0  0  0  0  0  0
  150.9517  140.8176  156.9913 C   0  0  0  0  0  0  0  0  0  0  0  0
  150.4421  141.7834  156.0790 C   0  0  0  0  0  0  0  0  0  0  0  0
  149.9745  141.2377  154.9675 N   0  0  0  0  0  0  0  0  0  0  0  0
  145.3602  135.2267  150.4703 N   0  0  0  0  0  0  0  0  0  0  0  0
  144.6793  133.9457  150.6431 C   0  0  0  0  0  0  0  0  0  0  0  0
  145.5434  132.9736  151.4695 C   0  0  0  0  0  0  0  0  0  0  0  0
  145.5516  131.6521  150.6990 C   0  0  0  0  0  0  0  0  0  0  0  0
  145.3929  132.0652  149.2394 C   0  0  0  0  0  0  0  0  0  0  0  0
  144.4290  133.2509  149.2894 C   0  0  0  0  0  0  0  0  0  0  0  0
  147.1997  137.1555  150.5555 H   0  0  0  0  0  0  0  0  0  0  0  0
  145.6653  137.9404  150.2431 H   0  0  0  0  0  0  0  0  0  0  0  0
  146.1020  139.3798  151.9728 H   0  0  0  0  0  0  0  0  0  0  0  0
  146.0030  138.0255  153.0889 H   0  0  0  0  0  0  0  0  0  0  0  0
  148.3744  137.6027  152.3905 H   0  0  0  0  0  0  0  0  0  0  0  0
  147.9290  140.1105  153.8345 H   0  0  0  0  0  0  0  0  0  0  0  0
  147.7056  138.5239  154.5546 H   0  0  0  0  0  0  0  0  0  0  0  0
  150.0439  137.9799  154.3891 H   0  0  0  0  0  0  0  0  0  0  0  0
  150.3459  139.2213  153.1887 H   0  0  0  0  0  0  0  0  0  0  0  0
  150.9923  138.6183  156.6491 H   0  0  0  0  0  0  0  0  0  0  0  0
  151.3914  140.9740  157.9653 H   0  0  0  0  0  0  0  0  0  0  0  0
  150.3991  142.8569  156.1902 H   0  0  0  0  0  0  0  0  0  0  0  0
  145.7483  135.4137  149.5570 H   0  0  0  0  0  0  0  0  0  0  0  0
  143.7262  134.1033  151.1516 H   0  0  0  0  0  0  0  0  0  0  0  0
  146.5676  133.3412  151.5507 H   0  0  0  0  0  0  0  0  0  0  0  0
  145.1663  132.8493  152.4852 H   0  0  0  0  0  0  0  0  0  0  0  0
  146.4558  131.0689  150.8749 H   0  0  0  0  0  0  0  0  0  0  0  0
  144.6983  131.0437  151.0025 H   0  0  0  0  0  0  0  0  0  0  0  0
  146.3557  132.3896  148.8424 H   0  0  0  0  0  0  0  0  0  0  0  0
  145.0280  131.2536  148.6092 H   0  0  0  0  0  0  0  0  0  0  0  0
  143.4035  132.8798  149.2625 H   0  0  0  0  0  0  0  0  0  0  0  0
  144.5511  133.9114  148.4297 H   0  0  0  0  0  0  0  0  0  0  0  0
  148.3566  139.1197  151.7629 H   0  0  0  0  0  0  0  0  0  0  0  0
  1  2  2  0  0  0  0
  2  3  1  0  0  0  0
  2 13  1  0  0  0  0
  3  4  1  0  0  0  0
  3 19  1  0  0  0  0
  3 20  1  0  0  0  0
  4  5  1  0  0  0  0
  4 21  1  0  0  0  0
  4 22  1  0  0  0  0
  5  6  1  0  0  0  0
  5 23  1  0  0  0  0
  5 41  1  0  0  0  0
  6  7  1  0  0  0  0
  6 24  1  0  0  0  0
  6 25  1  0  0  0  0
  7  8  1  0  0  0  0
  7 26  1  0  0  0  0
  7 27  1  0  0  0  0
  8 12  1  0  0  0  0
  8  9  1  0  0  0  0
  9 10  2  0  0  0  0
  9 28  1  0  0  0  0
 10 11  1  0  0  0  0
 10 29  1  0  0  0  0
 11 12  2  0  0  0  0
 11 30  1  0  0  0  0
 13 14  1  0  0  0  0
 13 31  1  0  0  0  0
 14 18  1  0  0  0  0
 14 15  1  0  0  0  0
 14 32  1  0  0  0  0
 15 16  1  0  0  0  0
 15 33  1  0  0  0  0
 15 34  1  0  0  0  0
 16 17  1  0  0  0  0
 16 35  1  0  0  0  0
 16 36  1  0  0  0  0
 17 18  1  0  0  0  0
 17 37  1  0  0  0  0
 17 38  1  0  0  0  0
 18 39  1  0  0  0  0
 18 40  1  0  0  0  0
M  CHG  1   5   1
M  END
> <s_m_source_file>
AV-unprocessed.smi

> <i_m_source_file_index>
3309

> <i_lp_mmshare_version>
43012

> <i_f3d_flags>
0

> <s_epik_input>
W0NIMl0xW0NIMl1bQ0gyXVtDSDJdW0NIXTFbTkhdQyg9TylbQ0gyXVtDSDJdW05IXVtDSDJdW0NIMl1uMltjSF1bY0hdW2NIXW4y

> <s_epik_cmdline>
J2VwaWtfcHl0aG9uJywgJy1waCcsICc3LjAnLCAnLXRuJywgJzgnLCAnLW1hJywgJzIwMCcsICctbWV0YWxfYmluZGluZycsICctaW1hZScsICc8aW5maWxlLm1hZT4nLCAnLW9tYWUnLCAnPG91dGZpbGUubWFlPic=

> <r_lp_tautomer_probability>
1

> <r_epik_Ionization_Penalty>
0.00584123

> <r_epik_Ionization_Penalty_Charging>
0.00583842

> <r_epik_Ionization_Penalty_Neutral>
2.81118e-06

> <r_epik_State_Penalty>
-0

> <r_epik_Charging_Adjusted_Penalty>
0.00583842

> <i_epik_Tot_Q>
1

> <i_epik_Tot_abs_Q>
1

> <r_epik_Metal_State_Penalty>
-0

> <b_epik_Metal_Only>
0

> <s_lp_Force_Field>
OPLS_2005

> <r_lp_Energy>
18.8454

> <b_lp_Chiralities_Consistent>
1

> <s_lp_Variant>
AV-unprocessed.smi:3309-1

> <Gold.Version>
5.8.1

> <Gold.Id.Protein>
6NUR|6NUR_protein|mol2

> <Gold.PLP.Fitness>
49.4461

> <Gold.PLP.PLP>
-36.0137

> <Gold.PLP.part.hbond>
-4.0000

> <Gold.PLP.part.metal>
0.0000

> <Gold.PLP.part.buried>
3.4699

> <Gold.PLP.part.nonpolar>
-35.1419

> <Gold.PLP.part.repulsive>
0.3952

> <Gold.PLP.ligand.clash>
0.0000

> <Gold.PLP.ligand.torsion>
0.7475

> <Gold.PLP.Chemscore.Hbond>
3.9456

> <Gold.PLP.Chemscore.CHOScore>
1.0000

> <Gold.PLP.Chemscore.Metal>
0.0000

> <Gold.Chemscore.Hbonds>
donor molecule, donor type, donor heavy atom, donor atom, acceptor molecule, acceptor atom, score
      L1  H     5    23       P1  7948  2.00
      L1  H     5    41       P1  7957  1.00
      L1  H    13    31       P1  7921  0.98
      L1  C    11    30       P1  8028  1.00

> <Gold.PLP.Chemscore.Internal.Correction>
0.0907

> <Gold.Rescore>
     Score         DG    S(hbond)    S(metal)    S(lipo)     H(rot)  DE(clash)    DE(int)     intcor
     17.45     -19.68       2.69        0.00      94.06       2.27       1.39       0.84       ----

> <Gold.Chemscore.Fitness>
17.4545

> <Gold.Chemscore.DG>
-19.6844

> <Gold.Chemscore.ZeroCoef>
-5.4800

> <Gold.Chemscore.Hbond>
2.6946

> <Gold.Chemscore.Metal>
0.0000

> <Gold.Chemscore.Lipo>
94.0590

> <Gold.Chemscore.Internal_Hbond>
0.0000

> <Gold.Chemscore.DEClash>
1.3876

> <Gold.Chemscore.DEInternal>
0.8423

> <Gold.Chemscore.Rot>
2.2658

> <Gold.Chemscore.Internal.Correction>
   9.000000E+99

> <Gold.Chemscore.Hbonds>
donor molecule, donor type, donor heavy atom, donor atom, acceptor molecule, acceptor atom, score
      L1  H     5    23       P1  7948  0.96
      L1  H     5    41       P1  7957  0.92
      L1  H    13    31       P1  7921  0.86

> <Gold.Chemscore.Hbond.Weighted>
-9.0000

> <Gold.Chemscore.Metal.Weighted>
-0.0000

> <Gold.Chemscore.Lipo.Weighted>
-11.0049

> <Gold.Chemscore.Internal_Hbond.Weighted>
0.0000

> <Gold.Chemscore.DEClash.Weighted>
1.3876

> <Gold.Chemscore.DEInternal.Weighted>
0.8423

> <Gold.Chemscore.Rot.Weighted>
5.8005

> <Gold.Chemscore.Internal.Correction.Weighted>
   9.000000E+99

> <Gold.Protein.RotatedTorsions>
[ 6907 6896 6895 6894 ] final -113.87 input  -60.11 | X-H torsion
[ 7974 7965 7964 7962 ] final   56.61 input  175.53 | X-H torsion
[ 8008 7997 7996 7995 ] final -167.31 input   59.86 | X-H torsion
[ 10167 10162 10161 10158 ] final -159.21 input  -65.29 | X-H torsion
[ 10718 10713 10712 10709 ] final   40.06 input   66.30 | X-H torsion
[ 10763 10752 10751 10750 ] final  163.46 input  -60.55 | X-H torsion
[ 11005 11000 10999 10996 ] final -171.86 input  -57.11 | X-H torsion

> <Gold.Protein.ActiveResidues>
 VAL166  LYS551  ARG553  GLY616  TRP617  ASP618  TYR619  PRO620  LYS621  CYS622 
 ASP623  PHE694  ASN695  SER759  ASP760  ASP761  ALA762  ILE779  LEU786  VAL792 
 PHE793  MET794  SER795  GLU796  ALA797  LYS798  CYS799  TRP800  GLU811  SER814 

> <Gold.Protein.RotatedAtoms>
  150.7861  133.8882  159.3305 H   0  0  0  0  0  0  0  0  0  0  0  0  # atno 6907 bound_to 6896
  151.6732  135.0971  160.0211 H   0  0  0  0  0  0  0  0  0  0  0  0  # atno 6908 bound_to 6896
  152.3925  133.6660  159.6284 H   0  0  0  0  0  0  0  0  0  0  0  0  # atno 6909 bound_to 6896
  145.9379  139.3863  143.0381 H   0  0  0  0  0  0  0  0  0  0  0  0  # atno 7974 bound_to 7965
  155.8759  140.1001  157.1518 H   0  0  0  0  0  0  0  0  0  0  0  0  # atno 8008 bound_to 7997
  154.4001  140.1338  156.4199 H   0  0  0  0  0  0  0  0  0  0  0  0  # atno 8009 bound_to 7997
  155.7698  140.3461  155.5243 H   0  0  0  0  0  0  0  0  0  0  0  0  # atno 8010 bound_to 7997
  139.6632  143.9875  152.2239 H   0  0  0  0  0  0  0  0  0  0  0  0  # atno 10167 bound_to 10162
  157.3777  130.7736  149.7168 H   0  0  0  0  0  0  0  0  0  0  0  0  # atno 10718 bound_to 10713
  154.2941  135.2760  155.2641 H   0  0  0  0  0  0  0  0  0  0  0  0  # atno 10763 bound_to 10752
  154.5107  135.5783  153.6606 H   0  0  0  0  0  0  0  0  0  0  0  0  # atno 10764 bound_to 10752
  152.9910  135.6180  154.3107 H   0  0  0  0  0  0  0  0  0  0  0  0  # atno 10765 bound_to 10752
  140.5035  134.5870  157.4995 H   0  0  0  0  0  0  0  0  0  0  0  0  # atno 11005 bound_to 11000
  145.8339  140.9616  143.0834 LP  0  0  0  0  0  0  0  0  0  0  0  0  # atno 17320 bound_to 7965
  144.6774  140.0198  143.7484 LP  0  0  0  0  0  0  0  0  0  0  0  0  # atno 17321 bound_to 7965
  139.9620  144.6552  150.8071 LP  0  0  0  0  0  0  0  0  0  0  0  0  # atno 17342 bound_to 10162
  140.7589  143.3116  151.2830 LP  0  0  0  0  0  0  0  0  0  0  0  0  # atno 17343 bound_to 10162
  155.9769  130.4070  150.3749 LP  0  0  0  0  0  0  0  0  0  0  0  0  # atno 17370 bound_to 10713
  157.1848  131.0401  151.2730 LP  0  0  0  0  0  0  0  0  0  0  0  0  # atno 17371 bound_to 10713
  139.9699  134.7309  156.0061 LP  0  0  0  0  0  0  0  0  0  0  0  0  # atno 17394 bound_to 11000
  141.1423  133.6562  156.3765 LP  0  0  0  0  0  0  0  0  0  0  0  0  # atno 17395 bound_to 11000

$$$$
