AV-unprocessed.smi:2480|AV-procd|sdf|9769|dock3
  -GOLD-   2272013413D 1   1.00000     0.00000
 Structure written by MMmdl.
 33 34  0  0  0  0  0  0  0  0  3 V2000
  151.2685  142.4871  157.7955 O   0  0  0  0  0  0  0  0  0  0  0  0
  151.7706  141.3750  157.9431 C   0  0  0  0  0  0  0  0  0  0  0  0
  151.4695  140.2893  157.2041 N   0  0  0  0  0  0  0  0  0  0  0  0
  150.5880  140.1663  156.0924 C   0  0  0  0  0  0  0  0  0  0  0  0
  149.5629  141.1076  155.8284 C   0  0  0  0  0  0  0  0  0  0  0  0
  148.7379  140.9210  154.7035 C   0  0  0  0  0  0  0  0  0  0  0  0
  148.8649  139.8811  153.8563 N   0  0  0  0  0  0  0  0  0  0  0  0
  149.8282  138.9737  154.1165 C   0  0  0  0  0  0  0  0  0  0  0  0
  150.7098  139.0503  155.2191 C   0  0  0  0  0  0  0  0  0  0  0  0
  151.7183  137.9903  155.4095 N   0  3  0  0  0  0  0  0  0  0  0  0
  152.7544  138.2623  156.0080 O   0  0  0  0  0  0  0  0  0  0  0  0
  151.4541  136.8735  154.9777 O   0  5  0  0  0  0  0  0  0  0  0  0
  152.7004  141.1520  158.8910 N   0  0  0  0  0  0  0  0  0  0  0  0
  153.2581  142.0968  159.8621 C   0  0  2  0  0  0  0  0  0  0  0  0
  153.9351  141.3566  161.0092 C   0  0  0  0  0  0  0  0  0  0  0  0
  153.7833  141.6864  162.3032 C   0  0  0  0  0  0  0  0  0  0  0  0
  152.9266  142.8458  162.7763 C   0  0  0  0  0  0  0  0  0  0  0  0
  152.5650  143.8034  161.6272 C   0  0  0  0  0  0  0  0  0  0  0  0
  152.1414  143.0364  160.3654 C   0  0  0  0  0  0  0  0  0  0  0  0
  152.0132  139.4634  157.4098 H   0  0  0  0  0  0  0  0  0  0  0  0
  149.3875  141.9603  156.4656 H   0  0  0  0  0  0  0  0  0  0  0  0
  147.9514  141.6269  154.4802 H   0  0  0  0  0  0  0  0  0  0  0  0
  149.8884  138.1485  153.4221 H   0  0  0  0  0  0  0  0  0  0  0  0
  153.0441  140.2050  158.9627 H   0  0  0  0  0  0  0  0  0  0  0  0
  154.0207  142.7137  159.3836 H   0  0  0  0  0  0  0  0  0  0  0  0
  154.5700  140.5223  160.7480 H   0  0  0  0  0  0  0  0  0  0  0  0
  154.2776  141.1037  163.0665 H   0  0  0  0  0  0  0  0  0  0  0  0
  152.0213  142.4362  163.2257 H   0  0  0  0  0  0  0  0  0  0  0  0
  153.4544  143.3890  163.5607 H   0  0  0  0  0  0  0  0  0  0  0  0
  151.7721  144.4816  161.9433 H   0  0  0  0  0  0  0  0  0  0  0  0
  153.4275  144.4280  161.3908 H   0  0  0  0  0  0  0  0  0  0  0  0
  151.8600  143.7355  159.5772 H   0  0  0  0  0  0  0  0  0  0  0  0
  151.2452  142.4582  160.5962 H   0  0  0  0  0  0  0  0  0  0  0  0
  1  2  2  0  0  0  0
  2  3  1  0  0  0  0
  2 13  1  0  0  0  0
  3  4  1  0  0  0  0
  3 20  1  0  0  0  0
  4  9  1  0  0  0  0
  4  5  2  0  0  0  0
  5  6  1  0  0  0  0
  5 21  1  0  0  0  0
  6  7  2  0  0  0  0
  6 22  1  0  0  0  0
  7  8  1  0  0  0  0
  8  9  2  0  0  0  0
  8 23  1  0  0  0  0
  9 10  1  0  0  0  0
 10 11  2  0  0  0  0
 10 12  1  0  0  0  0
 13 14  1  0  0  0  0
 13 24  1  0  0  0  0
 14 19  1  0  0  0  0
 14 15  1  0  0  0  0
 14 25  1  0  0  0  0
 15 16  2  0  0  0  0
 15 26  1  0  0  0  0
 16 17  1  0  0  0  0
 16 27  1  0  0  0  0
 17 18  1  0  0  0  0
 17 28  1  0  0  0  0
 17 29  1  0  0  0  0
 18 19  1  0  0  0  0
 18 30  1  0  0  0  0
 18 31  1  0  0  0  0
 19 32  1  0  0  0  0
 19 33  1  0  0  0  0
M  CHG  1  10   1
M  CHG  1  12  -1
M  END
> <s_m_source_file>
AV-unprocessed.smi

> <i_m_source_file_index>
2480

> <i_lp_mmshare_version>
43012

> <i_f3d_flags>
0

> <s_epik_input>
W0NIMl0xW0NIMl1bQ0gyXVtDSF09W0NIXVtDQEhdMVtOSF1DKD1PKVtOSF1jMltjSF1bY0hdbltjSF1jMltOK10oPU8pW08tXQ==

> <s_epik_cmdline>
J2VwaWtfcHl0aG9uJywgJy1waCcsICc3LjAnLCAnLXRuJywgJzgnLCAnLW1hJywgJzIwMCcsICctbWV0YWxfYmluZGluZycsICctaW1hZScsICc8aW5maWxlLm1hZT4nLCAnLW9tYWUnLCAnPG91dGZpbGUubWFlPic=

> <r_lp_tautomer_probability>
1

> <r_epik_Ionization_Penalty>
0.000149203

> <r_epik_Ionization_Penalty_Charging>
0

> <r_epik_Ionization_Penalty_Neutral>
0.000149203

> <r_epik_State_Penalty>
-0

> <r_epik_Charging_Adjusted_Penalty>
0

> <i_epik_Tot_Q>
0

> <i_epik_Tot_abs_Q>
2

> <r_epik_Metal_State_Penalty>
-0

> <b_epik_Metal_Only>
0

> <s_lp_Force_Field>
OPLS_2005

> <r_lp_Energy>
27.2011

> <b_lp_Chiralities_Consistent>
1

> <s_lp_Variant>
AV-unprocessed.smi:2480-1

> <Gold.Version>
5.8.1

> <Gold.Id.Protein>
6NUR|6NUR_protein|mol2

> <Gold.PLP.Fitness>
46.9818

> <Gold.PLP.PLP>
-39.7460

> <Gold.PLP.part.hbond>
-2.0000

> <Gold.PLP.part.metal>
0.0000

> <Gold.PLP.part.buried>
-2.9951

> <Gold.PLP.part.nonpolar>
-36.4895

> <Gold.PLP.part.repulsive>
3.0997

> <Gold.PLP.ligand.clash>
0.0000

> <Gold.PLP.ligand.torsion>
0.6678

> <Gold.PLP.Chemscore.Hbond>
1.9913

> <Gold.PLP.Chemscore.CHOScore>
0.8628

> <Gold.PLP.Chemscore.Metal>
0.0000

> <Gold.Chemscore.Hbonds>
donor molecule, donor type, donor heavy atom, donor atom, acceptor molecule, acceptor atom, score
      P1  H 10752 10763       L1    12  0.99
      L1  C     8    23       P1  7948  0.82

> <Gold.PLP.Chemscore.Internal.Correction>
0.0091

> <Gold.Rescore>
     Score         DG    S(hbond)    S(metal)    S(lipo)     H(rot)  DE(clash)    DE(int)     intcor
     14.36     -20.89       1.78        0.00     102.72       1.00       1.68       4.84       ----

> <Gold.Chemscore.Fitness>
14.3644

> <Gold.Chemscore.DG>
-20.8880

> <Gold.Chemscore.ZeroCoef>
-5.4800

> <Gold.Chemscore.Hbond>
1.7813

> <Gold.Chemscore.Metal>
0.0000

> <Gold.Chemscore.Lipo>
102.7217

> <Gold.Chemscore.Internal_Hbond>
0.0000

> <Gold.Chemscore.DEClash>
1.6832

> <Gold.Chemscore.DEInternal>
4.8405

> <Gold.Chemscore.Rot>
1.0000

> <Gold.Chemscore.Internal.Correction>
   9.000000E+99

> <Gold.Chemscore.Hbonds>
donor molecule, donor type, donor heavy atom, donor atom, acceptor molecule, acceptor atom, score
      P1  H  7997  8010       L1    11  0.02
      P1  H 10752 10763       L1    12  0.89

> <Gold.Chemscore.Hbond.Weighted>
-5.9496

> <Gold.Chemscore.Metal.Weighted>
-0.0000

> <Gold.Chemscore.Lipo.Weighted>
-12.0184

> <Gold.Chemscore.Internal_Hbond.Weighted>
0.0000

> <Gold.Chemscore.DEClash.Weighted>
1.6832

> <Gold.Chemscore.DEInternal.Weighted>
4.8405

> <Gold.Chemscore.Rot.Weighted>
2.5600

> <Gold.Chemscore.Internal.Correction.Weighted>
   9.000000E+99

> <Gold.Protein.RotatedTorsions>
[ 6907 6896 6895 6894 ] final  109.15 input  -60.11 | X-H torsion
[ 7974 7965 7964 7962 ] final -104.70 input  175.53 | X-H torsion
[ 8008 7997 7996 7995 ] final   91.17 input   59.86 | X-H torsion
[ 10167 10162 10161 10158 ] final  -72.32 input  -65.29 | X-H torsion
[ 10718 10713 10712 10709 ] final -148.96 input   66.30 | X-H torsion
[ 10763 10752 10751 10750 ] final   42.19 input  -60.55 | X-H torsion
[ 11005 11000 10999 10996 ] final -133.33 input  -57.11 | X-H torsion

> <Gold.Protein.ActiveResidues>
 VAL166  LYS551  ARG553  GLY616  TRP617  ASP618  TYR619  PRO620  LYS621  CYS622 
 ASP623  PHE694  ASN695  SER759  ASP760  ASP761  ALA762  ILE779  LEU786  VAL792 
 PHE793  MET794  SER795  GLU796  ALA797  LYS798  CYS799  TRP800  GLU811  SER814 

> <Gold.Protein.RotatedAtoms>
  152.5080  133.8986  159.7429 H   0  0  0  0  0  0  0  0  0  0  0  0  # atno 6907 bound_to 6896
  150.9407  133.6651  159.2798 H   0  0  0  0  0  0  0  0  0  0  0  0  # atno 6908 bound_to 6896
  151.3963  135.0969  159.9595 H   0  0  0  0  0  0  0  0  0  0  0  0  # atno 6909 bound_to 6896
  145.2398  140.9201  143.3156 H   0  0  0  0  0  0  0  0  0  0  0  0  # atno 7974 bound_to 7965
  156.0206  140.3341  155.7034 H   0  0  0  0  0  0  0  0  0  0  0  0  # atno 8008 bound_to 7997
  155.6028  140.0657  157.2746 H   0  0  0  0  0  0  0  0  0  0  0  0  # atno 8009 bound_to 7997
  154.4314  140.1807  156.1179 H   0  0  0  0  0  0  0  0  0  0  0  0  # atno 8010 bound_to 7997
  140.5202  143.2332  151.7443 H   0  0  0  0  0  0  0  0  0  0  0  0  # atno 10167 bound_to 10162
  156.4270  130.8056  151.2282 H   0  0  0  0  0  0  0  0  0  0  0  0  # atno 10718 bound_to 10713
  152.9889  135.6139  154.2909 H   0  0  0  0  0  0  0  0  0  0  0  0  # atno 10763 bound_to 10752
  154.2634  135.2781  155.2770 H   0  0  0  0  0  0  0  0  0  0  0  0  # atno 10764 bound_to 10752
  154.5185  135.5821  153.6719 H   0  0  0  0  0  0  0  0  0  0  0  0  # atno 10765 bound_to 10752
  140.9090  134.1592  157.4404 H   0  0  0  0  0  0  0  0  0  0  0  0  # atno 11005 bound_to 11000
  144.9599  139.3991  143.6361 LP  0  0  0  0  0  0  0  0  0  0  0  0  # atno 17320 bound_to 7965
  146.3331  139.8647  142.8850 LP  0  0  0  0  0  0  0  0  0  0  0  0  # atno 17321 bound_to 7965
  139.4921  144.4265  151.9919 LP  0  0  0  0  0  0  0  0  0  0  0  0  # atno 17342 bound_to 10162
  140.3362  144.3258  150.5977 LP  0  0  0  0  0  0  0  0  0  0  0  0  # atno 17343 bound_to 10162
  157.7508  131.0210  150.3733 LP  0  0  0  0  0  0  0  0  0  0  0  0  # atno 17370 bound_to 10713
  156.4062  130.3925  149.6924 LP  0  0  0  0  0  0  0  0  0  0  0  0  # atno 17371 bound_to 10713
  139.8754  134.9928  156.5615 LP  0  0  0  0  0  0  0  0  0  0  0  0  # atno 17394 bound_to 11000
  140.8134  133.8411  155.8830 LP  0  0  0  0  0  0  0  0  0  0  0  0  # atno 17395 bound_to 11000

$$$$
