AV-unprocessed.smi:712|AV-procd|sdf|3470|dock6
  -GOLD-   22720 0463D 1   1.00000     0.00000
 Structure written by MMmdl.
 51 52  0  0  0  0  0  0  0  0  2 V2000
  151.9265  143.9792  160.7861 C   0  0  0  0  0  0  0  0  0  0  0  0
  151.8574  143.0608  159.5834 C   0  0  0  0  0  0  0  0  0  0  0  0
  151.0124  143.3838  158.4524 C   0  0  0  0  0  0  0  0  0  0  0  0
  150.9776  142.5485  157.4027 C   0  0  0  0  0  0  0  0  0  0  0  0
  151.7377  141.3653  157.3687 N   0  0  0  0  0  0  0  0  0  0  0  0
  151.6198  140.5218  156.1676 C   0  0  0  0  0  0  0  0  0  0  0  0
  150.1630  140.2677  155.7569 C   0  0  0  0  0  0  0  0  0  0  0  0
  149.7585  140.6000  154.6421 O   0  0  0  0  0  0  0  0  0  0  0  0
  149.3870  139.6671  156.6716 N   0  0  0  0  0  0  0  0  0  0  0  0
  147.9660  139.3794  156.5075 C   0  0  0  0  0  0  0  0  0  0  0  0
  147.7262  137.8977  156.1647 C   0  0  2  0  0  0  0  0  0  0  0  0
  148.4445  137.4894  154.8592 C   0  0  0  0  0  0  0  0  0  0  0  0
  148.1312  136.0896  154.4697 N   0  3  1  0  0  0  0  0  0  0  0  0
  148.8635  135.0446  155.2363 C   0  0  0  0  0  0  0  0  0  0  0  0
  149.6685  134.0830  154.3348 C   0  0  0  0  0  0  0  0  0  0  0  0
  148.7538  133.2518  153.4196 C   0  0  0  0  0  0  0  0  0  0  0  0
  150.5543  133.1611  155.1862 C   0  0  0  0  0  0  0  0  0  0  0  0
  146.6635  135.8782  154.4334 C   0  0  0  0  0  0  0  0  0  0  0  0
  146.0065  136.3212  155.7523 C   0  0  0  0  0  0  0  0  0  0  0  0
  146.3278  137.6836  155.9979 O   0  0  0  0  0  0  0  0  0  0  0  0
  152.5487  140.9980  158.4067 C   0  0  0  0  0  0  0  0  0  0  0  0
  153.2079  139.9575  158.3869 O   0  0  0  0  0  0  0  0  0  0  0  0
  152.5821  141.9207  159.5474 C   0  0  0  0  0  0  0  0  0  0  0  0
  151.3640  144.8971  160.6143 H   0  0  0  0  0  0  0  0  0  0  0  0
  152.9609  144.2498  161.0001 H   0  0  0  0  0  0  0  0  0  0  0  0
  151.5113  143.4842  161.6643 H   0  0  0  0  0  0  0  0  0  0  0  0
  150.4132  144.2827  158.4510 H   0  0  0  0  0  0  0  0  0  0  0  0
  150.3635  142.7279  156.5321 H   0  0  0  0  0  0  0  0  0  0  0  0
  152.1356  140.9773  155.3212 H   0  0  0  0  0  0  0  0  0  0  0  0
  152.1278  139.5698  156.3348 H   0  0  0  0  0  0  0  0  0  0  0  0
  149.8050  139.4169  157.5562 H   0  0  0  0  0  0  0  0  0  0  0  0
  147.4038  139.6679  157.3974 H   0  0  0  0  0  0  0  0  0  0  0  0
  147.5987  140.0076  155.6955 H   0  0  0  0  0  0  0  0  0  0  0  0
  148.0881  137.2905  156.9959 H   0  0  0  0  0  0  0  0  0  0  0  0
  148.1153  138.1425  154.0495 H   0  0  0  0  0  0  0  0  0  0  0  0
  149.5193  137.6411  154.9481 H   0  0  0  0  0  0  0  0  0  0  0  0
  149.5171  135.5110  155.9731 H   0  0  0  0  0  0  0  0  0  0  0  0
  148.1487  134.4500  155.8072 H   0  0  0  0  0  0  0  0  0  0  0  0
  150.3398  134.6613  153.7009 H   0  0  0  0  0  0  0  0  0  0  0  0
  148.0567  132.6460  153.9996 H   0  0  0  0  0  0  0  0  0  0  0  0
  149.3368  132.5767  152.7924 H   0  0  0  0  0  0  0  0  0  0  0  0
  148.1691  133.8870  152.7537 H   0  0  0  0  0  0  0  0  0  0  0  0
  149.9556  132.5338  155.8479 H   0  0  0  0  0  0  0  0  0  0  0  0
  151.2417  133.7376  155.8061 H   0  0  0  0  0  0  0  0  0  0  0  0
  151.1549  132.5025  154.5579 H   0  0  0  0  0  0  0  0  0  0  0  0
  146.2529  136.4676  153.6125 H   0  0  0  0  0  0  0  0  0  0  0  0
  146.4261  134.8377  154.2095 H   0  0  0  0  0  0  0  0  0  0  0  0
  144.9231  136.2239  155.6825 H   0  0  0  0  0  0  0  0  0  0  0  0
  146.3274  135.6981  156.5882 H   0  0  0  0  0  0  0  0  0  0  0  0
  153.2132  141.6732  160.3888 H   0  0  0  0  0  0  0  0  0  0  0  0
  148.4460  135.9789  153.5160 H   0  0  0  0  0  0  0  0  0  0  0  0
  1  2  1  0  0  0  0
  1 24  1  0  0  0  0
  1 25  1  0  0  0  0
  1 26  1  0  0  0  0
  2 23  2  0  0  0  0
  2  3  1  0  0  0  0
  3  4  2  0  0  0  0
  3 27  1  0  0  0  0
  4  5  1  0  0  0  0
  4 28  1  0  0  0  0
  5  6  1  0  0  0  0
  5 21  1  0  0  0  0
  6  7  1  0  0  0  0
  6 29  1  0  0  0  0
  6 30  1  0  0  0  0
  7  8  2  0  0  0  0
  7  9  1  0  0  0  0
  9 10  1  0  0  0  0
  9 31  1  0  0  0  0
 10 11  1  0  0  0  0
 10 32  1  0  0  0  0
 10 33  1  0  0  0  0
 11 20  1  0  0  0  0
 11 12  1  0  0  0  0
 11 34  1  0  0  0  0
 12 13  1  0  0  0  0
 12 35  1  0  0  0  0
 12 36  1  0  0  0  0
 13 14  1  0  0  0  0
 13 18  1  0  0  0  0
 13 51  1  0  0  0  0
 14 15  1  0  0  0  0
 14 37  1  0  0  0  0
 14 38  1  0  0  0  0
 15 16  1  0  0  0  0
 15 17  1  0  0  0  0
 15 39  1  0  0  0  0
 16 40  1  0  0  0  0
 16 41  1  0  0  0  0
 16 42  1  0  0  0  0
 17 43  1  0  0  0  0
 17 44  1  0  0  0  0
 17 45  1  0  0  0  0
 18 19  1  0  0  0  0
 18 46  1  0  0  0  0
 18 47  1  0  0  0  0
 19 20  1  0  0  0  0
 19 48  1  0  0  0  0
 19 49  1  0  0  0  0
 21 22  2  0  0  0  0
 21 23  1  0  0  0  0
 23 50  1  0  0  0  0
M  CHG  1  13   1
M  END
> <s_m_source_file>
AV-unprocessed.smi

> <i_m_source_file_index>
712

> <i_lp_mmshare_version>
43012

> <i_f3d_flags>
0

> <s_epik_input>
W0NIM11jMVtjSF1bY0hdbihjKD1PKVtjSF0xKVtDSDJdQyg9TylbTkhdW0NIMl1bQ0BASF0yW0NIMl1OKFtDSDJdW0NIMl1PMilbQ0gyXVtDSF0oW0NIM10pW0NIM10=

> <s_epik_cmdline>
J2VwaWtfcHl0aG9uJywgJy1waCcsICc3LjAnLCAnLXRuJywgJzgnLCAnLW1hJywgJzIwMCcsICctbWV0YWxfYmluZGluZycsICctaW1hZScsICc8aW5maWxlLm1hZT4nLCAnLW9tYWUnLCAnPG91dGZpbGUubWFlPic=

> <r_lp_tautomer_probability>
1

> <r_epik_Ionization_Penalty>
0.0975935

> <r_epik_Ionization_Penalty_Charging>
0.0975934

> <r_epik_Ionization_Penalty_Neutral>
6.27044e-08

> <r_epik_State_Penalty>
0.0877056

> <r_epik_Charging_Adjusted_Penalty>
0.185299

> <i_epik_Tot_Q>
1

> <i_epik_Tot_abs_Q>
1

> <r_epik_Metal_State_Penalty>
0.0877109

> <b_epik_Metal_Only>
0

> <s_lp_Force_Field>
OPLS_2005

> <r_lp_Energy>
30.0943

> <b_lp_Chiralities_Consistent>
1

> <s_lp_Variant>
AV-unprocessed.smi:712-3

> <Gold.Version>
5.8.1

> <Gold.Id.Protein>
6NUR|6NUR_protein|mol2

> <Gold.PLP.Fitness>
46.8219

> <Gold.PLP.PLP>
-34.4201

> <Gold.PLP.part.hbond>
-3.0000

> <Gold.PLP.part.metal>
0.0000

> <Gold.PLP.part.buried>
-4.3150

> <Gold.PLP.part.nonpolar>
-26.5457

> <Gold.PLP.part.repulsive>
0.1329

> <Gold.PLP.ligand.clash>
0.0000

> <Gold.PLP.ligand.torsion>
0.9763

> <Gold.PLP.Chemscore.Hbond>
3.7520

> <Gold.PLP.Chemscore.CHOScore>
0.9998

> <Gold.PLP.Chemscore.Metal>
0.0000

> <Gold.Chemscore.Hbonds>
donor molecule, donor type, donor heavy atom, donor atom, acceptor molecule, acceptor atom, score
      L1  H    13    51       P1  7948  2.00
      P1  H  7989  7998       L1     8  0.46
      P1  H  7997  8010       L1    22  1.00
      L1  C     4    28       P1  8028  0.76

> <Gold.PLP.Chemscore.Internal.Correction>
0.0989

> <Gold.Rescore>
     Score         DG    S(hbond)    S(metal)    S(lipo)     H(rot)  DE(clash)    DE(int)     intcor
     16.21     -17.27       2.07        0.00      83.11       1.89       0.02       1.04       ----

> <Gold.Chemscore.Fitness>
16.2132

> <Gold.Chemscore.DG>
-17.2707

> <Gold.Chemscore.ZeroCoef>
-5.4800

> <Gold.Chemscore.Hbond>
2.0652

> <Gold.Chemscore.Metal>
0.0000

> <Gold.Chemscore.Lipo>
83.1088

> <Gold.Chemscore.Internal_Hbond>
0.0000

> <Gold.Chemscore.DEClash>
0.0174

> <Gold.Chemscore.DEInternal>
1.0400

> <Gold.Chemscore.Rot>
1.8871

> <Gold.Chemscore.Internal.Correction>
   9.000000E+99

> <Gold.Chemscore.Hbonds>
donor molecule, donor type, donor heavy atom, donor atom, acceptor molecule, acceptor atom, score
      L1  H    13    51       P1  7948  1.00
      P1  H  7989  7998       L1     8  0.21
      P1  H  7997  8010       L1    22  0.79

> <Gold.Chemscore.Hbond.Weighted>
-6.8979

> <Gold.Chemscore.Metal.Weighted>
-0.0000

> <Gold.Chemscore.Lipo.Weighted>
-9.7237

> <Gold.Chemscore.Internal_Hbond.Weighted>
0.0000

> <Gold.Chemscore.DEClash.Weighted>
0.0174

> <Gold.Chemscore.DEInternal.Weighted>
1.0400

> <Gold.Chemscore.Rot.Weighted>
4.8309

> <Gold.Chemscore.Internal.Correction.Weighted>
   9.000000E+99

> <Gold.Protein.RotatedTorsions>
[ 6907 6896 6895 6894 ] final  148.10 input  -60.11 | X-H torsion
[ 7974 7965 7964 7962 ] final   10.41 input  175.53 | X-H torsion
[ 8008 7997 7996 7995 ] final   26.62 input   59.86 | X-H torsion
[ 10167 10162 10161 10158 ] final   77.65 input  -65.29 | X-H torsion
[ 10718 10713 10712 10709 ] final  117.43 input   66.30 | X-H torsion
[ 10763 10752 10751 10750 ] final -160.12 input  -60.55 | X-H torsion
[ 11005 11000 10999 10996 ] final  166.68 input  -57.11 | X-H torsion

> <Gold.Protein.ActiveResidues>
 VAL166  LYS551  ARG553  GLY616  TRP617  ASP618  TYR619  PRO620  LYS621  CYS622 
 ASP623  PHE694  ASN695  SER759  ASP760  ASP761  ALA762  ILE779  LEU786  VAL792 
 PHE793  MET794  SER795  GLU796  ALA797  LYS798  CYS799  TRP800  GLU811  SER814 

> <Gold.Protein.RotatedAtoms>
  152.1459  133.4492  159.4789 H   0  0  0  0  0  0  0  0  0  0  0  0  # atno 6907 bound_to 6896
  150.6890  134.2248  159.4420 H   0  0  0  0  0  0  0  0  0  0  0  0  # atno 6908 bound_to 6896
  152.0142  134.9859  160.0619 H   0  0  0  0  0  0  0  0  0  0  0  0  # atno 6909 bound_to 6896
  146.2389  139.9638  142.8455 H   0  0  0  0  0  0  0  0  0  0  0  0  # atno 7974 bound_to 7965
  155.0301  140.3157  155.4761 H   0  0  0  0  0  0  0  0  0  0  0  0  # atno 8008 bound_to 7997
  156.2875  140.2182  156.5364 H   0  0  0  0  0  0  0  0  0  0  0  0  # atno 8009 bound_to 7997
  154.7378  140.0476  157.0772 H   0  0  0  0  0  0  0  0  0  0  0  0  # atno 8010 bound_to 7997
  139.9793  144.5838  150.7915 H   0  0  0  0  0  0  0  0  0  0  0  0  # atno 10167 bound_to 10162
  157.6097  131.1037  150.7614 H   0  0  0  0  0  0  0  0  0  0  0  0  # atno 10718 bound_to 10713
  154.7418  135.3070  154.8715 H   0  0  0  0  0  0  0  0  0  0  0  0  # atno 10763 bound_to 10752
  153.9528  135.6762  153.4748 H   0  0  0  0  0  0  0  0  0  0  0  0  # atno 10764 bound_to 10752
  153.1016  135.4909  154.8802 H   0  0  0  0  0  0  0  0  0  0  0  0  # atno 10765 bound_to 10752
  140.2689  134.7842  157.3658 H   0  0  0  0  0  0  0  0  0  0  0  0  # atno 11005 bound_to 11000
  145.1746  140.9737  143.4302 LP  0  0  0  0  0  0  0  0  0  0  0  0  # atno 17320 bound_to 7965
  144.9998  139.3610  143.6173 LP  0  0  0  0  0  0  0  0  0  0  0  0  # atno 17321 bound_to 7965
  140.7495  143.2939  151.3257 LP  0  0  0  0  0  0  0  0  0  0  0  0  # atno 17342 bound_to 10162
  139.6422  144.0518  152.2563 LP  0  0  0  0  0  0  0  0  0  0  0  0  # atno 17343 bound_to 10162
  156.7994  130.4916  149.5372 LP  0  0  0  0  0  0  0  0  0  0  0  0  # atno 17370 bound_to 10713
  156.1195  130.6099  151.0171 LP  0  0  0  0  0  0  0  0  0  0  0  0  # atno 17371 bound_to 10713
  140.1392  134.4994  155.8045 LP  0  0  0  0  0  0  0  0  0  0  0  0  # atno 17394 bound_to 11000
  141.2180  133.6819  156.7179 LP  0  0  0  0  0  0  0  0  0  0  0  0  # atno 17395 bound_to 11000

$$$$
