AV-unprocessed.smi:3056|AV-procd|sdf|11655|dock1
  -GOLD-   2272017 53D 1   1.00000     0.00000
 Structure written by MMmdl.
 47 48  0  0  0  0  0  0  0  0  1 V2000
  151.3053  142.6649  157.5905 C   0  0  0  0  0  0  0  0  0  0  0  0
  150.8423  141.7415  156.5011 C   0  0  0  0  0  0  0  0  0  0  0  0
  151.5722  140.6923  155.8756 C   0  0  0  0  0  0  0  0  0  0  0  0
  150.8701  140.0591  154.9510 N   0  0  0  0  0  0  0  0  0  0  0  0
  149.6729  140.6854  154.9373 N   0  0  0  0  0  0  0  0  0  0  0  0
  148.6309  140.2072  154.0334 C   0  0  2  0  0  0  0  0  0  0  0  0
  147.5530  141.2872  153.8012 C   0  0  0  0  0  0  0  0  0  0  0  0
  148.0649  138.8370  154.4953 C   0  0  1  0  0  0  0  0  0  0  0  0
  146.7369  138.4475  153.8117 C   0  0  0  0  0  0  0  0  0  0  0  0
  149.1099  137.8262  154.3208 N   0  0  0  0  0  0  0  0  0  0  0  0
  149.0883  136.7069  155.2785 C   0  0  0  0  0  0  0  0  0  0  0  0
  149.9693  135.5081  154.8777 C   0  0  0  0  0  0  0  0  0  0  0  0
  151.1896  135.5884  155.0318 O   0  0  0  0  0  0  0  0  0  0  0  0
  149.3808  134.3984  154.3716 N   0  0  0  0  0  0  0  0  0  0  0  0
  147.9286  134.2232  154.2968 C   0  0  0  0  0  0  0  0  0  0  0  0
  147.5400  133.0730  155.2431 C   0  0  0  0  0  0  0  0  0  0  0  0
  148.2470  131.8882  154.8800 O   0  0  0  0  0  0  0  0  0  0  0  0
  149.6664  132.0396  154.9035 C   0  0  1  0  0  0  0  0  0  0  0  0
  150.2982  130.6994  154.5126 C   0  0  0  0  0  0  0  0  0  0  0  0
  150.0625  133.1753  153.9393 C   0  0  0  0  0  0  0  0  0  0  0  0
  149.6284  141.6987  155.8763 C   0  0  0  0  0  0  0  0  0  0  0  0
  152.1150  142.2272  158.1747 H   0  0  0  0  0  0  0  0  0  0  0  0
  150.5008  142.9038  158.2864 H   0  0  0  0  0  0  0  0  0  0  0  0
  151.6729  143.6082  157.1869 H   0  0  0  0  0  0  0  0  0  0  0  0
  152.5849  140.3704  156.0687 H   0  0  0  0  0  0  0  0  0  0  0  0
  149.1170  140.0496  153.0681 H   0  0  0  0  0  0  0  0  0  0  0  0
  146.8387  140.9791  153.0378 H   0  0  0  0  0  0  0  0  0  0  0  0
  148.0046  142.2191  153.4599 H   0  0  0  0  0  0  0  0  0  0  0  0
  146.9887  141.5072  154.7072 H   0  0  0  0  0  0  0  0  0  0  0  0
  147.8740  138.9187  155.5666 H   0  0  0  0  0  0  0  0  0  0  0  0
  145.9905  139.2347  153.9104 H   0  0  0  0  0  0  0  0  0  0  0  0
  146.3004  137.5570  154.2633 H   0  0  0  0  0  0  0  0  0  0  0  0
  146.8710  138.2492  152.7484 H   0  0  0  0  0  0  0  0  0  0  0  0
  149.1643  137.5090  153.3631 H   0  0  0  0  0  0  0  0  0  0  0  0
  149.4634  137.0761  156.2333 H   0  0  0  0  0  0  0  0  0  0  0  0
  148.0573  136.3929  155.4447 H   0  0  0  0  0  0  0  0  0  0  0  0
  147.3748  135.1238  154.5649 H   0  0  0  0  0  0  0  0  0  0  0  0
  147.6412  133.9844  153.2721 H   0  0  0  0  0  0  0  0  0  0  0  0
  147.7589  133.3328  156.2800 H   0  0  0  0  0  0  0  0  0  0  0  0
  146.4692  132.8783  155.1816 H   0  0  0  0  0  0  0  0  0  0  0  0
  149.9807  132.2915  155.9182 H   0  0  0  0  0  0  0  0  0  0  0  0
  151.3866  130.7594  154.5288 H   0  0  0  0  0  0  0  0  0  0  0  0
  149.9939  130.3969  153.5103 H   0  0  0  0  0  0  0  0  0  0  0  0
  149.9988  129.9116  155.2039 H   0  0  0  0  0  0  0  0  0  0  0  0
  149.7462  132.9314  152.9242 H   0  0  0  0  0  0  0  0  0  0  0  0
  151.1457  133.2708  153.8878 H   0  0  0  0  0  0  0  0  0  0  0  0
  148.7456  142.3024  156.0272 H   0  0  0  0  0  0  0  0  0  0  0  0
  1  2  1  0  0  0  0
  1 22  1  0  0  0  0
  1 23  1  0  0  0  0
  1 24  1  0  0  0  0
  2 21  2  0  0  0  0
  2  3  1  0  0  0  0
  3  4  2  0  0  0  0
  3 25  1  0  0  0  0
  4  5  1  0  0  0  0
  5  6  1  0  0  0  0
  5 21  1  0  0  0  0
  6  7  1  0  0  0  0
  6  8  1  0  0  0  0
  6 26  1  0  0  0  0
  7 27  1  0  0  0  0
  7 28  1  0  0  0  0
  7 29  1  0  0  0  0
  8  9  1  0  0  0  0
  8 10  1  0  0  0  0
  8 30  1  0  0  0  0
  9 31  1  0  0  0  0
  9 32  1  0  0  0  0
  9 33  1  0  0  0  0
 10 11  1  0  0  0  0
 10 34  1  0  0  0  0
 11 12  1  0  0  0  0
 11 35  1  0  0  0  0
 11 36  1  0  0  0  0
 12 13  2  0  0  0  0
 12 14  1  0  0  0  0
 14 20  1  0  0  0  0
 14 15  1  0  0  0  0
 15 16  1  0  0  0  0
 15 37  1  0  0  0  0
 15 38  1  0  0  0  0
 16 17  1  0  0  0  0
 16 39  1  0  0  0  0
 16 40  1  0  0  0  0
 17 18  1  0  0  0  0
 18 19  1  0  0  0  0
 18 20  1  0  0  0  0
 18 41  1  0  0  0  0
 19 42  1  0  0  0  0
 19 43  1  0  0  0  0
 19 44  1  0  0  0  0
 20 45  1  0  0  0  0
 20 46  1  0  0  0  0
 21 47  1  0  0  0  0
M  END
> <s_m_source_file>
AV-unprocessed.smi

> <i_m_source_file_index>
3056

> <i_lp_mmshare_version>
43012

> <i_f3d_flags>
0

> <s_epik_input>
W0NIM11jMVtjSF1ubihbY0hdMSlbQ0BIXShbQ0gzXSlbQ0BIXShbQ0gzXSlbTkhdW0NIMl1DKD1PKU4yW0NIMl1bQ0gyXU9bQ0BASF0oW0NIM10pW0NIMl0y

> <s_epik_cmdline>
J2VwaWtfcHl0aG9uJywgJy1waCcsICc3LjAnLCAnLXRuJywgJzgnLCAnLW1hJywgJzIwMCcsICctbWV0YWxfYmluZGluZycsICctaW1hZScsICc8aW5maWxlLm1hZT4nLCAnLW9tYWUnLCAnPG91dGZpbGUubWFlPic=

> <r_lp_tautomer_probability>
1

> <r_epik_Ionization_Penalty>
0.667689

> <r_epik_Ionization_Penalty_Charging>
0

> <r_epik_Ionization_Penalty_Neutral>
0.667689

> <r_epik_State_Penalty>
0.684601

> <r_epik_Charging_Adjusted_Penalty>
0.684601

> <i_epik_Tot_Q>
0

> <i_epik_Tot_abs_Q>
0

> <r_epik_Metal_State_Penalty>
0.681448

> <b_epik_Metal_Only>
0

> <s_lp_Force_Field>
OPLS_2005

> <r_lp_Energy>
33.6961

> <b_lp_Chiralities_Consistent>
1

> <s_lp_Variant>
AV-unprocessed.smi:3056-11

> <Gold.Version>
5.8.1

> <Gold.Id.Protein>
6NUR|6NUR_protein|mol2

> <Gold.PLP.Fitness>
41.8639

> <Gold.PLP.PLP>
-33.5243

> <Gold.PLP.part.hbond>
-3.0000

> <Gold.PLP.part.metal>
0.0000

> <Gold.PLP.part.buried>
-1.7408

> <Gold.PLP.part.nonpolar>
-27.6232

> <Gold.PLP.part.repulsive>
0.1750

> <Gold.PLP.ligand.clash>
0.0000

> <Gold.PLP.ligand.torsion>
1.2678

> <Gold.PLP.Chemscore.Hbond>
2.6800

> <Gold.PLP.Chemscore.CHOScore>
0.8723

> <Gold.PLP.Chemscore.Metal>
0.0000

> <Gold.Chemscore.Hbonds>
donor molecule, donor type, donor heavy atom, donor atom, acceptor molecule, acceptor atom, score
      L1  H    10    34       P1  7948  1.00
      P1  H  7989  7998       L1     4  0.81
      P1  H 10752 10765       L1    13  1.00
      L1  C    21    47       P1  8028  0.79

> <Gold.PLP.Chemscore.Internal.Correction>
0.2183

> <Gold.Rescore>
     Score         DG    S(hbond)    S(metal)    S(lipo)     H(rot)  DE(clash)    DE(int)     intcor
     15.05     -16.31       1.98        0.00      72.74       1.68       0.01       1.24       ----

> <Gold.Chemscore.Fitness>
15.0473

> <Gold.Chemscore.DG>
-16.3058

> <Gold.Chemscore.ZeroCoef>
-5.4800

> <Gold.Chemscore.Hbond>
1.9804

> <Gold.Chemscore.Metal>
0.0000

> <Gold.Chemscore.Lipo>
72.7390

> <Gold.Chemscore.Internal_Hbond>
0.0000

> <Gold.Chemscore.DEClash>
0.0149

> <Gold.Chemscore.DEInternal>
1.2436

> <Gold.Chemscore.Rot>
1.6793

> <Gold.Chemscore.Internal.Correction>
   9.000000E+99

> <Gold.Chemscore.Hbonds>
donor molecule, donor type, donor heavy atom, donor atom, acceptor molecule, acceptor atom, score
      L1  H    10    34       P1  7948  0.97
      P1  H  7989  7998       L1     4  0.03
      P1  H 10752 10765       L1    13  0.99

> <Gold.Chemscore.Hbond.Weighted>
-6.6144

> <Gold.Chemscore.Metal.Weighted>
-0.0000

> <Gold.Chemscore.Lipo.Weighted>
-8.5105

> <Gold.Chemscore.Internal_Hbond.Weighted>
0.0000

> <Gold.Chemscore.DEClash.Weighted>
0.0149

> <Gold.Chemscore.DEInternal.Weighted>
1.2436

> <Gold.Chemscore.Rot.Weighted>
4.2990

> <Gold.Chemscore.Internal.Correction.Weighted>
   9.000000E+99

> <Gold.Protein.RotatedTorsions>
[ 6907 6896 6895 6894 ] final  133.90 input  -60.11 | X-H torsion
[ 7974 7965 7964 7962 ] final   54.98 input  175.53 | X-H torsion
[ 8008 7997 7996 7995 ] final   32.96 input   59.86 | X-H torsion
[ 10167 10162 10161 10158 ] final  144.66 input  -65.29 | X-H torsion
[ 10718 10713 10712 10709 ] final   90.35 input   66.30 | X-H torsion
[ 10763 10752 10751 10750 ] final -173.94 input  -60.55 | X-H torsion
[ 11005 11000 10999 10996 ] final -103.29 input  -57.11 | X-H torsion

> <Gold.Protein.ActiveResidues>
 VAL166  LYS551  ARG553  GLY616  TRP617  ASP618  TYR619  PRO620  LYS621  CYS622 
 ASP623  PHE694  ASN695  SER759  ASP760  ASP761  ALA762  ILE779  LEU786  VAL792 
 PHE793  MET794  SER795  GLU796  ALA797  LYS798  CYS799  TRP800  GLU811  SER814 

> <Gold.Protein.RotatedAtoms>
  152.3170  133.5813  159.5718 H   0  0  0  0  0  0  0  0  0  0  0  0  # atno 6907 bound_to 6896
  150.7352  134.0068  159.3665 H   0  0  0  0  0  0  0  0  0  0  0  0  # atno 6908 bound_to 6896
  151.7955  135.0724  160.0444 H   0  0  0  0  0  0  0  0  0  0  0  0  # atno 6909 bound_to 6896
  145.9552  139.4008  143.0281 H   0  0  0  0  0  0  0  0  0  0  0  0  # atno 7974 bound_to 7965
  155.1309  140.3257  155.4474 H   0  0  0  0  0  0  0  0  0  0  0  0  # atno 8008 bound_to 7997
  156.2634  140.2010  156.6377 H   0  0  0  0  0  0  0  0  0  0  0  0  # atno 8009 bound_to 7997
  154.6613  140.0547  157.0052 H   0  0  0  0  0  0  0  0  0  0  0  0  # atno 8010 bound_to 7997
  139.4942  144.5957  151.6589 H   0  0  0  0  0  0  0  0  0  0  0  0  # atno 10167 bound_to 10162
  157.6958  131.0367  150.3564 H   0  0  0  0  0  0  0  0  0  0  0  0  # atno 10718 bound_to 10713
  154.6020  135.2855  155.0525 H   0  0  0  0  0  0  0  0  0  0  0  0  # atno 10763 bound_to 10752
  154.1786  135.6460  153.5032 H   0  0  0  0  0  0  0  0  0  0  0  0  # atno 10764 bound_to 10752
  153.0160  135.5418  154.6742 H   0  0  0  0  0  0  0  0  0  0  0  0  # atno 10765 bound_to 10752
  141.1152  133.8628  157.1467 H   0  0  0  0  0  0  0  0  0  0  0  0  # atno 11005 bound_to 11000
  145.8116  140.9723  143.0946 LP  0  0  0  0  0  0  0  0  0  0  0  0  # atno 17320 bound_to 7965
  144.6803  139.9928  143.7484 LP  0  0  0  0  0  0  0  0  0  0  0  0  # atno 17321 bound_to 7965
  140.5594  144.0294  150.6162 LP  0  0  0  0  0  0  0  0  0  0  0  0  # atno 17342 bound_to 10162
  140.3375  143.3040  152.0623 LP  0  0  0  0  0  0  0  0  0  0  0  0  # atno 17343 bound_to 10162
  156.4006  130.3915  149.6962 LP  0  0  0  0  0  0  0  0  0  0  0  0  # atno 17370 bound_to 10713
  156.4281  130.7801  151.2820 LP  0  0  0  0  0  0  0  0  0  0  0  0  # atno 17371 bound_to 10713
  140.0070  135.0004  157.0313 LP  0  0  0  0  0  0  0  0  0  0  0  0  # atno 17394 bound_to 11000
  140.4665  134.1430  155.7197 LP  0  0  0  0  0  0  0  0  0  0  0  0  # atno 17395 bound_to 11000

$$$$
