#       Name:                AV-unprocessed.smi:221
#       Creating user name   scv26
#       Creation time:       Thu Mar 26 20:13:34 2020


#       File generated by GOLD software.
#

@<TRIPOS>MOLECULE
AV-unprocessed.smi:221
    60    63     1
SMALL
NO_CHARGES


@<TRIPOS>ATOM
      1 ****        -4.6826   2.4636   0.7507 N.am           1 S1                 0.0000
      2 ****        -4.2029   3.4210   1.5505 C.2            1 S1                 0.0000
      3 ****        -4.7762   3.7415   2.5896 O.2            1 S1                 0.0000
      4 ****        -2.8999   4.1294   1.1264 C.3            1 S1                 0.0000
      5 ****        -2.1056   4.8052   2.2541 C.3            1 S1                 0.0000
      6 ****        -0.7167   5.0176   1.6370 C.3            1 S1                 0.0000
      7 ****         0.2286   4.5589   2.4580 F              1 S1                 0.0000
      8 ****        -0.7318   4.2239   0.3192 C.3            1 S1                 0.0000
      9 ****        -1.9028   3.3546   0.3743 N.3            1 S1                 0.0000
     10 ****        -1.5612   2.0873   0.7323 C.ar           1 S1                 0.0000
     11 ****        -1.6239   1.6752   2.0269 N.ar           1 S1                 0.0000
     12 ****        -1.2657   0.4309   2.3561 C.ar           1 S1                 0.0000
     13 ****        -0.8148  -0.5443   1.5647 N.ar           1 S1                 0.0000
     14 ****        -0.7371  -0.1315   0.2674 C.ar           1 S1                 0.0000
     15 ****        -1.0857   1.1555  -0.2289 C.ar           1 S1                 0.0000
     16 ****        -0.8745   1.2116  -1.6009 N.2            1 S1                 0.0000
     17 ****        -0.4229   0.0238  -1.8997 C.2            1 S1                 0.0000
     18 ****        -0.3038  -0.8435  -0.8374 N.pl3          1 S1                 0.0000
     19 ****         0.1743  -2.2141  -0.8898 C.3            1 S1                 0.0000
     20 ****         1.7084  -2.3159  -1.0774 C.3            1 S1                 0.0000
     21 ****         2.4939  -1.4969  -0.0237 C.3            1 S1                 0.0000
     22 ****         2.2770  -1.9921   1.2818 O.3            1 S1                 0.0000
     23 ****         2.1762  -3.7921  -1.1464 C.3            1 S1                 0.0000
     24 ****         3.6510  -3.9841  -1.4533 C.3            1 S1                 0.0000
     25 ****         3.6974  -5.4369  -1.9123 C.3            1 S1                 0.0000
     26 ****         2.4537  -5.6721  -2.5624 O.3            1 S1                 0.0000
     27 ****         1.5477  -4.6097  -2.2805 C.3            1 S1                 0.0000
     28 ****        -3.2280   4.9159   0.4440 H              1 S1                 0.0000
     29 ****        -0.5042   6.0722   1.4587 H              1 S1                 0.0000
     30 ****        -5.5307   1.9778   1.0035 H              1 S1                 0.0000
     31 ****        -4.1931   2.2260  -0.0999 H              1 S1                 0.0000
     32 ****        -2.5612   5.7440   2.5708 H              1 S1                 0.0000
     33 ****        -2.0409   4.1588   3.1308 H              1 S1                 0.0000
     34 ****        -0.8562   4.9015  -0.5265 H              1 S1                 0.0000
     35 ****         0.2072   3.6900   0.1572 H              1 S1                 0.0000
     36 ****        -1.3501   0.1823   3.4039 H              1 S1                 0.0000
     37 ****        -0.1576  -0.2544  -2.9094 H              1 S1                 0.0000
     38 ****        -0.1305  -2.7271   0.0232 H              1 S1                 0.0000
     39 ****        -0.3471  -2.7111  -1.7082 H              1 S1                 0.0000
     40 ****         1.9360  -1.8640  -2.0441 H              1 S1                 0.0000
     41 ****         3.5631  -1.5192  -0.2325 H              1 S1                 0.0000
     42 ****         2.2082  -0.4453  -0.0501 H              1 S1                 0.0000
     43 ****         2.7538  -1.4511   1.8925 H              1 S1                 0.0000
     44 ****         1.9541  -4.2905  -0.2013 H              1 S1                 0.0000
     45 ****         3.9619  -3.3252  -2.2653 H              1 S1                 0.0000
     46 ****         4.2979  -3.7992  -0.5952 H              1 S1                 0.0000
     47 ****         4.5396  -5.6395  -2.5743 H              1 S1                 0.0000
     48 ****         3.7727  -6.1047  -1.0533 H              1 S1                 0.0000
     49 ****         0.5630  -4.9970  -2.0180 H              1 S1                 0.0000
     50 ****         1.4420  -4.0050  -3.1823 H              1 S1                 0.0000
     51 ****        -5.6239   3.2822   2.8551 LP             1 S1                 0.0000
     52 ****        -4.3949   4.4614   3.1694 LP             1 S1                 0.0000
     53 ****        -2.3446   3.1292  -0.4941 LP             1 S1                 0.0000
     54 ****        -1.9395   2.3063   2.7355 LP             1 S1                 0.0000
     55 ****        -0.5661  -1.4595   1.8819 LP             1 S1                 0.0000
     56 ****        -1.0320   1.9833  -2.2170 LP             1 S1                 0.0000
     57 ****         2.6022  -2.9358   1.3425 LP             1 S1                 0.0000
     58 ****         1.3006  -1.9617   1.4958 LP             1 S1                 0.0000
     59 ****         2.0662  -6.5336  -2.2342 LP             1 S1                 0.0000
     60 ****         2.6016  -5.7280  -3.5498 LP             1 S1                 0.0000
@<TRIPOS>BOND
    1    1    2 am    
    2    1   30 1     
    3    1   31 1     
    4    2    3 2     
    5    2    4 1     
    6    4   28 1     
    7    4    9 1     
    8    4    5 1     
    9    5    6 1     
   10    5   32 1     
   11    5   33 1     
   12    6   29 1     
   13    6    7 1     
   14    6    8 1     
   15    8    9 1     
   16    8   34 1     
   17    8   35 1     
   18    9   10 1     
   19   10   15 ar    
   20   10   11 ar    
   21   11   12 ar    
   22   12   13 ar    
   23   12   36 1     
   24   13   14 ar    
   25   14   18 1     
   26   14   15 ar    
   27   15   16 1     
   28   16   17 2     
   29   17   18 1     
   30   17   37 1     
   31   18   19 1     
   32   19   20 1     
   33   19   38 1     
   34   19   39 1     
   35   20   21 1     
   36   20   23 1     
   37   20   40 1     
   38   21   22 1     
   39   21   41 1     
   40   21   42 1     
   41   22   43 1     
   42   23   27 1     
   43   23   24 1     
   44   23   44 1     
   45   24   25 1     
   46   24   45 1     
   47   24   46 1     
   48   25   26 1     
   49   25   47 1     
   50   25   48 1     
   51   26   27 1     
   52   27   49 1     
   53   27   50 1     
   54    3   51 1     
   55    3   52 1     
   56    9   53 1     
   57   11   54 1     
   58   13   55 1     
   59   16   56 1     
   60   22   57 1     
   61   22   58 1     
   62   26   59 1     
   63   26   60 1     
@<TRIPOS>SUBSTRUCTURE
      1 S1             1
@<TRIPOS>SET
LONE_PAIRS      STATIC     ATOMS    <user>   **** ""
10 51 52 53 54 55 56 57 58 59 60
DONOR_HYDROGENS      STATIC     ATOMS    <user>   **** ""
3 30 31 43
ATOM$BLUE        STATIC     ATOMS    COLORGROUP SYSTEM
10 51 52 53 54 55 56 57 58 59 60
ATOM$RED        STATIC     ATOMS    COLORGROUP SYSTEM
3 30 31 43
