#       Name:                AV-unprocessed.smi:83
#       Creating user name   scv26
#       Creation time:       Thu Mar 26 17:19:08 2020


#       File generated by GOLD software.
#

@<TRIPOS>MOLECULE
AV-unprocessed.smi:83
    65    68     1
SMALL
NO_CHARGES


@<TRIPOS>ATOM
      1 ****        -2.0939  -3.6266   1.8032 C.3            1 S1                 0.0000
      2 ****        -1.4668  -2.6161   0.8421 C.2            1 S1                 0.0000
      3 ****        -0.2594  -2.6820   0.6107 O.2            1 S1                 0.0000
      4 ****        -2.2624  -1.6798   0.2867 N.am           1 S1                 0.0000
      5 ****        -3.7092  -1.5710   0.4591 C.3            1 S1                 0.0000
      6 ****        -4.1673  -0.5567  -0.5907 C.3            1 S1                 0.0000
      7 ****        -2.9475   0.3320  -0.8132 C.3            1 S1                 0.0000
      8 ****        -2.9609   1.0773  -2.1680 C.3            1 S1                 0.0000
      9 ****        -1.9442   2.1266  -2.2695 N.pl3          1 S1                 0.0000
     10 ****        -2.2167   3.4043  -1.6243 C.3            1 S1                 0.0000
     11 ****        -0.6557   1.7124  -2.3801 C.ar           1 S1                 0.0000
     12 ****        -0.3645   0.8233  -3.3658 N.ar           1 S1                 0.0000
     13 ****         0.8614   0.3037  -3.4702 C.ar           1 S1                 0.0000
     14 ****         1.9257   0.5185  -2.6963 N.ar           1 S1                 0.0000
     15 ****         1.6454   1.4187  -1.7118 C.ar           1 S1                 0.0000
     16 ****         0.4016   2.0777  -1.4938 C.ar           1 S1                 0.0000
     17 ****         0.5081   2.9179  -0.3895 N.2            1 S1                 0.0000
     18 ****         1.7331   2.7540   0.0270 C.2            1 S1                 0.0000
     19 ****         2.4743   1.8452  -0.6913 N.pl3          1 S1                 0.0000
     20 ****         3.8260   1.4037  -0.4077 C.3            1 S1                 0.0000
     21 ****         3.8617  -0.0046   0.2263 C.3            1 S1                 0.0000
     22 ****         5.2200  -0.3471   0.4137 O.3            1 S1                 0.0000
     23 ****         3.1261  -0.1132   1.5819 C.3            1 S1                 0.0000
     24 ****         3.2045  -1.4929   2.2420 C.3            1 S1                 0.0000
     25 ****         1.9642  -1.5517   3.1233 C.3            1 S1                 0.0000
     26 ****         1.1274  -0.3569   2.6639 C.3            1 S1                 0.0000
     27 ****         1.7210   0.0360   1.4372 O.3            1 S1                 0.0000
     28 ****        -1.7764  -0.6425  -0.6165 C.3            1 S1                 0.0000
     29 ****        -2.6293  -3.1178   2.6050 H              1 S1                 0.0000
     30 ****        -1.3255  -4.2524   2.2580 H              1 S1                 0.0000
     31 ****        -2.7900  -4.2783   1.2747 H              1 S1                 0.0000
     32 ****        -4.2176  -2.5272   0.3280 H              1 S1                 0.0000
     33 ****        -3.9216  -1.2041   1.4643 H              1 S1                 0.0000
     34 ****        -4.4196  -1.0793  -1.5146 H              1 S1                 0.0000
     35 ****        -5.0468   0.0052  -0.2753 H              1 S1                 0.0000
     36 ****        -2.9265   1.0600  -0.0006 H              1 S1                 0.0000
     37 ****        -2.8705   0.3702  -2.9933 H              1 S1                 0.0000
     38 ****        -3.9343   1.5512  -2.2988 H              1 S1                 0.0000
     39 ****        -1.4948   4.1613  -1.9329 H              1 S1                 0.0000
     40 ****        -2.1836   3.3092  -0.5387 H              1 S1                 0.0000
     41 ****        -3.2087   3.7619  -1.9010 H              1 S1                 0.0000
     42 ****         1.0045  -0.3979  -4.2785 H              1 S1                 0.0000
     43 ****         2.1183   3.2632   0.8985 H              1 S1                 0.0000
     44 ****         4.3882   1.4151  -1.3424 H              1 S1                 0.0000
     45 ****         4.2991   2.1318   0.2527 H              1 S1                 0.0000
     46 ****         3.4354  -0.7271  -0.4710 H              1 S1                 0.0000
     47 ****         5.6463  -0.3516  -0.4297 H              1 S1                 0.0000
     48 ****         3.4941   0.6491   2.2717 H              1 S1                 0.0000
     49 ****         3.1482  -2.2761   1.4846 H              1 S1                 0.0000
     50 ****         4.1285  -1.6354   2.8034 H              1 S1                 0.0000
     51 ****         1.4324  -2.4921   2.9764 H              1 S1                 0.0000
     52 ****         2.2130  -1.4669   4.1814 H              1 S1                 0.0000
     53 ****         0.0725  -0.5998   2.5378 H              1 S1                 0.0000
     54 ****         1.2034   0.4643   3.3779 H              1 S1                 0.0000
     55 ****        -0.9012  -0.1372  -0.2057 H              1 S1                 0.0000
     56 ****        -1.4895  -1.1098  -1.5595 H              1 S1                 0.0000
     57 ****         0.2958  -3.3889   1.0489 LP             1 S1                 0.0000
     58 ****         0.1661  -2.0286  -0.0155 LP             1 S1                 0.0000
     59 ****        -1.0737   0.5560  -4.0181 LP             1 S1                 0.0000
     60 ****         2.8140   0.0767  -2.8218 LP             1 S1                 0.0000
     61 ****        -0.1960   3.5132  -0.0025 LP             1 S1                 0.0000
     62 ****         5.2851  -1.2541   0.8297 LP             1 S1                 0.0000
     63 ****         5.6585   0.3253   1.0100 LP             1 S1                 0.0000
     64 ****         1.3896  -0.5460   0.6946 LP             1 S1                 0.0000
     65 ****         1.4967   0.9900   1.2384 LP             1 S1                 0.0000
@<TRIPOS>BOND
    1    1    2 1     
    2    1   29 1     
    3    1   30 1     
    4    1   31 1     
    5    2    3 2     
    6    2    4 am    
    7    4   28 1     
    8    4    5 1     
    9    5    6 1     
   10    5   32 1     
   11    5   33 1     
   12    6    7 1     
   13    6   34 1     
   14    6   35 1     
   15    7    8 1     
   16    7   28 1     
   17    7   36 1     
   18    8    9 1     
   19    8   37 1     
   20    8   38 1     
   21    9   10 1     
   22    9   11 1     
   23   10   39 1     
   24   10   40 1     
   25   10   41 1     
   26   11   16 ar    
   27   11   12 ar    
   28   12   13 ar    
   29   13   14 ar    
   30   13   42 1     
   31   14   15 ar    
   32   15   19 1     
   33   15   16 ar    
   34   16   17 1     
   35   17   18 2     
   36   18   19 1     
   37   18   43 1     
   38   19   20 1     
   39   20   21 1     
   40   20   44 1     
   41   20   45 1     
   42   21   22 1     
   43   21   23 1     
   44   21   46 1     
   45   22   47 1     
   46   23   27 1     
   47   23   24 1     
   48   23   48 1     
   49   24   25 1     
   50   24   49 1     
   51   24   50 1     
   52   25   26 1     
   53   25   51 1     
   54   25   52 1     
   55   26   27 1     
   56   26   53 1     
   57   26   54 1     
   58   28   55 1     
   59   28   56 1     
   60    3   57 1     
   61    3   58 1     
   62   12   59 1     
   63   14   60 1     
   64   17   61 1     
   65   22   62 1     
   66   22   63 1     
   67   27   64 1     
   68   27   65 1     
@<TRIPOS>SUBSTRUCTURE
      1 S1             1
@<TRIPOS>SET
LONE_PAIRS      STATIC     ATOMS    <user>   **** ""
9 57 58 59 60 61 62 63 64 65
DONOR_HYDROGENS      STATIC     ATOMS    <user>   **** ""
1 47
ATOM$BLUE        STATIC     ATOMS    COLORGROUP SYSTEM
9 57 58 59 60 61 62 63 64 65
ATOM$RED        STATIC     ATOMS    COLORGROUP SYSTEM
1 47
