#       Name:                AV-unprocessed.smi:203
#       Creating user name   scv26
#       Creation time:       Thu Mar 26 19:49:04 2020


#       File generated by GOLD software.
#

@<TRIPOS>MOLECULE
AV-unprocessed.smi:203
    67    71     1
SMALL
NO_CHARGES


@<TRIPOS>ATOM
      1 ****        -3.5439  -0.0933  -4.0992 O.2            1 S1                 0.0000
      2 ****        -2.9795   0.2816  -3.0743 C.2            1 S1                 0.0000
      3 ****        -2.1201  -0.6259  -2.2112 C.3            1 S1                 0.0000
      4 ****        -1.8289   0.2276  -0.9615 C.3            1 S1                 0.0000
      5 ****        -2.4870  -0.3141   0.3484 C.3            1 S1                 0.0000
      6 ****        -4.0325  -0.4089   0.2542 C.3            1 S1                 0.0000
      7 ****        -4.6452  -0.9621   1.5484 C.3            1 S1                 0.0000
      8 ****        -4.2026  -0.1111   2.7441 C.3            1 S1                 0.0000
      9 ****        -2.6711  -0.0344   2.8102 C.3            1 S1                 0.0000
     10 ****        -2.1118   0.4530   1.5506 N.3            1 S1                 0.0000
     11 ****        -0.7993   0.7419   1.6873 C.ar           1 S1                 0.0000
     12 ****        -0.4570   2.0522   1.7440 N.ar           1 S1                 0.0000
     13 ****         0.8311   2.4015   1.8110 C.ar           1 S1                 0.0000
     14 ****         1.9097   1.6152   1.8226 N.ar           1 S1                 0.0000
     15 ****         1.5631   0.2963   1.7809 C.ar           1 S1                 0.0000
     16 ****         0.2419  -0.2266   1.7279 C.ar           1 S1                 0.0000
     17 ****         0.2800  -1.6156   1.6977 N.2            1 S1                 0.0000
     18 ****         1.5541  -1.8978   1.6999 C.2            1 S1                 0.0000
     19 ****         2.3939  -0.8081   1.7248 N.pl3          1 S1                 0.0000
     20 ****         3.8426  -0.8277   1.6585 C.3            1 S1                 0.0000
     21 ****         4.3651  -1.0325   0.2190 C.3            1 S1                 0.0000
     22 ****         5.7742  -0.9305   0.2634 O.3            1 S1                 0.0000
     23 ****         3.8110  -0.0236  -0.8149 C.3            1 S1                 0.0000
     24 ****         4.4347  -0.1223  -2.2095 C.3            1 S1                 0.0000
     25 ****         3.3630   0.4433  -3.1307 C.3            1 S1                 0.0000
     26 ****         2.1039   0.4727  -2.2622 C.3            1 S1                 0.0000
     27 ****         2.4468  -0.2870  -1.1145 O.3            1 S1                 0.0000
     28 ****        -2.2663   1.6600  -1.3410 C.3            1 S1                 0.0000
     29 ****        -3.0222   1.5123  -2.5691 N.am           1 S1                 0.0000
     30 ****        -2.6250  -1.5656  -1.9879 H              1 S1                 0.0000
     31 ****        -1.2009  -0.8602  -2.7489 H              1 S1                 0.0000
     32 ****        -0.7452   0.2251  -0.8410 H              1 S1                 0.0000
     33 ****        -2.1177  -1.3297   0.4956 H              1 S1                 0.0000
     34 ****        -4.4611   0.5734   0.0549 H              1 S1                 0.0000
     35 ****        -4.3343  -1.0462  -0.5759 H              1 S1                 0.0000
     36 ****        -5.7331  -0.9729   1.4752 H              1 S1                 0.0000
     37 ****        -4.3303  -1.9963   1.6929 H              1 S1                 0.0000
     38 ****        -4.6168   0.8938   2.6541 H              1 S1                 0.0000
     39 ****        -4.5970  -0.5296   3.6703 H              1 S1                 0.0000
     40 ****        -2.3739   0.6225   3.6292 H              1 S1                 0.0000
     41 ****        -2.2616  -1.0216   3.0295 H              1 S1                 0.0000
     42 ****         1.0262   3.4630   1.8482 H              1 S1                 0.0000
     43 ****         1.9190  -2.9134   1.6549 H              1 S1                 0.0000
     44 ****         4.2179   0.1113   2.0681 H              1 S1                 0.0000
     45 ****         4.2065  -1.6207   2.3131 H              1 S1                 0.0000
     46 ****         4.1217  -2.0433  -0.1105 H              1 S1                 0.0000
     47 ****         6.1046  -1.5864   0.8579 H              1 S1                 0.0000
     48 ****         3.9072   0.9973  -0.4394 H              1 S1                 0.0000
     49 ****         5.3807   0.4148  -2.2844 H              1 S1                 0.0000
     50 ****         4.6208  -1.1664  -2.4653 H              1 S1                 0.0000
     51 ****         3.6168   1.4459  -3.4760 H              1 S1                 0.0000
     52 ****         3.2319  -0.1920  -4.0073 H              1 S1                 0.0000
     53 ****         1.8653   1.4931  -1.9584 H              1 S1                 0.0000
     54 ****         1.2327   0.0554  -2.7671 H              1 S1                 0.0000
     55 ****        -2.8653   2.1467  -0.5712 H              1 S1                 0.0000
     56 ****        -1.3980   2.2923  -1.5312 H              1 S1                 0.0000
     57 ****        -3.5363   2.2756  -2.9848 H              1 S1                 0.0000
     58 ****        -4.0941   0.5504  -4.6311 LP             1 S1                 0.0000
     59 ****        -3.4532  -1.0422  -4.4015 LP             1 S1                 0.0000
     60 ****        -2.5659   1.3211   1.3503 LP             1 S1                 0.0000
     61 ****        -1.1672   2.7562   1.7357 LP             1 S1                 0.0000
     62 ****         2.8513   1.9500   1.8574 LP             1 S1                 0.0000
     63 ****        -0.4912  -2.2520   1.6787 LP             1 S1                 0.0000
     64 ****         6.0363  -0.0209   0.5856 LP             1 S1                 0.0000
     65 ****         6.1521  -1.0824  -0.6499 LP             1 S1                 0.0000
     66 ****         1.8703  -0.0179  -0.3430 LP             1 S1                 0.0000
     67 ****         2.3208  -1.2614  -1.3007 LP             1 S1                 0.0000
@<TRIPOS>BOND
    1    1    2 2     
    2    2   29 am    
    3    2    3 1     
    4    3    4 1     
    5    3   30 1     
    6    3   31 1     
    7    4    5 1     
    8    4   28 1     
    9    4   32 1     
   10    5   10 1     
   11    5    6 1     
   12    5   33 1     
   13    6    7 1     
   14    6   34 1     
   15    6   35 1     
   16    7    8 1     
   17    7   36 1     
   18    7   37 1     
   19    8    9 1     
   20    8   38 1     
   21    8   39 1     
   22    9   10 1     
   23    9   40 1     
   24    9   41 1     
   25   10   11 1     
   26   11   16 ar    
   27   11   12 ar    
   28   12   13 ar    
   29   13   14 ar    
   30   13   42 1     
   31   14   15 ar    
   32   15   19 1     
   33   15   16 ar    
   34   16   17 1     
   35   17   18 2     
   36   18   19 1     
   37   18   43 1     
   38   19   20 1     
   39   20   21 1     
   40   20   44 1     
   41   20   45 1     
   42   21   22 1     
   43   21   23 1     
   44   21   46 1     
   45   22   47 1     
   46   23   27 1     
   47   23   24 1     
   48   23   48 1     
   49   24   25 1     
   50   24   49 1     
   51   24   50 1     
   52   25   26 1     
   53   25   51 1     
   54   25   52 1     
   55   26   27 1     
   56   26   53 1     
   57   26   54 1     
   58   28   29 1     
   59   28   55 1     
   60   28   56 1     
   61   29   57 1     
   62    1   58 1     
   63    1   59 1     
   64   10   60 1     
   65   12   61 1     
   66   14   62 1     
   67   17   63 1     
   68   22   64 1     
   69   22   65 1     
   70   27   66 1     
   71   27   67 1     
@<TRIPOS>SUBSTRUCTURE
      1 S1             1
@<TRIPOS>SET
LONE_PAIRS      STATIC     ATOMS    <user>   **** ""
10 58 59 60 61 62 63 64 65 66 67
DONOR_HYDROGENS      STATIC     ATOMS    <user>   **** ""
2 47 57
ATOM$BLUE        STATIC     ATOMS    COLORGROUP SYSTEM
10 58 59 60 61 62 63 64 65 66 67
ATOM$RED        STATIC     ATOMS    COLORGROUP SYSTEM
2 47 57
