#       Name:                AV-unprocessed.smi:3117
#       Creating user name   scv26
#       Creation time:       Fri Mar 27 17:27:29 2020


#       File generated by GOLD software.
#

@<TRIPOS>MOLECULE
AV-unprocessed.smi:3117
    40    40     1
SMALL
NO_CHARGES


@<TRIPOS>ATOM
      1 ****        -2.1414  -0.4198   1.8682 C.3            1 S1                 0.0000
      2 ****        -1.5142   0.3834   0.7167 C.3            1 S1                 0.0000
      3 ****        -0.0573   0.3916   0.9101 N.3            1 S1                 0.0000
      4 ****         0.7088   1.3282   0.0880 C.3            1 S1                 0.0000
      5 ****         2.1988   1.3575   0.4853 C.3            1 S1                 0.0000
      6 ****         2.4119   1.8668   1.9220 C.3            1 S1                 0.0000
      7 ****         2.8890   0.0021   0.2492 C.3            1 S1                 0.0000
      8 ****         2.8230   2.2895  -0.3741 O.3            1 S1                 0.0000
      9 ****        -1.9897  -0.1539  -0.6688 C.3            1 S1                 0.0000
     10 ****        -2.0911   0.9224  -1.7698 C.3            1 S1                 0.0000
     11 ****        -1.2895  -1.3620  -1.1032 N.pl3          1 S1                 0.0000
     12 ****        -1.5706  -2.6708  -0.7660 C.2            1 S1                 0.0000
     13 ****        -0.6400  -3.4637  -1.3739 C.2            1 S1                 0.0000
     14 ****         0.1892  -2.5390  -2.0663 C.2            1 S1                 0.0000
     15 ****        -0.1992  -1.2857  -1.9016 N.2            1 S1                 0.0000
     16 ****        -3.2302  -0.4073   1.8135 H              1 S1                 0.0000
     17 ****        -1.8623  -0.0005   2.8353 H              1 S1                 0.0000
     18 ****        -1.8183  -1.4608   1.8561 H              1 S1                 0.0000
     19 ****        -1.8845   1.4035   0.8254 H              1 S1                 0.0000
     20 ****         0.1510   0.5606   1.8888 H              1 S1                 0.0000
     21 ****         0.6411   1.0533  -0.9615 H              1 S1                 0.0000
     22 ****         0.2867   2.3299   0.1794 H              1 S1                 0.0000
     23 ****         1.9852   1.1816   2.6553 H              1 S1                 0.0000
     24 ****         1.9465   2.8418   2.0715 H              1 S1                 0.0000
     25 ****         3.4730   1.9687   2.1527 H              1 S1                 0.0000
     26 ****         2.4789  -0.7712   0.8993 H              1 S1                 0.0000
     27 ****         3.9594   0.0614   0.4493 H              1 S1                 0.0000
     28 ****         2.7624  -0.3347  -0.7804 H              1 S1                 0.0000
     29 ****         2.7091   1.9967  -1.2654 H              1 S1                 0.0000
     30 ****        -3.0266  -0.4636  -0.5294 H              1 S1                 0.0000
     31 ****        -2.7033   1.7606  -1.4369 H              1 S1                 0.0000
     32 ****        -2.5627   0.5135  -2.6639 H              1 S1                 0.0000
     33 ****        -1.1271   1.3241  -2.0724 H              1 S1                 0.0000
     34 ****        -2.4019  -2.9269  -0.1260 H              1 S1                 0.0000
     35 ****        -0.5610  -4.5397  -1.3271 H              1 S1                 0.0000
     36 ****         1.0564  -2.7393  -2.6780 H              1 S1                 0.0000
     37 ****         0.2390  -0.5132   0.6042 LP             1 S1                 0.0000
     38 ****         3.7980   2.3465  -0.1594 LP             1 S1                 0.0000
     39 ****         2.4031   3.1897  -0.2582 LP             1 S1                 0.0000
     40 ****         0.2206  -0.4621  -2.2833 LP             1 S1                 0.0000
@<TRIPOS>BOND
    1    1    2 1     
    2    1   16 1     
    3    1   17 1     
    4    1   18 1     
    5    2    3 1     
    6    2    9 1     
    7    2   19 1     
    8    3    4 1     
    9    3   20 1     
   10    4    5 1     
   11    4   21 1     
   12    4   22 1     
   13    5    6 1     
   14    5    7 1     
   15    5    8 1     
   16    6   23 1     
   17    6   24 1     
   18    6   25 1     
   19    7   26 1     
   20    7   27 1     
   21    7   28 1     
   22    8   29 1     
   23    9   10 1     
   24    9   11 1     
   25    9   30 1     
   26   10   31 1     
   27   10   32 1     
   28   10   33 1     
   29   11   15 1     
   30   11   12 1     
   31   12   13 2     
   32   12   34 1     
   33   13   14 1     
   34   13   35 1     
   35   14   15 2     
   36   14   36 1     
   37    3   37 1     
   38    8   38 1     
   39    8   39 1     
   40   15   40 1     
@<TRIPOS>SUBSTRUCTURE
      1 S1             1
@<TRIPOS>SET
LONE_PAIRS      STATIC     ATOMS    <user>   **** ""
4 37 38 39 40
DONOR_HYDROGENS      STATIC     ATOMS    <user>   **** ""
2 20 29
ATOM$BLUE        STATIC     ATOMS    COLORGROUP SYSTEM
4 37 38 39 40
ATOM$RED        STATIC     ATOMS    COLORGROUP SYSTEM
2 20 29
