#       Name:                AV-unprocessed.smi:3346
#       Creating user name   scv26
#       Creation time:       Fri Mar 27 19:32:22 2020


#       File generated by GOLD software.
#

@<TRIPOS>MOLECULE
AV-unprocessed.smi:3346
    52    53     1
SMALL
NO_CHARGES


@<TRIPOS>ATOM
      1 ****        -3.7819   3.1974   2.0443 C.3            1 S1                 0.0000
      2 ****        -2.4454   3.0371   1.3036 C.3            1 S1                 0.0000
      3 ****        -2.6023   3.4411  -0.1722 C.3            1 S1                 0.0000
      4 ****        -1.9046   1.5991   1.4726 C.3            1 S1                 0.0000
      5 ****        -0.5005   1.3290   0.8795 C.3            1 S1                 0.0000
      6 ****         0.5904   2.1989   1.5238 C.3            1 S1                 0.0000
      7 ****        -0.1245  -0.0938   1.0365 N.4            1 S1                 1.0000
      8 ****        -0.8218  -1.0411   0.1410 C.3            1 S1                 0.0000
      9 ****        -0.1132  -2.3867   0.1382 C.ar           1 S1                 0.0000
     10 ****        -0.6864  -3.4835   0.8165 C.ar           1 S1                 0.0000
     11 ****        -0.0095  -4.7166   0.8200 C.ar           1 S1                 0.0000
     12 ****         1.2211  -4.8053   0.1432 C.ar           1 S1                 0.0000
     13 ****         1.7824  -3.7646  -0.5073 N.ar           1 S1                 0.0000
     14 ****         1.1333  -2.5757  -0.5147 C.ar           1 S1                 0.0000
     15 ****         1.7376  -1.5082  -1.2004 N.3            1 S1                 0.0000
     16 ****         3.1699  -1.3307  -0.9917 C.3            1 S1                 0.0000
     17 ****         3.6250  -0.0076  -1.6313 C.3            1 S1                 0.0000
     18 ****         3.2701   0.0026  -3.0117 O.3            1 S1                 0.0000
     19 ****         1.8633  -0.1121  -3.2092 C.3            1 S1                 0.0000
     20 ****         1.3635  -1.4363  -2.6064 C.3            1 S1                 0.0000
     21 ****        -4.5440   2.5314   1.6381 H              1 S1                 0.0000
     22 ****        -4.1567   4.2183   1.9640 H              1 S1                 0.0000
     23 ****        -3.6743   2.9726   3.1059 H              1 S1                 0.0000
     24 ****        -1.7474   3.7326   1.7688 H              1 S1                 0.0000
     25 ****        -3.2576   2.7513  -0.7049 H              1 S1                 0.0000
     26 ****        -1.6436   3.4612  -0.6896 H              1 S1                 0.0000
     27 ****        -3.0311   4.4400  -0.2607 H              1 S1                 0.0000
     28 ****        -1.8857   1.3518   2.5352 H              1 S1                 0.0000
     29 ****        -2.6276   0.9171   1.0251 H              1 S1                 0.0000
     30 ****        -0.5038   1.5436  -0.1893 H              1 S1                 0.0000
     31 ****         0.4331   3.2581   1.3214 H              1 S1                 0.0000
     32 ****         1.5755   1.9445   1.1306 H              1 S1                 0.0000
     33 ****         0.6201   2.0645   2.6057 H              1 S1                 0.0000
     34 ****         0.8596  -0.1626   0.8194 H              1 S1                 0.0000
     35 ****        -1.8548  -1.1664   0.4660 H              1 S1                 0.0000
     36 ****        -0.8591  -0.6479  -0.8750 H              1 S1                 0.0000
     37 ****        -1.6311  -3.3841   1.3307 H              1 S1                 0.0000
     38 ****        -0.4223  -5.5743   1.3303 H              1 S1                 0.0000
     39 ****         1.7697  -5.7353   0.1248 H              1 S1                 0.0000
     40 ****         3.3924  -1.3293   0.0760 H              1 S1                 0.0000
     41 ****         3.7162  -2.1633  -1.4373 H              1 S1                 0.0000
     42 ****         3.1724   0.8455  -1.1231 H              1 S1                 0.0000
     43 ****         4.7055   0.1028  -1.5408 H              1 S1                 0.0000
     44 ****         1.3517   0.7385  -2.7554 H              1 S1                 0.0000
     45 ****         1.6498  -0.0803  -4.2777 H              1 S1                 0.0000
     46 ****         1.8043  -2.2796  -3.1402 H              1 S1                 0.0000
     47 ****         0.2822  -1.5168  -2.7203 H              1 S1                 0.0000
     48 ****        -0.2587  -0.3751   1.9971 H              1 S1                 0.0000
     49 ****         2.6602  -3.8691  -0.9747 LP             1 S1                 0.0000
     50 ****         1.3376  -0.7112  -0.7479 LP             1 S1                 0.0000
     51 ****         3.7222  -0.7652  -3.4657 LP             1 S1                 0.0000
     52 ****         3.5829   0.8611  -3.4178 LP             1 S1                 0.0000
@<TRIPOS>BOND
    1    1    2 1     
    2    1   21 1     
    3    1   22 1     
    4    1   23 1     
    5    2    3 1     
    6    2    4 1     
    7    2   24 1     
    8    3   25 1     
    9    3   26 1     
   10    3   27 1     
   11    4    5 1     
   12    4   28 1     
   13    4   29 1     
   14    5    6 1     
   15    5    7 1     
   16    5   30 1     
   17    6   31 1     
   18    6   32 1     
   19    6   33 1     
   20    7    8 1     
   21    7   34 1     
   22    7   48 1     
   23    8    9 1     
   24    8   35 1     
   25    8   36 1     
   26    9   14 ar    
   27    9   10 ar    
   28   10   11 ar    
   29   10   37 1     
   30   11   12 ar    
   31   11   38 1     
   32   12   13 ar    
   33   12   39 1     
   34   13   14 ar    
   35   14   15 1     
   36   15   20 1     
   37   15   16 1     
   38   16   17 1     
   39   16   40 1     
   40   16   41 1     
   41   17   18 1     
   42   17   42 1     
   43   17   43 1     
   44   18   19 1     
   45   19   20 1     
   46   19   44 1     
   47   19   45 1     
   48   20   46 1     
   49   20   47 1     
   50   13   49 1     
   51   15   50 1     
   52   18   51 1     
   53   18   52 1     
@<TRIPOS>SUBSTRUCTURE
      1 S1             1
@<TRIPOS>SET
LONE_PAIRS      STATIC     ATOMS    <user>   **** ""
4 49 50 51 52
DONOR_HYDROGENS      STATIC     ATOMS    <user>   **** ""
2 34 48
ATOM$BLUE        STATIC     ATOMS    COLORGROUP SYSTEM
4 49 50 51 52
ATOM$RED        STATIC     ATOMS    COLORGROUP SYSTEM
2 34 48
