#       Name:                AV-unprocessed.smi:387
#       Creating user name   scv26
#       Creation time:       Thu Mar 26 22:41:20 2020


#       File generated by GOLD software.
#

@<TRIPOS>MOLECULE
AV-unprocessed.smi:387
    46    47     1
SMALL
NO_CHARGES


@<TRIPOS>ATOM
      1 ****        -4.7809   1.5663  -0.6354 C.3            1 S1                 0.0000
      2 ****        -3.3346   1.9234  -0.2488 C.3            1 S1                 0.0000
      3 ****        -2.7275   2.8176  -1.3504 C.3            1 S1                 0.0000
      4 ****        -3.3460   2.6623   1.1062 C.3            1 S1                 0.0000
      5 ****        -2.5974   0.6584  -0.1448 N.am           1 S1                 0.0000
      6 ****        -1.3049   0.4666   0.1723 C.2            1 S1                 0.0000
      7 ****        -0.5218   1.3801   0.4363 O.2            1 S1                 0.0000
      8 ****        -0.8409  -0.9982   0.1856 C.3            1 S1                 0.0000
      9 ****         0.5763  -1.1675   0.5749 N.am           1 S1                 0.0000
     10 ****         0.8898  -1.3159   1.9501 C.2            1 S1                 0.0000
     11 ****         0.0027  -1.3334   2.8054 O.2            1 S1                 0.0000
     12 ****         2.3127  -1.4267   2.2624 C.2            1 S1                 0.0000
     13 ****         2.6701  -1.5438   3.6373 C.1            1 S1                 0.0000
     14 ****         2.9842  -1.6421   4.7468 N.1            1 S1                 0.0000
     15 ****         3.2421  -1.4110   1.2849 C.2            1 S1                 0.0000
     16 ****         2.9136  -1.3053  -0.0490 N.am           1 S1                 0.0000
     17 ****         3.9216  -1.1311  -1.0564 C.3            1 S1                 0.0000
     18 ****         3.9737  -2.0569  -2.2562 C.3            1 S1                 0.0000
     19 ****         5.0239  -2.1607  -1.1772 C.3            1 S1                 0.0000
     20 ****         1.5674  -1.1268  -0.4359 C.2            1 S1                 0.0000
     21 ****         1.2626  -0.9293  -1.6149 O.2            1 S1                 0.0000
     22 ****        -5.3977   2.4602  -0.7350 H              1 S1                 0.0000
     23 ****        -5.2478   0.9288   0.1165 H              1 S1                 0.0000
     24 ****        -4.8195   1.0344  -1.5870 H              1 S1                 0.0000
     25 ****        -2.6839   2.2954  -2.3068 H              1 S1                 0.0000
     26 ****        -1.7161   3.1419  -1.1057 H              1 S1                 0.0000
     27 ****        -3.3241   3.7185  -1.4970 H              1 S1                 0.0000
     28 ****        -3.9715   3.5545   1.0610 H              1 S1                 0.0000
     29 ****        -2.3498   2.9875   1.4060 H              1 S1                 0.0000
     30 ****        -3.7389   2.0275   1.9013 H              1 S1                 0.0000
     31 ****        -3.1375  -0.1720  -0.3402 H              1 S1                 0.0000
     32 ****        -1.4978  -1.5634   0.8488 H              1 S1                 0.0000
     33 ****        -1.0283  -1.4285  -0.7996 H              1 S1                 0.0000
     34 ****         4.2855  -1.4887   1.5550 H              1 S1                 0.0000
     35 ****         4.2160  -0.0996  -1.2427 H              1 S1                 0.0000
     36 ****         3.2447  -2.8628  -2.3180 H              1 S1                 0.0000
     37 ****         4.2714  -1.6247  -3.2092 H              1 S1                 0.0000
     38 ****         6.0232  -1.8000  -1.4122 H              1 S1                 0.0000
     39 ****         4.9849  -3.0334  -0.5278 H              1 S1                 0.0000
     40 ****        -0.8372   2.3289   0.4219 LP             1 S1                 0.0000
     41 ****         0.4294   1.1728   0.6650 LP             1 S1                 0.0000
     42 ****        -0.9554  -1.2422   2.5340 LP             1 S1                 0.0000
     43 ****         0.2410  -1.4389   3.7708 LP             1 S1                 0.0000
     44 ****         3.2556  -1.7271   5.7055 LP             1 S1                 0.0000
     45 ****         0.3045  -0.7953  -1.8679 LP             1 S1                 0.0000
     46 ****         1.9737  -0.9033  -2.3176 LP             1 S1                 0.0000
@<TRIPOS>BOND
    1    1    2 1     
    2    1   22 1     
    3    1   23 1     
    4    1   24 1     
    5    2    3 1     
    6    2    4 1     
    7    2    5 1     
    8    3   25 1     
    9    3   26 1     
   10    3   27 1     
   11    4   28 1     
   12    4   29 1     
   13    4   30 1     
   14    5    6 am    
   15    5   31 1     
   16    6    7 2     
   17    6    8 1     
   18    8    9 1     
   19    8   32 1     
   20    8   33 1     
   21    9   20 am    
   22    9   10 am    
   23   10   11 2     
   24   10   12 1     
   25   12   13 1     
   26   12   15 2     
   27   13   14 3     
   28   15   16 1     
   29   15   34 1     
   30   16   17 1     
   31   16   20 am    
   32   17   19 1     
   33   17   18 1     
   34   17   35 1     
   35   18   19 1     
   36   18   36 1     
   37   18   37 1     
   38   19   38 1     
   39   19   39 1     
   40   20   21 2     
   41    7   40 1     
   42    7   41 1     
   43   11   42 1     
   44   11   43 1     
   45   14   44 1     
   46   21   45 1     
   47   21   46 1     
@<TRIPOS>SUBSTRUCTURE
      1 S1             1
@<TRIPOS>SET
LONE_PAIRS      STATIC     ATOMS    <user>   **** ""
7 40 41 42 43 44 45 46
DONOR_HYDROGENS      STATIC     ATOMS    <user>   **** ""
1 31
ATOM$BLUE        STATIC     ATOMS    COLORGROUP SYSTEM
7 40 41 42 43 44 45 46
ATOM$RED        STATIC     ATOMS    COLORGROUP SYSTEM
1 31
