AV-unprocessed.smi:165|AV-procd|sdf|1387|dock3
  -GOLD-   2262019123D 1   1.00000     0.00000
 Structure written by MMmdl.
 55 59  0  0  0  0  0  0  0  0  1 V2000
  146.2731  131.8024  151.3552 O   0  0  0  0  0  0  0  0  0  0  0  0
  145.3422  131.6569  150.3025 C   0  0  0  0  0  0  0  0  0  0  0  0
  144.6119  132.9749  149.9893 C   0  0  0  0  0  0  0  0  0  0  0  0
  143.8993  132.8542  148.6257 C   0  0  0  0  0  0  0  0  0  0  0  0
  143.6613  134.1130  148.0302 O   0  0  0  0  0  0  0  0  0  0  0  0
  143.6939  133.4770  151.1277 C   0  0  0  0  0  0  0  0  0  0  0  0
  144.1794  134.9060  150.8791 C   0  0  0  0  0  0  0  0  0  0  0  0
  144.2925  135.8541  151.9524 N   0  0  0  0  0  0  0  0  0  0  0  0
  145.4334  136.5281  152.3280 C   0  0  0  0  0  0  0  0  0  0  0  0
  145.2933  137.3458  153.3348 N   0  0  0  0  0  0  0  0  0  0  0  0
  143.9518  137.2331  153.6792 C   0  0  0  0  0  0  0  0  0  0  0  0
  143.1341  137.8348  154.6770 C   0  0  0  0  0  0  0  0  0  0  0  0
  143.6105  138.7566  155.5506 N   0  0  0  0  0  0  0  0  0  0  0  0
  143.8721  138.3405  156.9233 C   0  0  0  0  0  0  0  0  0  0  0  0
  144.7072  139.4105  157.6403 C   0  0  0  0  0  0  0  0  0  0  0  0
  144.0731  140.6840  157.5322 O   0  0  0  0  0  0  0  0  0  0  0  0
  143.8109  141.1402  156.1976 C   0  0  1  0  0  0  0  0  0  0  0  0
  142.9868  142.4347  156.3276 C   0  0  0  0  0  0  0  0  0  0  0  0
  143.8361  143.5729  156.9056 C   0  0  0  0  0  0  0  0  0  0  0  0
  145.1249  143.7438  156.0904 C   0  0  0  0  0  0  0  0  0  0  0  0
  145.8401  142.5150  156.0588 O   0  0  0  0  0  0  0  0  0  0  0  0
  145.1199  141.4603  155.4280 C   0  0  0  0  0  0  0  0  0  0  0  0
  142.9732  140.0662  155.4677 C   0  0  0  0  0  0  0  0  0  0  0  0
  141.8296  137.4548  154.7312 N   0  0  0  0  0  0  0  0  0  0  0  0
  141.3526  136.5589  153.8623 C   0  0  0  0  0  0  0  0  0  0  0  0
  141.9950  135.9272  152.8784 N   0  0  0  0  0  0  0  0  0  0  0  0
  143.3079  136.2941  152.8242 C   0  0  0  0  0  0  0  0  0  0  0  0
  145.4138  134.2749  150.2336 C   0  0  0  0  0  0  0  0  0  0  0  0
  147.0611  131.3336  151.1266 H   0  0  0  0  0  0  0  0  0  0  0  0
  145.8584  131.2704  149.4231 H   0  0  0  0  0  0  0  0  0  0  0  0
  144.6330  130.8854  150.6040 H   0  0  0  0  0  0  0  0  0  0  0  0
  144.4792  132.2437  147.9327 H   0  0  0  0  0  0  0  0  0  0  0  0
  142.9348  132.3568  148.7304 H   0  0  0  0  0  0  0  0  0  0  0  0
  144.4853  134.4650  147.7308 H   0  0  0  0  0  0  0  0  0  0  0  0
  142.6273  133.3289  150.9559 H   0  0  0  0  0  0  0  0  0  0  0  0
  143.9811  133.0992  152.1099 H   0  0  0  0  0  0  0  0  0  0  0  0
  143.5641  135.3789  150.1114 H   0  0  0  0  0  0  0  0  0  0  0  0
  146.3827  136.3950  151.8295 H   0  0  0  0  0  0  0  0  0  0  0  0
  142.9250  138.1958  157.4446 H   0  0  0  0  0  0  0  0  0  0  0  0
  144.4036  137.3880  156.9383 H   0  0  0  0  0  0  0  0  0  0  0  0
  144.8031  139.1590  158.6965 H   0  0  0  0  0  0  0  0  0  0  0  0
  145.7209  139.4469  157.2425 H   0  0  0  0  0  0  0  0  0  0  0  0
  142.6155  142.7331  155.3462 H   0  0  0  0  0  0  0  0  0  0  0  0
  142.1082  142.2677  156.9520 H   0  0  0  0  0  0  0  0  0  0  0  0
  143.2665  144.5023  156.9067 H   0  0  0  0  0  0  0  0  0  0  0  0
  144.0864  143.3580  157.9452 H   0  0  0  0  0  0  0  0  0  0  0  0
  144.9035  144.0747  155.0746 H   0  0  0  0  0  0  0  0  0  0  0  0
  145.7567  144.5077  156.5439 H   0  0  0  0  0  0  0  0  0  0  0  0
  145.7684  140.5891  155.3474 H   0  0  0  0  0  0  0  0  0  0  0  0
  144.8904  141.7512  154.4016 H   0  0  0  0  0  0  0  0  0  0  0  0
  142.8083  140.3685  154.4339 H   0  0  0  0  0  0  0  0  0  0  0  0
  141.9863  139.9904  155.9264 H   0  0  0  0  0  0  0  0  0  0  0  0
  140.3063  136.3141  153.9705 H   0  0  0  0  0  0  0  0  0  0  0  0
  146.2392  134.1347  150.9330 H   0  0  0  0  0  0  0  0  0  0  0  0
  145.7560  134.7823  149.3313 H   0  0  0  0  0  0  0  0  0  0  0  0
  1  2  1  0  0  0  0
  1 29  1  0  0  0  0
  2  3  1  0  0  0  0
  2 30  1  0  0  0  0
  2 31  1  0  0  0  0
  3 28  1  0  0  0  0
  3  4  1  0  0  0  0
  3  6  1  0  0  0  0
  4  5  1  0  0  0  0
  4 32  1  0  0  0  0
  4 33  1  0  0  0  0
  5 34  1  0  0  0  0
  6  7  1  0  0  0  0
  6 35  1  0  0  0  0
  6 36  1  0  0  0  0
  7  8  1  0  0  0  0
  7 28  1  0  0  0  0
  7 37  1  0  0  0  0
  8 27  1  0  0  0  0
  8  9  1  0  0  0  0
  9 10  2  0  0  0  0
  9 38  1  0  0  0  0
 10 11  1  0  0  0  0
 11 27  2  0  0  0  0
 11 12  1  0  0  0  0
 12 13  1  0  0  0  0
 12 24  2  0  0  0  0
 13 23  1  0  0  0  0
 13 14  1  0  0  0  0
 14 15  1  0  0  0  0
 14 39  1  0  0  0  0
 14 40  1  0  0  0  0
 15 16  1  0  0  0  0
 15 41  1  0  0  0  0
 15 42  1  0  0  0  0
 16 17  1  0  0  0  0
 17 22  1  0  0  0  0
 17 18  1  0  0  0  0
 17 23  1  0  0  0  0
 18 19  1  0  0  0  0
 18 43  1  0  0  0  0
 18 44  1  0  0  0  0
 19 20  1  0  0  0  0
 19 45  1  0  0  0  0
 19 46  1  0  0  0  0
 20 21  1  0  0  0  0
 20 47  1  0  0  0  0
 20 48  1  0  0  0  0
 21 22  1  0  0  0  0
 22 49  1  0  0  0  0
 22 50  1  0  0  0  0
 23 51  1  0  0  0  0
 23 52  1  0  0  0  0
 24 25  1  0  0  0  0
 25 26  2  0  0  0  0
 25 53  1  0  0  0  0
 26 27  1  0  0  0  0
 28 54  1  0  0  0  0
 28 55  1  0  0  0  0
M  END
> <s_m_source_file>
AV-unprocessed.smi

> <i_m_source_file_index>
165

> <i_lp_mmshare_version>
43012

> <i_f3d_flags>
0

> <s_epik_input>
W09IXVtDSDJdQzEoW0NIMl1bT0hdKVtDSDJdW0NIXShbQ0gyXTEpbihbY0hdbjIpYyhjMjMpbltjSF1uYzNOKFtDSDJdNClbQ0gyXVtDSDJdT1tDQEBdNDVbQ0gyXVtDSDJdW0NIMl1PW0NIMl01

> <s_epik_cmdline>
J2VwaWtfcHl0aG9uJywgJy1waCcsICc3LjAnLCAnLXRuJywgJzgnLCAnLW1hJywgJzIwMCcsICctbWV0YWxfYmluZGluZycsICctaW1hZScsICc8aW5maWxlLm1hZT4nLCAnLW9tYWUnLCAnPG91dGZpbGUubWFlPic=

> <r_lp_tautomer_probability>
1

> <r_epik_Ionization_Penalty>
0.00466923

> <r_epik_Ionization_Penalty_Charging>
0

> <r_epik_Ionization_Penalty_Neutral>
0.00466923

> <r_epik_State_Penalty>
0.0032353

> <r_epik_Charging_Adjusted_Penalty>
0.0032353

> <i_epik_Tot_Q>
0

> <i_epik_Tot_abs_Q>
0

> <r_epik_Metal_State_Penalty>
-0

> <b_epik_Metal_Only>
0

> <s_lp_Force_Field>
OPLS_2005

> <r_lp_Energy>
53.1571

> <b_lp_Chiralities_Consistent>
1

> <s_lp_Variant>
AV-unprocessed.smi:165-2

> <Gold.Version>
5.8.1

> <Gold.Id.Protein>
6NUR|6NUR_protein|mol2

> <Gold.PLP.Fitness>
43.3282

> <Gold.PLP.PLP>
-33.1627

> <Gold.PLP.part.hbond>
-4.5083

> <Gold.PLP.part.metal>
0.0000

> <Gold.PLP.part.buried>
-2.9757

> <Gold.PLP.part.nonpolar>
-26.0838

> <Gold.PLP.part.repulsive>
0.5988

> <Gold.PLP.ligand.clash>
0.0000

> <Gold.PLP.ligand.torsion>
1.0685

> <Gold.PLP.Chemscore.Hbond>
3.0000

> <Gold.PLP.Chemscore.CHOScore>
0.8530

> <Gold.PLP.Chemscore.Metal>
0.0000

> <Gold.Chemscore.Hbonds>
donor molecule, donor type, donor heavy atom, donor atom, acceptor molecule, acceptor atom, score
      L1  H     1    29       P1 10747  0.70
      L1  H     5    34       P1  7921  1.00
      P1  H 10192 10197       L1     5  0.73
      L1  C     9    38       P1  7948  0.95

> <Gold.PLP.Chemscore.Internal.Correction>
0.7435

> <Gold.Rescore>
     Score         DG    S(hbond)    S(metal)    S(lipo)     H(rot)  DE(clash)    DE(int)     intcor
     10.66     -14.63       2.88        0.00      64.69       3.14       1.62       2.35       ----

> <Gold.Chemscore.Fitness>
10.6590

> <Gold.Chemscore.DG>
-14.6302

> <Gold.Chemscore.ZeroCoef>
-5.4800

> <Gold.Chemscore.Hbond>
2.8766

> <Gold.Chemscore.Metal>
0.0000

> <Gold.Chemscore.Lipo>
64.6879

> <Gold.Chemscore.Internal_Hbond>
0.0000

> <Gold.Chemscore.DEClash>
1.6233

> <Gold.Chemscore.DEInternal>
2.3479

> <Gold.Chemscore.Rot>
3.1351

> <Gold.Chemscore.Internal.Correction>
   9.000000E+99

> <Gold.Chemscore.Hbonds>
donor molecule, donor type, donor heavy atom, donor atom, acceptor molecule, acceptor atom, score
      L1  H     1    29       P1 10747  0.71
      L1  H     5    34       P1  7921  1.00
      P1  H 10192 10197       L1     5  0.57

> <Gold.Chemscore.Hbond.Weighted>
-9.6077

> <Gold.Chemscore.Metal.Weighted>
-0.0000

> <Gold.Chemscore.Lipo.Weighted>
-7.5685

> <Gold.Chemscore.Internal_Hbond.Weighted>
0.0000

> <Gold.Chemscore.DEClash.Weighted>
1.6233

> <Gold.Chemscore.DEInternal.Weighted>
2.3479

> <Gold.Chemscore.Rot.Weighted>
8.0260

> <Gold.Chemscore.Internal.Correction.Weighted>
   9.000000E+99

> <Gold.Protein.RotatedTorsions>
[ 6907 6896 6895 6894 ] final  175.54 input  -60.11 | X-H torsion
[ 7974 7965 7964 7962 ] final   54.71 input  175.53 | X-H torsion
[ 8008 7997 7996 7995 ] final -100.38 input   59.86 | X-H torsion
[ 10167 10162 10161 10158 ] final  -33.38 input  -65.29 | X-H torsion
[ 10718 10713 10712 10709 ] final  102.60 input   66.30 | X-H torsion
[ 10763 10752 10751 10750 ] final    9.24 input  -60.55 | X-H torsion
[ 11005 11000 10999 10996 ] final  131.68 input  -57.11 | X-H torsion

> <Gold.Protein.ActiveResidues>
 VAL166  LYS551  ARG553  GLY616  TRP617  ASP618  TYR619  PRO620  LYS621  CYS622 
 ASP623  PHE694  ASN695  SER759  ASP760  ASP761  ALA762  ILE779  LEU786  VAL792 
 PHE793  MET794  SER795  GLU796  ALA797  LYS798  CYS799  TRP800  GLU811  SER814 

> <Gold.Protein.RotatedAtoms>
  151.7347  133.3319  159.3349 H   0  0  0  0  0  0  0  0  0  0  0  0  # atno 6907 bound_to 6896
  150.7598  134.6332  159.6207 H   0  0  0  0  0  0  0  0  0  0  0  0  # atno 6908 bound_to 6896
  152.3569  134.6929  160.0271 H   0  0  0  0  0  0  0  0  0  0  0  0  # atno 6909 bound_to 6896
  145.9581  139.4033  143.0265 H   0  0  0  0  0  0  0  0  0  0  0  0  # atno 7974 bound_to 7965
  154.8278  140.0441  157.1455 H   0  0  0  0  0  0  0  0  0  0  0  0  # atno 8008 bound_to 7997
  154.9187  140.3024  155.5207 H   0  0  0  0  0  0  0  0  0  0  0  0  # atno 8009 bound_to 7997
  156.2985  140.2344  156.4235 H   0  0  0  0  0  0  0  0  0  0  0  0  # atno 8010 bound_to 7997
  140.7205  143.3625  151.1936 H   0  0  0  0  0  0  0  0  0  0  0  0  # atno 10167 bound_to 10162
  157.6797  131.0757  150.5429 H   0  0  0  0  0  0  0  0  0  0  0  0  # atno 10718 bound_to 10713
  153.2161  135.6875  153.8055 H   0  0  0  0  0  0  0  0  0  0  0  0  # atno 10763 bound_to 10752
  153.7270  135.3258  155.3279 H   0  0  0  0  0  0  0  0  0  0  0  0  # atno 10764 bound_to 10752
  154.8247  135.4627  154.0989 H   0  0  0  0  0  0  0  0  0  0  0  0  # atno 10765 bound_to 10752
  139.9745  134.9567  156.9474 H   0  0  0  0  0  0  0  0  0  0  0  0  # atno 11005 bound_to 11000
  145.8079  140.9740  143.0964 LP  0  0  0  0  0  0  0  0  0  0  0  0  # atno 17320 bound_to 7965
  144.6809  139.9883  143.7484 LP  0  0  0  0  0  0  0  0  0  0  0  0  # atno 17321 bound_to 7965
  139.7179  143.9270  152.2974 LP  0  0  0  0  0  0  0  0  0  0  0  0  # atno 17342 bound_to 10162
  139.9017  144.6908  150.8658 LP  0  0  0  0  0  0  0  0  0  0  0  0  # atno 17343 bound_to 10162
  156.5736  130.4286  149.6008 LP  0  0  0  0  0  0  0  0  0  0  0  0  # atno 17370 bound_to 10713
  156.2720  130.7022  151.1822 LP  0  0  0  0  0  0  0  0  0  0  0  0  # atno 17371 bound_to 10713
  140.5224  134.0894  155.7295 LP  0  0  0  0  0  0  0  0  0  0  0  0  # atno 17394 bound_to 11000
  141.1423  133.9117  157.2298 LP  0  0  0  0  0  0  0  0  0  0  0  0  # atno 17395 bound_to 11000

$$$$
