AV-unprocessed.smi:1504|AV-procd|sdf|6071|dock7
  -GOLD-   22720 6193D 1   1.00000     0.00000
 Structure written by MMmdl.
 39 40  0  0  0  0  0  0  0  0  1 V2000
  153.9344  139.2436  157.7908 O   0  0  0  0  0  0  0  0  0  0  0  0
  153.0019  138.8034  158.4631 C   0  0  0  0  0  0  0  0  0  0  0  0
  151.7092  139.0264  158.1897 N   0  0  0  0  0  0  0  0  0  0  0  0
  151.2160  139.8299  157.0748 C   0  0  0  0  0  0  0  0  0  0  0  0
  150.3594  141.0303  157.5254 C   0  0  0  0  0  0  0  0  0  0  0  0
  151.1395  142.0799  158.2987 C   0  0  0  0  0  0  0  0  0  0  0  0
  151.2558  143.3986  157.8092 C   0  0  0  0  0  0  0  0  0  0  0  0
  151.9876  144.3336  158.5662 C   0  0  0  0  0  0  0  0  0  0  0  0
  152.5728  143.9161  159.7771 C   0  0  0  0  0  0  0  0  0  0  0  0
  152.3994  142.5764  160.1782 C   0  0  0  0  0  0  0  0  0  0  0  0
  151.6987  141.6721  159.4603 N   0  0  0  0  0  0  0  0  0  0  0  0
  153.1555  138.0485  159.5600 N   0  0  0  0  0  0  0  0  0  0  0  0
  154.4343  137.6225  160.1210 C   0  0  0  0  0  0  0  0  0  0  0  0
  154.2619  136.6620  161.3152 C   0  0  2  0  0  0  0  0  0  0  0  0
  154.1815  137.3675  162.6863 C   0  0  0  0  0  0  0  0  0  0  0  0
  154.3104  136.3142  163.7902 C   0  0  0  0  0  0  0  0  0  0  0  0
  155.4629  135.0542  163.1324 S   0  0  0  0  0  0  0  0  0  0  0  0
  156.8123  135.2999  163.6633 O   0  0  0  0  0  0  0  0  0  0  0  0
  154.8364  133.7280  163.2405 O   0  0  0  0  0  0  0  0  0  0  0  0
  155.3962  135.6267  161.3915 C   0  0  0  0  0  0  0  0  0  0  0  0
  151.0147  138.6186  158.7984 H   0  0  0  0  0  0  0  0  0  0  0  0
  152.0849  140.1916  156.5243 H   0  0  0  0  0  0  0  0  0  0  0  0
  150.6538  139.2022  156.3817 H   0  0  0  0  0  0  0  0  0  0  0  0
  149.9036  141.5008  156.6534 H   0  0  0  0  0  0  0  0  0  0  0  0
  149.5297  140.6805  158.1411 H   0  0  0  0  0  0  0  0  0  0  0  0
  150.7930  143.6892  156.8773 H   0  0  0  0  0  0  0  0  0  0  0  0
  152.0981  145.3519  158.2242 H   0  0  0  0  0  0  0  0  0  0  0  0
  153.1421  144.6051  160.3831 H   0  0  0  0  0  0  0  0  0  0  0  0
  152.8351  142.2220  161.1007 H   0  0  0  0  0  0  0  0  0  0  0  0
  152.3242  137.7373  160.0410 H   0  0  0  0  0  0  0  0  0  0  0  0
  154.9843  137.1167  159.3269 H   0  0  0  0  0  0  0  0  0  0  0  0
  155.0395  138.4849  160.4057 H   0  0  0  0  0  0  0  0  0  0  0  0
  153.3306  136.1093  161.1810 H   0  0  0  0  0  0  0  0  0  0  0  0
  155.0084  138.0736  162.7746 H   0  0  0  0  0  0  0  0  0  0  0  0
  153.2603  137.9393  162.7994 H   0  0  0  0  0  0  0  0  0  0  0  0
  154.6870  136.7201  164.7292 H   0  0  0  0  0  0  0  0  0  0  0  0
  153.3514  135.8301  163.9764 H   0  0  0  0  0  0  0  0  0  0  0  0
  155.2414  134.7787  160.7241 H   0  0  0  0  0  0  0  0  0  0  0  0
  156.3597  136.0799  161.1562 H   0  0  0  0  0  0  0  0  0  0  0  0
  1  2  2  0  0  0  0
  2  3  1  0  0  0  0
  2 12  1  0  0  0  0
  3  4  1  0  0  0  0
  3 21  1  0  0  0  0
  4  5  1  0  0  0  0
  4 22  1  0  0  0  0
  4 23  1  0  0  0  0
  5  6  1  0  0  0  0
  5 24  1  0  0  0  0
  5 25  1  0  0  0  0
  6 11  1  0  0  0  0
  6  7  2  0  0  0  0
  7  8  1  0  0  0  0
  7 26  1  0  0  0  0
  8  9  2  0  0  0  0
  8 27  1  0  0  0  0
  9 10  1  0  0  0  0
  9 28  1  0  0  0  0
 10 11  2  0  0  0  0
 10 29  1  0  0  0  0
 12 13  1  0  0  0  0
 12 30  1  0  0  0  0
 13 14  1  0  0  0  0
 13 31  1  0  0  0  0
 13 32  1  0  0  0  0
 14 20  1  0  0  0  0
 14 15  1  0  0  0  0
 14 33  1  0  0  0  0
 15 16  1  0  0  0  0
 15 34  1  0  0  0  0
 15 35  1  0  0  0  0
 16 17  1  0  0  0  0
 16 36  1  0  0  0  0
 16 37  1  0  0  0  0
 17 18  2  0  0  0  0
 17 19  2  0  0  0  0
 17 20  1  0  0  0  0
 20 38  1  0  0  0  0
 20 39  1  0  0  0  0
M  END
> <s_m_source_file>
AV-unprocessed.smi

> <i_m_source_file_index>
1504

> <i_lp_mmshare_version>
43012

> <i_f3d_flags>
0

> <s_epik_input>
Tz1TMSg9TylbQ0gyXVtDSDJdW0NASF0oW0NIMl0xKVtDSDJdW05IXUMoPU8pW05IXVtDSDJdW0NIMl1jMltjSF1bY0hdW2NIXVtjSF1uMg==

> <s_epik_cmdline>
J2VwaWtfcHl0aG9uJywgJy1waCcsICc3LjAnLCAnLXRuJywgJzgnLCAnLW1hJywgJzIwMCcsICctbWV0YWxfYmluZGluZycsICctaW1hZScsICc8aW5maWxlLm1hZT4nLCAnLW9tYWUnLCAnPG91dGZpbGUubWFlPic=

> <r_epik_Ionization_Penalty>
0.0431785

> <r_epik_Ionization_Penalty_Charging>
0

> <r_epik_Ionization_Penalty_Neutral>
0.0431785

> <r_epik_State_Penalty>
0.0364691

> <r_epik_Charging_Adjusted_Penalty>
0.0364691

> <i_epik_Tot_Q>
0

> <i_epik_Tot_abs_Q>
0

> <r_epik_Metal_State_Penalty>
0.0339827

> <b_epik_Metal_Only>
0

> <s_lp_Force_Field>
OPLS_2005

> <r_lp_Energy>
2.61241

> <b_lp_Chiralities_Consistent>
1

> <s_lp_Variant>
AV-unprocessed.smi:1504-1

> <Gold.Version>
5.8.1

> <Gold.Id.Protein>
6NUR|6NUR_protein|mol2

> <Gold.PLP.Fitness>
40.1076

> <Gold.PLP.PLP>
-37.9586

> <Gold.PLP.part.hbond>
-0.8813

> <Gold.PLP.part.metal>
0.0000

> <Gold.PLP.part.buried>
-5.2268

> <Gold.PLP.part.nonpolar>
-32.1878

> <Gold.PLP.part.repulsive>
0.2390

> <Gold.PLP.ligand.clash>
0.0000

> <Gold.PLP.ligand.torsion>
0.4340

> <Gold.PLP.Chemscore.Hbond>
1.0000

> <Gold.PLP.Chemscore.CHOScore>
0.0000

> <Gold.PLP.Chemscore.Metal>
0.0000

> <Gold.Chemscore.Hbonds>
donor molecule, donor type, donor heavy atom, donor atom, acceptor molecule, acceptor atom, score
      P1  H  7997  8010       L1     1  0.55

> <Gold.PLP.Chemscore.Internal.Correction>
0.0170

> <Gold.Rescore>
     Score         DG    S(hbond)    S(metal)    S(lipo)     H(rot)  DE(clash)    DE(int)     intcor
     14.72     -16.27       1.00        0.00     105.53       1.91       0.03       1.51       ----

> <Gold.Chemscore.Fitness>
14.7222

> <Gold.Chemscore.DG>
-16.2689

> <Gold.Chemscore.ZeroCoef>
-5.4800

> <Gold.Chemscore.Hbond>
0.9978

> <Gold.Chemscore.Metal>
0.0000

> <Gold.Chemscore.Lipo>
105.5304

> <Gold.Chemscore.Internal_Hbond>
0.0000

> <Gold.Chemscore.DEClash>
0.0349

> <Gold.Chemscore.DEInternal>
1.5118

> <Gold.Chemscore.Rot>
1.9105

> <Gold.Chemscore.Internal.Correction>
   9.000000E+99

> <Gold.Chemscore.Hbonds>
donor molecule, donor type, donor heavy atom, donor atom, acceptor molecule, acceptor atom, score
      P1  H  7997  8010       L1     1  0.54

> <Gold.Chemscore.Hbond.Weighted>
-3.3327

> <Gold.Chemscore.Metal.Weighted>
-0.0000

> <Gold.Chemscore.Lipo.Weighted>
-12.3471

> <Gold.Chemscore.Internal_Hbond.Weighted>
0.0000

> <Gold.Chemscore.DEClash.Weighted>
0.0349

> <Gold.Chemscore.DEInternal.Weighted>
1.5118

> <Gold.Chemscore.Rot.Weighted>
4.8908

> <Gold.Chemscore.Internal.Correction.Weighted>
   9.000000E+99

> <Gold.Protein.RotatedTorsions>
[ 6907 6896 6895 6894 ] final -136.26 input  -60.11 | X-H torsion
[ 7974 7965 7964 7962 ] final -134.21 input  175.53 | X-H torsion
[ 8008 7997 7996 7995 ] final    8.36 input   59.86 | X-H torsion
[ 10167 10162 10161 10158 ] final   87.87 input  -65.29 | X-H torsion
[ 10718 10713 10712 10709 ] final  -44.25 input   66.30 | X-H torsion
[ 10763 10752 10751 10750 ] final  179.64 input  -60.55 | X-H torsion
[ 11005 11000 10999 10996 ] final -128.90 input  -57.11 | X-H torsion

> <Gold.Protein.ActiveResidues>
 VAL166  LYS551  ARG553  GLY616  TRP617  ASP618  TYR619  PRO620  LYS621  CYS622 
 ASP623  PHE694  ASN695  SER759  ASP760  ASP761  ALA762  ILE779  LEU786  VAL792 
 PHE793  MET794  SER795  GLU796  ALA797  LYS798  CYS799  TRP800  GLU811  SER814 

> <Gold.Protein.RotatedAtoms>
  151.0079  133.5993  159.2686 H   0  0  0  0  0  0  0  0  0  0  0  0  # atno 6907 bound_to 6896
  151.3156  135.0804  159.9297 H   0  0  0  0  0  0  0  0  0  0  0  0  # atno 6908 bound_to 6896
  152.5291  133.9736  159.7827 H   0  0  0  0  0  0  0  0  0  0  0  0  # atno 6909 bound_to 6896
  144.9123  140.6911  143.5017 H   0  0  0  0  0  0  0  0  0  0  0  0  # atno 7974 bound_to 7965
  154.7658  140.2793  155.6177 H   0  0  0  0  0  0  0  0  0  0  0  0  # atno 8008 bound_to 7997
  156.2924  140.2651  156.2375 H   0  0  0  0  0  0  0  0  0  0  0  0  # atno 8009 bound_to 7997
  154.9961  140.0373  157.2330 H   0  0  0  0  0  0  0  0  0  0  0  0  # atno 8010 bound_to 7997
  139.8730  144.6482  150.8928 H   0  0  0  0  0  0  0  0  0  0  0  0  # atno 10167 bound_to 10162
  156.2405  130.4179  149.8766 H   0  0  0  0  0  0  0  0  0  0  0  0  # atno 10718 bound_to 10713
  154.5232  135.2795  155.1244 H   0  0  0  0  0  0  0  0  0  0  0  0  # atno 10763 bound_to 10752
  154.2793  135.6288  153.5344 H   0  0  0  0  0  0  0  0  0  0  0  0  # atno 10764 bound_to 10752
  152.9941  135.5647  154.5727 H   0  0  0  0  0  0  0  0  0  0  0  0  # atno 10765 bound_to 10752
  140.9477  134.1108  157.4092 H   0  0  0  0  0  0  0  0  0  0  0  0  # atno 11005 bound_to 11000
  145.3433  139.1726  143.4474 LP  0  0  0  0  0  0  0  0  0  0  0  0  # atno 17320 bound_to 7965
  146.3165  140.3477  142.8653 LP  0  0  0  0  0  0  0  0  0  0  0  0  # atno 17321 bound_to 7965
  140.7757  143.3648  151.1760 LP  0  0  0  0  0  0  0  0  0  0  0  0  # atno 17342 bound_to 10162
  139.7266  143.9139  152.3005 LP  0  0  0  0  0  0  0  0  0  0  0  0  # atno 17343 bound_to 10162
  156.6349  130.8681  151.3502 LP  0  0  0  0  0  0  0  0  0  0  0  0  # atno 17370 bound_to 10713
  157.7173  130.9513  150.1304 LP  0  0  0  0  0  0  0  0  0  0  0  0  # atno 17371 bound_to 10713
  139.8838  135.0056  156.6326 LP  0  0  0  0  0  0  0  0  0  0  0  0  # atno 17394 bound_to 11000
  140.7646  133.8788  155.8445 LP  0  0  0  0  0  0  0  0  0  0  0  0  # atno 17395 bound_to 11000

$$$$
