AV-unprocessed.smi:387|AV-procd|sdf|2474|dock8
  -GOLD-   2262022413D 1   1.00000     0.00000
 Structure written by MMmdl.
 39 40  0  0  0  0  0  0  0  0  1 V2000
  152.2943  144.4797  158.3487 C   0  0  0  0  0  0  0  0  0  0  0  0
  151.5439  143.9588  159.5873 C   0  0  0  0  0  0  0  0  0  0  0  0
  152.5616  143.7019  160.7187 C   0  0  0  0  0  0  0  0  0  0  0  0
  150.5025  145.0118  160.0218 C   0  0  0  0  0  0  0  0  0  0  0  0
  150.8848  142.7087  159.1908 N   0  0  0  0  0  0  0  0  0  0  0  0
  151.4491  141.5400  158.8393 C   0  0  0  0  0  0  0  0  0  0  0  0
  152.6658  141.3503  158.8039 O   0  0  0  0  0  0  0  0  0  0  0  0
  150.4653  140.4190  158.4697 C   0  0  0  0  0  0  0  0  0  0  0  0
  150.4955  140.0526  157.0366 N   0  0  0  0  0  0  0  0  0  0  0  0
  151.6727  139.4611  156.5115 C   0  0  0  0  0  0  0  0  0  0  0  0
  152.6431  139.2279  157.2344 O   0  0  0  0  0  0  0  0  0  0  0  0
  151.6472  139.1741  155.0792 C   0  0  0  0  0  0  0  0  0  0  0  0
  152.8247  138.6097  154.5075 C   0  0  0  0  0  0  0  0  0  0  0  0
  153.7945  138.1647  154.0595 N   0  0  0  0  0  0  0  0  0  0  0  0
  150.5537  139.4415  154.3361 C   0  0  0  0  0  0  0  0  0  0  0  0
  149.4054  139.9805  154.8738 N   0  0  0  0  0  0  0  0  0  0  0  0
  148.3154  140.4029  154.0403 C   0  0  0  0  0  0  0  0  0  0  0  0
  146.8822  140.1570  154.4702 C   0  0  0  0  0  0  0  0  0  0  0  0
  147.4788  139.3548  153.3394 C   0  0  0  0  0  0  0  0  0  0  0  0
  149.3660  140.3506  156.2359 C   0  0  0  0  0  0  0  0  0  0  0  0
  148.3849  140.9265  156.7131 O   0  0  0  0  0  0  0  0  0  0  0  0
  152.8162  145.4129  158.5637 H   0  0  0  0  0  0  0  0  0  0  0  0
  151.6107  144.6705  157.5204 H   0  0  0  0  0  0  0  0  0  0  0  0
  153.0382  143.7612  158.0018 H   0  0  0  0  0  0  0  0  0  0  0  0
  153.2845  142.9358  160.4363 H   0  0  0  0  0  0  0  0  0  0  0  0
  152.0787  143.3758  161.6398 H   0  0  0  0  0  0  0  0  0  0  0  0
  153.1211  144.6074  160.9557 H   0  0  0  0  0  0  0  0  0  0  0  0
  150.9775  145.9720  160.2261 H   0  0  0  0  0  0  0  0  0  0  0  0
  149.9750  144.7188  160.9295 H   0  0  0  0  0  0  0  0  0  0  0  0
  149.7553  145.1755  159.2444 H   0  0  0  0  0  0  0  0  0  0  0  0
  149.8756  142.7383  159.1813 H   0  0  0  0  0  0  0  0  0  0  0  0
  150.6760  139.5523  159.0984 H   0  0  0  0  0  0  0  0  0  0  0  0
  149.4628  140.7260  158.7722 H   0  0  0  0  0  0  0  0  0  0  0  0
  150.5745  139.2215  153.2783 H   0  0  0  0  0  0  0  0  0  0  0  0
  148.4898  141.3203  153.4805 H   0  0  0  0  0  0  0  0  0  0  0  0
  146.7076  139.6359  155.4097 H   0  0  0  0  0  0  0  0  0  0  0  0
  146.1461  140.9165  154.2156 H   0  0  0  0  0  0  0  0  0  0  0  0
  147.1378  139.5780  152.3305 H   0  0  0  0  0  0  0  0  0  0  0  0
  147.6986  138.3069  153.5352 H   0  0  0  0  0  0  0  0  0  0  0  0
  1  2  1  0  0  0  0
  1 22  1  0  0  0  0
  1 23  1  0  0  0  0
  1 24  1  0  0  0  0
  2  3  1  0  0  0  0
  2  4  1  0  0  0  0
  2  5  1  0  0  0  0
  3 25  1  0  0  0  0
  3 26  1  0  0  0  0
  3 27  1  0  0  0  0
  4 28  1  0  0  0  0
  4 29  1  0  0  0  0
  4 30  1  0  0  0  0
  5  6  1  0  0  0  0
  5 31  1  0  0  0  0
  6  7  2  0  0  0  0
  6  8  1  0  0  0  0
  8  9  1  0  0  0  0
  8 32  1  0  0  0  0
  8 33  1  0  0  0  0
  9 20  1  0  0  0  0
  9 10  1  0  0  0  0
 10 11  2  0  0  0  0
 10 12  1  0  0  0  0
 12 13  1  0  0  0  0
 12 15  2  0  0  0  0
 13 14  3  0  0  0  0
 15 16  1  0  0  0  0
 15 34  1  0  0  0  0
 16 17  1  0  0  0  0
 16 20  1  0  0  0  0
 17 19  1  0  0  0  0
 17 18  1  0  0  0  0
 17 35  1  0  0  0  0
 18 19  1  0  0  0  0
 18 36  1  0  0  0  0
 18 37  1  0  0  0  0
 19 38  1  0  0  0  0
 19 39  1  0  0  0  0
 20 21  2  0  0  0  0
M  END
> <s_m_source_file>
AV-unprocessed.smi

> <i_m_source_file_index>
387

> <i_lp_mmshare_version>
43012

> <i_f3d_flags>
0

> <s_epik_input>
W0NIM11DKFtDSDNdKShbQ0gzXSlbTkhdQyg9TylbQ0gyXW4xYyg9TyljKEMjTilbY0hdbihjMT1PKVtDSF0yW0NIMl1bQ0gyXTI=

> <s_epik_cmdline>
J2VwaWtfcHl0aG9uJywgJy1waCcsICc3LjAnLCAnLXRuJywgJzgnLCAnLW1hJywgJzIwMCcsICctbWV0YWxfYmluZGluZycsICctaW1hZScsICc8aW5maWxlLm1hZT4nLCAnLW9tYWUnLCAnPG91dGZpbGUubWFlPic=

> <r_lp_tautomer_probability>
1

> <r_epik_Ionization_Penalty>
2.47136e-08

> <r_epik_Ionization_Penalty_Charging>
8.30431e-11

> <r_epik_Ionization_Penalty_Neutral>
2.46306e-08

> <r_epik_State_Penalty>
-0

> <r_epik_Charging_Adjusted_Penalty>
8.30431e-11

> <i_epik_Tot_Q>
0

> <i_epik_Tot_abs_Q>
0

> <r_epik_Metal_State_Penalty>
-0

> <b_epik_Metal_Only>
0

> <s_lp_Force_Field>
OPLS_2005

> <r_lp_Energy>
29.2267

> <b_lp_Chiralities_Consistent>
1

> <s_lp_Variant>
AV-unprocessed.smi:387-1

> <Gold.Version>
5.8.1

> <Gold.Id.Protein>
6NUR|6NUR_protein|mol2

> <Gold.PLP.Fitness>
44.0517

> <Gold.PLP.PLP>
-38.5417

> <Gold.PLP.part.hbond>
-1.9691

> <Gold.PLP.part.metal>
0.0000

> <Gold.PLP.part.buried>
-1.9499

> <Gold.PLP.part.nonpolar>
-34.0953

> <Gold.PLP.part.repulsive>
0.1841

> <Gold.PLP.ligand.clash>
0.0000

> <Gold.PLP.ligand.torsion>
0.4226

> <Gold.PLP.Chemscore.Hbond>
1.0468

> <Gold.PLP.Chemscore.CHOScore>
1.0000

> <Gold.PLP.Chemscore.Metal>
0.0000

> <Gold.Chemscore.Hbonds>
donor molecule, donor type, donor heavy atom, donor atom, acceptor molecule, acceptor atom, score
      P1  H  7997  8009       L1    11  1.00
      L1  C    15    34       P1  7957  1.00

> <Gold.PLP.Chemscore.Internal.Correction>
0.2148

> <Gold.Rescore>
     Score         DG    S(hbond)    S(metal)    S(lipo)     H(rot)  DE(clash)    DE(int)     intcor
     11.51     -13.56       0.99        0.00      79.55       1.78       0.29       1.77       ----

> <Gold.Chemscore.Fitness>
11.5079

> <Gold.Chemscore.DG>
-13.5637

> <Gold.Chemscore.ZeroCoef>
-5.4800

> <Gold.Chemscore.Hbond>
0.9946

> <Gold.Chemscore.Metal>
0.0000

> <Gold.Chemscore.Lipo>
79.5536

> <Gold.Chemscore.Internal_Hbond>
0.0000

> <Gold.Chemscore.DEClash>
0.2900

> <Gold.Chemscore.DEInternal>
1.7658

> <Gold.Chemscore.Rot>
1.7757

> <Gold.Chemscore.Internal.Correction>
   9.000000E+99

> <Gold.Chemscore.Hbonds>
donor molecule, donor type, donor heavy atom, donor atom, acceptor molecule, acceptor atom, score
      P1  H  7997  8009       L1    11  0.90

> <Gold.Chemscore.Hbond.Weighted>
-3.3218

> <Gold.Chemscore.Metal.Weighted>
-0.0000

> <Gold.Chemscore.Lipo.Weighted>
-9.3078

> <Gold.Chemscore.Internal_Hbond.Weighted>
0.0000

> <Gold.Chemscore.DEClash.Weighted>
0.2900

> <Gold.Chemscore.DEInternal.Weighted>
1.7658

> <Gold.Chemscore.Rot.Weighted>
4.5459

> <Gold.Chemscore.Internal.Correction.Weighted>
   9.000000E+99

> <Gold.Protein.RotatedTorsions>
[ 6907 6896 6895 6894 ] final   24.82 input  -60.11 | X-H torsion
[ 7974 7965 7964 7962 ] final   84.65 input  175.53 | X-H torsion
[ 8008 7997 7996 7995 ] final  173.43 input   59.86 | X-H torsion
[ 10167 10162 10161 10158 ] final  102.35 input  -65.29 | X-H torsion
[ 10718 10713 10712 10709 ] final   20.94 input   66.30 | X-H torsion
[ 10763 10752 10751 10750 ] final   80.12 input  -60.55 | X-H torsion
[ 11005 11000 10999 10996 ] final  105.24 input  -57.11 | X-H torsion

> <Gold.Protein.ActiveResidues>
 VAL166  LYS551  ARG553  GLY616  TRP617  ASP618  TYR619  PRO620  LYS621  CYS622 
 ASP623  PHE694  ASN695  SER759  ASP760  ASP761  ALA762  ILE779  LEU786  VAL792 
 PHE793  MET794  SER795  GLU796  ALA797  LYS798  CYS799  TRP800  GLU811  SER814 

> <Gold.Protein.RotatedAtoms>
  151.9632  135.0113  160.0548 H   0  0  0  0  0  0  0  0  0  0  0  0  # atno 6907 bound_to 6896
  152.1849  133.4728  159.4986 H   0  0  0  0  0  0  0  0  0  0  0  0  # atno 6908 bound_to 6896
  150.6924  134.1703  159.4252 H   0  0  0  0  0  0  0  0  0  0  0  0  # atno 6909 bound_to 6896
  145.5960  139.2345  143.2273 H   0  0  0  0  0  0  0  0  0  0  0  0  # atno 7974 bound_to 7965
  156.1076  140.1460  156.9383 H   0  0  0  0  0  0  0  0  0  0  0  0  # atno 8008 bound_to 7997
  154.4744  140.0899  156.7270 H   0  0  0  0  0  0  0  0  0  0  0  0  # atno 8009 bound_to 7997
  155.4652  140.3440  155.4320 H   0  0  0  0  0  0  0  0  0  0  0  0  # atno 8010 bound_to 7997
  139.7357  144.7024  151.0652 H   0  0  0  0  0  0  0  0  0  0  0  0  # atno 10167 bound_to 10162
  157.1315  130.6593  149.5953 H   0  0  0  0  0  0  0  0  0  0  0  0  # atno 10718 bound_to 10713
  153.1007  135.4814  154.8862 H   0  0  0  0  0  0  0  0  0  0  0  0  # atno 10763 bound_to 10752
  154.7376  135.3074  154.8787 H   0  0  0  0  0  0  0  0  0  0  0  0  # atno 10764 bound_to 10752
  153.9404  135.6834  153.4798 H   0  0  0  0  0  0  0  0  0  0  0  0  # atno 10765 bound_to 10752
  139.8800  134.9329  156.5484 H   0  0  0  0  0  0  0  0  0  0  0  0  # atno 11005 bound_to 11000
  146.1612  140.6785  142.9277 LP  0  0  0  0  0  0  0  0  0  0  0  0  # atno 17320 bound_to 7965
  144.7330  140.4729  143.6924 LP  0  0  0  0  0  0  0  0  0  0  0  0  # atno 17321 bound_to 7965
  140.7778  143.4987  150.9800 LP  0  0  0  0  0  0  0  0  0  0  0  0  # atno 17342 bound_to 10162
  139.8675  143.7235  152.3169 LP  0  0  0  0  0  0  0  0  0  0  0  0  # atno 17343 bound_to 10162
  155.9807  130.4809  150.6786 LP  0  0  0  0  0  0  0  0  0  0  0  0  # atno 17370 bound_to 10713
  157.4388  131.0858  151.0965 LP  0  0  0  0  0  0  0  0  0  0  0  0  # atno 17371 bound_to 10713
  140.8258  133.8317  155.8938 LP  0  0  0  0  0  0  0  0  0  0  0  0  # atno 17394 bound_to 11000
  140.9375  134.1943  157.4821 LP  0  0  0  0  0  0  0  0  0  0  0  0  # atno 17395 bound_to 11000

$$$$
