AV-unprocessed.smi:114|AV-procd|sdf|1117|dock5
  -GOLD-   2262018233D 1   1.00000     0.00000
 Structure written by MMmdl.
 32 34  0  0  0  0  0  0  0  0  1 V2000
  152.6079  140.0443  158.9805 N   0  0  0  0  0  0  0  0  0  0  0  0
  152.2700  139.9746  157.6850 C   0  0  0  0  0  0  0  0  0  0  0  0
  153.1353  139.3891  156.8251 N   0  0  0  0  0  0  0  0  0  0  0  0
  152.8360  139.2971  155.5240 C   0  0  0  0  0  0  0  0  0  0  0  0
  153.7589  138.6984  154.7351 F   0  0  0  0  0  0  0  0  0  0  0  0
  151.7283  139.7324  154.9149 N   0  0  0  0  0  0  0  0  0  0  0  0
  150.8509  140.3243  155.7759 C   0  0  0  0  0  0  0  0  0  0  0  0
  151.0507  140.4835  157.1741 C   0  0  0  0  0  0  0  0  0  0  0  0
  149.9586  141.1265  157.7391 N   0  0  0  0  0  0  0  0  0  0  0  0
  149.1580  141.3295  156.7275 C   0  0  0  0  0  0  0  0  0  0  0  0
  149.6170  140.8857  155.5061 N   0  0  0  0  0  0  0  0  0  0  0  0
  148.9003  140.9680  154.1931 C   0  0  2  0  0  0  0  0  0  0  0  0
  148.1662  142.1567  154.1710 O   0  0  0  0  0  0  0  0  0  0  0  0
  146.7675  141.8871  154.0855 C   0  0  1  0  0  0  0  0  0  0  0  0
  146.0264  143.0289  153.3672 C   0  0  0  0  0  0  0  0  0  0  0  0
  144.7109  143.1434  153.8668 O   0  0  0  0  0  0  0  0  0  0  0  0
  146.7086  140.5183  153.3953 C   0  0  1  0  0  0  0  0  0  0  0  0
  146.8136  140.6651  151.9873 O   0  0  0  0  0  0  0  0  0  0  0  0
  147.9147  139.8055  153.9992 C   0  0  1  0  0  0  0  0  0  0  0  0
  148.4026  138.7868  153.1462 O   0  0  0  0  0  0  0  0  0  0  0  0
  149.6845  141.0099  153.4359 H   0  0  0  0  0  0  0  0  0  0  0  0
  146.3648  141.7700  155.0915 H   0  0  0  0  0  0  0  0  0  0  0  0
  145.7785  139.9929  153.6153 H   0  0  0  0  0  0  0  0  0  0  0  0
  147.6426  139.3768  154.9637 H   0  0  0  0  0  0  0  0  0  0  0  0
  151.9787  140.4758  159.6421 H   0  0  0  0  0  0  0  0  0  0  0  0
  153.4873  139.6589  159.2933 H   0  0  0  0  0  0  0  0  0  0  0  0
  148.1993  141.8132  156.8470 H   0  0  0  0  0  0  0  0  0  0  0  0
  146.5546  143.9769  153.4743 H   0  0  0  0  0  0  0  0  0  0  0  0
  145.9510  142.8154  152.3006 H   0  0  0  0  0  0  0  0  0  0  0  0
  144.1076  143.0775  153.1425 H   0  0  0  0  0  0  0  0  0  0  0  0
  147.7056  140.4781  151.7362 H   0  0  0  0  0  0  0  0  0  0  0  0
  148.7022  139.1871  152.3441 H   0  0  0  0  0  0  0  0  0  0  0  0
  1  2  1  0  0  0  0
  1 25  1  0  0  0  0
  1 26  1  0  0  0  0
  2  8  1  0  0  0  0
  2  3  2  0  0  0  0
  3  4  1  0  0  0  0
  4  5  1  0  0  0  0
  4  6  2  0  0  0  0
  6  7  1  0  0  0  0
  7 11  1  0  0  0  0
  7  8  2  0  0  0  0
  8  9  1  0  0  0  0
  9 10  2  0  0  0  0
 10 11  1  0  0  0  0
 10 27  1  0  0  0  0
 11 12  1  0  0  0  0
 12 21  1  0  0  0  0
 12 19  1  0  0  0  0
 12 13  1  0  0  0  0
 13 14  1  0  0  0  0
 14 22  1  0  0  0  0
 14 15  1  0  0  0  0
 14 17  1  0  0  0  0
 15 16  1  0  0  0  0
 15 28  1  0  0  0  0
 15 29  1  0  0  0  0
 16 30  1  0  0  0  0
 17 23  1  0  0  0  0
 17 18  1  0  0  0  0
 17 19  1  0  0  0  0
 18 31  1  0  0  0  0
 19 24  1  0  0  0  0
 19 20  1  0  0  0  0
 20 32  1  0  0  0  0
M  END
> <s_m_source_file>
AV-unprocessed.smi

> <i_m_source_file_index>
114

> <i_lp_mmshare_version>
43012

> <i_f3d_flags>
0

> <s_epik_input>
RmMobjEpbmMoW05IMl0pYyhjMTIpbltjSF1uMltDQEBIXTNPW0NASF0oW0NIMl1bT0hdKVtDQEBIXShbT0hdKVtDQEBIXTNbT0hd

> <s_epik_cmdline>
J2VwaWtfcHl0aG9uJywgJy1waCcsICc3LjAnLCAnLXRuJywgJzgnLCAnLW1hJywgJzIwMCcsICctbWV0YWxfYmluZGluZycsICctaW1hZScsICc8aW5maWxlLm1hZT4nLCAnLW9tYWUnLCAnPG91dGZpbGUubWFlPic=

> <r_lp_tautomer_probability>
1

> <r_epik_Ionization_Penalty>
1.13199e-05

> <r_epik_Ionization_Penalty_Charging>
0

> <r_epik_Ionization_Penalty_Neutral>
1.13199e-05

> <r_epik_State_Penalty>
-0

> <r_epik_Charging_Adjusted_Penalty>
0

> <i_epik_Tot_Q>
0

> <i_epik_Tot_abs_Q>
0

> <r_epik_Metal_State_Penalty>
-0

> <b_epik_Metal_Only>
0

> <s_epik_Chemistry_Notes>
This compound contains an acetal/aminal-like group ( X-CH(R)-Y where X, Y are N, S, or O) that may be acid/base labile, releasing an aldehyde.

> <s_lp_Force_Field>
OPLS_2005

> <r_lp_Energy>
42.9568

> <b_lp_Chiralities_Consistent>
1

> <s_lp_Variant>
AV-unprocessed.smi:114-11

> <Gold.Version>
5.8.1

> <Gold.Id.Protein>
6NUR|6NUR_protein|mol2

> <Gold.PLP.Fitness>
42.3309

> <Gold.PLP.PLP>
-30.5209

> <Gold.PLP.part.hbond>
-7.6028

> <Gold.PLP.part.metal>
0.0000

> <Gold.PLP.part.buried>
0.6098

> <Gold.PLP.part.nonpolar>
-25.4211

> <Gold.PLP.part.repulsive>
1.3916

> <Gold.PLP.ligand.clash>
0.0000

> <Gold.PLP.ligand.torsion>
1.1113

> <Gold.PLP.Chemscore.Hbond>
4.6750

> <Gold.PLP.Chemscore.CHOScore>
0.0000

> <Gold.PLP.Chemscore.Metal>
0.0000

> <Gold.Chemscore.Hbonds>
donor molecule, donor type, donor heavy atom, donor atom, acceptor molecule, acceptor atom, score
      L1  H    16    30       P1 10174  0.50
      L1  H    18    31       P1  7957  1.00
      L1  H    20    32       P1  7957  1.00
      P1  H  7989  7998       L1     6  1.00
      P1  H  7997  8009       L1     3  0.81

> <Gold.PLP.Chemscore.Internal.Correction>
0.0076

> <Gold.Rescore>
     Score         DG    S(hbond)    S(metal)    S(lipo)     H(rot)  DE(clash)    DE(int)     intcor
      3.90      -6.47       2.35        0.00      29.55       4.03       1.41       1.16       ----

> <Gold.Chemscore.Fitness>
3.9033

> <Gold.Chemscore.DG>
-6.4740

> <Gold.Chemscore.ZeroCoef>
-5.4800

> <Gold.Chemscore.Hbond>
2.3497

> <Gold.Chemscore.Metal>
0.0000

> <Gold.Chemscore.Lipo>
29.5476

> <Gold.Chemscore.Internal_Hbond>
0.0000

> <Gold.Chemscore.DEClash>
1.4059

> <Gold.Chemscore.DEInternal>
1.1648

> <Gold.Chemscore.Rot>
4.0277

> <Gold.Chemscore.Internal.Correction>
   9.000000E+99

> <Gold.Chemscore.Hbonds>
donor molecule, donor type, donor heavy atom, donor atom, acceptor molecule, acceptor atom, score
      L1  H    16    30       P1 10174  0.02
      L1  H    18    31       P1  7957  0.96
      L1  H    20    32       P1  7957  1.00
      P1  H  7989  7998       L1     6  0.34
      P1  H  7997  8009       L1     3  0.21

> <Gold.Chemscore.Hbond.Weighted>
-7.8479

> <Gold.Chemscore.Metal.Weighted>
-0.0000

> <Gold.Chemscore.Lipo.Weighted>
-3.4571

> <Gold.Chemscore.Internal_Hbond.Weighted>
0.0000

> <Gold.Chemscore.DEClash.Weighted>
1.4059

> <Gold.Chemscore.DEInternal.Weighted>
1.1648

> <Gold.Chemscore.Rot.Weighted>
10.3110

> <Gold.Chemscore.Internal.Correction.Weighted>
   9.000000E+99

> <Gold.Protein.RotatedTorsions>
[ 6907 6896 6895 6894 ] final -125.64 input  -60.11 | X-H torsion
[ 7974 7965 7964 7962 ] final   53.40 input  175.53 | X-H torsion
[ 8008 7997 7996 7995 ] final  171.03 input   59.86 | X-H torsion
[ 10167 10162 10161 10158 ] final  117.96 input  -65.29 | X-H torsion
[ 10718 10713 10712 10709 ] final  141.13 input   66.30 | X-H torsion
[ 10763 10752 10751 10750 ] final  -56.37 input  -60.55 | X-H torsion
[ 11005 11000 10999 10996 ] final  113.49 input  -57.11 | X-H torsion

> <Gold.Protein.ActiveResidues>
 VAL166  LYS551  ARG553  GLY616  TRP617  ASP618  TYR619  PRO620  LYS621  CYS622 
 ASP623  PHE694  ASN695  SER759  ASP760  ASP761  ALA762  ILE779  LEU786  VAL792 
 PHE793  MET794  SER795  GLU796  ALA797  LYS798  CYS799  TRP800  GLU811  SER814 

> <Gold.Protein.RotatedAtoms>
  150.8888  133.7271  159.2910 H   0  0  0  0  0  0  0  0  0  0  0  0  # atno 6907 bound_to 6896
  151.4828  135.1052  159.9792 H   0  0  0  0  0  0  0  0  0  0  0  0  # atno 6908 bound_to 6896
  152.4807  133.8201  159.7104 H   0  0  0  0  0  0  0  0  0  0  0  0  # atno 6909 bound_to 6896
  145.9716  139.4154  143.0187 H   0  0  0  0  0  0  0  0  0  0  0  0  # atno 7974 bound_to 7965
  156.1310  140.1522  156.9066 H   0  0  0  0  0  0  0  0  0  0  0  0  # atno 8008 bound_to 7997
  154.4909  140.0851  156.7631 H   0  0  0  0  0  0  0  0  0  0  0  0  # atno 8009 bound_to 7997
  155.4256  140.3425  155.4277 H   0  0  0  0  0  0  0  0  0  0  0  0  # atno 8010 bound_to 7997
  139.6143  144.7088  151.2774 H   0  0  0  0  0  0  0  0  0  0  0  0  # atno 10167 bound_to 10162
  157.3955  131.1010  151.0604 H   0  0  0  0  0  0  0  0  0  0  0  0  # atno 10718 bound_to 10713
  154.2056  135.6403  153.5100 H   0  0  0  0  0  0  0  0  0  0  0  0  # atno 10763 bound_to 10752
  153.0002  135.5461  154.6270 H   0  0  0  0  0  0  0  0  0  0  0  0  # atno 10764 bound_to 10752
  154.5693  135.2915  155.0816 H   0  0  0  0  0  0  0  0  0  0  0  0  # atno 10765 bound_to 10752
  139.8954  134.9550  156.6746 H   0  0  0  0  0  0  0  0  0  0  0  0  # atno 11005 bound_to 11000
  145.7898  140.9819  143.1055 LP  0  0  0  0  0  0  0  0  0  0  0  0  # atno 17320 bound_to 7965
  144.6838  139.9669  143.7481 LP  0  0  0  0  0  0  0  0  0  0  0  0  # atno 17321 bound_to 7965
  140.7340  143.6777  150.8027 LP  0  0  0  0  0  0  0  0  0  0  0  0  # atno 17342 bound_to 10162
  140.0377  143.5378  152.2732 LP  0  0  0  0  0  0  0  0  0  0  0  0  # atno 17343 bound_to 10162
  157.1622  130.6230  149.5614 LP  0  0  0  0  0  0  0  0  0  0  0  0  # atno 17370 bound_to 10713
  155.9809  130.4813  150.6800 LP  0  0  0  0  0  0  0  0  0  0  0  0  # atno 17371 bound_to 10713
  140.7346  133.9029  155.8235 LP  0  0  0  0  0  0  0  0  0  0  0  0  # atno 17394 bound_to 11000
  141.0126  134.1000  157.4205 LP  0  0  0  0  0  0  0  0  0  0  0  0  # atno 17395 bound_to 11000

$$$$
