AV-unprocessed.smi:3136|AV-procd|sdf|11949|dock5
  -GOLD-   2272017343D 1   1.00000     0.00000
 Structure written by MMmdl.
 40 40  0  0  0  0  0  0  0  0  2 V2000
  146.2143  128.9183  152.2005 C   0  0  0  0  0  0  0  0  0  0  0  0
  146.6152  129.4195  153.5947 C   0  0  0  0  0  0  0  0  0  0  0  0
  147.4976  130.5783  153.5162 N   0  0  0  0  0  0  0  0  0  0  0  0
  147.6285  131.5157  154.4673 C   0  0  0  0  0  0  0  0  0  0  0  0
  147.0045  131.4913  155.5288 O   0  0  0  0  0  0  0  0  0  0  0  0
  148.6154  132.6470  154.1597 C   0  0  0  0  0  0  0  0  0  0  0  0
  147.9890  134.0494  154.2487 C   0  0  0  0  0  0  0  0  0  0  0  0
  147.3105  134.4059  152.9857 N   0  3  0  0  0  0  0  0  0  0  0  0
  145.9750  135.0286  153.1408 C   0  0  1  0  0  0  0  0  0  0  0  0
  146.1418  136.4357  153.7387 C   0  0  0  0  0  0  0  0  0  0  0  0
  145.1795  135.0453  151.8061 C   0  0  2  0  0  0  0  0  0  0  0  0
  143.8064  135.7350  151.9085 C   0  0  0  0  0  0  0  0  0  0  0  0
  145.0731  133.7286  151.1850 N   0  0  0  0  0  0  0  0  0  0  0  0
  143.9339  133.0862  150.7439 C   0  0  0  0  0  0  0  0  0  0  0  0
  144.3164  131.8832  150.2241 C   0  0  0  0  0  0  0  0  0  0  0  0
  145.7289  131.8773  150.3894 C   0  0  0  0  0  0  0  0  0  0  0  0
  146.1793  132.9829  150.9598 N   0  0  0  0  0  0  0  0  0  0  0  0
  145.5996  128.0208  152.2738 H   0  0  0  0  0  0  0  0  0  0  0  0
  147.0921  128.6718  151.6019 H   0  0  0  0  0  0  0  0  0  0  0  0
  145.6381  129.6686  151.6582 H   0  0  0  0  0  0  0  0  0  0  0  0
  145.7276  129.6568  154.1838 H   0  0  0  0  0  0  0  0  0  0  0  0
  147.1408  128.6293  154.1314 H   0  0  0  0  0  0  0  0  0  0  0  0
  148.0481  130.6737  152.6748 H   0  0  0  0  0  0  0  0  0  0  0  0
  149.4530  132.5729  154.8550 H   0  0  0  0  0  0  0  0  0  0  0  0
  149.0204  132.4870  153.1595 H   0  0  0  0  0  0  0  0  0  0  0  0
  147.2733  134.0892  155.0702 H   0  0  0  0  0  0  0  0  0  0  0  0
  148.7597  134.7939  154.4547 H   0  0  0  0  0  0  0  0  0  0  0  0
  147.9035  135.0592  152.4942 H   0  0  0  0  0  0  0  0  0  0  0  0
  145.4021  134.4477  153.8656 H   0  0  0  0  0  0  0  0  0  0  0  0
  145.1751  136.9217  153.8728 H   0  0  0  0  0  0  0  0  0  0  0  0
  146.7518  137.0782  153.1028 H   0  0  0  0  0  0  0  0  0  0  0  0
  146.6229  136.3894  154.7162 H   0  0  0  0  0  0  0  0  0  0  0  0
  145.7625  135.6554  151.1143 H   0  0  0  0  0  0  0  0  0  0  0  0
  143.9027  136.7422  152.3145 H   0  0  0  0  0  0  0  0  0  0  0  0
  143.1170  135.1827  152.5473 H   0  0  0  0  0  0  0  0  0  0  0  0
  143.3414  135.8219  150.9261 H   0  0  0  0  0  0  0  0  0  0  0  0
  142.9549  133.5335  150.8351 H   0  0  0  0  0  0  0  0  0  0  0  0
  143.6833  131.1226  149.7914 H   0  0  0  0  0  0  0  0  0  0  0  0
  146.4349  131.1084  150.1121 H   0  0  0  0  0  0  0  0  0  0  0  0
  147.2084  133.5780  152.4149 H   0  0  0  0  0  0  0  0  0  0  0  0
  1  2  1  0  0  0  0
  1 18  1  0  0  0  0
  1 19  1  0  0  0  0
  1 20  1  0  0  0  0
  2  3  1  0  0  0  0
  2 21  1  0  0  0  0
  2 22  1  0  0  0  0
  3  4  1  0  0  0  0
  3 23  1  0  0  0  0
  4  5  2  0  0  0  0
  4  6  1  0  0  0  0
  6  7  1  0  0  0  0
  6 24  1  0  0  0  0
  6 25  1  0  0  0  0
  7  8  1  0  0  0  0
  7 26  1  0  0  0  0
  7 27  1  0  0  0  0
  8  9  1  0  0  0  0
  8 28  1  0  0  0  0
  8 40  1  0  0  0  0
  9 10  1  0  0  0  0
  9 11  1  0  0  0  0
  9 29  1  0  0  0  0
 10 30  1  0  0  0  0
 10 31  1  0  0  0  0
 10 32  1  0  0  0  0
 11 12  1  0  0  0  0
 11 13  1  0  0  0  0
 11 33  1  0  0  0  0
 12 34  1  0  0  0  0
 12 35  1  0  0  0  0
 12 36  1  0  0  0  0
 13 17  1  0  0  0  0
 13 14  1  0  0  0  0
 14 15  2  0  0  0  0
 14 37  1  0  0  0  0
 15 16  1  0  0  0  0
 15 38  1  0  0  0  0
 16 17  2  0  0  0  0
 16 39  1  0  0  0  0
M  CHG  1   8   1
M  END
> <s_m_source_file>
AV-unprocessed.smi

> <i_m_source_file_index>
3136

> <i_lp_mmshare_version>
43012

> <i_f3d_flags>
0

> <s_epik_input>
W0NIM11bQ0gyXVtOSF1DKD1PKVtDSDJdW0NIMl1bTkhdW0NASF0oW0NIM10pW0NASF0oW0NIM10pbjFbY0hdW2NIXVtjSF1uMQ==

> <s_epik_cmdline>
J2VwaWtfcHl0aG9uJywgJy1waCcsICc3LjAnLCAnLXRuJywgJzgnLCAnLW1hJywgJzIwMCcsICctbWV0YWxfYmluZGluZycsICctaW1hZScsICc8aW5maWxlLm1hZT4nLCAnLW9tYWUnLCAnPG91dGZpbGUubWFlPic=

> <r_lp_tautomer_probability>
1

> <r_epik_Ionization_Penalty>
0.00463447

> <r_epik_Ionization_Penalty_Charging>
0.00462393

> <r_epik_Ionization_Penalty_Neutral>
1.05394e-05

> <r_epik_State_Penalty>
-0

> <r_epik_Charging_Adjusted_Penalty>
0.00462393

> <i_epik_Tot_Q>
1

> <i_epik_Tot_abs_Q>
1

> <r_epik_Metal_State_Penalty>
-0

> <b_epik_Metal_Only>
0

> <s_lp_Force_Field>
OPLS_2005

> <r_lp_Energy>
10.5289

> <b_lp_Chiralities_Consistent>
1

> <s_lp_Variant>
AV-unprocessed.smi:3136-2

> <Gold.Version>
5.8.1

> <Gold.Id.Protein>
6NUR|6NUR_protein|mol2

> <Gold.PLP.Fitness>
44.7649

> <Gold.PLP.PLP>
-31.0502

> <Gold.PLP.part.hbond>
-2.0000

> <Gold.PLP.part.metal>
0.0000

> <Gold.PLP.part.buried>
-4.4057

> <Gold.PLP.part.nonpolar>
-25.0644

> <Gold.PLP.part.repulsive>
0.2537

> <Gold.PLP.ligand.clash>
0.0000

> <Gold.PLP.ligand.torsion>
0.8008

> <Gold.PLP.Chemscore.Hbond>
3.0000

> <Gold.PLP.Chemscore.CHOScore>
2.0000

> <Gold.PLP.Chemscore.Metal>
0.0000

> <Gold.Chemscore.Hbonds>
donor molecule, donor type, donor heavy atom, donor atom, acceptor molecule, acceptor atom, score
      L1  H     8    28       P1  7948  2.00
      L1  C    14    37       P1 10186  1.00
      L1  C    16    39       P1 10747  0.96

> <Gold.PLP.Chemscore.Internal.Correction>
0.3164

> <Gold.Rescore>
     Score         DG    S(hbond)    S(metal)    S(lipo)     H(rot)  DE(clash)    DE(int)     intcor
     12.13     -14.51       1.97        0.00      71.58       2.32       0.02       2.37       ----

> <Gold.Chemscore.Fitness>
12.1251

> <Gold.Chemscore.DG>
-14.5095

> <Gold.Chemscore.ZeroCoef>
-5.4800

> <Gold.Chemscore.Hbond>
1.9712

> <Gold.Chemscore.Metal>
0.0000

> <Gold.Chemscore.Lipo>
71.5757

> <Gold.Chemscore.Internal_Hbond>
0.0000

> <Gold.Chemscore.DEClash>
0.0178

> <Gold.Chemscore.DEInternal>
2.3666

> <Gold.Chemscore.Rot>
2.3159

> <Gold.Chemscore.Internal.Correction>
   9.000000E+99

> <Gold.Chemscore.Hbonds>
donor molecule, donor type, donor heavy atom, donor atom, acceptor molecule, acceptor atom, score
      L1  H     8    28       P1  7948  0.94

> <Gold.Chemscore.Hbond.Weighted>
-6.5837

> <Gold.Chemscore.Metal.Weighted>
-0.0000

> <Gold.Chemscore.Lipo.Weighted>
-8.3744

> <Gold.Chemscore.Internal_Hbond.Weighted>
0.0000

> <Gold.Chemscore.DEClash.Weighted>
0.0178

> <Gold.Chemscore.DEInternal.Weighted>
2.3666

> <Gold.Chemscore.Rot.Weighted>
5.9286

> <Gold.Chemscore.Internal.Correction.Weighted>
   9.000000E+99

> <Gold.Protein.RotatedTorsions>
[ 6907 6896 6895 6894 ] final  109.47 input  -60.11 | X-H torsion
[ 7974 7965 7964 7962 ] final   41.84 input  175.53 | X-H torsion
[ 8008 7997 7996 7995 ] final -167.31 input   59.86 | X-H torsion
[ 10167 10162 10161 10158 ] final  158.27 input  -65.29 | X-H torsion
[ 10718 10713 10712 10709 ] final -141.03 input   66.30 | X-H torsion
[ 10763 10752 10751 10750 ] final   16.78 input  -60.55 | X-H torsion
[ 11005 11000 10999 10996 ] final  148.91 input  -57.11 | X-H torsion

> <Gold.Protein.ActiveResidues>
 VAL166  LYS551  ARG553  GLY616  TRP617  ASP618  TYR619  PRO620  LYS621  CYS622 
 ASP623  PHE694  ASN695  SER759  ASP760  ASP761  ALA762  ILE779  LEU786  VAL792 
 PHE793  MET794  SER795  GLU796  ALA797  LYS798  CYS799  TRP800  GLU811  SER814 

> <Gold.Protein.RotatedAtoms>
  152.5065  133.8939  159.7407 H   0  0  0  0  0  0  0  0  0  0  0  0  # atno 6907 bound_to 6896
  150.9371  133.6690  159.2805 H   0  0  0  0  0  0  0  0  0  0  0  0  # atno 6908 bound_to 6896
  151.4014  135.0976  159.9610 H   0  0  0  0  0  0  0  0  0  0  0  0  # atno 6909 bound_to 6896
  146.0790  139.5370  142.9549 H   0  0  0  0  0  0  0  0  0  0  0  0  # atno 7974 bound_to 7965
  155.8760  140.1001  157.1518 H   0  0  0  0  0  0  0  0  0  0  0  0  # atno 8008 bound_to 7997
  154.4001  140.1338  156.4200 H   0  0  0  0  0  0  0  0  0  0  0  0  # atno 8009 bound_to 7997
  155.7697  140.3461  155.5243 H   0  0  0  0  0  0  0  0  0  0  0  0  # atno 8010 bound_to 7997
  139.4826  144.4840  151.8403 H   0  0  0  0  0  0  0  0  0  0  0  0  # atno 10167 bound_to 10162
  156.3292  130.7577  151.1691 H   0  0  0  0  0  0  0  0  0  0  0  0  # atno 10718 bound_to 10713
  153.1399  135.6758  153.9043 H   0  0  0  0  0  0  0  0  0  0  0  0  # atno 10763 bound_to 10752
  153.8503  135.3094  155.3433 H   0  0  0  0  0  0  0  0  0  0  0  0  # atno 10764 bound_to 10752
  154.7779  135.4904  153.9866 H   0  0  0  0  0  0  0  0  0  0  0  0  # atno 10765 bound_to 10752
  140.1000  134.8989  157.1781 H   0  0  0  0  0  0  0  0  0  0  0  0  # atno 11005 bound_to 11000
  145.6252  141.0315  143.1893 LP  0  0  0  0  0  0  0  0  0  0  0  0  # atno 17320 bound_to 7965
  144.7281  139.7812  143.7357 LP  0  0  0  0  0  0  0  0  0  0  0  0  # atno 17321 bound_to 7965
  140.4319  144.2104  150.5888 LP  0  0  0  0  0  0  0  0  0  0  0  0  # atno 17342 bound_to 10162
  140.4771  143.2392  151.9008 LP  0  0  0  0  0  0  0  0  0  0  0  0  # atno 17343 bound_to 10162
  157.7427  131.0486  150.5003 LP  0  0  0  0  0  0  0  0  0  0  0  0  # atno 17370 bound_to 10713
  156.5166  130.4152  149.6272 LP  0  0  0  0  0  0  0  0  0  0  0  0  # atno 17371 bound_to 10713
  140.3234  134.2891  155.7242 LP  0  0  0  0  0  0  0  0  0  0  0  0  # atno 17394 bound_to 11000
  141.2103  133.7724  156.9942 LP  0  0  0  0  0  0  0  0  0  0  0  0  # atno 17395 bound_to 11000

$$$$
