#       Name:                AV-unprocessed.smi:1230
#       Creating user name   scv26
#       Creation time:       Fri Mar 27 04:22:28 2020


#       File generated by GOLD software.
#

@<TRIPOS>MOLECULE
AV-unprocessed.smi:1230
    46    47     1
SMALL
NO_CHARGES


@<TRIPOS>ATOM
      1 ****        -0.5884   1.0975  -3.1563 C.3            1 S1                 0.0000
      2 ****        -1.1044   1.2142  -1.7127 C.3            1 S1                 0.0000
      3 ****        -1.9574   2.4875  -1.5415 C.3            1 S1                 0.0000
      4 ****        -2.4814   2.6344  -0.1049 C.3            1 S1                 0.0000
      5 ****        -1.3271   2.6199   0.9065 C.3            1 S1                 0.0000
      6 ****        -0.4782   1.3500   0.7524 C.3            1 S1                 0.0000
      7 ****         0.0525   1.1910  -0.6885 C.3            1 S1                 0.0000
      8 ****         0.7094  -0.0639  -0.7938 O.3            1 S1                 0.0000
      9 ****         2.0765  -0.0443  -0.4099 C.3            1 S1                 0.0000
     10 ****         2.5534  -1.4906  -0.2130 C.3            1 S1                 0.0000
     11 ****         1.8892  -2.1126   0.9409 N.am           1 S1                 0.0000
     12 ****         0.7277  -2.8637   0.6929 C.2            1 S1                 0.0000
     13 ****         0.0353  -3.4443   1.6908 C.2            1 S1                 0.0000
     14 ****        -1.1517  -4.2018   1.4666 C.1            1 S1                 0.0000
     15 ****        -2.1143  -4.8093   1.2538 N.1            1 S1                 0.0000
     16 ****         0.5155  -3.2846   3.0612 C.2            1 S1                 0.0000
     17 ****        -0.0934  -3.8100   3.9923 O.2            1 S1                 0.0000
     18 ****         1.6450  -2.5394   3.2452 N.pl3          1 S1                -1.0000
     19 ****         2.3360  -1.9461   2.2220 C.2            1 S1                 0.0000
     20 ****         3.3431  -1.2651   2.4169 O.2            1 S1                 0.0000
     21 ****         0.0719   1.9275  -3.4093 H              1 S1                 0.0000
     22 ****        -1.4133   1.0997  -3.8690 H              1 S1                 0.0000
     23 ****        -0.0315   0.1722  -3.3054 H              1 S1                 0.0000
     24 ****        -1.7460   0.3532  -1.5185 H              1 S1                 0.0000
     25 ****        -1.3645   3.3657  -1.8013 H              1 S1                 0.0000
     26 ****        -2.7990   2.4685  -2.2348 H              1 S1                 0.0000
     27 ****        -3.0491   3.5601  -0.0079 H              1 S1                 0.0000
     28 ****        -3.1735   1.8213   0.1178 H              1 S1                 0.0000
     29 ****        -0.6997   3.5003   0.7614 H              1 S1                 0.0000
     30 ****        -1.7207   2.6826   1.9214 H              1 S1                 0.0000
     31 ****         0.3454   1.3782   1.4655 H              1 S1                 0.0000
     32 ****        -1.0791   0.4788   1.0166 H              1 S1                 0.0000
     33 ****         0.7436   2.0034  -0.9232 H              1 S1                 0.0000
     34 ****         2.6580   0.4425  -1.1935 H              1 S1                 0.0000
     35 ****         2.2320   0.5276   0.5054 H              1 S1                 0.0000
     36 ****         2.3684  -2.0687  -1.1195 H              1 S1                 0.0000
     37 ****         3.6362  -1.5075  -0.0807 H              1 S1                 0.0000
     38 ****         0.4334  -2.9260  -0.3447 H              1 S1                 0.0000
     39 ****         0.6561  -0.3659  -1.7456 LP             1 S1                 0.0000
     40 ****         0.2297  -0.7181  -0.2091 LP             1 S1                 0.0000
     41 ****        -2.9456  -5.3339   1.0700 LP             1 S1                 0.0000
     42 ****        -0.9175  -4.3467   3.8112 LP             1 S1                 0.0000
     43 ****         0.2358  -3.7003   4.9301 LP             1 S1                 0.0000
     44 ****         1.9862  -2.4203   4.1776 LP             1 S1                 0.0000
     45 ****         3.8196  -0.8447   1.6447 LP             1 S1                 0.0000
     46 ****         3.6846  -1.1323   3.3473 LP             1 S1                 0.0000
@<TRIPOS>BOND
    1    1    2 1     
    2    1   21 1     
    3    1   22 1     
    4    1   23 1     
    5    2    7 1     
    6    2    3 1     
    7    2   24 1     
    8    3    4 1     
    9    3   25 1     
   10    3   26 1     
   11    4    5 1     
   12    4   27 1     
   13    4   28 1     
   14    5    6 1     
   15    5   29 1     
   16    5   30 1     
   17    6    7 1     
   18    6   31 1     
   19    6   32 1     
   20    7    8 1     
   21    7   33 1     
   22    8    9 1     
   23    9   10 1     
   24    9   34 1     
   25    9   35 1     
   26   10   11 1     
   27   10   36 1     
   28   10   37 1     
   29   11   19 am    
   30   11   12 1     
   31   12   13 2     
   32   12   38 1     
   33   13   14 1     
   34   13   16 1     
   35   14   15 3     
   36   16   17 2     
   37   16   18 1     
   38   18   19 1     
   39   19   20 2     
   40    8   39 1     
   41    8   40 1     
   42   15   41 1     
   43   17   42 1     
   44   17   43 1     
   45   18   44 1     
   46   20   45 1     
   47   20   46 1     
@<TRIPOS>SUBSTRUCTURE
      1 S1             1
@<TRIPOS>SET
LONE_PAIRS      STATIC     ATOMS    <user>   **** ""
8 39 40 41 42 43 44 45 46
ATOM$BLUE        STATIC     ATOMS    COLORGROUP SYSTEM
8 39 40 41 42 43 44 45 46
