AV-unprocessed.smi:566|AV-procd|sdf|2955|dock5
  -GOLD-   2262023453D 1   1.00000     0.00000
 Structure written by MMmdl.
 39 40  0  0  0  0  0  0  0  0  1 V2000
  147.3812  138.1039  156.7533 C   0  0  0  0  0  0  0  0  0  0  0  0
  148.8284  138.0325  157.2254 C   0  0  0  0  0  0  0  0  0  0  0  0
  149.8438  138.6288  156.3890 C   0  0  0  0  0  0  0  0  0  0  0  0
  151.1326  138.6445  156.7646 C   0  0  0  0  0  0  0  0  0  0  0  0
  152.1933  139.2876  155.8776 C   0  0  0  0  0  0  0  0  0  0  0  0
  151.5335  138.0535  157.9944 N   0  0  0  0  0  0  0  0  0  0  0  0
  152.9606  138.0933  158.3909 C   0  0  0  0  0  0  0  0  0  0  0  0
  153.2312  139.1050  159.5212 C   0  0  0  0  0  0  0  0  0  0  0  0
  153.1941  140.4282  159.0048 O   0  0  0  0  0  0  0  0  0  0  0  0
  153.0531  141.4739  159.8910 C   0  0  0  0  0  0  0  0  0  0  0  0
  152.4492  142.6497  159.3995 C   0  0  0  0  0  0  0  0  0  0  0  0
  152.2634  143.7681  160.2345 C   0  0  0  0  0  0  0  0  0  0  0  0
  152.6849  143.7217  161.5762 C   0  0  0  0  0  0  0  0  0  0  0  0
  153.2915  142.5559  162.0797 C   0  0  0  0  0  0  0  0  0  0  0  0
  153.6994  142.5101  163.3701 F   0  0  0  0  0  0  0  0  0  0  0  0
  153.4753  141.4364  161.2444 C   0  0  0  0  0  0  0  0  0  0  0  0
  150.6387  137.4344  158.8306 C   0  0  0  0  0  0  0  0  0  0  0  0
  151.0318  136.8745  159.8590 O   0  0  0  0  0  0  0  0  0  0  0  0
  149.2124  137.4728  158.4043 C   0  0  0  0  0  0  0  0  0  0  0  0
  148.2333  136.8471  159.3147 C   0  0  0  0  0  0  0  0  0  0  0  0
  148.6005  135.6602  159.8176 N   0  0  0  0  0  0  0  0  0  0  0  0
  147.1822  137.3693  159.6825 O   0  0  0  0  0  0  0  0  0  0  0  0
  147.2829  138.7493  155.8799 H   0  0  0  0  0  0  0  0  0  0  0  0
  146.7339  138.5088  157.5319 H   0  0  0  0  0  0  0  0  0  0  0  0
  147.0193  137.1139  156.4749 H   0  0  0  0  0  0  0  0  0  0  0  0
  149.5584  139.0787  155.4490 H   0  0  0  0  0  0  0  0  0  0  0  0
  151.7923  139.4899  154.8841 H   0  0  0  0  0  0  0  0  0  0  0  0
  153.0641  138.6496  155.7376 H   0  0  0  0  0  0  0  0  0  0  0  0
  152.5153  140.2402  156.2987 H   0  0  0  0  0  0  0  0  0  0  0  0
  153.3055  137.1070  158.6965 H   0  0  0  0  0  0  0  0  0  0  0  0
  153.6082  138.3187  157.5419 H   0  0  0  0  0  0  0  0  0  0  0  0
  152.5011  138.9914  160.3231 H   0  0  0  0  0  0  0  0  0  0  0  0
  154.2199  138.9098  159.9385 H   0  0  0  0  0  0  0  0  0  0  0  0
  152.1230  142.6929  158.3705 H   0  0  0  0  0  0  0  0  0  0  0  0
  151.7973  144.6612  159.8453 H   0  0  0  0  0  0  0  0  0  0  0  0
  152.5439  144.5790  162.2177 H   0  0  0  0  0  0  0  0  0  0  0  0
  153.9454  140.5611  161.6656 H   0  0  0  0  0  0  0  0  0  0  0  0
  147.9925  135.1744  160.4609 H   0  0  0  0  0  0  0  0  0  0  0  0
  149.4930  135.2626  159.5626 H   0  0  0  0  0  0  0  0  0  0  0  0
  1  2  1  0  0  0  0
  1 23  1  0  0  0  0
  1 24  1  0  0  0  0
  1 25  1  0  0  0  0
  2 19  2  0  0  0  0
  2  3  1  0  0  0  0
  3  4  2  0  0  0  0
  3 26  1  0  0  0  0
  4  5  1  0  0  0  0
  4  6  1  0  0  0  0
  5 27  1  0  0  0  0
  5 28  1  0  0  0  0
  5 29  1  0  0  0  0
  6  7  1  0  0  0  0
  6 17  1  0  0  0  0
  7  8  1  0  0  0  0
  7 30  1  0  0  0  0
  7 31  1  0  0  0  0
  8  9  1  0  0  0  0
  8 32  1  0  0  0  0
  8 33  1  0  0  0  0
  9 10  1  0  0  0  0
 10 16  1  0  0  0  0
 10 11  2  0  0  0  0
 11 12  1  0  0  0  0
 11 34  1  0  0  0  0
 12 13  2  0  0  0  0
 12 35  1  0  0  0  0
 13 14  1  0  0  0  0
 13 36  1  0  0  0  0
 14 15  1  0  0  0  0
 14 16  2  0  0  0  0
 16 37  1  0  0  0  0
 17 18  2  0  0  0  0
 17 19  1  0  0  0  0
 19 20  1  0  0  0  0
 20 21  1  0  0  0  0
 20 22  2  0  0  0  0
 21 38  1  0  0  0  0
 21 39  1  0  0  0  0
M  END
> <s_m_source_file>
AV-unprocessed.smi

> <i_m_source_file_index>
566

> <i_lp_mmshare_version>
43012

> <i_f3d_flags>
0

> <s_epik_input>
W0NIM11jMVtjSF1jKFtDSDNdKW4oYyg9TyljMUMoPU8pW05IMl0pW0NIMl1bQ0gyXU9jMltjSF1bY0hdW2NIXWMoRilbY0hdMg==

> <s_epik_cmdline>
J2VwaWtfcHl0aG9uJywgJy1waCcsICc3LjAnLCAnLXRuJywgJzgnLCAnLW1hJywgJzIwMCcsICctbWV0YWxfYmluZGluZycsICctaW1hZScsICc8aW5maWxlLm1hZT4nLCAnLW9tYWUnLCAnPG91dGZpbGUubWFlPic=

> <r_lp_tautomer_probability>
1

> <r_epik_Ionization_Penalty>
1.93248e-07

> <r_epik_Ionization_Penalty_Charging>
2.77691e-08

> <r_epik_Ionization_Penalty_Neutral>
1.65479e-07

> <r_epik_State_Penalty>
-0

> <r_epik_Charging_Adjusted_Penalty>
2.77691e-08

> <i_epik_Tot_Q>
0

> <i_epik_Tot_abs_Q>
0

> <r_epik_Metal_State_Penalty>
-0

> <b_epik_Metal_Only>
0

> <s_lp_Force_Field>
OPLS_2005

> <r_lp_Energy>
41.2098

> <b_lp_Chiralities_Consistent>
1

> <s_lp_Variant>
AV-unprocessed.smi:566-1

> <Gold.Version>
5.8.1

> <Gold.Id.Protein>
6NUR|6NUR_protein|mol2

> <Gold.PLP.Fitness>
45.1540

> <Gold.PLP.PLP>
-41.9400

> <Gold.PLP.part.hbond>
-1.9875

> <Gold.PLP.part.metal>
0.0000

> <Gold.PLP.part.buried>
-6.5753

> <Gold.PLP.part.nonpolar>
-33.4821

> <Gold.PLP.part.repulsive>
0.1633

> <Gold.PLP.ligand.clash>
0.0000

> <Gold.PLP.ligand.torsion>
1.4582

> <Gold.PLP.Chemscore.Hbond>
1.9353

> <Gold.PLP.Chemscore.CHOScore>
0.0000

> <Gold.PLP.Chemscore.Metal>
0.0000

> <Gold.Chemscore.Hbonds>
donor molecule, donor type, donor heavy atom, donor atom, acceptor molecule, acceptor atom, score
      P1  H  6896  6907       L1    18  1.00
      P1  H  6934  6947       L1    22  0.87

> <Gold.PLP.Chemscore.Internal.Correction>
0.3246

> <Gold.Rescore>
     Score         DG    S(hbond)    S(metal)    S(lipo)     H(rot)  DE(clash)    DE(int)     intcor
     17.09     -18.73       1.91        0.00      95.71       1.69       0.00       1.64       ----

> <Gold.Chemscore.Fitness>
17.0863

> <Gold.Chemscore.DG>
-18.7299

> <Gold.Chemscore.ZeroCoef>
-5.4800

> <Gold.Chemscore.Hbond>
1.9079

> <Gold.Chemscore.Metal>
0.0000

> <Gold.Chemscore.Lipo>
95.7103

> <Gold.Chemscore.Internal_Hbond>
0.0000

> <Gold.Chemscore.DEClash>
0.0015

> <Gold.Chemscore.DEInternal>
1.6422

> <Gold.Chemscore.Rot>
1.6878

> <Gold.Chemscore.Internal.Correction>
   9.000000E+99

> <Gold.Chemscore.Hbonds>
donor molecule, donor type, donor heavy atom, donor atom, acceptor molecule, acceptor atom, score
      P1  H  6896  6907       L1    18  0.99
      P1  H  6934  6947       L1    22  0.79
      P1  H  7997  8008       L1     9  0.01

> <Gold.Chemscore.Hbond.Weighted>
-6.3725

> <Gold.Chemscore.Metal.Weighted>
-0.0000

> <Gold.Chemscore.Lipo.Weighted>
-11.1981

> <Gold.Chemscore.Internal_Hbond.Weighted>
0.0000

> <Gold.Chemscore.DEClash.Weighted>
0.0015

> <Gold.Chemscore.DEInternal.Weighted>
1.6422

> <Gold.Chemscore.Rot.Weighted>
4.3207

> <Gold.Chemscore.Internal.Correction.Weighted>
   9.000000E+99

> <Gold.Protein.RotatedTorsions>
[ 6907 6896 6895 6894 ] final  -16.22 input  -60.11 | X-H torsion
[ 7974 7965 7964 7962 ] final   35.25 input  175.53 | X-H torsion
[ 8008 7997 7996 7995 ] final  -95.65 input   59.86 | X-H torsion
[ 10167 10162 10161 10158 ] final  109.68 input  -65.29 | X-H torsion
[ 10718 10713 10712 10709 ] final  -40.70 input   66.30 | X-H torsion
[ 10763 10752 10751 10750 ] final   71.23 input  -60.55 | X-H torsion
[ 11005 11000 10999 10996 ] final  -78.20 input  -57.11 | X-H torsion

> <Gold.Protein.ActiveResidues>
 VAL166  LYS551  ARG553  GLY616  TRP617  ASP618  TYR619  PRO620  LYS621  CYS622 
 ASP623  PHE694  ASN695  SER759  ASP760  ASP761  ALA762  ILE779  LEU786  VAL792 
 PHE793  MET794  SER795  GLU796  ALA797  LYS798  CYS799  TRP800  GLU811  SER814 

> <Gold.Protein.RotatedAtoms>
  151.3119  135.0796  159.9275 H   0  0  0  0  0  0  0  0  0  0  0  0  # atno 6907 bound_to 6896
  152.5276  133.9727  159.7780 H   0  0  0  0  0  0  0  0  0  0  0  0  # atno 6908 bound_to 6896
  151.0032  133.5984  159.2722 H   0  0  0  0  0  0  0  0  0  0  0  0  # atno 6909 bound_to 6896
  146.1296  139.6166  142.9236 H   0  0  0  0  0  0  0  0  0  0  0  0  # atno 7974 bound_to 7965
  154.7641  140.0478  157.0998 H   0  0  0  0  0  0  0  0  0  0  0  0  # atno 8008 bound_to 7997
  154.9901  140.3112  155.4890 H   0  0  0  0  0  0  0  0  0  0  0  0  # atno 8009 bound_to 7997
  156.2909  140.2220  156.5005 H   0  0  0  0  0  0  0  0  0  0  0  0  # atno 8010 bound_to 7997
  139.6747  144.7123  151.1623 H   0  0  0  0  0  0  0  0  0  0  0  0  # atno 10167 bound_to 10162
  156.2784  130.4214  149.8362 H   0  0  0  0  0  0  0  0  0  0  0  0  # atno 10718 bound_to 10713
  153.0387  135.5144  154.7561 H   0  0  0  0  0  0  0  0  0  0  0  0  # atno 10763 bound_to 10752
  154.6517  135.2926  154.9981 H   0  0  0  0  0  0  0  0  0  0  0  0  # atno 10764 bound_to 10752
  154.0863  135.6656  153.4898 H   0  0  0  0  0  0  0  0  0  0  0  0  # atno 10765 bound_to 10752
  141.1664  133.7053  156.7935 H   0  0  0  0  0  0  0  0  0  0  0  0  # atno 11005 bound_to 11000
  145.5290  141.0428  143.2393 LP  0  0  0  0  0  0  0  0  0  0  0  0  # atno 17320 bound_to 7965
  144.7677  139.6807  143.7208 LP  0  0  0  0  0  0  0  0  0  0  0  0  # atno 17321 bound_to 7965
  140.7631  143.5790  150.8915 LP  0  0  0  0  0  0  0  0  0  0  0  0  # atno 17342 bound_to 10162
  139.9458  143.6329  152.3042 LP  0  0  0  0  0  0  0  0  0  0  0  0  # atno 17343 bound_to 10162
  156.5819  130.8469  151.3385 LP  0  0  0  0  0  0  0  0  0  0  0  0  # atno 17370 bound_to 10713
  157.7307  130.9689  150.1844 LP  0  0  0  0  0  0  0  0  0  0  0  0  # atno 17371 bound_to 10713
  140.2308  134.8687  157.3474 LP  0  0  0  0  0  0  0  0  0  0  0  0  # atno 17394 bound_to 11000
  140.1893  134.4392  155.7725 LP  0  0  0  0  0  0  0  0  0  0  0  0  # atno 17395 bound_to 11000

$$$$
