AV-unprocessed.smi:3071|AV-procd|sdf|11714|dock2
  -GOLD-   2272017113D 1   1.00000     0.00000
 Structure written by MMmdl.
 28 29  0  0  0  0  0  0  0  0  2 V2000
  152.7866  142.0741  160.4815 C   0  0  0  0  0  0  0  0  0  0  0  0
  152.3071  143.1280  159.5361 C   0  0  0  0  0  0  0  0  0  0  0  0
  152.4142  144.4320  159.7693 N   0  0  0  0  0  0  0  0  0  0  0  0
  151.8574  145.0407  158.6499 C   0  0  0  0  0  0  0  0  0  0  0  0
  151.4287  144.0744  157.7727 C   0  0  0  0  0  0  0  0  0  0  0  0
  151.7196  142.8472  158.3561 N   0  0  0  0  0  0  0  0  0  0  0  0
  151.4357  141.5424  157.7800 C   0  0  0  0  0  0  0  0  0  0  0  0
  150.7417  141.6417  156.4087 C   0  0  1  0  0  0  0  0  0  0  0  0
  150.7366  140.3486  155.5875 C   0  0  0  0  0  0  0  0  0  0  0  0
  149.5591  140.5549  154.6422 C   0  0  0  0  0  0  0  0  0  0  0  0
  148.5461  141.3221  155.4965 C   0  0  0  0  0  0  0  0  0  0  0  0
  149.3228  142.0294  156.5353 N   0  3  0  0  0  0  0  0  0  0  0  0
  153.2892  142.5303  161.3352 H   0  0  0  0  0  0  0  0  0  0  0  0
  153.4939  141.4103  159.9840 H   0  0  0  0  0  0  0  0  0  0  0  0
  151.9466  141.4871  160.8516 H   0  0  0  0  0  0  0  0  0  0  0  0
  151.8096  146.1164  158.5635 H   0  0  0  0  0  0  0  0  0  0  0  0
  150.9506  144.1573  156.8076 H   0  0  0  0  0  0  0  0  0  0  0  0
  152.3782  141.0012  157.6853 H   0  0  0  0  0  0  0  0  0  0  0  0
  150.8239  140.9714  158.4789 H   0  0  0  0  0  0  0  0  0  0  0  0
  151.2245  142.4175  155.8130 H   0  0  0  0  0  0  0  0  0  0  0  0
  151.6761  140.1761  155.0615 H   0  0  0  0  0  0  0  0  0  0  0  0
  150.5468  139.4888  156.2316 H   0  0  0  0  0  0  0  0  0  0  0  0
  149.8712  141.1686  153.7959 H   0  0  0  0  0  0  0  0  0  0  0  0
  149.1597  139.6194  154.2492 H   0  0  0  0  0  0  0  0  0  0  0  0
  147.9518  142.0177  154.9031 H   0  0  0  0  0  0  0  0  0  0  0  0
  147.8621  140.6301  155.9891 H   0  0  0  0  0  0  0  0  0  0  0  0
  148.9778  141.7451  157.4411 H   0  0  0  0  0  0  0  0  0  0  0  0
  149.2268  143.0300  156.4353 H   0  0  0  0  0  0  0  0  0  0  0  0
  1  2  1  0  0  0  0
  1 13  1  0  0  0  0
  1 14  1  0  0  0  0
  1 15  1  0  0  0  0
  2  6  1  0  0  0  0
  2  3  2  0  0  0  0
  3  4  1  0  0  0  0
  4  5  2  0  0  0  0
  4 16  1  0  0  0  0
  5  6  1  0  0  0  0
  5 17  1  0  0  0  0
  6  7  1  0  0  0  0
  7  8  1  0  0  0  0
  7 18  1  0  0  0  0
  7 19  1  0  0  0  0
  8 12  1  0  0  0  0
  8  9  1  0  0  0  0
  8 20  1  0  0  0  0
  9 10  1  0  0  0  0
  9 21  1  0  0  0  0
  9 22  1  0  0  0  0
 10 11  1  0  0  0  0
 10 23  1  0  0  0  0
 10 24  1  0  0  0  0
 11 12  1  0  0  0  0
 11 25  1  0  0  0  0
 11 26  1  0  0  0  0
 12 27  1  0  0  0  0
 12 28  1  0  0  0  0
M  CHG  1  12   1
M  END
> <s_m_source_file>
AV-unprocessed.smi

> <i_m_source_file_index>
3071

> <i_lp_mmshare_version>
43012

> <i_f3d_flags>
0

> <s_epik_input>
W0NIM11jMW5bY0hdW2NIXW4xW0NIMl1bQ0BASF0yW0NIMl1bQ0gyXVtDSDJdW05IXTI=

> <s_epik_cmdline>
J2VwaWtfcHl0aG9uJywgJy1waCcsICc3LjAnLCAnLXRuJywgJzgnLCAnLW1hJywgJzIwMCcsICctbWV0YWxfYmluZGluZycsICctaW1hZScsICc8aW5maWxlLm1hZT4nLCAnLW9tYWUnLCAnPG91dGZpbGUubWFlPic=

> <r_lp_tautomer_probability>
1

> <r_epik_Ionization_Penalty>
0.189495

> <r_epik_Ionization_Penalty_Charging>
0.189495

> <r_epik_Ionization_Penalty_Neutral>
1.84445e-13

> <r_epik_State_Penalty>
0.339469

> <r_epik_Charging_Adjusted_Penalty>
0.528964

> <i_epik_Tot_Q>
1

> <i_epik_Tot_abs_Q>
1

> <r_epik_Metal_State_Penalty>
0.000456861

> <b_epik_Metal_Only>
0

> <s_lp_Force_Field>
OPLS_2005

> <r_lp_Energy>
26.6713

> <b_lp_Chiralities_Consistent>
1

> <s_lp_Variant>
AV-unprocessed.smi:3071-2

> <Gold.Version>
5.8.1

> <Gold.Id.Protein>
6NUR|6NUR_protein|mol2

> <Gold.PLP.Fitness>
41.2435

> <Gold.PLP.PLP>
-32.4615

> <Gold.PLP.part.hbond>
-1.0000

> <Gold.PLP.part.metal>
0.0000

> <Gold.PLP.part.buried>
-1.7089

> <Gold.PLP.part.nonpolar>
-30.1289

> <Gold.PLP.part.repulsive>
0.0642

> <Gold.PLP.ligand.clash>
0.0000

> <Gold.PLP.ligand.torsion>
0.1091

> <Gold.PLP.Chemscore.Hbond>
2.0000

> <Gold.PLP.Chemscore.CHOScore>
1.0000

> <Gold.PLP.Chemscore.Metal>
0.0000

> <Gold.Chemscore.Hbonds>
donor molecule, donor type, donor heavy atom, donor atom, acceptor molecule, acceptor atom, score
      L1  H    12    28       P1  8028  2.00
      L1  C     5    17       P1  8028  1.00

> <Gold.PLP.Chemscore.Internal.Correction>
0.0001

> <Gold.Rescore>
     Score         DG    S(hbond)    S(metal)    S(lipo)     H(rot)  DE(clash)    DE(int)     intcor
     13.79     -14.01       0.99        0.00      71.25       1.22       0.04       0.18       ----

> <Gold.Chemscore.Fitness>
13.7865

> <Gold.Chemscore.DG>
-14.0081

> <Gold.Chemscore.ZeroCoef>
-5.4800

> <Gold.Chemscore.Hbond>
0.9922

> <Gold.Chemscore.Metal>
0.0000

> <Gold.Chemscore.Lipo>
71.2477

> <Gold.Chemscore.Internal_Hbond>
0.0000

> <Gold.Chemscore.DEClash>
0.0403

> <Gold.Chemscore.DEInternal>
0.1813

> <Gold.Chemscore.Rot>
1.2194

> <Gold.Chemscore.Internal.Correction>
   9.000000E+99

> <Gold.Chemscore.Hbonds>
donor molecule, donor type, donor heavy atom, donor atom, acceptor molecule, acceptor atom, score
      L1  H    12    28       P1  8028  1.00

> <Gold.Chemscore.Hbond.Weighted>
-3.3139

> <Gold.Chemscore.Metal.Weighted>
-0.0000

> <Gold.Chemscore.Lipo.Weighted>
-8.3360

> <Gold.Chemscore.Internal_Hbond.Weighted>
0.0000

> <Gold.Chemscore.DEClash.Weighted>
0.0403

> <Gold.Chemscore.DEInternal.Weighted>
0.1813

> <Gold.Chemscore.Rot.Weighted>
3.1218

> <Gold.Chemscore.Internal.Correction.Weighted>
   9.000000E+99

> <Gold.Protein.RotatedTorsions>
[ 6907 6896 6895 6894 ] final   60.06 input  -60.11 | X-H torsion
[ 7974 7965 7964 7962 ] final  -83.83 input  175.53 | X-H torsion
[ 8008 7997 7996 7995 ] final -161.19 input   59.86 | X-H torsion
[ 10167 10162 10161 10158 ] final -165.51 input  -65.29 | X-H torsion
[ 10718 10713 10712 10709 ] final  -99.05 input   66.30 | X-H torsion
[ 10763 10752 10751 10750 ] final  -54.98 input  -60.55 | X-H torsion
[ 11005 11000 10999 10996 ] final   56.52 input  -57.11 | X-H torsion

> <Gold.Protein.ActiveResidues>
 VAL166  LYS551  ARG553  GLY616  TRP617  ASP618  TYR619  PRO620  LYS621  CYS622 
 ASP623  PHE694  ASN695  SER759  ASP760  ASP761  ALA762  ILE779  LEU786  VAL792 
 PHE793  MET794  SER795  GLU796  ALA797  LYS798  CYS799  TRP800  GLU811  SER814 

> <Gold.Protein.RotatedAtoms>
  152.3970  134.6349  160.0084 H   0  0  0  0  0  0  0  0  0  0  0  0  # atno 6907 bound_to 6896
  151.6565  133.3313  159.3172 H   0  0  0  0  0  0  0  0  0  0  0  0  # atno 6908 bound_to 6896
  150.7876  134.6917  159.6545 H   0  0  0  0  0  0  0  0  0  0  0  0  # atno 6909 bound_to 6896
  145.5148  140.9537  143.1687 H   0  0  0  0  0  0  0  0  0  0  0  0  # atno 7974 bound_to 7965
  155.7886  140.0875  157.2021 H   0  0  0  0  0  0  0  0  0  0  0  0  # atno 8008 bound_to 7997
  154.3986  140.1494  156.3194 H   0  0  0  0  0  0  0  0  0  0  0  0  # atno 8009 bound_to 7997
  155.8582  140.3431  155.5741 H   0  0  0  0  0  0  0  0  0  0  0  0  # atno 8010 bound_to 7997
  139.6177  144.0686  152.1904 H   0  0  0  0  0  0  0  0  0  0  0  0  # atno 10167 bound_to 10162
  156.0123  130.5265  150.6613 H   0  0  0  0  0  0  0  0  0  0  0  0  # atno 10718 bound_to 10713
  154.1836  135.6439  153.5040 H   0  0  0  0  0  0  0  0  0  0  0  0  # atno 10763 bound_to 10752
  153.0053  135.5412  154.6489 H   0  0  0  0  0  0  0  0  0  0  0  0  # atno 10764 bound_to 10752
  154.5859  135.2929  155.0658 H   0  0  0  0  0  0  0  0  0  0  0  0  # atno 10765 bound_to 10752
  140.0523  134.5720  155.9249 H   0  0  0  0  0  0  0  0  0  0  0  0  # atno 11005 bound_to 11000
  144.7708  139.6740  143.7195 LP  0  0  0  0  0  0  0  0  0  0  0  0  # atno 17320 bound_to 7965
  146.2144  139.5522  142.9660 LP  0  0  0  0  0  0  0  0  0  0  0  0  # atno 17321 bound_to 7965
  140.0320  144.6073  150.7480 LP  0  0  0  0  0  0  0  0  0  0  0  0  # atno 17342 bound_to 10162
  140.7362  143.2750  151.3770 LP  0  0  0  0  0  0  0  0  0  0  0  0  # atno 17343 bound_to 10162
  157.4355  131.0854  151.0996 LP  0  0  0  0  0  0  0  0  0  0  0  0  # atno 17370 bound_to 10713
  157.1556  130.6203  149.5595 LP  0  0  0  0  0  0  0  0  0  0  0  0  # atno 17371 bound_to 10713
  141.1936  133.6579  156.5555 LP  0  0  0  0  0  0  0  0  0  0  0  0  # atno 17394 bound_to 11000
  140.3898  134.7450  157.4714 LP  0  0  0  0  0  0  0  0  0  0  0  0  # atno 17395 bound_to 11000

$$$$
