#       Name:                AV-unprocessed.smi:157
#       Creating user name   scv26
#       Creation time:       Thu Mar 26 18:59:07 2020


#       File generated by GOLD software.
#

@<TRIPOS>MOLECULE
AV-unprocessed.smi:157
    45    47     1
SMALL
NO_CHARGES


@<TRIPOS>ATOM
      1 ****        -4.8169   2.7200  -0.9538 O.3            1 S1                 0.0000
      2 ****        -4.0370   1.5430  -0.9285 C.3            1 S1                 0.0000
      3 ****        -2.5427   1.8905  -1.0048 C.3            1 S1                 0.0000
      4 ****        -1.8041   0.6834  -1.1742 O.3            1 S1                 0.0000
      5 ****        -0.5821   0.8431  -0.5371 C.3            1 S1                 0.0000
      6 ****        -0.0025  -0.5045  -0.2440 N.pl3          1 S1                 0.0000
      7 ****        -0.6859  -1.6426  -0.0648 C.2            1 S1                 0.0000
      8 ****         0.0662  -2.7015   0.1841 N.2            1 S1                 0.0000
      9 ****         1.3664  -2.1991   0.1767 C.2            1 S1                 0.0000
     10 ****         1.3450  -0.8349  -0.0761 C.2            1 S1                 0.0000
     11 ****         2.2846   0.1711  -0.1961 N.2            1 S1                 0.0000
     12 ****         3.4682  -0.0402   0.2867 C.2            1 S1                 0.0000
     13 ****         4.0154  -1.1843   0.8497 N.pl3          1 S1                 0.0000
     14 ****         3.9101  -2.5014   0.2456 C.3            1 S1                 0.0000
     15 ****         2.5209  -3.1343   0.3933 C.3            1 S1                 0.0000
     16 ****         2.3854  -3.6650   1.6960 O.3            1 S1                 0.0000
     17 ****        -0.9027   1.5873   0.7494 C.3            1 S1                 0.0000
     18 ****        -1.9815   2.5488   0.2765 C.3            1 S1                 0.0000
     19 ****        -1.4109   3.8065  -0.0270 O.3            1 S1                 0.0000
     20 ****        -2.3505   2.5147  -1.8798 H              1 S1                 0.0000
     21 ****         0.1286   1.3573  -1.1858 H              1 S1                 0.0000
     22 ****         2.4500  -3.9746  -0.2979 H              1 S1                 0.0000
     23 ****        -2.7428   2.6860   1.0454 H              1 S1                 0.0000
     24 ****        -5.7295   2.4758  -0.9263 H              1 S1                 0.0000
     25 ****        -4.2599   0.9717  -0.0268 H              1 S1                 0.0000
     26 ****        -4.3224   0.9261  -1.7810 H              1 S1                 0.0000
     27 ****        -1.7631  -1.6982  -0.1211 H              1 S1                 0.0000
     28 ****         4.1895   0.7780   0.2647 H              1 S1                 0.0000
     29 ****         4.8670  -1.0952   1.3851 H              1 S1                 0.0000
     30 ****         4.1332  -2.3886  -0.8165 H              1 S1                 0.0000
     31 ****         4.6806  -3.1583   0.6503 H              1 S1                 0.0000
     32 ****         1.5482  -4.1002   1.7509 H              1 S1                 0.0000
     33 ****        -1.3158   0.8863   1.4765 H              1 S1                 0.0000
     34 ****        -0.0155   2.0610   1.1717 H              1 S1                 0.0000
     35 ****        -2.0923   4.3709  -0.3595 H              1 S1                 0.0000
     36 ****        -4.6296   3.2308  -1.7929 LP             1 S1                 0.0000
     37 ****        -4.5958   3.2883  -0.1613 LP             1 S1                 0.0000
     38 ****        -1.6600   0.5062  -2.1478 LP             1 S1                 0.0000
     39 ****        -2.3033  -0.0812  -0.7666 LP             1 S1                 0.0000
     40 ****        -0.2293  -3.6438   0.3411 LP             1 S1                 0.0000
     41 ****         2.0577   1.0368  -0.6425 LP             1 S1                 0.0000
     42 ****         2.4280  -2.9264   2.3688 LP             1 S1                 0.0000
     43 ****         3.1199  -4.3200   1.8730 LP             1 S1                 0.0000
     44 ****        -0.6971   3.6955  -0.7184 LP             1 S1                 0.0000
     45 ****        -1.0150   4.2061   0.7997 LP             1 S1                 0.0000
@<TRIPOS>BOND
    1    1    2 1     
    2    1   24 1     
    3    2    3 1     
    4    2   25 1     
    5    2   26 1     
    6    3   20 1     
    7    3   18 1     
    8    3    4 1     
    9    4    5 1     
   10    5   21 1     
   11    5    6 1     
   12    5   17 1     
   13    6   10 1     
   14    6    7 1     
   15    7    8 2     
   16    7   27 1     
   17    8    9 1     
   18    9   15 1     
   19    9   10 2     
   20   10   11 1     
   21   11   12 2     
   22   12   13 1     
   23   12   28 1     
   24   13   14 1     
   25   13   29 1     
   26   14   15 1     
   27   14   30 1     
   28   14   31 1     
   29   15   22 1     
   30   15   16 1     
   31   16   32 1     
   32   17   18 1     
   33   17   33 1     
   34   17   34 1     
   35   18   23 1     
   36   18   19 1     
   37   19   35 1     
   38    1   36 1     
   39    1   37 1     
   40    4   38 1     
   41    4   39 1     
   42    8   40 1     
   43   11   41 1     
   44   16   42 1     
   45   16   43 1     
   46   19   44 1     
   47   19   45 1     
@<TRIPOS>SUBSTRUCTURE
      1 S1             1
@<TRIPOS>SET
LONE_PAIRS      STATIC     ATOMS    <user>   **** ""
10 36 37 38 39 40 41 42 43 44 45
DONOR_HYDROGENS      STATIC     ATOMS    <user>   **** ""
4 24 29 32 35
ATOM$BLUE        STATIC     ATOMS    COLORGROUP SYSTEM
10 36 37 38 39 40 41 42 43 44 45
ATOM$RED        STATIC     ATOMS    COLORGROUP SYSTEM
4 24 29 32 35
