AV-unprocessed.smi:1132|AV-procd|sdf|4854|dock2
  -GOLD-   22720 3423D 1   1.00000     0.00000
 Structure written by MMmdl.
 50 51  0  0  0  0  0  0  0  0  2 V2000
  153.3144  142.6513  160.4954 C   0  0  0  0  0  0  0  0  0  0  0  0
  152.4913  142.6357  159.3042 N   0  0  0  0  0  0  0  0  0  0  0  0
  152.1542  143.8617  158.6813 C   0  0  0  0  0  0  0  0  0  0  0  0
  152.5270  144.9522  159.1144 O   0  0  0  0  0  0  0  0  0  0  0  0
  151.3427  143.7229  157.4780 C   0  0  0  0  0  0  0  0  0  0  0  0
  150.9802  142.5044  157.0213 C   0  0  0  0  0  0  0  0  0  0  0  0
  151.3363  141.3203  157.6411 N   0  0  0  0  0  0  0  0  0  0  0  0
  150.9406  140.0383  157.0355 C   0  0  0  0  0  0  0  0  0  0  0  0
  150.4056  140.1496  155.5964 C   0  0  0  0  0  0  0  0  0  0  0  0
  151.1212  139.8032  154.6580 O   0  0  0  0  0  0  0  0  0  0  0  0
  149.1567  140.6141  155.4272 N   0  0  0  0  0  0  0  0  0  0  0  0
  148.4543  140.7871  154.1619 C   0  0  0  0  0  0  0  0  0  0  0  0
  147.4794  141.9734  154.2165 C   0  0  0  0  0  0  0  0  0  0  0  0
  146.1644  141.7114  154.9962 C   0  0  0  0  0  0  0  0  0  0  0  0
  146.3503  141.8169  156.5272 C   0  0  0  0  0  0  0  0  0  0  0  0
  145.1558  142.8081  154.6030 C   0  0  0  0  0  0  0  0  0  0  0  0
  145.5551  140.4083  154.6062 N   0  3  0  0  0  0  0  0  0  0  0  0
  146.4109  139.1957  154.4649 C   0  0  0  0  0  0  0  0  0  0  0  0
  146.6731  138.5233  155.8310 C   0  0  0  0  0  0  0  0  0  0  0  0
  145.6088  138.1829  153.6245 C   0  0  0  0  0  0  0  0  0  0  0  0
  147.7222  139.5147  153.7011 C   0  0  0  0  0  0  0  0  0  0  0  0
  152.1058  141.3654  158.8241 C   0  0  0  0  0  0  0  0  0  0  0  0
  152.4451  140.3256  159.3940 O   0  0  0  0  0  0  0  0  0  0  0  0
  153.4790  143.6680  160.8507 H   0  0  0  0  0  0  0  0  0  0  0  0
  154.2646  142.1830  160.2326 H   0  0  0  0  0  0  0  0  0  0  0  0
  152.7889  142.0829  161.2652 H   0  0  0  0  0  0  0  0  0  0  0  0
  151.0347  144.6081  156.9410 H   0  0  0  0  0  0  0  0  0  0  0  0
  150.3885  142.4554  156.1186 H   0  0  0  0  0  0  0  0  0  0  0  0
  151.7812  139.3426  157.0420 H   0  0  0  0  0  0  0  0  0  0  0  0
  150.1711  139.5671  157.6489 H   0  0  0  0  0  0  0  0  0  0  0  0
  148.6524  140.8813  156.2601 H   0  0  0  0  0  0  0  0  0  0  0  0
  149.2104  141.0294  153.4124 H   0  0  0  0  0  0  0  0  0  0  0  0
  147.9841  142.8574  154.6100 H   0  0  0  0  0  0  0  0  0  0  0  0
  147.2271  142.2224  153.1844 H   0  0  0  0  0  0  0  0  0  0  0  0
  146.6639  142.8219  156.8126 H   0  0  0  0  0  0  0  0  0  0  0  0
  147.1010  141.1446  156.9265 H   0  0  0  0  0  0  0  0  0  0  0  0
  145.4192  141.6085  157.0551 H   0  0  0  0  0  0  0  0  0  0  0  0
  145.5364  143.8029  154.8390 H   0  0  0  0  0  0  0  0  0  0  0  0
  144.2078  142.6875  155.1291 H   0  0  0  0  0  0  0  0  0  0  0  0
  144.9375  142.7890  153.5343 H   0  0  0  0  0  0  0  0  0  0  0  0
  144.7915  140.2010  155.2340 H   0  0  0  0  0  0  0  0  0  0  0  0
  147.1596  137.5560  155.6994 H   0  0  0  0  0  0  0  0  0  0  0  0
  145.7419  138.3452  156.3702 H   0  0  0  0  0  0  0  0  0  0  0  0
  147.3205  139.0961  156.4854 H   0  0  0  0  0  0  0  0  0  0  0  0
  146.1775  137.2676  153.4541 H   0  0  0  0  0  0  0  0  0  0  0  0
  145.3477  138.5898  152.6467 H   0  0  0  0  0  0  0  0  0  0  0  0
  144.6773  137.9017  154.1178 H   0  0  0  0  0  0  0  0  0  0  0  0
  147.4829  139.6554  152.6457 H   0  0  0  0  0  0  0  0  0  0  0  0
  148.3958  138.6570  153.7281 H   0  0  0  0  0  0  0  0  0  0  0  0
  145.1612  140.5633  153.6892 H   0  0  0  0  0  0  0  0  0  0  0  0
  1  2  1  0  0  0  0
  1 24  1  0  0  0  0
  1 25  1  0  0  0  0
  1 26  1  0  0  0  0
  2 22  1  0  0  0  0
  2  3  1  0  0  0  0
  3  4  2  0  0  0  0
  3  5  1  0  0  0  0
  5  6  2  0  0  0  0
  5 27  1  0  0  0  0
  6  7  1  0  0  0  0
  6 28  1  0  0  0  0
  7  8  1  0  0  0  0
  7 22  1  0  0  0  0
  8  9  1  0  0  0  0
  8 29  1  0  0  0  0
  8 30  1  0  0  0  0
  9 10  2  0  0  0  0
  9 11  1  0  0  0  0
 11 12  1  0  0  0  0
 11 31  1  0  0  0  0
 12 21  1  0  0  0  0
 12 13  1  0  0  0  0
 12 32  1  0  0  0  0
 13 14  1  0  0  0  0
 13 33  1  0  0  0  0
 13 34  1  0  0  0  0
 14 15  1  0  0  0  0
 14 16  1  0  0  0  0
 14 17  1  0  0  0  0
 15 35  1  0  0  0  0
 15 36  1  0  0  0  0
 15 37  1  0  0  0  0
 16 38  1  0  0  0  0
 16 39  1  0  0  0  0
 16 40  1  0  0  0  0
 17 18  1  0  0  0  0
 17 41  1  0  0  0  0
 17 50  1  0  0  0  0
 18 19  1  0  0  0  0
 18 20  1  0  0  0  0
 18 21  1  0  0  0  0
 19 42  1  0  0  0  0
 19 43  1  0  0  0  0
 19 44  1  0  0  0  0
 20 45  1  0  0  0  0
 20 46  1  0  0  0  0
 20 47  1  0  0  0  0
 21 48  1  0  0  0  0
 21 49  1  0  0  0  0
 22 23  2  0  0  0  0
M  CHG  1  17   1
M  END
> <s_m_source_file>
AV-unprocessed.smi

> <i_m_source_file_index>
1132

> <i_lp_mmshare_version>
43012

> <i_f3d_flags>
0

> <s_epik_input>
W0NIM11uMWMoPU8pW2NIXVtjSF1uKGMxPU8pW0NIMl1DKD1PKVtOSF1bQ0hdKFtDSDJdQzIoW0NIM10pW0NIM10pW0NIMl1DKFtOSF0yKShbQ0gzXSlbQ0gzXQ==

> <s_epik_cmdline>
J2VwaWtfcHl0aG9uJywgJy1waCcsICc3LjAnLCAnLXRuJywgJzgnLCAnLW1hJywgJzIwMCcsICctbWV0YWxfYmluZGluZycsICctaW1hZScsICc8aW5maWxlLm1hZT4nLCAnLW9tYWUnLCAnPG91dGZpbGUubWFlPic=

> <r_lp_tautomer_probability>
1

> <r_epik_Ionization_Penalty>
0.000184799

> <r_epik_Ionization_Penalty_Charging>
0.00018476

> <r_epik_Ionization_Penalty_Neutral>
3.8997e-08

> <r_epik_State_Penalty>
-0

> <r_epik_Charging_Adjusted_Penalty>
0.00018476

> <i_epik_Tot_Q>
1

> <i_epik_Tot_abs_Q>
1

> <r_epik_Metal_State_Penalty>
-0

> <b_epik_Metal_Only>
0

> <s_lp_Force_Field>
OPLS_2005

> <r_lp_Energy>
31.5781

> <b_lp_Chiralities_Consistent>
1

> <s_lp_Variant>
AV-unprocessed.smi:1132-1

> <Gold.Version>
5.8.1

> <Gold.Id.Protein>
6NUR|6NUR_protein|mol2

> <Gold.PLP.Fitness>
50.2009

> <Gold.PLP.PLP>
-41.5059

> <Gold.PLP.part.hbond>
-2.0000

> <Gold.PLP.part.metal>
0.0000

> <Gold.PLP.part.buried>
-3.8439

> <Gold.PLP.part.nonpolar>
-37.0569

> <Gold.PLP.part.repulsive>
0.1906

> <Gold.PLP.ligand.clash>
0.0000

> <Gold.PLP.ligand.torsion>
0.7211

> <Gold.PLP.Chemscore.Hbond>
3.0000

> <Gold.PLP.Chemscore.CHOScore>
0.3715

> <Gold.PLP.Chemscore.Metal>
0.0000

> <Gold.Chemscore.Hbonds>
donor molecule, donor type, donor heavy atom, donor atom, acceptor molecule, acceptor atom, score
      L1  H    17    50       P1 10175  2.00
      P1  H  7989  7998       L1    10  1.00
      L1  C     6    28       P1  8028  0.29

> <Gold.PLP.Chemscore.Internal.Correction>
0.0227

> <Gold.Rescore>
     Score         DG    S(hbond)    S(metal)    S(lipo)     H(rot)  DE(clash)    DE(int)     intcor
     14.30     -16.24       1.94        0.00      71.48       1.59       0.03       1.90       ----

> <Gold.Chemscore.Fitness>
14.3041

> <Gold.Chemscore.DG>
-16.2419

> <Gold.Chemscore.ZeroCoef>
-5.4800

> <Gold.Chemscore.Hbond>
1.9363

> <Gold.Chemscore.Metal>
0.0000

> <Gold.Chemscore.Lipo>
71.4813

> <Gold.Chemscore.Internal_Hbond>
0.0000

> <Gold.Chemscore.DEClash>
0.0349

> <Gold.Chemscore.DEInternal>
1.9029

> <Gold.Chemscore.Rot>
1.5892

> <Gold.Chemscore.Internal.Correction>
   9.000000E+99

> <Gold.Chemscore.Hbonds>
donor molecule, donor type, donor heavy atom, donor atom, acceptor molecule, acceptor atom, score
      L1  H    17    50       P1 10175  0.93
      P1  H  7989  7998       L1    10  0.99

> <Gold.Chemscore.Hbond.Weighted>
-6.4671

> <Gold.Chemscore.Metal.Weighted>
-0.0000

> <Gold.Chemscore.Lipo.Weighted>
-8.3633

> <Gold.Chemscore.Internal_Hbond.Weighted>
0.0000

> <Gold.Chemscore.DEClash.Weighted>
0.0349

> <Gold.Chemscore.DEInternal.Weighted>
1.9029

> <Gold.Chemscore.Rot.Weighted>
4.0685

> <Gold.Chemscore.Internal.Correction.Weighted>
   9.000000E+99

> <Gold.Protein.RotatedTorsions>
[ 6907 6896 6895 6894 ] final  158.68 input  -60.11 | X-H torsion
[ 7974 7965 7964 7962 ] final -133.61 input  175.53 | X-H torsion
[ 8008 7997 7996 7995 ] final  -40.11 input   59.86 | X-H torsion
[ 10167 10162 10161 10158 ] final -129.25 input  -65.29 | X-H torsion
[ 10718 10713 10712 10709 ] final  -61.13 input   66.30 | X-H torsion
[ 10763 10752 10751 10750 ] final  -65.47 input  -60.55 | X-H torsion
[ 11005 11000 10999 10996 ] final   80.97 input  -57.11 | X-H torsion

> <Gold.Protein.ActiveResidues>
 VAL166  LYS551  ARG553  GLY616  TRP617  ASP618  TYR619  PRO620  LYS621  CYS622 
 ASP623  PHE694  ASN695  SER759  ASP760  ASP761  ALA762  ILE779  LEU786  VAL792 
 PHE793  MET794  SER795  GLU796  ALA797  LYS798  CYS799  TRP800  GLU811  SER814 

> <Gold.Protein.RotatedAtoms>
  151.9968  133.3811  159.4165 H   0  0  0  0  0  0  0  0  0  0  0  0  # atno 6907 bound_to 6896
  150.6915  134.3877  159.5071 H   0  0  0  0  0  0  0  0  0  0  0  0  # atno 6908 bound_to 6896
  152.1618  134.8905  160.0591 H   0  0  0  0  0  0  0  0  0  0  0  0  # atno 6909 bound_to 6896
  144.9178  140.6976  143.4984 H   0  0  0  0  0  0  0  0  0  0  0  0  # atno 7974 bound_to 7965
  154.4015  140.1534  156.2973 H   0  0  0  0  0  0  0  0  0  0  0  0  # atno 8008 bound_to 7997
  155.8732  140.3447  155.5814 H   0  0  0  0  0  0  0  0  0  0  0  0  # atno 8009 bound_to 7997
  155.7751  140.0835  157.2078 H   0  0  0  0  0  0  0  0  0  0  0  0  # atno 8010 bound_to 7997
  139.9418  143.6155  152.2501 H   0  0  0  0  0  0  0  0  0  0  0  0  # atno 10167 bound_to 10162
  156.0942  130.4195  150.0951 H   0  0  0  0  0  0  0  0  0  0  0  0  # atno 10718 bound_to 10713
  154.3455  135.6147  153.5617 H   0  0  0  0  0  0  0  0  0  0  0  0  # atno 10763 bound_to 10752
  152.9801  135.5780  154.4803 H   0  0  0  0  0  0  0  0  0  0  0  0  # atno 10764 bound_to 10752
  154.4515  135.2853  155.1755 H   0  0  0  0  0  0  0  0  0  0  0  0  # atno 10765 bound_to 10752
  139.9115  134.7961  156.1980 H   0  0  0  0  0  0  0  0  0  0  0  0  # atno 11005 bound_to 11000
  145.3347  139.1749  143.4518 LP  0  0  0  0  0  0  0  0  0  0  0  0  # atno 17320 bound_to 7965
  146.3190  140.3381  142.8645 LP  0  0  0  0  0  0  0  0  0  0  0  0  # atno 17321 bound_to 7965
  139.6699  144.7661  151.1803 LP  0  0  0  0  0  0  0  0  0  0  0  0  # atno 17342 bound_to 10162
  140.7609  143.5881  150.8824 LP  0  0  0  0  0  0  0  0  0  0  0  0  # atno 17343 bound_to 10162
  156.8954  130.9602  151.3583 LP  0  0  0  0  0  0  0  0  0  0  0  0  # atno 17370 bound_to 10713
  157.6099  130.8575  149.8935 LP  0  0  0  0  0  0  0  0  0  0  0  0  # atno 17371 bound_to 10713
  141.0543  133.6873  156.1830 LP  0  0  0  0  0  0  0  0  0  0  0  0  # atno 17394 bound_to 11000
  140.6762  134.4816  157.5588 LP  0  0  0  0  0  0  0  0  0  0  0  0  # atno 17395 bound_to 11000

$$$$
