#       Name:                AV-unprocessed.smi:2957
#       Creating user name   scv26
#       Creation time:       Fri Mar 27 16:20:34 2020


#       File generated by GOLD software.
#

@<TRIPOS>MOLECULE
AV-unprocessed.smi:2957
    33    34     1
SMALL
NO_CHARGES


@<TRIPOS>ATOM
      1 ****        -1.5319   0.2369   0.1081 O.2            1 S1                 0.0000
      2 ****        -0.8479  -0.7866   0.0583 C.2            1 S1                 0.0000
      3 ****         0.6844  -0.7123   0.1294 C.3            1 S1                 0.0000
      4 ****         1.2210   0.6141  -0.2212 N.am           1 S1                 0.0000
      5 ****         1.5330   1.4801   0.8442 C.2            1 S1                 0.0000
      6 ****         2.0115   2.7243   0.6591 C.2            1 S1                 0.0000
      7 ****         2.3877   3.6201   1.8288 C.3            1 S1                 0.0000
      8 ****         3.3680   4.4595   1.4942 F              1 S1                 0.0000
      9 ****         1.3327   4.3423   2.2035 F              1 S1                 0.0000
     10 ****         2.7918   2.9008   2.8765 F              1 S1                 0.0000
     11 ****         2.2297   3.1333  -0.7137 C.2            1 S1                 0.0000
     12 ****         1.9440   2.3195  -1.7500 C.2            1 S1                 0.0000
     13 ****         2.2177   2.8614  -3.3675 Cl             1 S1                 0.0000
     14 ****         1.3989   0.9741  -1.5279 C.2            1 S1                 0.0000
     15 ****         1.1190   0.2126  -2.4552 O.2            1 S1                 0.0000
     16 ****        -1.3694  -2.0181  -0.0408 N.am           1 S1                 0.0000
     17 ****        -2.7610  -2.3262  -0.1144 C.3            1 S1                 0.0000
     18 ****        -3.2322  -3.6098   0.5346 C.3            1 S1                 0.0000
     19 ****        -3.1744  -3.5080  -0.9645 C.3            1 S1                 0.0000
     20 ****         0.9906  -0.9953   1.1373 H              1 S1                 0.0000
     21 ****         1.1149  -1.4754  -0.5221 H              1 S1                 0.0000
     22 ****         1.3527   1.0682   1.8267 H              1 S1                 0.0000
     23 ****         2.6257   4.1180  -0.9148 H              1 S1                 0.0000
     24 ****        -0.7306  -2.7995  -0.0706 H              1 S1                 0.0000
     25 ****        -3.4606  -1.4920  -0.0852 H              1 S1                 0.0000
     26 ****        -2.4892  -4.2369   1.0236 H              1 S1                 0.0000
     27 ****        -4.2154  -3.6040   1.0006 H              1 S1                 0.0000
     28 ****        -4.1188  -3.4342  -1.5000 H              1 S1                 0.0000
     29 ****        -2.3926  -4.0667  -1.4759 H              1 S1                 0.0000
     30 ****        -1.0901   1.1297   0.1958 LP             1 S1                 0.0000
     31 ****        -2.5288   0.1748   0.0607 LP             1 S1                 0.0000
     32 ****         0.7508  -0.6968  -2.2617 LP             1 S1                 0.0000
     33 ****         1.2601   0.5039  -3.4014 LP             1 S1                 0.0000
@<TRIPOS>BOND
    1    1    2 2     
    2    2    3 1     
    3    2   16 am    
    4    3    4 1     
    5    3   20 1     
    6    3   21 1     
    7    4   14 am    
    8    4    5 1     
    9    5    6 2     
   10    5   22 1     
   11    6    7 1     
   12    6   11 1     
   13    7    8 1     
   14    7    9 1     
   15    7   10 1     
   16   11   12 2     
   17   11   23 1     
   18   12   13 1     
   19   12   14 1     
   20   14   15 2     
   21   16   17 1     
   22   16   24 1     
   23   17   19 1     
   24   17   18 1     
   25   17   25 1     
   26   18   19 1     
   27   18   26 1     
   28   18   27 1     
   29   19   28 1     
   30   19   29 1     
   31    1   30 1     
   32    1   31 1     
   33   15   32 1     
   34   15   33 1     
@<TRIPOS>SUBSTRUCTURE
      1 S1             1
@<TRIPOS>SET
LONE_PAIRS      STATIC     ATOMS    <user>   **** ""
4 30 31 32 33
DONOR_HYDROGENS      STATIC     ATOMS    <user>   **** ""
1 24
ATOM$BLUE        STATIC     ATOMS    COLORGROUP SYSTEM
4 30 31 32 33
ATOM$RED        STATIC     ATOMS    COLORGROUP SYSTEM
1 24
