AV-unprocessed.smi:793|AV-procd|sdf|3753|dock5
  -GOLD-   22720 1183D 1   1.00000     0.00000
 Structure written by MMmdl.
 39 40  0  0  0  0  0  0  0  0  1 V2000
  150.5826  134.7313  155.4609 C   0  0  0  0  0  0  0  0  0  0  0  0
  149.1575  134.6156  154.9056 C   0  0  0  0  0  0  0  0  0  0  0  0
  148.9258  133.3062  154.1284 C   0  0  1  0  0  0  0  0  0  0  0  0
  149.0259  132.2255  155.0547 O   0  0  0  0  0  0  0  0  0  0  0  0
  149.0212  130.9120  154.4989 C   0  0  0  0  0  0  0  0  0  0  0  0
  148.6338  129.8886  155.5723 C   0  0  0  0  0  0  0  0  0  0  0  0
  149.9175  129.6067  156.3649 C   0  0  0  0  0  0  0  0  0  0  0  0
  151.0812  130.1245  155.5070 C   0  0  0  0  0  0  0  0  0  0  0  0
  150.4661  130.5400  154.1682 C   0  0  0  0  0  0  0  0  0  0  0  0
  147.5496  133.2951  153.4419 C   0  0  0  0  0  0  0  0  0  0  0  0
  146.7095  132.4643  153.7861 O   0  0  0  0  0  0  0  0  0  0  0  0
  147.3771  134.2238  152.4808 N   0  0  0  0  0  0  0  0  0  0  0  0
  146.2657  134.4638  151.6564 C   0  0  0  0  0  0  0  0  0  0  0  0
  145.7867  135.6833  151.2997 C   0  0  0  0  0  0  0  0  0  0  0  0
  144.6809  135.8700  150.4821 N   0  0  0  0  0  0  0  0  0  0  0  0
  144.0139  134.7590  149.9921 C   0  0  0  0  0  0  0  0  0  0  0  0
  144.3831  133.4938  150.2721 C   0  0  0  0  0  0  0  0  0  0  0  0
  145.5563  133.2579  151.1434 C   0  0  0  0  0  0  0  0  0  0  0  0
  145.9180  132.1150  151.4233 O   0  0  0  0  0  0  0  0  0  0  0  0
  150.7158  135.6735  155.9928 H   0  0  0  0  0  0  0  0  0  0  0  0
  151.3216  134.6939  154.6601 H   0  0  0  0  0  0  0  0  0  0  0  0
  150.8023  133.9221  156.1580 H   0  0  0  0  0  0  0  0  0  0  0  0
  148.4448  134.6939  155.7279 H   0  0  0  0  0  0  0  0  0  0  0  0
  148.9684  135.4694  154.2532 H   0  0  0  0  0  0  0  0  0  0  0  0
  149.7105  133.2117  153.3748 H   0  0  0  0  0  0  0  0  0  0  0  0
  148.3892  130.8427  153.6117 H   0  0  0  0  0  0  0  0  0  0  0  0
  147.8166  130.2239  156.2109 H   0  0  0  0  0  0  0  0  0  0  0  0
  148.3056  128.9690  155.0861 H   0  0  0  0  0  0  0  0  0  0  0  0
  149.8992  130.1279  157.3227 H   0  0  0  0  0  0  0  0  0  0  0  0
  150.0173  128.5414  156.5755 H   0  0  0  0  0  0  0  0  0  0  0  0
  151.5292  130.9941  155.9894 H   0  0  0  0  0  0  0  0  0  0  0  0
  151.8675  129.3800  155.3808 H   0  0  0  0  0  0  0  0  0  0  0  0
  150.4737  129.6885  153.4865 H   0  0  0  0  0  0  0  0  0  0  0  0
  151.0123  131.3518  153.6866 H   0  0  0  0  0  0  0  0  0  0  0  0
  148.1543  134.8496  152.3248 H   0  0  0  0  0  0  0  0  0  0  0  0
  146.2148  136.6193  151.6193 H   0  0  0  0  0  0  0  0  0  0  0  0
  143.1676  134.9931  149.3629 H   0  0  0  0  0  0  0  0  0  0  0  0
  143.8428  132.6470  149.8751 H   0  0  0  0  0  0  0  0  0  0  0  0
  144.3683  136.8020  150.2484 H   0  0  0  0  0  0  0  0  0  0  0  0
  1  2  1  0  0  0  0
  1 20  1  0  0  0  0
  1 21  1  0  0  0  0
  1 22  1  0  0  0  0
  2  3  1  0  0  0  0
  2 23  1  0  0  0  0
  2 24  1  0  0  0  0
  3  4  1  0  0  0  0
  3 10  1  0  0  0  0
  3 25  1  0  0  0  0
  4  5  1  0  0  0  0
  5  9  1  0  0  0  0
  5  6  1  0  0  0  0
  5 26  1  0  0  0  0
  6  7  1  0  0  0  0
  6 27  1  0  0  0  0
  6 28  1  0  0  0  0
  7  8  1  0  0  0  0
  7 29  1  0  0  0  0
  7 30  1  0  0  0  0
  8  9  1  0  0  0  0
  8 31  1  0  0  0  0
  8 32  1  0  0  0  0
  9 33  1  0  0  0  0
  9 34  1  0  0  0  0
 10 11  2  0  0  0  0
 10 12  1  0  0  0  0
 12 35  1  0  0  0  0
 12 13  1  0  0  0  0
 13 18  1  0  0  0  0
 13 14  2  0  0  0  0
 14 36  1  0  0  0  0
 14 15  1  0  0  0  0
 15 39  1  0  0  0  0
 15 16  1  0  0  0  0
 16 37  1  0  0  0  0
 16 17  2  0  0  0  0
 17 18  1  0  0  0  0
 17 38  1  0  0  0  0
 18 19  2  0  0  0  0
M  END
> <s_m_source_file>
AV-unprocessed.smi

> <i_m_source_file_index>
793

> <i_lp_mmshare_version>
43012

> <i_f3d_flags>
0

> <s_epik_input>
W0NIMl0xW0NIMl1bQ0gyXVtDSDJdW0NIXTFPW0NAQEhdKFtDSDJdW0NIM10pQyg9TylbTkhdYzJbY0hdbltjSF1bY0hdYzJbT0hd

> <s_epik_cmdline>
J2VwaWtfcHl0aG9uJywgJy1waCcsICc3LjAnLCAnLXRuJywgJzgnLCAnLW1hJywgJzIwMCcsICctbWV0YWxfYmluZGluZycsICctaW1hZScsICc8aW5maWxlLm1hZT4nLCAnLW9tYWUnLCAnPG91dGZpbGUubWFlPic=

> <r_lp_tautomer_probability>
1

> <r_epik_Ionization_Penalty>
0.000234492

> <r_epik_Ionization_Penalty_Charging>
0.000234447

> <r_epik_Ionization_Penalty_Neutral>
4.48517e-08

> <r_epik_State_Penalty>
-0

> <r_epik_Charging_Adjusted_Penalty>
0.000234447

> <i_epik_Tot_Q>
0

> <i_epik_Tot_abs_Q>
0

> <r_epik_Metal_State_Penalty>
0.110344

> <b_epik_Metal_Only>
0

> <s_lp_Force_Field>
OPLS_2005

> <r_lp_Energy>
26.0672

> <b_lp_Chiralities_Consistent>
1

> <s_lp_Variant>
AV-unprocessed.smi:793-2

> <Gold.Version>
5.8.1

> <Gold.Id.Protein>
6NUR|6NUR_protein|mol2

> <Gold.PLP.Fitness>
35.7186

> <Gold.PLP.PLP>
-26.6171

> <Gold.PLP.part.hbond>
-2.8174

> <Gold.PLP.part.metal>
0.0000

> <Gold.PLP.part.buried>
-0.2226

> <Gold.PLP.part.nonpolar>
-22.2232

> <Gold.PLP.part.repulsive>
0.2994

> <Gold.PLP.ligand.clash>
0.0000

> <Gold.PLP.ligand.torsion>
0.6530

> <Gold.PLP.Chemscore.Hbond>
1.9500

> <Gold.PLP.Chemscore.CHOScore>
1.4810

> <Gold.PLP.Chemscore.Metal>
0.0000

> <Gold.Chemscore.Hbonds>
donor molecule, donor type, donor heavy atom, donor atom, acceptor molecule, acceptor atom, score
      L1  H    12    35       P1  7948  1.00
      L1  H    15    39       P1 10171  1.00
      L1  C    14    36       P1  7948  0.24
      L1  C    16    37       P1 10186  1.00

> <Gold.PLP.Chemscore.Internal.Correction>
0.1146

> <Gold.Rescore>
     Score         DG    S(hbond)    S(metal)    S(lipo)     H(rot)  DE(clash)    DE(int)     intcor
      8.15     -14.64       1.92        0.00      58.77       1.61       0.25       6.24       ----

> <Gold.Chemscore.Fitness>
8.1505

> <Gold.Chemscore.DG>
-14.6417

> <Gold.Chemscore.ZeroCoef>
-5.4800

> <Gold.Chemscore.Hbond>
1.9153

> <Gold.Chemscore.Metal>
0.0000

> <Gold.Chemscore.Lipo>
58.7719

> <Gold.Chemscore.Internal_Hbond>
0.0000

> <Gold.Chemscore.DEClash>
0.2498

> <Gold.Chemscore.DEInternal>
6.2414

> <Gold.Chemscore.Rot>
1.6061

> <Gold.Chemscore.Internal.Correction>
   9.000000E+99

> <Gold.Chemscore.Hbonds>
donor molecule, donor type, donor heavy atom, donor atom, acceptor molecule, acceptor atom, score
      L1  H    12    35       P1  7948  0.44
      L1  H    15    39       P1 10171  1.00

> <Gold.Chemscore.Hbond.Weighted>
-6.3970

> <Gold.Chemscore.Metal.Weighted>
-0.0000

> <Gold.Chemscore.Lipo.Weighted>
-6.8763

> <Gold.Chemscore.Internal_Hbond.Weighted>
0.0000

> <Gold.Chemscore.DEClash.Weighted>
0.2498

> <Gold.Chemscore.DEInternal.Weighted>
6.2414

> <Gold.Chemscore.Rot.Weighted>
4.1116

> <Gold.Chemscore.Internal.Correction.Weighted>
   9.000000E+99

> <Gold.Protein.RotatedTorsions>
[ 6907 6896 6895 6894 ] final   -2.78 input  -60.11 | X-H torsion
[ 7974 7965 7964 7962 ] final  171.42 input  175.53 | X-H torsion
[ 8008 7997 7996 7995 ] final   30.58 input   59.86 | X-H torsion
[ 10167 10162 10161 10158 ] final  100.88 input  -65.29 | X-H torsion
[ 10718 10713 10712 10709 ] final  -39.73 input   66.30 | X-H torsion
[ 10763 10752 10751 10750 ] final -100.79 input  -60.55 | X-H torsion
[ 11005 11000 10999 10996 ] final   39.98 input  -57.11 | X-H torsion

> <Gold.Protein.ActiveResidues>
 VAL166  LYS551  ARG553  GLY616  TRP617  ASP618  TYR619  PRO620  LYS621  CYS622 
 ASP623  PHE694  ASN695  SER759  ASP760  ASP761  ALA762  ILE779  LEU786  VAL792 
 PHE793  MET794  SER795  GLU796  ALA797  LYS798  CYS799  TRP800  GLU811  SER814 

> <Gold.Protein.RotatedAtoms>
  151.5244  135.1067  159.9886 H   0  0  0  0  0  0  0  0  0  0  0  0  # atno 6907 bound_to 6896
  152.4606  133.7811  159.6861 H   0  0  0  0  0  0  0  0  0  0  0  0  # atno 6908 bound_to 6896
  150.8567  133.7640  159.3031 H   0  0  0  0  0  0  0  0  0  0  0  0  # atno 6909 bound_to 6896
  144.7295  139.9348  143.6426 H   0  0  0  0  0  0  0  0  0  0  0  0  # atno 7974 bound_to 7965
  155.0927  140.3221  155.4569 H   0  0  0  0  0  0  0  0  0  0  0  0  # atno 8008 bound_to 7997
  156.2738  140.2075  156.6000 H   0  0  0  0  0  0  0  0  0  0  0  0  # atno 8009 bound_to 7997
  154.6891  140.0518  157.0332 H   0  0  0  0  0  0  0  0  0  0  0  0  # atno 8010 bound_to 7997
  139.7488  144.6990  151.0464 H   0  0  0  0  0  0  0  0  0  0  0  0  # atno 10167 bound_to 10162
  156.2892  130.4226  149.8256 H   0  0  0  0  0  0  0  0  0  0  0  0  # atno 10718 bound_to 10713
  154.7607  135.4922  153.9459 H   0  0  0  0  0  0  0  0  0  0  0  0  # atno 10763 bound_to 10752
  153.1248  135.6740  153.9283 H   0  0  0  0  0  0  0  0  0  0  0  0  # atno 10764 bound_to 10752
  153.9004  135.3110  155.3427 H   0  0  0  0  0  0  0  0  0  0  0  0  # atno 10765 bound_to 10752
  140.1975  134.3911  155.8113 H   0  0  0  0  0  0  0  0  0  0  0  0  # atno 11005 bound_to 11000
  146.0830  139.3818  143.0453 LP  0  0  0  0  0  0  0  0  0  0  0  0  # atno 17320 bound_to 7965
  145.7815  140.9854  143.1096 LP  0  0  0  0  0  0  0  0  0  0  0  0  # atno 17321 bound_to 7965
  140.7795  143.4834  150.9987 LP  0  0  0  0  0  0  0  0  0  0  0  0  # atno 17342 bound_to 10162
  139.8522  143.7423  152.3177 LP  0  0  0  0  0  0  0  0  0  0  0  0  # atno 17343 bound_to 10162
  156.5676  130.8410  151.3347 LP  0  0  0  0  0  0  0  0  0  0  0  0  # atno 17370 bound_to 10713
  157.7337  130.9735  150.1993 LP  0  0  0  0  0  0  0  0  0  0  0  0  # atno 17371 bound_to 10713
  141.2227  133.7077  156.8201 LP  0  0  0  0  0  0  0  0  0  0  0  0  # atno 17394 bound_to 11000
  140.2091  134.8841  157.3254 LP  0  0  0  0  0  0  0  0  0  0  0  0  # atno 17395 bound_to 11000

$$$$
