AV-unprocessed.smi:1651|AV-procd|sdf|6638|dock3
  -GOLD-   22720 7343D 1   1.00000     0.00000
 Structure written by MMmdl.
 43 45  0  0  0  0  0  0  0  0  2 V2000
  146.7136  139.6680  153.9169 O   0  0  0  0  0  0  0  0  0  0  0  0
  147.6004  139.0290  153.3511 C   0  0  0  0  0  0  0  0  0  0  0  0
  147.3648  138.1470  152.3698 N   0  0  0  0  0  0  0  0  0  0  0  0
  146.0485  137.8353  151.8278 C   0  0  0  0  0  0  0  0  0  0  0  0
  145.6071  136.3948  152.0060 C   0  0  0  0  0  0  0  0  0  0  0  0
  145.2766  135.5235  150.8154 C   0  0  0  0  0  0  0  0  0  0  0  0
  144.1751  135.9979  151.7311 C   0  0  0  0  0  0  0  0  0  0  0  0
  148.9124  139.1018  153.6355 N   0  0  0  0  0  0  0  0  0  0  0  0
  149.5698  139.9351  154.5810 C   0  0  0  0  0  0  0  0  0  0  0  0
  150.6647  139.3937  155.2856 C   0  0  0  0  0  0  0  0  0  0  0  0
  151.3599  140.1865  156.2217 C   0  0  0  0  0  0  0  0  0  0  0  0
  150.9629  141.5294  156.4437 C   0  0  0  0  0  0  0  0  0  0  0  0
  151.5951  142.3977  157.3626 N   0  0  0  0  0  0  0  0  0  0  0  0
  151.3232  143.8320  157.2456 C   0  0  0  0  0  0  0  0  0  0  0  0
  152.3610  144.6681  158.0140 C   0  0  0  0  0  0  0  0  0  0  0  0
  152.4805  144.2014  159.4711 C   0  0  0  0  0  0  0  0  0  0  0  0
  152.8051  142.7019  159.5107 C   0  0  0  0  0  0  0  0  0  0  0  0
  151.7619  141.8873  158.7276 C   0  0  0  0  0  0  0  0  0  0  0  0
  149.9113  142.0060  155.7339 N   0  3  0  0  0  0  0  0  0  0  0  0
  149.2160  141.2822  154.8306 C   0  0  0  0  0  0  0  0  0  0  0  0
  148.1506  137.6602  151.9636 H   0  0  0  0  0  0  0  0  0  0  0  0
  145.3256  138.4754  152.3340 H   0  0  0  0  0  0  0  0  0  0  0  0
  146.0066  138.1057  150.7710 H   0  0  0  0  0  0  0  0  0  0  0  0
  146.0720  135.8962  152.8547 H   0  0  0  0  0  0  0  0  0  0  0  0
  145.3347  135.9724  149.8258 H   0  0  0  0  0  0  0  0  0  0  0  0
  145.5595  134.4742  150.8683 H   0  0  0  0  0  0  0  0  0  0  0  0
  143.7208  135.2636  152.3933 H   0  0  0  0  0  0  0  0  0  0  0  0
  143.5011  136.7620  151.3489 H   0  0  0  0  0  0  0  0  0  0  0  0
  149.5087  138.4574  153.1372 H   0  0  0  0  0  0  0  0  0  0  0  0
  150.9738  138.3729  155.1143 H   0  0  0  0  0  0  0  0  0  0  0  0
  152.1965  139.7475  156.7438 H   0  0  0  0  0  0  0  0  0  0  0  0
  151.3462  144.1373  156.1990 H   0  0  0  0  0  0  0  0  0  0  0  0
  150.3210  144.0375  157.6243 H   0  0  0  0  0  0  0  0  0  0  0  0
  153.3322  144.5831  157.5243 H   0  0  0  0  0  0  0  0  0  0  0  0
  152.0888  145.7233  157.9795 H   0  0  0  0  0  0  0  0  0  0  0  0
  153.2556  144.7691  159.9869 H   0  0  0  0  0  0  0  0  0  0  0  0
  151.5459  144.3936  159.9997 H   0  0  0  0  0  0  0  0  0  0  0  0
  153.7953  142.5317  159.0855 H   0  0  0  0  0  0  0  0  0  0  0  0
  152.8486  142.3553  160.5435 H   0  0  0  0  0  0  0  0  0  0  0  0
  150.7975  141.9336  159.2353 H   0  0  0  0  0  0  0  0  0  0  0  0
  152.0687  140.8415  158.7331 H   0  0  0  0  0  0  0  0  0  0  0  0
  148.4172  141.8188  154.3415 H   0  0  0  0  0  0  0  0  0  0  0  0
  149.6252  142.9726  155.8911 H   0  0  0  0  0  0  0  0  0  0  0  0
  1  2  2  0  0  0  0
  2  3  1  0  0  0  0
  2  8  1  0  0  0  0
  3  4  1  0  0  0  0
  3 21  1  0  0  0  0
  4  5  1  0  0  0  0
  4 22  1  0  0  0  0
  4 23  1  0  0  0  0
  5  7  1  0  0  0  0
  5  6  1  0  0  0  0
  5 24  1  0  0  0  0
  6  7  1  0  0  0  0
  6 25  1  0  0  0  0
  6 26  1  0  0  0  0
  7 27  1  0  0  0  0
  7 28  1  0  0  0  0
  8  9  1  0  0  0  0
  8 29  1  0  0  0  0
  9 20  1  0  0  0  0
  9 10  2  0  0  0  0
 10 11  1  0  0  0  0
 10 30  1  0  0  0  0
 11 12  2  0  0  0  0
 11 31  1  0  0  0  0
 12 13  1  0  0  0  0
 12 19  1  0  0  0  0
 13 18  1  0  0  0  0
 13 14  1  0  0  0  0
 14 15  1  0  0  0  0
 14 32  1  0  0  0  0
 14 33  1  0  0  0  0
 15 16  1  0  0  0  0
 15 34  1  0  0  0  0
 15 35  1  0  0  0  0
 16 17  1  0  0  0  0
 16 36  1  0  0  0  0
 16 37  1  0  0  0  0
 17 18  1  0  0  0  0
 17 38  1  0  0  0  0
 17 39  1  0  0  0  0
 18 40  1  0  0  0  0
 18 41  1  0  0  0  0
 19 20  2  0  0  0  0
 19 43  1  0  0  0  0
 20 42  1  0  0  0  0
M  CHG  1  19   1
M  END
> <s_m_source_file>
AV-unprocessed.smi

> <i_m_source_file_index>
1651

> <i_lp_mmshare_version>
43012

> <i_f3d_flags>
0

> <s_epik_input>
W0NIMl0xW0NIMl1bQ0hdMVtDSDJdW05IXUMoPU8pW05IXWMyW2NIXVtjSF1jKG5bY0hdMilOM1tDSDJdW0NIMl1bQ0gyXVtDSDJdW0NIMl0z

> <s_epik_cmdline>
J2VwaWtfcHl0aG9uJywgJy1waCcsICc3LjAnLCAnLXRuJywgJzgnLCAnLW1hJywgJzIwMCcsICctbWV0YWxfYmluZGluZycsICctaW1hZScsICc8aW5maWxlLm1hZT4nLCAnLW9tYWUnLCAnPG91dGZpbGUubWFlPic=

> <r_lp_tautomer_probability>
0.999994

> <r_epik_Ionization_Penalty>
1.09132

> <r_epik_Ionization_Penalty_Charging>
1.09129

> <r_epik_Ionization_Penalty_Neutral>
2.16154e-05

> <r_epik_State_Penalty>
1.1476

> <r_epik_Charging_Adjusted_Penalty>
2.2389

> <i_epik_Tot_Q>
1

> <i_epik_Tot_abs_Q>
1

> <r_epik_Metal_State_Penalty>
1.23617

> <b_epik_Metal_Only>
0

> <s_lp_Force_Field>
OPLS_2005

> <r_lp_Energy>
33.6133

> <b_lp_Chiralities_Consistent>
1

> <s_lp_Variant>
AV-unprocessed.smi:1651-2

> <Gold.Version>
5.8.1

> <Gold.Id.Protein>
6NUR|6NUR_protein|mol2

> <Gold.PLP.Fitness>
53.2130

> <Gold.PLP.PLP>
-45.2397

> <Gold.PLP.part.hbond>
-3.6390

> <Gold.PLP.part.metal>
0.0000

> <Gold.PLP.part.buried>
-0.7007

> <Gold.PLP.part.nonpolar>
-42.0744

> <Gold.PLP.part.repulsive>
0.5112

> <Gold.PLP.ligand.clash>
0.0000

> <Gold.PLP.ligand.torsion>
0.9629

> <Gold.PLP.Chemscore.Hbond>
2.9440

> <Gold.PLP.Chemscore.CHOScore>
0.0000

> <Gold.PLP.Chemscore.Metal>
0.0000

> <Gold.Chemscore.Hbonds>
donor molecule, donor type, donor heavy atom, donor atom, acceptor molecule, acceptor atom, score
      L1  H     3    21       P1  7948  0.94
      L1  H    19    43       P1  8028  2.00

> <Gold.PLP.Chemscore.Internal.Correction>
1.0671

> <Gold.Rescore>
     Score         DG    S(hbond)    S(metal)    S(lipo)     H(rot)  DE(clash)    DE(int)     intcor
     20.37     -21.45       1.93        0.00     110.38       1.33       0.18       0.90       ----

> <Gold.Chemscore.Fitness>
20.3677

> <Gold.Chemscore.DG>
-21.4458

> <Gold.Chemscore.ZeroCoef>
-5.4800

> <Gold.Chemscore.Hbond>
1.9341

> <Gold.Chemscore.Metal>
0.0000

> <Gold.Chemscore.Lipo>
110.3767

> <Gold.Chemscore.Internal_Hbond>
0.0000

> <Gold.Chemscore.DEClash>
0.1769

> <Gold.Chemscore.DEInternal>
0.9012

> <Gold.Chemscore.Rot>
1.3313

> <Gold.Chemscore.Internal.Correction>
   9.000000E+99

> <Gold.Chemscore.Hbonds>
donor molecule, donor type, donor heavy atom, donor atom, acceptor molecule, acceptor atom, score
      L1  H     3    21       P1  7948  0.90
      L1  H    19    43       P1  8028  1.00

> <Gold.Chemscore.Hbond.Weighted>
-6.4600

> <Gold.Chemscore.Metal.Weighted>
-0.0000

> <Gold.Chemscore.Lipo.Weighted>
-12.9141

> <Gold.Chemscore.Internal_Hbond.Weighted>
0.0000

> <Gold.Chemscore.DEClash.Weighted>
0.1769

> <Gold.Chemscore.DEInternal.Weighted>
0.9012

> <Gold.Chemscore.Rot.Weighted>
3.4083

> <Gold.Chemscore.Internal.Correction.Weighted>
   9.000000E+99

> <Gold.Protein.RotatedTorsions>
[ 6907 6896 6895 6894 ] final   48.09 input  -60.11 | X-H torsion
[ 7974 7965 7964 7962 ] final  -56.66 input  175.53 | X-H torsion
[ 8008 7997 7996 7995 ] final  -45.98 input   59.86 | X-H torsion
[ 10167 10162 10161 10158 ] final  -41.18 input  -65.29 | X-H torsion
[ 10718 10713 10712 10709 ] final -136.87 input   66.30 | X-H torsion
[ 10763 10752 10751 10750 ] final -154.63 input  -60.55 | X-H torsion
[ 11005 11000 10999 10996 ] final  151.40 input  -57.11 | X-H torsion

> <Gold.Protein.ActiveResidues>
 VAL166  LYS551  ARG553  GLY616  TRP617  ASP618  TYR619  PRO620  LYS621  CYS622 
 ASP623  PHE694  ASN695  SER759  ASP760  ASP761  ALA762  ILE779  LEU786  VAL792 
 PHE793  MET794  SER795  GLU796  ALA797  LYS798  CYS799  TRP800  GLU811  SER814 

> <Gold.Protein.RotatedAtoms>
  152.2755  134.7886  160.0406 H   0  0  0  0  0  0  0  0  0  0  0  0  # atno 6907 bound_to 6896
  151.8483  133.3430  159.3673 H   0  0  0  0  0  0  0  0  0  0  0  0  # atno 6908 bound_to 6896
  150.7169  134.5252  159.5717 H   0  0  0  0  0  0  0  0  0  0  0  0  # atno 6909 bound_to 6896
  145.8601  140.8291  142.9941 H   0  0  0  0  0  0  0  0  0  0  0  0  # atno 7974 bound_to 7965
  154.4004  140.1383  156.3936 H   0  0  0  0  0  0  0  0  0  0  0  0  # atno 8008 bound_to 7997
  155.7891  140.3479  155.5319 H   0  0  0  0  0  0  0  0  0  0  0  0  # atno 8009 bound_to 7997
  155.8597  140.0954  157.1611 H   0  0  0  0  0  0  0  0  0  0  0  0  # atno 8010 bound_to 7997
  140.7011  143.3109  151.3030 H   0  0  0  0  0  0  0  0  0  0  0  0  # atno 10167 bound_to 10162
  156.2818  130.7325  151.1324 H   0  0  0  0  0  0  0  0  0  0  0  0  # atno 10718 bound_to 10713
  154.7845  135.3185  154.7918 H   0  0  0  0  0  0  0  0  0  0  0  0  # atno 10763 bound_to 10752
  153.8621  135.6852  153.4786 H   0  0  0  0  0  0  0  0  0  0  0  0  # atno 10764 bound_to 10752
  153.1491  135.4707  154.9549 H   0  0  0  0  0  0  0  0  0  0  0  0  # atno 10765 bound_to 10752
  140.1215  134.8860  157.2079 H   0  0  0  0  0  0  0  0  0  0  0  0  # atno 11005 bound_to 11000
  144.6727  140.1082  143.7457 LP  0  0  0  0  0  0  0  0  0  0  0  0  # atno 17320 bound_to 7965
  145.9258  139.2574  143.1354 LP  0  0  0  0  0  0  0  0  0  0  0  0  # atno 17321 bound_to 7965
  139.6532  144.0324  152.2641 LP  0  0  0  0  0  0  0  0  0  0  0  0  # atno 17342 bound_to 10162
  139.9867  144.6390  150.7851 LP  0  0  0  0  0  0  0  0  0  0  0  0  # atno 17343 bound_to 10162
  157.7316  131.0606  150.5667 LP  0  0  0  0  0  0  0  0  0  0  0  0  # atno 17370 bound_to 10713
  156.5774  130.4295  149.5992 LP  0  0  0  0  0  0  0  0  0  0  0  0  # atno 17371 bound_to 10713
  140.2959  134.3187  155.7302 LP  0  0  0  0  0  0  0  0  0  0  0  0  # atno 17394 bound_to 11000
  141.2152  133.7562  156.9570 LP  0  0  0  0  0  0  0  0  0  0  0  0  # atno 17395 bound_to 11000

$$$$
