AV-unprocessed.smi:737|AV-procd|sdf|3537|dock7
  -GOLD-   22720 0533D 1   1.00000     0.00000
 Structure written by MMmdl.
 45 47  0  0  0  0  0  0  0  0  1 V2000
  146.7680  137.1646  156.8424 C   0  0  0  0  0  0  0  0  0  0  0  0
  147.9768  137.9388  156.6117 N   0  0  0  0  0  0  0  0  0  0  0  0
  149.0772  137.3693  155.9560 C   0  0  0  0  0  0  0  0  0  0  0  0
  149.0456  136.0661  155.5927 N   0  0  0  0  0  0  0  0  0  0  0  0
  150.1168  135.5649  154.9640 C   0  0  0  0  0  0  0  0  0  0  0  0
  151.2611  136.1777  154.6228 N   0  0  0  0  0  0  0  0  0  0  0  0
  151.3031  137.4685  154.9798 C   0  0  0  0  0  0  0  0  0  0  0  0
  152.3550  138.3399  154.7540 N   0  0  0  0  0  0  0  0  0  0  0  0
  151.8945  139.4657  155.2935 C   0  0  0  0  0  0  0  0  0  0  0  0
  150.6653  139.4341  155.8444 N   0  0  0  0  0  0  0  0  0  0  0  0
  149.9783  140.5426  156.4844 C   0  0  0  0  0  0  0  0  0  0  0  0
  150.8979  141.7613  156.7047 C   0  0  1  0  0  0  0  0  0  0  0  0
  150.7332  142.7412  155.6985 O   0  0  0  0  0  0  0  0  0  0  0  0
  150.7148  142.4245  158.0782 C   0  0  0  0  0  0  0  0  0  0  0  0
  151.8729  143.1815  158.4025 O   0  0  0  0  0  0  0  0  0  0  0  0
  152.2524  143.0776  159.7152 C   0  0  0  0  0  0  0  0  0  0  0  0
  152.7873  141.8584  160.1923 C   0  0  0  0  0  0  0  0  0  0  0  0
  152.9443  140.6708  159.2613 C   0  0  0  0  0  0  0  0  0  0  0  0
  153.1786  141.7449  161.5421 C   0  0  0  0  0  0  0  0  0  0  0  0
  153.0280  142.8362  162.4175 C   0  0  0  0  0  0  0  0  0  0  0  0
  152.4786  144.0439  161.9484 C   0  0  0  0  0  0  0  0  0  0  0  0
  152.0827  144.1689  160.6008 C   0  0  0  0  0  0  0  0  0  0  0  0
  151.4735  145.4746  160.1233 C   0  0  0  0  0  0  0  0  0  0  0  0
  150.2303  138.1229  155.6569 C   0  0  0  0  0  0  0  0  0  0  0  0
  146.0257  137.7788  157.3523 H   0  0  0  0  0  0  0  0  0  0  0  0
  146.9790  136.2958  157.4668 H   0  0  0  0  0  0  0  0  0  0  0  0
  146.3395  136.8244  155.8992 H   0  0  0  0  0  0  0  0  0  0  0  0
  147.9932  138.9141  156.8741 H   0  0  0  0  0  0  0  0  0  0  0  0
  150.0500  134.5214  154.6933 H   0  0  0  0  0  0  0  0  0  0  0  0
  152.4866  140.3694  155.2885 H   0  0  0  0  0  0  0  0  0  0  0  0
  149.1086  140.8065  155.8840 H   0  0  0  0  0  0  0  0  0  0  0  0
  149.5873  140.1971  157.4423 H   0  0  0  0  0  0  0  0  0  0  0  0
  151.9336  141.4272  156.6308 H   0  0  0  0  0  0  0  0  0  0  0  0
  150.0740  143.3561  155.9825 H   0  0  0  0  0  0  0  0  0  0  0  0
  149.8518  143.0911  158.0422 H   0  0  0  0  0  0  0  0  0  0  0  0
  150.5032  141.6752  158.8422 H   0  0  0  0  0  0  0  0  0  0  0  0
  153.1001  139.7482  159.8212 H   0  0  0  0  0  0  0  0  0  0  0  0
  153.7995  140.8182  158.6020 H   0  0  0  0  0  0  0  0  0  0  0  0
  152.0531  140.5425  158.6462 H   0  0  0  0  0  0  0  0  0  0  0  0
  153.5943  140.8190  161.9123 H   0  0  0  0  0  0  0  0  0  0  0  0
  153.3281  142.7451  163.4510 H   0  0  0  0  0  0  0  0  0  0  0  0
  152.3581  144.8741  162.6290 H   0  0  0  0  0  0  0  0  0  0  0  0
  150.9774  145.9946  160.9432 H   0  0  0  0  0  0  0  0  0  0  0  0
  150.7318  145.3026  159.3428 H   0  0  0  0  0  0  0  0  0  0  0  0
  152.2482  146.1292  159.7247 H   0  0  0  0  0  0  0  0  0  0  0  0
  1  2  1  0  0  0  0
  1 25  1  0  0  0  0
  1 26  1  0  0  0  0
  1 27  1  0  0  0  0
  2  3  1  0  0  0  0
  2 28  1  0  0  0  0
  3 24  1  0  0  0  0
  3  4  2  0  0  0  0
  4  5  1  0  0  0  0
  5  6  2  0  0  0  0
  5 29  1  0  0  0  0
  6  7  1  0  0  0  0
  7 24  2  0  0  0  0
  7  8  1  0  0  0  0
  8  9  2  0  0  0  0
  9 10  1  0  0  0  0
  9 30  1  0  0  0  0
 10 11  1  0  0  0  0
 10 24  1  0  0  0  0
 11 12  1  0  0  0  0
 11 31  1  0  0  0  0
 11 32  1  0  0  0  0
 12 13  1  0  0  0  0
 12 14  1  0  0  0  0
 12 33  1  0  0  0  0
 13 34  1  0  0  0  0
 14 15  1  0  0  0  0
 14 35  1  0  0  0  0
 14 36  1  0  0  0  0
 15 16  1  0  0  0  0
 16 22  1  0  0  0  0
 16 17  2  0  0  0  0
 17 18  1  0  0  0  0
 17 19  1  0  0  0  0
 18 37  1  0  0  0  0
 18 38  1  0  0  0  0
 18 39  1  0  0  0  0
 19 20  2  0  0  0  0
 19 40  1  0  0  0  0
 20 21  1  0  0  0  0
 20 41  1  0  0  0  0
 21 22  2  0  0  0  0
 21 42  1  0  0  0  0
 22 23  1  0  0  0  0
 23 43  1  0  0  0  0
 23 44  1  0  0  0  0
 23 45  1  0  0  0  0
M  END
> <s_m_source_file>
AV-unprocessed.smi

> <i_m_source_file_index>
737

> <i_lp_mmshare_version>
43012

> <i_f3d_flags>
0

> <s_epik_input>
bjFbY0hdbmMoW05IXVtDSDNdKWMoYzEyKW4oW2NIXW4yKVtDSDJdW0NASF0oW09IXSlbQ0gyXU9jM2MoW0NIM10pW2NIXVtjSF1bY0hdYzNbQ0gzXQ==

> <s_epik_cmdline>
J2VwaWtfcHl0aG9uJywgJy1waCcsICc3LjAnLCAnLXRuJywgJzgnLCAnLW1hJywgJzIwMCcsICctbWV0YWxfYmluZGluZycsICctaW1hZScsICc8aW5maWxlLm1hZT4nLCAnLW9tYWUnLCAnPG91dGZpbGUubWFlPic=

> <r_lp_tautomer_probability>
1

> <r_epik_Ionization_Penalty>
0.0070961

> <r_epik_Ionization_Penalty_Charging>
0

> <r_epik_Ionization_Penalty_Neutral>
0.0070961

> <r_epik_State_Penalty>
-0

> <r_epik_Charging_Adjusted_Penalty>
0

> <i_epik_Tot_Q>
0

> <i_epik_Tot_abs_Q>
0

> <r_epik_Metal_State_Penalty>
-0

> <b_epik_Metal_Only>
0

> <s_lp_Force_Field>
OPLS_2005

> <r_lp_Energy>
18.2804

> <b_lp_Chiralities_Consistent>
1

> <s_lp_Variant>
AV-unprocessed.smi:737-2

> <Gold.Version>
5.8.1

> <Gold.Id.Protein>
6NUR|6NUR_protein|mol2

> <Gold.PLP.Fitness>
49.9218

> <Gold.PLP.PLP>
-46.1382

> <Gold.PLP.part.hbond>
-2.0000

> <Gold.PLP.part.metal>
0.0000

> <Gold.PLP.part.buried>
-4.9697

> <Gold.PLP.part.nonpolar>
-38.8797

> <Gold.PLP.part.repulsive>
0.3335

> <Gold.PLP.ligand.clash>
0.0000

> <Gold.PLP.ligand.torsion>
1.2177

> <Gold.PLP.Chemscore.Hbond>
2.0000

> <Gold.PLP.Chemscore.CHOScore>
0.0000

> <Gold.PLP.Chemscore.Metal>
0.0000

> <Gold.Chemscore.Hbonds>
donor molecule, donor type, donor heavy atom, donor atom, acceptor molecule, acceptor atom, score
      L1  H    13    34       P1  8028  1.00
      P1  H 10752 10765       L1     6  1.00

> <Gold.PLP.Chemscore.Internal.Correction>
0.2191

> <Gold.Rescore>
     Score         DG    S(hbond)    S(metal)    S(lipo)     H(rot)  DE(clash)    DE(int)     intcor
     14.71     -16.74       1.74        0.00     110.33       2.91       0.08       1.96       ----

> <Gold.Chemscore.Fitness>
14.7087

> <Gold.Chemscore.DG>
-16.7448

> <Gold.Chemscore.ZeroCoef>
-5.4800

> <Gold.Chemscore.Hbond>
1.7358

> <Gold.Chemscore.Metal>
0.0000

> <Gold.Chemscore.Lipo>
110.3273

> <Gold.Chemscore.Internal_Hbond>
0.0000

> <Gold.Chemscore.DEClash>
0.0785

> <Gold.Chemscore.DEInternal>
1.9576

> <Gold.Chemscore.Rot>
2.9067

> <Gold.Chemscore.Internal.Correction>
   9.000000E+99

> <Gold.Chemscore.Hbonds>
donor molecule, donor type, donor heavy atom, donor atom, acceptor molecule, acceptor atom, score
      L1  H    13    34       P1  8028  0.95
      P1  H 10752 10765       L1     6  0.65

> <Gold.Chemscore.Hbond.Weighted>
-5.7977

> <Gold.Chemscore.Metal.Weighted>
-0.0000

> <Gold.Chemscore.Lipo.Weighted>
-12.9083

> <Gold.Chemscore.Internal_Hbond.Weighted>
0.0000

> <Gold.Chemscore.DEClash.Weighted>
0.0785

> <Gold.Chemscore.DEInternal.Weighted>
1.9576

> <Gold.Chemscore.Rot.Weighted>
7.4412

> <Gold.Chemscore.Internal.Correction.Weighted>
   9.000000E+99

> <Gold.Protein.RotatedTorsions>
[ 6907 6896 6895 6894 ] final  176.35 input  -60.11 | X-H torsion
[ 7974 7965 7964 7962 ] final  -59.43 input  175.53 | X-H torsion
[ 8008 7997 7996 7995 ] final   95.40 input   59.86 | X-H torsion
[ 10167 10162 10161 10158 ] final  -48.18 input  -65.29 | X-H torsion
[ 10718 10713 10712 10709 ] final -144.63 input   66.30 | X-H torsion
[ 10763 10752 10751 10750 ] final  176.35 input  -60.55 | X-H torsion
[ 11005 11000 10999 10996 ] final -170.66 input  -57.11 | X-H torsion

> <Gold.Protein.ActiveResidues>
 VAL166  LYS551  ARG553  GLY616  TRP617  ASP618  TYR619  PRO620  LYS621  CYS622 
 ASP623  PHE694  ASN695  SER759  ASP760  ASP761  ALA762  ILE779  LEU786  VAL792 
 PHE793  MET794  SER795  GLU796  ALA797  LYS798  CYS799  TRP800  GLU811  SER814 

> <Gold.Protein.RotatedAtoms>
  151.7216  133.3314  159.3316 H   0  0  0  0  0  0  0  0  0  0  0  0  # atno 6907 bound_to 6896
  150.7650  134.6443  159.6263 H   0  0  0  0  0  0  0  0  0  0  0  0  # atno 6908 bound_to 6896
  152.3648  134.6822  160.0247 H   0  0  0  0  0  0  0  0  0  0  0  0  # atno 6909 bound_to 6896
  145.8276  140.8500  143.0100 H   0  0  0  0  0  0  0  0  0  0  0  0  # atno 7974 bound_to 7965
  156.0685  140.3287  155.7547 H   0  0  0  0  0  0  0  0  0  0  0  0  # atno 8008 bound_to 7997
  155.5343  140.0596  157.2900 H   0  0  0  0  0  0  0  0  0  0  0  0  # atno 8009 bound_to 7997
  154.4517  140.1922  156.0515 H   0  0  0  0  0  0  0  0  0  0  0  0  # atno 8010 bound_to 7997
  140.6742  143.2751  151.4033 H   0  0  0  0  0  0  0  0  0  0  0  0  # atno 10167 bound_to 10162
  156.3725  130.7795  151.1977 H   0  0  0  0  0  0  0  0  0  0  0  0  # atno 10718 bound_to 10713
  154.4799  135.2774  155.1578 H   0  0  0  0  0  0  0  0  0  0  0  0  # atno 10763 bound_to 10752
  154.3292  135.6193  153.5547 H   0  0  0  0  0  0  0  0  0  0  0  0  # atno 10764 bound_to 10752
  152.9874  135.5761  154.5198 H   0  0  0  0  0  0  0  0  0  0  0  0  # atno 10765 bound_to 10752
  140.5170  134.5746  157.5036 H   0  0  0  0  0  0  0  0  0  0  0  0  # atno 11005 bound_to 11000
  144.6742  140.0624  143.7475 LP  0  0  0  0  0  0  0  0  0  0  0  0  # atno 17320 bound_to 7965
  145.9607  139.2798  143.1157 LP  0  0  0  0  0  0  0  0  0  0  0  0  # atno 17321 bound_to 7965
  139.6026  144.1263  152.2215 LP  0  0  0  0  0  0  0  0  0  0  0  0  # atno 17342 bound_to 10162
  140.0652  144.5824  150.7233 LP  0  0  0  0  0  0  0  0  0  0  0  0  # atno 17343 bound_to 10162
  157.7485  131.0368  150.4426 LP  0  0  0  0  0  0  0  0  0  0  0  0  # atno 17370 bound_to 10713
  156.4656  130.4041  149.6549 LP  0  0  0  0  0  0  0  0  0  0  0  0  # atno 17371 bound_to 10713
  139.9627  134.7425  156.0203 LP  0  0  0  0  0  0  0  0  0  0  0  0  # atno 17394 bound_to 11000
  141.1355  133.6576  156.3581 LP  0  0  0  0  0  0  0  0  0  0  0  0  # atno 17395 bound_to 11000

$$$$
