AV-unprocessed.smi:438|AV-procd|sdf|2577|dock3
  -GOLD-   2262022563D 1   1.00000     0.00000
 Structure written by MMmdl.
 48 49  0  0  0  0  0  0  0  0  1 V2000
  145.3278  136.0881  153.9771 C   0  0  0  0  0  0  0  0  0  0  0  0
  146.3663  135.0292  153.6551 C   0  0  0  0  0  0  0  0  0  0  0  0
  147.3461  134.8689  154.5716 N   0  0  0  0  0  0  0  0  0  0  0  0
  148.2610  133.9351  154.3088 C   0  0  0  0  0  0  0  0  0  0  0  0
  149.5649  133.7332  155.5002 S   0  0  0  0  0  0  0  0  0  0  0  0
  149.6149  135.3885  156.2510 C   0  0  0  0  0  0  0  0  0  0  0  0
  150.3440  136.3949  155.3665 C   0  0  0  0  0  0  0  0  0  0  0  0
  151.3951  136.0767  154.8114 O   0  0  0  0  0  0  0  0  0  0  0  0
  149.7669  137.6004  155.2389 N   0  0  0  0  0  0  0  0  0  0  0  0
  150.2504  138.7088  154.4133 C   0  0  2  0  0  0  0  0  0  0  0  0
  151.7012  139.0599  154.8009 C   0  0  0  0  0  0  0  0  0  0  0  0
  151.7922  139.7181  156.1886 C   0  0  0  0  0  0  0  0  0  0  0  0
  150.8800  140.9502  156.2805 C   0  0  0  0  0  0  0  0  0  0  0  0
  149.4271  140.5985  155.9222 C   0  0  0  0  0  0  0  0  0  0  0  0
  149.3271  139.9493  154.5262 C   0  0  2  0  0  0  0  0  0  0  0  0
  147.8661  139.6514  154.1467 C   0  0  0  0  0  0  0  0  0  0  0  0
  148.3268  133.1454  153.2372 N   0  0  0  0  0  0  0  0  0  0  0  0
  147.3553  133.2941  152.3112 C   0  0  0  0  0  0  0  0  0  0  0  0
  147.3932  132.4878  151.2109 O   0  0  0  0  0  0  0  0  0  0  0  0
  146.3211  134.2503  152.4702 C   0  0  0  0  0  0  0  0  0  0  0  0
  145.2244  134.4170  151.4257 C   0  0  0  0  0  0  0  0  0  0  0  0
  145.2053  135.8302  150.8279 C   0  0  0  0  0  0  0  0  0  0  0  0
  144.7434  135.7793  149.4959 O   0  0  0  0  0  0  0  0  0  0  0  0
  144.3205  135.6832  153.8781 H   0  0  0  0  0  0  0  0  0  0  0  0
  145.4300  136.9351  153.2983 H   0  0  0  0  0  0  0  0  0  0  0  0
  145.4392  136.4578  154.9974 H   0  0  0  0  0  0  0  0  0  0  0  0
  148.5935  135.7283  156.4246 H   0  0  0  0  0  0  0  0  0  0  0  0
  150.1043  135.3550  157.2245 H   0  0  0  0  0  0  0  0  0  0  0  0
  148.9015  137.7565  155.7351 H   0  0  0  0  0  0  0  0  0  0  0  0
  150.2655  138.3973  153.3675 H   0  0  0  0  0  0  0  0  0  0  0  0
  152.3275  138.1675  154.7685 H   0  0  0  0  0  0  0  0  0  0  0  0
  152.1130  139.7436  154.0574 H   0  0  0  0  0  0  0  0  0  0  0  0
  151.5141  138.9981  156.9592 H   0  0  0  0  0  0  0  0  0  0  0  0
  152.8238  140.0049  156.3950 H   0  0  0  0  0  0  0  0  0  0  0  0
  150.9232  141.3708  157.2856 H   0  0  0  0  0  0  0  0  0  0  0  0
  151.2450  141.7252  155.6053 H   0  0  0  0  0  0  0  0  0  0  0  0
  149.0173  139.9257  156.6767 H   0  0  0  0  0  0  0  0  0  0  0  0
  148.8178  141.5024  155.9557 H   0  0  0  0  0  0  0  0  0  0  0  0
  149.6920  140.6823  153.8050 H   0  0  0  0  0  0  0  0  0  0  0  0
  147.3936  138.9725  154.8572 H   0  0  0  0  0  0  0  0  0  0  0  0
  147.8027  139.1965  153.1579 H   0  0  0  0  0  0  0  0  0  0  0  0
  147.2741  140.5666  154.1259 H   0  0  0  0  0  0  0  0  0  0  0  0
  148.1704  131.9513  151.1810 H   0  0  0  0  0  0  0  0  0  0  0  0
  145.3483  133.6779  150.6343 H   0  0  0  0  0  0  0  0  0  0  0  0
  144.2587  134.1929  151.8805 H   0  0  0  0  0  0  0  0  0  0  0  0
  144.5528  136.4857  151.4056 H   0  0  0  0  0  0  0  0  0  0  0  0
  146.2034  136.2690  150.8392 H   0  0  0  0  0  0  0  0  0  0  0  0
  145.4137  135.3834  148.9601 H   0  0  0  0  0  0  0  0  0  0  0  0
  1  2  1  0  0  0  0
  1 24  1  0  0  0  0
  1 25  1  0  0  0  0
  1 26  1  0  0  0  0
  2 20  1  0  0  0  0
  2  3  2  0  0  0  0
  3  4  1  0  0  0  0
  4  5  1  0  0  0  0
  4 17  2  0  0  0  0
  5  6  1  0  0  0  0
  6  7  1  0  0  0  0
  6 27  1  0  0  0  0
  6 28  1  0  0  0  0
  7  8  2  0  0  0  0
  7  9  1  0  0  0  0
  9 10  1  0  0  0  0
  9 29  1  0  0  0  0
 10 15  1  0  0  0  0
 10 11  1  0  0  0  0
 10 30  1  0  0  0  0
 11 12  1  0  0  0  0
 11 31  1  0  0  0  0
 11 32  1  0  0  0  0
 12 13  1  0  0  0  0
 12 33  1  0  0  0  0
 12 34  1  0  0  0  0
 13 14  1  0  0  0  0
 13 35  1  0  0  0  0
 13 36  1  0  0  0  0
 14 15  1  0  0  0  0
 14 37  1  0  0  0  0
 14 38  1  0  0  0  0
 15 16  1  0  0  0  0
 15 39  1  0  0  0  0
 16 40  1  0  0  0  0
 16 41  1  0  0  0  0
 16 42  1  0  0  0  0
 17 18  1  0  0  0  0
 18 19  1  0  0  0  0
 18 20  2  0  0  0  0
 19 43  1  0  0  0  0
 20 21  1  0  0  0  0
 21 22  1  0  0  0  0
 21 44  1  0  0  0  0
 21 45  1  0  0  0  0
 22 23  1  0  0  0  0
 22 46  1  0  0  0  0
 22 47  1  0  0  0  0
 23 48  1  0  0  0  0
M  END
> <s_m_source_file>
AV-unprocessed.smi

> <i_m_source_file_index>
438

> <i_lp_mmshare_version>
43012

> <i_f3d_flags>
0

> <s_epik_input>
W09IXVtDSDJdW0NIMl1jMWMoW09IXSluYyhuYzFbQ0gzXSlTW0NIMl1DKD1PKVtOSF1bQ0BASF0yW0NIMl1bQ0gyXVtDSDJdW0NIMl1bQ0BIXTJbQ0gzXQ==

> <s_epik_cmdline>
J2VwaWtfcHl0aG9uJywgJy1waCcsICc3LjAnLCAnLXRuJywgJzgnLCAnLW1hJywgJzIwMCcsICctbWV0YWxfYmluZGluZycsICctaW1hZScsICc8aW5maWxlLm1hZT4nLCAnLW9tYWUnLCAnPG91dGZpbGUubWFlPic=

> <r_lp_tautomer_probability>
0.0660145

> <r_epik_Ionization_Penalty>
2.91405

> <r_epik_Ionization_Penalty_Charging>
0

> <r_epik_Ionization_Penalty_Neutral>
2.91405

> <r_epik_State_Penalty>
2.44767

> <r_epik_Charging_Adjusted_Penalty>
2.44767

> <i_epik_Tot_Q>
0

> <i_epik_Tot_abs_Q>
0

> <r_epik_Metal_State_Penalty>
3.04288

> <b_epik_Metal_Only>
0

> <s_lp_Force_Field>
OPLS_2005

> <r_lp_Energy>
3.55381

> <b_lp_Chiralities_Consistent>
1

> <s_lp_Variant>
AV-unprocessed.smi:438-15

> <Gold.Version>
5.8.1

> <Gold.Id.Protein>
6NUR|6NUR_protein|mol2

> <Gold.PLP.Fitness>
44.3233

> <Gold.PLP.PLP>
-37.1891

> <Gold.PLP.part.hbond>
-3.4101

> <Gold.PLP.part.metal>
0.0000

> <Gold.PLP.part.buried>
-6.2731

> <Gold.PLP.part.nonpolar>
-29.6504

> <Gold.PLP.part.repulsive>
0.4472

> <Gold.PLP.ligand.clash>
0.0000

> <Gold.PLP.ligand.torsion>
0.8593

> <Gold.PLP.Chemscore.Hbond>
2.9280

> <Gold.PLP.Chemscore.CHOScore>
0.0000

> <Gold.PLP.Chemscore.Metal>
0.0000

> <Gold.Chemscore.Hbonds>
donor molecule, donor type, donor heavy atom, donor atom, acceptor molecule, acceptor atom, score
      L1  H    19    43       P1 10747  0.88
      L1  H    23    48       P1  7921  1.00
      P1  H 10752 10763       L1     8  1.00

> <Gold.PLP.Chemscore.Internal.Correction>
0.0688

> <Gold.Rescore>
     Score         DG    S(hbond)    S(metal)    S(lipo)     H(rot)  DE(clash)    DE(int)     intcor
     13.70     -14.84       2.97        0.00      70.46       3.44       0.16       0.97       ----

> <Gold.Chemscore.Fitness>
13.7016

> <Gold.Chemscore.DG>
-14.8397

> <Gold.Chemscore.ZeroCoef>
-5.4800

> <Gold.Chemscore.Hbond>
2.9677

> <Gold.Chemscore.Metal>
0.0000

> <Gold.Chemscore.Lipo>
70.4569

> <Gold.Chemscore.Internal_Hbond>
0.0000

> <Gold.Chemscore.DEClash>
0.1646

> <Gold.Chemscore.DEInternal>
0.9735

> <Gold.Chemscore.Rot>
3.4359

> <Gold.Chemscore.Internal.Correction>
   9.000000E+99

> <Gold.Chemscore.Hbonds>
donor molecule, donor type, donor heavy atom, donor atom, acceptor molecule, acceptor atom, score
      L1  H    19    43       P1 10747  0.86
      L1  H    23    48       P1  7921  0.98
      P1  H 10752 10763       L1     8  0.98

> <Gold.Chemscore.Hbond.Weighted>
-9.9123

> <Gold.Chemscore.Metal.Weighted>
-0.0000

> <Gold.Chemscore.Lipo.Weighted>
-8.2435

> <Gold.Chemscore.Internal_Hbond.Weighted>
0.0000

> <Gold.Chemscore.DEClash.Weighted>
0.1646

> <Gold.Chemscore.DEInternal.Weighted>
0.9735

> <Gold.Chemscore.Rot.Weighted>
8.7960

> <Gold.Chemscore.Internal.Correction.Weighted>
   9.000000E+99

> <Gold.Protein.RotatedTorsions>
[ 6907 6896 6895 6894 ] final   45.69 input  -60.11 | X-H torsion
[ 7974 7965 7964 7962 ] final  170.48 input  175.53 | X-H torsion
[ 8008 7997 7996 7995 ] final  -63.74 input   59.86 | X-H torsion
[ 10167 10162 10161 10158 ] final -177.23 input  -65.29 | X-H torsion
[ 10718 10713 10712 10709 ] final  -50.74 input   66.30 | X-H torsion
[ 10763 10752 10751 10750 ] final   40.83 input  -60.55 | X-H torsion
[ 11005 11000 10999 10996 ] final  108.73 input  -57.11 | X-H torsion

> <Gold.Protein.ActiveResidues>
 VAL166  LYS551  ARG553  GLY616  TRP617  ASP618  TYR619  PRO620  LYS621  CYS622 
 ASP623  PHE694  ASN695  SER759  ASP760  ASP761  ALA762  ILE779  LEU786  VAL792 
 PHE793  MET794  SER795  GLU796  ALA797  LYS798  CYS799  TRP800  GLU811  SER814 

> <Gold.Protein.RotatedAtoms>
  152.2476  134.8166  160.0450 H   0  0  0  0  0  0  0  0  0  0  0  0  # atno 6907 bound_to 6896
  151.8858  133.3500  159.3789 H   0  0  0  0  0  0  0  0  0  0  0  0  # atno 6908 bound_to 6896
  150.7073  134.4900  159.5555 H   0  0  0  0  0  0  0  0  0  0  0  0  # atno 6909 bound_to 6896
  144.7323  139.9208  143.6420 H   0  0  0  0  0  0  0  0  0  0  0  0  # atno 7974 bound_to 7965
  154.4571  140.0968  156.6789 H   0  0  0  0  0  0  0  0  0  0  0  0  # atno 8008 bound_to 7997
  155.5105  140.3476  155.4369 H   0  0  0  0  0  0  0  0  0  0  0  0  # atno 8009 bound_to 7997
  156.0799  140.1370  156.9714 H   0  0  0  0  0  0  0  0  0  0  0  0  # atno 8010 bound_to 7997
  139.5490  144.2158  152.1043 H   0  0  0  0  0  0  0  0  0  0  0  0  # atno 10167 bound_to 10162
  156.1773  130.4150  149.9558 H   0  0  0  0  0  0  0  0  0  0  0  0  # atno 10718 bound_to 10713
  152.9925  135.6180  154.2689 H   0  0  0  0  0  0  0  0  0  0  0  0  # atno 10763 bound_to 10752
  154.2422  135.2788  155.2851 H   0  0  0  0  0  0  0  0  0  0  0  0  # atno 10764 bound_to 10752
  154.5359  135.5775  153.6856 H   0  0  0  0  0  0  0  0  0  0  0  0  # atno 10765 bound_to 10752
  139.8849  134.9439  156.6017 H   0  0  0  0  0  0  0  0  0  0  0  0  # atno 11005 bound_to 11000
  146.0931  139.3922  143.0393 LP  0  0  0  0  0  0  0  0  0  0  0  0  # atno 17320 bound_to 7965
  145.7683  140.9907  143.1163 LP  0  0  0  0  0  0  0  0  0  0  0  0  # atno 17321 bound_to 7965
  140.1650  144.4990  150.6611 LP  0  0  0  0  0  0  0  0  0  0  0  0  # atno 17342 bound_to 10162
  140.6748  143.2300  151.5536 LP  0  0  0  0  0  0  0  0  0  0  0  0  # atno 17343 bound_to 10162
  156.7339  130.9054  151.3627 LP  0  0  0  0  0  0  0  0  0  0  0  0  # atno 17370 bound_to 10713
  157.6844  130.9171  150.0350 LP  0  0  0  0  0  0  0  0  0  0  0  0  # atno 17371 bound_to 10713
  140.7878  133.8607  155.8621 LP  0  0  0  0  0  0  0  0  0  0  0  0  # atno 17394 bound_to 11000
  140.9704  134.1539  157.4581 LP  0  0  0  0  0  0  0  0  0  0  0  0  # atno 17395 bound_to 11000

$$$$
