AV-unprocessed.smi:3009|AV-procd|sdf|11449|dock5
  -GOLD-   2272016383D 1   1.00000     0.00000
 Structure written by MMmdl.
 44 45  0  0  0  0  0  0  0  0  2 V2000
  144.1830  132.5170  148.9890 C   0  0  0  0  0  0  0  0  0  0  0  0
  144.5264  132.3509  150.4767 C   0  0  0  0  0  0  0  0  0  0  0  0
  143.6089  133.2336  151.3397 C   0  0  0  0  0  0  0  0  0  0  0  0
  146.0207  132.6539  150.7243 C   0  0  0  0  0  0  0  0  0  0  0  0
  146.4597  132.3552  152.1119 N   0  3  1  0  0  0  0  0  0  0  0  0
  146.3299  130.9250  152.4860 C   0  0  0  0  0  0  0  0  0  0  0  0
  146.7712  130.7099  153.9431 C   0  0  0  0  0  0  0  0  0  0  0  0
  148.1031  131.1782  154.1114 O   0  0  0  0  0  0  0  0  0  0  0  0
  148.2202  132.5738  153.8526 C   0  0  1  0  0  0  0  0  0  0  0  0
  149.6669  133.0059  154.1527 C   0  0  0  0  0  0  0  0  0  0  0  0
  149.9013  134.4047  153.8098 N   0  0  0  0  0  0  0  0  0  0  0  0
  150.8205  135.1917  154.3858 C   0  0  0  0  0  0  0  0  0  0  0  0
  151.5767  134.8088  155.2786 O   0  0  0  0  0  0  0  0  0  0  0  0
  150.8041  136.4280  153.8627 N   0  0  0  0  0  0  0  0  0  0  0  0
  151.6450  137.5154  154.2086 C   0  0  0  0  0  0  0  0  0  0  0  0
  152.7413  137.5537  155.1196 C   0  0  0  0  0  0  0  0  0  0  0  0
  153.2830  138.7624  155.1676 N   0  0  0  0  0  0  0  0  0  0  0  0
  152.5468  139.4930  154.3004 N   0  0  0  0  0  0  0  0  0  0  0  0
  151.5405  138.7736  153.6946 C   0  0  0  0  0  0  0  0  0  0  0  0
  147.8355  132.8352  152.3839 C   0  0  0  0  0  0  0  0  0  0  0  0
  152.7418  140.4703  154.1349 H   0  0  0  0  0  0  0  0  0  0  0  0
  144.3478  133.5422  148.6558 H   0  0  0  0  0  0  0  0  0  0  0  0
  143.1390  132.2681  148.7952 H   0  0  0  0  0  0  0  0  0  0  0  0
  144.7955  131.8629  148.3677 H   0  0  0  0  0  0  0  0  0  0  0  0
  144.3246  131.3103  150.7286 H   0  0  0  0  0  0  0  0  0  0  0  0
  143.7646  134.2925  151.1306 H   0  0  0  0  0  0  0  0  0  0  0  0
  143.7847  133.0740  152.4037 H   0  0  0  0  0  0  0  0  0  0  0  0
  142.5591  133.0093  151.1490 H   0  0  0  0  0  0  0  0  0  0  0  0
  146.6459  132.0973  150.0242 H   0  0  0  0  0  0  0  0  0  0  0  0
  146.1945  133.7099  150.5112 H   0  0  0  0  0  0  0  0  0  0  0  0
  145.2999  130.5895  152.3726 H   0  0  0  0  0  0  0  0  0  0  0  0
  146.9411  130.3144  151.8195 H   0  0  0  0  0  0  0  0  0  0  0  0
  146.1004  131.2227  154.6343 H   0  0  0  0  0  0  0  0  0  0  0  0
  146.7359  129.6496  154.1940 H   0  0  0  0  0  0  0  0  0  0  0  0
  147.5362  133.1225  154.5027 H   0  0  0  0  0  0  0  0  0  0  0  0
  149.8880  132.8698  155.2117 H   0  0  0  0  0  0  0  0  0  0  0  0
  150.3717  132.3765  153.6069 H   0  0  0  0  0  0  0  0  0  0  0  0
  149.3231  134.7992  153.0824 H   0  0  0  0  0  0  0  0  0  0  0  0
  150.1222  136.6103  153.1412 H   0  0  0  0  0  0  0  0  0  0  0  0
  153.1594  136.7712  155.7353 H   0  0  0  0  0  0  0  0  0  0  0  0
  150.8618  139.2079  152.9756 H   0  0  0  0  0  0  0  0  0  0  0  0
  148.5360  132.3349  151.7129 H   0  0  0  0  0  0  0  0  0  0  0  0
  147.8985  133.9040  152.1754 H   0  0  0  0  0  0  0  0  0  0  0  0
  145.8522  132.8794  152.7258 H   0  0  0  0  0  0  0  0  0  0  0  0
  1  2  1  0  0  0  0
  1 22  1  0  0  0  0
  1 23  1  0  0  0  0
  1 24  1  0  0  0  0
  2  3  1  0  0  0  0
  2  4  1  0  0  0  0
  2 25  1  0  0  0  0
  3 26  1  0  0  0  0
  3 27  1  0  0  0  0
  3 28  1  0  0  0  0
  4  5  1  0  0  0  0
  4 29  1  0  0  0  0
  4 30  1  0  0  0  0
  5 20  1  0  0  0  0
  5  6  1  0  0  0  0
  5 44  1  0  0  0  0
  6  7  1  0  0  0  0
  6 31  1  0  0  0  0
  6 32  1  0  0  0  0
  7  8  1  0  0  0  0
  7 33  1  0  0  0  0
  7 34  1  0  0  0  0
  8  9  1  0  0  0  0
  9 10  1  0  0  0  0
  9 20  1  0  0  0  0
  9 35  1  0  0  0  0
 10 11  1  0  0  0  0
 10 36  1  0  0  0  0
 10 37  1  0  0  0  0
 11 12  1  0  0  0  0
 11 38  1  0  0  0  0
 12 13  2  0  0  0  0
 12 14  1  0  0  0  0
 14 15  1  0  0  0  0
 14 39  1  0  0  0  0
 15 19  2  0  0  0  0
 15 16  1  0  0  0  0
 16 17  2  0  0  0  0
 16 40  1  0  0  0  0
 17 18  1  0  0  0  0
 18 21  1  0  0  0  0
 18 19  1  0  0  0  0
 19 41  1  0  0  0  0
 20 42  1  0  0  0  0
 20 43  1  0  0  0  0
M  CHG  1   5   1
M  END
> <s_m_source_file>
AV-unprocessed.smi

> <i_m_source_file_index>
3009

> <i_lp_mmshare_version>
43012

> <i_f3d_flags>
0

> <s_epik_input>
W0NIM11bQ0hdKFtDSDNdKVtDSDJdTjFbQ0gyXVtDSDJdT1tDQEhdKFtDSDJdMSlbQ0gyXVtOSF1DKD1PKVtOSF1jMltjSF1uW25IXVtjSF0y

> <s_epik_cmdline>
J2VwaWtfcHl0aG9uJywgJy1waCcsICc3LjAnLCAnLXRuJywgJzgnLCAnLW1hJywgJzIwMCcsICctbWV0YWxfYmluZGluZycsICctaW1hZScsICc8aW5maWxlLm1hZT4nLCAnLW9tYWUnLCAnPG91dGZpbGUubWFlPic=

> <r_lp_tautomer_probability>
0.5

> <r_epik_Ionization_Penalty>
0.0974064

> <r_epik_Ionization_Penalty_Charging>
0.0973651

> <r_epik_Ionization_Penalty_Neutral>
4.13573e-05

> <r_epik_State_Penalty>
0.0874853

> <r_epik_Charging_Adjusted_Penalty>
0.18485

> <i_epik_Tot_Q>
1

> <i_epik_Tot_abs_Q>
1

> <r_epik_Metal_State_Penalty>
0.0874855

> <b_epik_Metal_Only>
0

> <s_lp_Force_Field>
OPLS_2005

> <r_lp_Energy>
19.2351

> <b_lp_Chiralities_Consistent>
1

> <s_lp_Variant>
AV-unprocessed.smi:3009-1

> <Gold.Version>
5.8.1

> <Gold.Id.Protein>
6NUR|6NUR_protein|mol2

> <Gold.PLP.Fitness>
49.1850

> <Gold.PLP.PLP>
-36.5243

> <Gold.PLP.part.hbond>
-4.9426

> <Gold.PLP.part.metal>
0.0000

> <Gold.PLP.part.buried>
-4.0513

> <Gold.PLP.part.nonpolar>
-28.1970

> <Gold.PLP.part.repulsive>
2.2417

> <Gold.PLP.ligand.clash>
0.0000

> <Gold.PLP.ligand.torsion>
0.2311

> <Gold.PLP.Chemscore.Hbond>
3.7200

> <Gold.PLP.Chemscore.CHOScore>
0.6444

> <Gold.PLP.Chemscore.Metal>
0.0000

> <Gold.Chemscore.Hbonds>
donor molecule, donor type, donor heavy atom, donor atom, acceptor molecule, acceptor atom, score
      L1  H    11    38       P1  7948  0.34
      L1  H    14    39       P1  7948  0.45
      P1  H  7997  8009       L1    17  0.65
      P1  H 10752 10765       L1    13  0.67
      L1  C    19    41       P1  7957  1.00

> <Gold.PLP.Chemscore.Internal.Correction>
0.0297

> <Gold.Rescore>
     Score         DG    S(hbond)    S(metal)    S(lipo)     H(rot)  DE(clash)    DE(int)     intcor
     14.49     -14.88       1.26        0.00      83.65       1.80       0.03       0.37       ----

> <Gold.Chemscore.Fitness>
14.4892

> <Gold.Chemscore.DG>
-14.8813

> <Gold.Chemscore.ZeroCoef>
-5.4800

> <Gold.Chemscore.Hbond>
1.2614

> <Gold.Chemscore.Metal>
0.0000

> <Gold.Chemscore.Lipo>
83.6469

> <Gold.Chemscore.Internal_Hbond>
0.0000

> <Gold.Chemscore.DEClash>
0.0263

> <Gold.Chemscore.DEInternal>
0.3658

> <Gold.Chemscore.Rot>
1.7963

> <Gold.Chemscore.Internal.Correction>
   9.000000E+99

> <Gold.Chemscore.Hbonds>
donor molecule, donor type, donor heavy atom, donor atom, acceptor molecule, acceptor atom, score
      L1  H    11    38       P1  7948  0.01
      L1  H    14    39       P1  7948  0.02
      P1  H  7997  8009       L1    17  0.40
      P1  H 10752 10765       L1    13  0.34

> <Gold.Chemscore.Hbond.Weighted>
-4.2131

> <Gold.Chemscore.Metal.Weighted>
-0.0000

> <Gold.Chemscore.Lipo.Weighted>
-9.7867

> <Gold.Chemscore.Internal_Hbond.Weighted>
0.0000

> <Gold.Chemscore.DEClash.Weighted>
0.0263

> <Gold.Chemscore.DEInternal.Weighted>
0.3658

> <Gold.Chemscore.Rot.Weighted>
4.5985

> <Gold.Chemscore.Internal.Correction.Weighted>
   9.000000E+99

> <Gold.Protein.RotatedTorsions>
[ 6907 6896 6895 6894 ] final -102.75 input  -60.11 | X-H torsion
[ 7974 7965 7964 7962 ] final -174.58 input  175.53 | X-H torsion
[ 8008 7997 7996 7995 ] final -165.71 input   59.86 | X-H torsion
[ 10167 10162 10161 10158 ] final  -95.21 input  -65.29 | X-H torsion
[ 10718 10713 10712 10709 ] final  -89.52 input   66.30 | X-H torsion
[ 10763 10752 10751 10750 ] final -159.76 input  -60.55 | X-H torsion
[ 11005 11000 10999 10996 ] final  -98.83 input  -57.11 | X-H torsion

> <Gold.Protein.ActiveResidues>
 VAL166  LYS551  ARG553  GLY616  TRP617  ASP618  TYR619  PRO620  LYS621  CYS622 
 ASP623  PHE694  ASN695  SER759  ASP760  ASP761  ALA762  ILE779  LEU786  VAL792 
 PHE793  MET794  SER795  GLU796  ALA797  LYS798  CYS799  TRP800  GLU811  SER814 

> <Gold.Protein.RotatedAtoms>
  150.7210  134.0533  159.3805 H   0  0  0  0  0  0  0  0  0  0  0  0  # atno 6907 bound_to 6896
  151.8511  135.0555  160.0468 H   0  0  0  0  0  0  0  0  0  0  0  0  # atno 6908 bound_to 6896
  152.2789  133.5416  159.5522 H   0  0  0  0  0  0  0  0  0  0  0  0  # atno 6909 bound_to 6896
  144.7131  140.1450  143.6389 H   0  0  0  0  0  0  0  0  0  0  0  0  # atno 7974 bound_to 7965
  155.8537  140.0967  157.1658 H   0  0  0  0  0  0  0  0  0  0  0  0  # atno 8008 bound_to 7997
  154.3986  140.1378  156.3937 H   0  0  0  0  0  0  0  0  0  0  0  0  # atno 8009 bound_to 7997
  155.7933  140.3455  155.5364 H   0  0  0  0  0  0  0  0  0  0  0  0  # atno 8010 bound_to 7997
  140.3065  143.3131  152.0194 H   0  0  0  0  0  0  0  0  0  0  0  0  # atno 10167 bound_to 10162
  155.9984  130.4875  150.5184 H   0  0  0  0  0  0  0  0  0  0  0  0  # atno 10718 bound_to 10713
  154.7448  135.3077  154.8664 H   0  0  0  0  0  0  0  0  0  0  0  0  # atno 10763 bound_to 10752
  153.9469  135.6768  153.4748 H   0  0  0  0  0  0  0  0  0  0  0  0  # atno 10764 bound_to 10752
  153.1045  135.4896  154.8852 H   0  0  0  0  0  0  0  0  0  0  0  0  # atno 10765 bound_to 10752
  141.1330  133.8275  157.0892 H   0  0  0  0  0  0  0  0  0  0  0  0  # atno 11005 bound_to 11000
  145.9168  139.2521  143.1405 LP  0  0  0  0  0  0  0  0  0  0  0  0  # atno 17320 bound_to 7965
  145.9661  140.8797  143.0186 LP  0  0  0  0  0  0  0  0  0  0  0  0  # atno 17321 bound_to 7965
  139.4903  144.6417  151.6863 LP  0  0  0  0  0  0  0  0  0  0  0  0  # atno 17342 bound_to 10162
  140.5606  144.0275  150.6168 LP  0  0  0  0  0  0  0  0  0  0  0  0  # atno 17343 bound_to 10162
  157.3148  131.0670  151.1975 LP  0  0  0  0  0  0  0  0  0  0  0  0  # atno 17370 bound_to 10713
  157.2908  130.6795  149.6113 LP  0  0  0  0  0  0  0  0  0  0  0  0  # atno 17371 bound_to 10713
  140.0403  134.9857  157.0949 LP  0  0  0  0  0  0  0  0  0  0  0  0  # atno 17394 bound_to 11000
  140.4146  134.1945  155.7163 LP  0  0  0  0  0  0  0  0  0  0  0  0  # atno 17395 bound_to 11000

$$$$
