AV-unprocessed.smi:187|AV-procd|sdf|1471|dock10
  -GOLD-   2262019293D 1   1.00000     0.00000
 Structure written by MMmdl.
 53 56  0  0  0  0  0  0  0  0  1 V2000
  154.4909  139.4318  159.5548 C   0  0  0  0  0  0  0  0  0  0  0  0
  153.2776  140.3712  159.7198 C   0  0  1  0  0  0  0  0  0  0  0  0
  153.7388  141.6874  160.3810 C   0  0  0  0  0  0  0  0  0  0  0  0
  152.5898  142.6960  160.5076 C   0  0  0  0  0  0  0  0  0  0  0  0
  151.9694  142.9577  159.1238 C   0  0  2  0  0  0  0  0  0  0  0  0
  150.8016  143.9479  159.2188 C   0  0  0  0  0  0  0  0  0  0  0  0
  150.2222  144.3166  158.0736 N   0  0  0  0  0  0  0  0  0  0  0  0
  150.4255  144.3760  160.3086 O   0  0  0  0  0  0  0  0  0  0  0  0
  151.5074  141.6237  158.5079 C   0  0  0  0  0  0  0  0  0  0  0  0
  152.5992  140.6511  158.4435 N   0  0  0  0  0  0  0  0  0  0  0  0
  152.2180  139.5859  157.6985 C   0  0  0  0  0  0  0  0  0  0  0  0
  152.9023  139.2575  156.5702 N   0  0  0  0  0  0  0  0  0  0  0  0
  152.5377  138.1889  155.8548 C   0  0  0  0  0  0  0  0  0  0  0  0
  151.5444  137.3278  156.0871 N   0  0  0  0  0  0  0  0  0  0  0  0
  150.8625  137.6513  157.2235 C   0  0  0  0  0  0  0  0  0  0  0  0
  151.1368  138.7501  158.0845 C   0  0  0  0  0  0  0  0  0  0  0  0
  150.2505  138.7519  159.1540 N   0  0  0  0  0  0  0  0  0  0  0  0
  149.4966  137.7077  158.9399 C   0  0  0  0  0  0  0  0  0  0  0  0
  149.7770  137.0052  157.7886 N   0  0  0  0  0  0  0  0  0  0  0  0
  149.1388  135.8059  157.3312 C   0  0  0  0  0  0  0  0  0  0  0  0
  149.9570  134.6520  156.7494 C   0  0  0  0  0  0  0  0  0  0  0  0
  148.7733  134.2909  155.8226 C   0  0  0  0  0  0  0  0  0  0  0  0
  149.1296  133.9178  154.3726 C   0  0  0  0  0  0  0  0  0  0  0  0
  148.0028  133.9595  153.5218 O   0  0  0  0  0  0  0  0  0  0  0  0
  147.7540  133.2716  156.3748 C   0  0  0  0  0  0  0  0  0  0  0  0
  146.5907  133.1915  155.5773 O   0  0  0  0  0  0  0  0  0  0  0  0
  148.3527  135.7656  156.0177 C   0  0  0  0  0  0  0  0  0  0  0  0
  154.9989  139.2828  160.5078 H   0  0  0  0  0  0  0  0  0  0  0  0
  155.2176  139.8454  158.8546 H   0  0  0  0  0  0  0  0  0  0  0  0
  154.2058  138.4448  159.1918 H   0  0  0  0  0  0  0  0  0  0  0  0
  152.5578  139.8946  160.3872 H   0  0  0  0  0  0  0  0  0  0  0  0
  154.1559  141.4837  161.3678 H   0  0  0  0  0  0  0  0  0  0  0  0
  154.5429  142.1329  159.7932 H   0  0  0  0  0  0  0  0  0  0  0  0
  151.8387  142.3061  161.1965 H   0  0  0  0  0  0  0  0  0  0  0  0
  152.9607  143.6255  160.9414 H   0  0  0  0  0  0  0  0  0  0  0  0
  152.7369  143.3867  158.4766 H   0  0  0  0  0  0  0  0  0  0  0  0
  149.4500  144.9668  158.0857 H   0  0  0  0  0  0  0  0  0  0  0  0
  150.5601  143.9429  157.1986 H   0  0  0  0  0  0  0  0  0  0  0  0
  150.6915  141.1986  159.0954 H   0  0  0  0  0  0  0  0  0  0  0  0
  151.1128  141.8055  157.5066 H   0  0  0  0  0  0  0  0  0  0  0  0
  153.1268  137.9958  154.9706 H   0  0  0  0  0  0  0  0  0  0  0  0
  148.7067  137.4243  159.6201 H   0  0  0  0  0  0  0  0  0  0  0  0
  148.5219  135.4594  158.1621 H   0  0  0  0  0  0  0  0  0  0  0  0
  150.8349  134.9989  156.2007 H   0  0  0  0  0  0  0  0  0  0  0  0
  150.2308  133.8841  157.4733 H   0  0  0  0  0  0  0  0  0  0  0  0
  149.8994  134.5774  153.9715 H   0  0  0  0  0  0  0  0  0  0  0  0
  149.5364  132.9075  154.3216 H   0  0  0  0  0  0  0  0  0  0  0  0
  148.1626  134.5950  152.8412 H   0  0  0  0  0  0  0  0  0  0  0  0
  148.1842  132.2713  156.4232 H   0  0  0  0  0  0  0  0  0  0  0  0
  147.4612  133.5217  157.3948 H   0  0  0  0  0  0  0  0  0  0  0  0
  145.8452  133.4303  156.1064 H   0  0  0  0  0  0  0  0  0  0  0  0
  147.2800  135.9275  156.1284 H   0  0  0  0  0  0  0  0  0  0  0  0
  148.7703  136.4343  155.2625 H   0  0  0  0  0  0  0  0  0  0  0  0
  1  2  1  0  0  0  0
  1 28  1  0  0  0  0
  1 29  1  0  0  0  0
  1 30  1  0  0  0  0
  2 10  1  0  0  0  0
  2  3  1  0  0  0  0
  2 31  1  0  0  0  0
  3  4  1  0  0  0  0
  3 32  1  0  0  0  0
  3 33  1  0  0  0  0
  4  5  1  0  0  0  0
  4 34  1  0  0  0  0
  4 35  1  0  0  0  0
  5  6  1  0  0  0  0
  5  9  1  0  0  0  0
  5 36  1  0  0  0  0
  6  7  1  0  0  0  0
  6  8  2  0  0  0  0
  7 37  1  0  0  0  0
  7 38  1  0  0  0  0
  9 10  1  0  0  0  0
  9 39  1  0  0  0  0
  9 40  1  0  0  0  0
 10 11  1  0  0  0  0
 11 16  1  0  0  0  0
 11 12  2  0  0  0  0
 12 13  1  0  0  0  0
 13 14  2  0  0  0  0
 13 41  1  0  0  0  0
 14 15  1  0  0  0  0
 15 19  1  0  0  0  0
 15 16  2  0  0  0  0
 16 17  1  0  0  0  0
 17 18  2  0  0  0  0
 18 19  1  0  0  0  0
 18 42  1  0  0  0  0
 19 20  1  0  0  0  0
 20 27  1  0  0  0  0
 20 21  1  0  0  0  0
 20 43  1  0  0  0  0
 21 22  1  0  0  0  0
 21 44  1  0  0  0  0
 21 45  1  0  0  0  0
 22 23  1  0  0  0  0
 22 25  1  0  0  0  0
 22 27  1  0  0  0  0
 23 24  1  0  0  0  0
 23 46  1  0  0  0  0
 23 47  1  0  0  0  0
 24 48  1  0  0  0  0
 25 26  1  0  0  0  0
 25 49  1  0  0  0  0
 25 50  1  0  0  0  0
 26 51  1  0  0  0  0
 27 52  1  0  0  0  0
 27 53  1  0  0  0  0
M  END
> <s_m_source_file>
AV-unprocessed.smi

> <i_m_source_file_index>
187

> <i_lp_mmshare_version>
43012

> <i_f3d_flags>
0

> <s_epik_input>
W0NIM11bQ0BASF0xW0NIMl1bQ0gyXVtDQEBIXShDKD1PKVtOSDJdKVtDSDJdTjFjKG5bY0hdbjIpYyhjMjMpbltjSF1uM1tDSF0oW0NIMl00KVtDSDJdQzQoW0NIMl1bT0hdKVtDSDJdW09IXQ==

> <s_epik_cmdline>
J2VwaWtfcHl0aG9uJywgJy1waCcsICc3LjAnLCAnLXRuJywgJzgnLCAnLW1hJywgJzIwMCcsICctbWV0YWxfYmluZGluZycsICctaW1hZScsICc8aW5maWxlLm1hZT4nLCAnLW9tYWUnLCAnPG91dGZpbGUubWFlPic=

> <r_lp_tautomer_probability>
1

> <r_epik_Ionization_Penalty>
0.0017711

> <r_epik_Ionization_Penalty_Charging>
0

> <r_epik_Ionization_Penalty_Neutral>
0.0017711

> <r_epik_State_Penalty>
0.00107211

> <r_epik_Charging_Adjusted_Penalty>
0.00107211

> <i_epik_Tot_Q>
0

> <i_epik_Tot_abs_Q>
0

> <r_epik_Metal_State_Penalty>
-0

> <b_epik_Metal_Only>
0

> <s_lp_Force_Field>
OPLS_2005

> <r_lp_Energy>
43.5948

> <b_lp_Chiralities_Consistent>
1

> <s_lp_Variant>
AV-unprocessed.smi:187-4

> <Gold.Version>
5.8.1

> <Gold.Id.Protein>
6NUR|6NUR_protein|mol2

> <Gold.PLP.Fitness>
45.6225

> <Gold.PLP.PLP>
-37.1563

> <Gold.PLP.part.hbond>
-5.5018

> <Gold.PLP.part.metal>
0.0000

> <Gold.PLP.part.buried>
-5.4230

> <Gold.PLP.part.nonpolar>
-27.1954

> <Gold.PLP.part.repulsive>
0.2517

> <Gold.PLP.ligand.clash>
0.0000

> <Gold.PLP.ligand.torsion>
0.6250

> <Gold.PLP.Chemscore.Hbond>
2.9998

> <Gold.PLP.Chemscore.CHOScore>
0.0000

> <Gold.PLP.Chemscore.Metal>
0.0000

> <Gold.Chemscore.Hbonds>
donor molecule, donor type, donor heavy atom, donor atom, acceptor molecule, acceptor atom, score
      L1  H     7    37       P1  8029  0.95
      L1  H    24    48       P1  7948  1.00
      P1  H  7997  8009       L1    12  1.00

> <Gold.PLP.Chemscore.Internal.Correction>
0.7168

> <Gold.Rescore>
     Score         DG    S(hbond)    S(metal)    S(lipo)     H(rot)  DE(clash)    DE(int)     intcor
     11.48     -12.17       2.34        0.00      77.61       3.99       0.04       0.65       ----

> <Gold.Chemscore.Fitness>
11.4842

> <Gold.Chemscore.DG>
-12.1747

> <Gold.Chemscore.ZeroCoef>
-5.4800

> <Gold.Chemscore.Hbond>
2.3441

> <Gold.Chemscore.Metal>
0.0000

> <Gold.Chemscore.Lipo>
77.6080

> <Gold.Chemscore.Internal_Hbond>
0.0000

> <Gold.Chemscore.DEClash>
0.0362

> <Gold.Chemscore.DEInternal>
0.6543

> <Gold.Chemscore.Rot>
3.9902

> <Gold.Chemscore.Internal.Correction>
   9.000000E+99

> <Gold.Chemscore.Hbonds>
donor molecule, donor type, donor heavy atom, donor atom, acceptor molecule, acceptor atom, score
      L1  H     7    37       P1  8029  0.20
      L1  H     7    38       P1  8028  0.01
      L1  H    24    48       P1  7948  0.51
      P1  H  7997  8009       L1    12  0.55

> <Gold.Chemscore.Hbond.Weighted>
-7.8294

> <Gold.Chemscore.Metal.Weighted>
-0.0000

> <Gold.Chemscore.Lipo.Weighted>
-9.0801

> <Gold.Chemscore.Internal_Hbond.Weighted>
0.0000

> <Gold.Chemscore.DEClash.Weighted>
0.0362

> <Gold.Chemscore.DEInternal.Weighted>
0.6543

> <Gold.Chemscore.Rot.Weighted>
10.2148

> <Gold.Chemscore.Internal.Correction.Weighted>
   9.000000E+99

> <Gold.Protein.RotatedTorsions>
[ 6907 6896 6895 6894 ] final -102.56 input  -60.11 | X-H torsion
[ 7974 7965 7964 7962 ] final -149.33 input  175.53 | X-H torsion
[ 8008 7997 7996 7995 ] final  177.29 input   59.86 | X-H torsion
[ 10167 10162 10161 10158 ] final  -86.44 input  -65.29 | X-H torsion
[ 10718 10713 10712 10709 ] final  175.89 input   66.30 | X-H torsion
[ 10763 10752 10751 10750 ] final -165.14 input  -60.55 | X-H torsion
[ 11005 11000 10999 10996 ] final  158.02 input  -57.11 | X-H torsion

> <Gold.Protein.ActiveResidues>
 VAL166  LYS551  ARG553  GLY616  TRP617  ASP618  TYR619  PRO620  LYS621  CYS622 
 ASP623  PHE694  ASN695  SER759  ASP760  ASP761  ALA762  ILE779  LEU786  VAL792 
 PHE793  MET794  SER795  GLU796  ALA797  LYS798  CYS799  TRP800  GLU811  SER814 

> <Gold.Protein.RotatedAtoms>
  150.7201  134.0563  159.3815 H   0  0  0  0  0  0  0  0  0  0  0  0  # atno 6907 bound_to 6896
  151.8541  135.0545  160.0471 H   0  0  0  0  0  0  0  0  0  0  0  0  # atno 6908 bound_to 6896
  152.2768  133.5397  159.5509 H   0  0  0  0  0  0  0  0  0  0  0  0  # atno 6909 bound_to 6896
  144.7974  140.5079  143.5730 H   0  0  0  0  0  0  0  0  0  0  0  0  # atno 7974 bound_to 7965
  156.0673  140.1362  156.9871 H   0  0  0  0  0  0  0  0  0  0  0  0  # atno 8008 bound_to 7997
  154.4513  140.0979  156.6677 H   0  0  0  0  0  0  0  0  0  0  0  0  # atno 8009 bound_to 7997
  155.5284  140.3458  155.4423 H   0  0  0  0  0  0  0  0  0  0  0  0  # atno 8010 bound_to 7997
  140.3941  143.2692  151.9227 H   0  0  0  0  0  0  0  0  0  0  0  0  # atno 10167 bound_to 10162
  156.9282  130.9962  151.2992 H   0  0  0  0  0  0  0  0  0  0  0  0  # atno 10718 bound_to 10713
  154.6961  135.2979  154.9410 H   0  0  0  0  0  0  0  0  0  0  0  0  # atno 10763 bound_to 10752
  154.0357  135.6664  153.4789 H   0  0  0  0  0  0  0  0  0  0  0  0  # atno 10764 bound_to 10752
  153.0647  135.5095  154.8079 H   0  0  0  0  0  0  0  0  0  0  0  0  # atno 10765 bound_to 10752
  140.1825  134.8465  157.2819 H   0  0  0  0  0  0  0  0  0  0  0  0  # atno 11005 bound_to 11000
  145.5639  139.1480  143.3326 LP  0  0  0  0  0  0  0  0  0  0  0  0  # atno 17320 bound_to 7965
  146.2246  140.5774  142.9002 LP  0  0  0  0  0  0  0  0  0  0  0  0  # atno 17321 bound_to 7965
  139.4787  144.5699  151.8105 LP  0  0  0  0  0  0  0  0  0  0  0  0  # atno 17342 bound_to 10162
  140.4809  144.1451  150.5932 LP  0  0  0  0  0  0  0  0  0  0  0  0  # atno 17343 bound_to 10162
  157.5864  130.8412  149.8595 LP  0  0  0  0  0  0  0  0  0  0  0  0  # atno 17370 bound_to 10713
  156.0459  130.3728  150.1318 LP  0  0  0  0  0  0  0  0  0  0  0  0  # atno 17371 bound_to 10713
  140.2251  134.3976  155.7547 LP  0  0  0  0  0  0  0  0  0  0  0  0  # atno 17394 bound_to 11000
  141.2223  133.7186  156.8552 LP  0  0  0  0  0  0  0  0  0  0  0  0  # atno 17395 bound_to 11000

$$$$
