AV-unprocessed.smi:573|AV-procd|sdf|2971|dock9
  -GOLD-   2262023473D 1   1.00000     0.00000
 Structure written by MMmdl.
 44 46  0  0  0  0  0  0  0  0  1 V2000
  147.6668  140.2079  154.7062 C   0  0  0  0  0  0  0  0  0  0  0  0
  149.0566  140.8459  154.5545 C   0  0  2  0  0  0  0  0  0  0  0  0
  149.2274  141.3398  153.2420 O   0  0  0  0  0  0  0  0  0  0  0  0
  150.2375  139.9240  154.9158 C   0  0  0  0  0  0  0  0  0  0  0  0
  150.7004  140.0996  156.2817 N   0  0  0  0  0  0  0  0  0  0  0  0
  151.0523  141.2289  157.0114 C   0  0  0  0  0  0  0  0  0  0  0  0
  151.0159  142.4692  156.5276 N   0  0  0  0  0  0  0  0  0  0  0  0
  151.4477  143.2169  157.6069 C   0  0  0  0  0  0  0  0  0  0  0  0
  151.6322  144.6118  157.7408 C   0  0  0  0  0  0  0  0  0  0  0  0
  152.0912  145.1577  158.9576 C   0  0  0  0  0  0  0  0  0  0  0  0
  152.3737  144.3190  160.0552 C   0  0  0  0  0  0  0  0  0  0  0  0
  152.1964  142.9264  159.9443 C   0  0  0  0  0  0  0  0  0  0  0  0
  151.7351  142.3857  158.7290 C   0  0  0  0  0  0  0  0  0  0  0  0
  151.4571  141.0925  158.2958 N   0  0  0  0  0  0  0  0  0  0  0  0
  151.5836  139.8675  159.0729 C   0  0  0  0  0  0  0  0  0  0  0  0
  153.0459  139.5656  159.4390 C   0  0  2  0  0  0  0  0  0  0  0  0
  153.2113  138.1607  160.0486 C   0  0  0  0  0  0  0  0  0  0  0  0
  154.6686  137.9214  160.4592 C   0  0  0  0  0  0  0  0  0  0  0  0
  155.1451  139.0627  161.3645 C   0  0  0  0  0  0  0  0  0  0  0  0
  154.8786  140.4219  160.6980 C   0  0  0  0  0  0  0  0  0  0  0  0
  153.4967  140.5421  160.3762 O   0  0  0  0  0  0  0  0  0  0  0  0
  147.5241  139.8184  155.7145 H   0  0  0  0  0  0  0  0  0  0  0  0
  147.5207  139.3846  154.0064 H   0  0  0  0  0  0  0  0  0  0  0  0
  146.8795  140.9389  154.5201 H   0  0  0  0  0  0  0  0  0  0  0  0
  149.1019  141.7124  155.2147 H   0  0  0  0  0  0  0  0  0  0  0  0
  149.2918  140.6049  152.6517 H   0  0  0  0  0  0  0  0  0  0  0  0
  149.9672  138.8788  154.7625 H   0  0  0  0  0  0  0  0  0  0  0  0
  151.0737  140.1270  154.2457 H   0  0  0  0  0  0  0  0  0  0  0  0
  150.7099  139.2416  156.8136 H   0  0  0  0  0  0  0  0  0  0  0  0
  151.4210  145.2627  156.9055 H   0  0  0  0  0  0  0  0  0  0  0  0
  152.2283  146.2251  159.0485 H   0  0  0  0  0  0  0  0  0  0  0  0
  152.7275  144.7455  160.9824 H   0  0  0  0  0  0  0  0  0  0  0  0
  152.4146  142.2817  160.7827 H   0  0  0  0  0  0  0  0  0  0  0  0
  150.9816  139.9654  159.9768 H   0  0  0  0  0  0  0  0  0  0  0  0
  151.1510  139.0422  158.5063 H   0  0  0  0  0  0  0  0  0  0  0  0
  153.6539  139.6387  158.5352 H   0  0  0  0  0  0  0  0  0  0  0  0
  152.5654  138.0597  160.9219 H   0  0  0  0  0  0  0  0  0  0  0  0
  152.8953  137.3987  159.3355 H   0  0  0  0  0  0  0  0  0  0  0  0
  154.7688  136.9632  160.9692 H   0  0  0  0  0  0  0  0  0  0  0  0
  155.2972  137.8716  159.5694 H   0  0  0  0  0  0  0  0  0  0  0  0
  154.6196  139.0170  162.3190 H   0  0  0  0  0  0  0  0  0  0  0  0
  156.2068  138.9515  161.5857 H   0  0  0  0  0  0  0  0  0  0  0  0
  155.1532  141.2314  161.3745 H   0  0  0  0  0  0  0  0  0  0  0  0
  155.4838  140.5408  159.7981 H   0  0  0  0  0  0  0  0  0  0  0  0
  1  2  1  0  0  0  0
  1 22  1  0  0  0  0
  1 23  1  0  0  0  0
  1 24  1  0  0  0  0
  2  3  1  0  0  0  0
  2  4  1  0  0  0  0
  2 25  1  0  0  0  0
  3 26  1  0  0  0  0
  4  5  1  0  0  0  0
  4 27  1  0  0  0  0
  4 28  1  0  0  0  0
  5  6  1  0  0  0  0
  5 29  1  0  0  0  0
  6 14  1  0  0  0  0
  6  7  2  0  0  0  0
  7  8  1  0  0  0  0
  8 13  2  0  0  0  0
  8  9  1  0  0  0  0
  9 10  2  0  0  0  0
  9 30  1  0  0  0  0
 10 11  1  0  0  0  0
 10 31  1  0  0  0  0
 11 12  2  0  0  0  0
 11 32  1  0  0  0  0
 12 13  1  0  0  0  0
 12 33  1  0  0  0  0
 13 14  1  0  0  0  0
 14 15  1  0  0  0  0
 15 16  1  0  0  0  0
 15 34  1  0  0  0  0
 15 35  1  0  0  0  0
 16 21  1  0  0  0  0
 16 17  1  0  0  0  0
 16 36  1  0  0  0  0
 17 18  1  0  0  0  0
 17 37  1  0  0  0  0
 17 38  1  0  0  0  0
 18 19  1  0  0  0  0
 18 39  1  0  0  0  0
 18 40  1  0  0  0  0
 19 20  1  0  0  0  0
 19 41  1  0  0  0  0
 19 42  1  0  0  0  0
 20 21  1  0  0  0  0
 20 43  1  0  0  0  0
 20 44  1  0  0  0  0
M  END
> <s_m_source_file>
AV-unprocessed.smi

> <i_m_source_file_index>
573

> <i_lp_mmshare_version>
43012

> <i_f3d_flags>
0

> <s_epik_input>
W0NIM11bQ0BIXShbT0hdKVtDSDJdW05IXWMobjEpbihjKGMxMilbY0hdW2NIXVtjSF1bY0hdMilbQ0gyXVtDQEBIXTNbQ0gyXVtDSDJdW0NIMl1bQ0gyXU8z

> <s_epik_cmdline>
J2VwaWtfcHl0aG9uJywgJy1waCcsICc3LjAnLCAnLXRuJywgJzgnLCAnLW1hJywgJzIwMCcsICctbWV0YWxfYmluZGluZycsICctaW1hZScsICc8aW5maWxlLm1hZT4nLCAnLW9tYWUnLCAnPG91dGZpbGUubWFlPic=

> <r_epik_Ionization_Penalty>
1.30635

> <r_epik_Ionization_Penalty_Charging>
0

> <r_epik_Ionization_Penalty_Neutral>
1.30635

> <r_epik_State_Penalty>
1.38073

> <r_epik_Charging_Adjusted_Penalty>
1.38073

> <i_epik_Tot_Q>
0

> <i_epik_Tot_abs_Q>
0

> <r_epik_Metal_State_Penalty>
0.00547412

> <b_epik_Metal_Only>
0

> <s_lp_Force_Field>
OPLS_2005

> <r_lp_Energy>
12.415

> <b_lp_Chiralities_Consistent>
1

> <s_lp_Variant>
AV-unprocessed.smi:573-5

> <Gold.Version>
5.8.1

> <Gold.Id.Protein>
6NUR|6NUR_protein|mol2

> <Gold.PLP.Fitness>
49.0631

> <Gold.PLP.PLP>
-44.5979

> <Gold.PLP.part.hbond>
-2.7712

> <Gold.PLP.part.metal>
0.0000

> <Gold.PLP.part.buried>
-5.9907

> <Gold.PLP.part.nonpolar>
-35.5537

> <Gold.PLP.part.repulsive>
0.1787

> <Gold.PLP.ligand.clash>
0.0010

> <Gold.PLP.ligand.torsion>
0.6426

> <Gold.PLP.Chemscore.Hbond>
1.9120

> <Gold.PLP.Chemscore.CHOScore>
0.0000

> <Gold.PLP.Chemscore.Metal>
0.0000

> <Gold.Chemscore.Hbonds>
donor molecule, donor type, donor heavy atom, donor atom, acceptor molecule, acceptor atom, score
      L1  H     3    26       P1  7957  0.96
      P1  H  8011  8017       L1     3  0.88

> <Gold.PLP.Chemscore.Internal.Correction>
0.0154

> <Gold.Rescore>
     Score         DG    S(hbond)    S(metal)    S(lipo)     H(rot)  DE(clash)    DE(int)     intcor
     17.80     -19.93       1.43        0.00     126.86       2.02       0.03       2.10       ----

> <Gold.Chemscore.Fitness>
17.7958

> <Gold.Chemscore.DG>
-19.9306

> <Gold.Chemscore.ZeroCoef>
-5.4800

> <Gold.Chemscore.Hbond>
1.4329

> <Gold.Chemscore.Metal>
0.0000

> <Gold.Chemscore.Lipo>
126.8552

> <Gold.Chemscore.Internal_Hbond>
0.0000

> <Gold.Chemscore.DEClash>
0.0332

> <Gold.Chemscore.DEInternal>
2.1016

> <Gold.Chemscore.Rot>
2.0224

> <Gold.Chemscore.Internal.Correction>
   9.000000E+99

> <Gold.Chemscore.Hbonds>
donor molecule, donor type, donor heavy atom, donor atom, acceptor molecule, acceptor atom, score
      L1  H     3    26       P1  7957  0.91
      P1  H  8011  8017       L1     3  0.16

> <Gold.Chemscore.Hbond.Weighted>
-4.7859

> <Gold.Chemscore.Metal.Weighted>
-0.0000

> <Gold.Chemscore.Lipo.Weighted>
-14.8421

> <Gold.Chemscore.Internal_Hbond.Weighted>
0.0000

> <Gold.Chemscore.DEClash.Weighted>
0.0332

> <Gold.Chemscore.DEInternal.Weighted>
2.1016

> <Gold.Chemscore.Rot.Weighted>
5.1773

> <Gold.Chemscore.Internal.Correction.Weighted>
   9.000000E+99

> <Gold.Protein.RotatedTorsions>
[ 6907 6896 6895 6894 ] final  122.13 input  -60.11 | X-H torsion
[ 7974 7965 7964 7962 ] final  155.58 input  175.53 | X-H torsion
[ 8008 7997 7996 7995 ] final  -62.46 input   59.86 | X-H torsion
[ 10167 10162 10161 10158 ] final -158.44 input  -65.29 | X-H torsion
[ 10718 10713 10712 10709 ] final -135.24 input   66.30 | X-H torsion
[ 10763 10752 10751 10750 ] final  105.81 input  -60.55 | X-H torsion
[ 11005 11000 10999 10996 ] final -141.70 input  -57.11 | X-H torsion

> <Gold.Protein.ActiveResidues>
 VAL166  LYS551  ARG553  GLY616  TRP617  ASP618  TYR619  PRO620  LYS621  CYS622 
 ASP623  PHE694  ASN695  SER759  ASP760  ASP761  ALA762  ILE779  LEU786  VAL792 
 PHE793  MET794  SER795  GLU796  ALA797  LYS798  CYS799  TRP800  GLU811  SER814 

> <Gold.Protein.RotatedAtoms>
  152.4267  133.7207  159.6531 H   0  0  0  0  0  0  0  0  0  0  0  0  # atno 6907 bound_to 6896
  150.8144  133.8353  159.3173 H   0  0  0  0  0  0  0  0  0  0  0  0  # atno 6908 bound_to 6896
  151.6053  135.1046  160.0121 H   0  0  0  0  0  0  0  0  0  0  0  0  # atno 6909 bound_to 6896
  144.8016  139.7087  143.6179 H   0  0  0  0  0  0  0  0  0  0  0  0  # atno 7974 bound_to 7965
  154.4501  140.0995  156.6590 H   0  0  0  0  0  0  0  0  0  0  0  0  # atno 8008 bound_to 7997
  155.5314  140.3481  155.4408 H   0  0  0  0  0  0  0  0  0  0  0  0  # atno 8009 bound_to 7997
  156.0662  140.1338  156.9872 H   0  0  0  0  0  0  0  0  0  0  0  0  # atno 8010 bound_to 7997
  139.6692  143.9775  152.2273 H   0  0  0  0  0  0  0  0  0  0  0  0  # atno 10167 bound_to 10162
  156.2640  130.7226  151.1171 H   0  0  0  0  0  0  0  0  0  0  0  0  # atno 10718 bound_to 10713
  153.3844  135.3897  155.1880 H   0  0  0  0  0  0  0  0  0  0  0  0  # atno 10763 bound_to 10752
  154.8712  135.3733  154.4816 H   0  0  0  0  0  0  0  0  0  0  0  0  # atno 10764 bound_to 10752
  153.5296  135.7086  153.5751 H   0  0  0  0  0  0  0  0  0  0  0  0  # atno 10765 bound_to 10752
  140.8298  134.2530  157.4862 H   0  0  0  0  0  0  0  0  0  0  0  0  # atno 11005 bound_to 11000
  146.2299  139.5793  142.9562 LP  0  0  0  0  0  0  0  0  0  0  0  0  # atno 17320 bound_to 7965
  145.5539  141.0411  143.2263 LP  0  0  0  0  0  0  0  0  0  0  0  0  # atno 17321 bound_to 7965
  139.9535  144.6605  150.8149 LP  0  0  0  0  0  0  0  0  0  0  0  0  # atno 17342 bound_to 10162
  140.7611  143.3167  151.2717 LP  0  0  0  0  0  0  0  0  0  0  0  0  # atno 17343 bound_to 10162
  157.7261  131.0649  150.5925 LP  0  0  0  0  0  0  0  0  0  0  0  0  # atno 17370 bound_to 10713
  156.6016  130.4356  149.5895 LP  0  0  0  0  0  0  0  0  0  0  0  0  # atno 17371 bound_to 10713
  139.8705  134.9580  156.4286 LP  0  0  0  0  0  0  0  0  0  0  0  0  # atno 17394 bound_to 11000
  140.9010  133.7779  155.9680 LP  0  0  0  0  0  0  0  0  0  0  0  0  # atno 17395 bound_to 11000

$$$$
