#       Name:                AV-unprocessed.smi:481
#       Creating user name   scv26
#       Creation time:       Thu Mar 26 23:10:50 2020


#       File generated by GOLD software.
#

@<TRIPOS>MOLECULE
AV-unprocessed.smi:481
    51    53     1
SMALL
NO_CHARGES


@<TRIPOS>ATOM
      1 ****        -4.7194   2.2593  -1.8860 C.3            1 S1                 0.0000
      2 ****        -4.1296   0.9720  -1.8367 O.3            1 S1                 0.0000
      3 ****        -2.7140   1.0219  -1.8941 C.3            1 S1                 0.0000
      4 ****        -2.1624  -0.4075  -1.8280 C.3            1 S1                 0.0000
      5 ****        -0.7027  -0.4216  -1.8332 N.pl3          1 S1                 0.0000
      6 ****         0.1256  -0.4416  -0.7582 C.2            1 S1                 0.0000
      7 ****        -0.4082  -0.4405   0.5303 N.pl3          1 S1                 0.0000
      8 ****        -1.7156  -0.4202   0.7213 N.2            1 S1                 0.0000
      9 ****        -2.1078  -0.4333   1.9444 C.2            1 S1                 0.0000
     10 ****        -3.5309  -0.4153   2.3146 C.ar           1 S1                 0.0000
     11 ****        -4.5574  -0.3899   1.3406 C.ar           1 S1                 0.0000
     12 ****        -5.9106  -0.3720   1.7320 C.ar           1 S1                 0.0000
     13 ****        -6.2499  -0.3792   3.0981 C.ar           1 S1                 0.0000
     14 ****        -5.2348  -0.4047   4.0729 C.ar           1 S1                 0.0000
     15 ****        -3.8816  -0.4229   3.6824 C.ar           1 S1                 0.0000
     16 ****         1.4288  -0.4541  -1.0569 N.2            1 S1                 0.0000
     17 ****         1.4238  -0.4301  -2.4441 C.2            1 S1                 0.0000
     18 ****         0.1562  -0.4018  -2.9347 C.2            1 S1                 0.0000
     19 ****        -0.1682  -0.3507  -4.3755 C.2            1 S1                 0.0000
     20 ****        -1.3345  -0.2997  -4.7613 O.2            1 S1                 0.0000
     21 ****         0.9580  -0.3617  -5.1572 N.pl3          1 S1                -1.0000
     22 ****         2.2605  -0.3975  -4.7048 C.2            1 S1                 0.0000
     23 ****         3.2127  -0.4053  -5.4853 O.2            1 S1                 0.0000
     24 ****         2.5123  -0.4248  -3.3561 N.am           1 S1                 0.0000
     25 ****         3.8667  -0.4495  -2.7951 C.3            1 S1                 0.0000
     26 ****        -5.8045   2.1672  -1.8430 H              1 S1                 0.0000
     27 ****        -4.4622   2.7770  -2.8110 H              1 S1                 0.0000
     28 ****        -4.4000   2.8709  -1.0412 H              1 S1                 0.0000
     29 ****        -2.3928   1.5091  -2.8160 H              1 S1                 0.0000
     30 ****        -2.3296   1.6099  -1.0591 H              1 S1                 0.0000
     31 ****        -2.5262  -0.9071  -0.9300 H              1 S1                 0.0000
     32 ****        -2.5323  -1.0042  -2.6609 H              1 S1                 0.0000
     33 ****         0.2284  -0.4687   1.3137 H              1 S1                 0.0000
     34 ****        -1.3752  -0.4590   2.7542 H              1 S1                 0.0000
     35 ****        -4.3206  -0.3837   0.2863 H              1 S1                 0.0000
     36 ****        -6.6879  -0.3522   0.9822 H              1 S1                 0.0000
     37 ****        -7.2874  -0.3650   3.3978 H              1 S1                 0.0000
     38 ****        -5.4932  -0.4098   5.1216 H              1 S1                 0.0000
     39 ****        -3.1147  -0.4419   4.4434 H              1 S1                 0.0000
     40 ****         4.6632  -0.4572  -3.5396 H              1 S1                 0.0000
     41 ****         3.9946  -1.3367  -2.1743 H              1 S1                 0.0000
     42 ****         4.0213   0.4259  -2.1635 H              1 S1                 0.0000
     43 ****        -4.4635   0.4362  -2.6122 LP             1 S1                 0.0000
     44 ****        -4.4006   0.5273  -0.9829 LP             1 S1                 0.0000
     45 ****        -2.3617  -0.3960  -0.0416 LP             1 S1                 0.0000
     46 ****         2.2119  -0.4754  -0.4353 LP             1 S1                 0.0000
     47 ****        -2.0812  -0.2923  -4.0962 LP             1 S1                 0.0000
     48 ****        -1.5363  -0.2656  -5.7401 LP             1 S1                 0.0000
     49 ****         0.8225  -0.3419  -6.1477 LP             1 S1                 0.0000
     50 ****         3.0507  -0.3855  -6.4718 LP             1 S1                 0.0000
     51 ****         4.1481  -0.4315  -5.1326 LP             1 S1                 0.0000
@<TRIPOS>BOND
    1    1    2 1     
    2    1   26 1     
    3    1   27 1     
    4    1   28 1     
    5    2    3 1     
    6    3    4 1     
    7    3   29 1     
    8    3   30 1     
    9    4    5 1     
   10    4   31 1     
   11    4   32 1     
   12    5   18 1     
   13    5    6 1     
   14    6    7 1     
   15    6   16 2     
   16    7    8 1     
   17    7   33 1     
   18    8    9 2     
   19    9   10 1     
   20    9   34 1     
   21   10   15 ar    
   22   10   11 ar    
   23   11   12 ar    
   24   11   35 1     
   25   12   13 ar    
   26   12   36 1     
   27   13   14 ar    
   28   13   37 1     
   29   14   15 ar    
   30   14   38 1     
   31   15   39 1     
   32   16   17 1     
   33   17   24 1     
   34   17   18 2     
   35   18   19 1     
   36   19   20 2     
   37   19   21 1     
   38   21   22 1     
   39   22   23 2     
   40   22   24 am    
   41   24   25 1     
   42   25   40 1     
   43   25   41 1     
   44   25   42 1     
   45    2   43 1     
   46    2   44 1     
   47    8   45 1     
   48   16   46 1     
   49   20   47 1     
   50   20   48 1     
   51   21   49 1     
   52   23   50 1     
   53   23   51 1     
@<TRIPOS>SUBSTRUCTURE
      1 S1             1
@<TRIPOS>SET
LONE_PAIRS      STATIC     ATOMS    <user>   **** ""
9 43 44 45 46 47 48 49 50 51
DONOR_HYDROGENS      STATIC     ATOMS    <user>   **** ""
1 33
ATOM$BLUE        STATIC     ATOMS    COLORGROUP SYSTEM
9 43 44 45 46 47 48 49 50 51
ATOM$RED        STATIC     ATOMS    COLORGROUP SYSTEM
1 33
