AV-unprocessed.smi:48|AV-procd|sdf|451|dock10
  -GOLD-   2262016323D 1   1.00000     0.00000
 Structure written by MMmdl.
 30 32  0  0  0  0  0  0  0  0  1 V2000
  145.1763  139.7334  154.6430 O   0  0  0  0  0  0  0  0  0  0  0  0
  146.0671  140.1379  155.6607 C   0  0  0  0  0  0  0  0  0  0  0  0
  147.2231  140.9514  155.0587 C   0  0  1  0  0  0  0  0  0  0  0  0
  147.9438  141.6003  156.0965 O   0  0  0  0  0  0  0  0  0  0  0  0
  149.2449  141.8609  155.6739 C   0  0  1  0  0  0  0  0  0  0  0  0
  150.1537  141.5877  156.8322 N   0  0  0  0  0  0  0  0  0  0  0  0
  150.2883  140.4348  157.5187 C   0  0  0  0  0  0  0  0  0  0  0  0
  151.1680  140.4156  158.5193 N   0  0  0  0  0  0  0  0  0  0  0  0
  151.6684  141.7065  158.4725 C   0  0  0  0  0  0  0  0  0  0  0  0
  152.6407  142.3880  159.2443 C   0  0  0  0  0  0  0  0  0  0  0  0
  153.4608  141.5970  160.5401 Cl  0  0  0  0  0  0  0  0  0  0  0  0
  152.9151  143.6796  158.9421 N   0  0  0  0  0  0  0  0  0  0  0  0
  152.2650  144.2689  157.9310 C   0  0  0  0  0  0  0  0  0  0  0  0
  151.3306  143.7582  157.1212 N   0  0  0  0  0  0  0  0  0  0  0  0
  151.0552  142.4555  157.4283 C   0  0  0  0  0  0  0  0  0  0  0  0
  149.5337  140.9625  154.4498 C   0  0  1  0  0  0  0  0  0  0  0  0
  150.7053  140.1727  154.5562 O   0  0  0  0  0  0  0  0  0  0  0  0
  148.2901  140.0857  154.3825 C   0  0  2  0  0  0  0  0  0  0  0  0
  147.9372  139.8242  153.0389 O   0  0  0  0  0  0  0  0  0  0  0  0
  146.8579  141.7049  154.3572 H   0  0  0  0  0  0  0  0  0  0  0  0
  149.3739  142.9229  155.4604 H   0  0  0  0  0  0  0  0  0  0  0  0
  149.6037  141.6111  153.5749 H   0  0  0  0  0  0  0  0  0  0  0  0
  148.4338  139.1549  154.9337 H   0  0  0  0  0  0  0  0  0  0  0  0
  145.0344  140.4637  154.0603 H   0  0  0  0  0  0  0  0  0  0  0  0
  145.5384  140.7066  156.4263 H   0  0  0  0  0  0  0  0  0  0  0  0
  146.4517  139.2346  156.1353 H   0  0  0  0  0  0  0  0  0  0  0  0
  149.7047  139.5597  157.2722 H   0  0  0  0  0  0  0  0  0  0  0  0
  152.5318  145.2983  157.7425 H   0  0  0  0  0  0  0  0  0  0  0  0
  150.4876  139.2805  154.3335 H   0  0  0  0  0  0  0  0  0  0  0  0
  148.6855  140.0127  152.4930 H   0  0  0  0  0  0  0  0  0  0  0  0
  1  2  1  0  0  0  0
  1 24  1  0  0  0  0
  2  3  1  0  0  0  0
  2 25  1  0  0  0  0
  2 26  1  0  0  0  0
  3 20  1  0  0  0  0
  3 18  1  0  0  0  0
  3  4  1  0  0  0  0
  4  5  1  0  0  0  0
  5 21  1  0  0  0  0
  5  6  1  0  0  0  0
  5 16  1  0  0  0  0
  6 15  1  0  0  0  0
  6  7  1  0  0  0  0
  7  8  2  0  0  0  0
  7 27  1  0  0  0  0
  8  9  1  0  0  0  0
  9 15  2  0  0  0  0
  9 10  1  0  0  0  0
 10 11  1  0  0  0  0
 10 12  2  0  0  0  0
 12 13  1  0  0  0  0
 13 14  2  0  0  0  0
 13 28  1  0  0  0  0
 14 15  1  0  0  0  0
 16 22  1  0  0  0  0
 16 17  1  0  0  0  0
 16 18  1  0  0  0  0
 17 29  1  0  0  0  0
 18 23  1  0  0  0  0
 18 19  1  0  0  0  0
 19 30  1  0  0  0  0
M  END
> <s_m_source_file>
AV-unprocessed.smi

> <i_m_source_file_index>
48

> <i_lp_mmshare_version>
43012

> <i_f3d_flags>
0

> <s_epik_input>
W09IXVtDSDJdW0NASF0xT1tDQEhdKFtDQEhdKFtPSF0pW0NAQEhdMVtPSF0pbihbY0hdbjIpYyhjMjMpbltjSF1uYzNDbA==

> <s_epik_cmdline>
J2VwaWtfcHl0aG9uJywgJy1waCcsICc3LjAnLCAnLXRuJywgJzgnLCAnLW1hJywgJzIwMCcsICctbWV0YWxfYmluZGluZycsICctaW1hZScsICc8aW5maWxlLm1hZT4nLCAnLW9tYWUnLCAnPG91dGZpbGUubWFlPic=

> <r_lp_tautomer_probability>
1

> <r_epik_Ionization_Penalty>
3.45505e-06

> <r_epik_Ionization_Penalty_Charging>
0

> <r_epik_Ionization_Penalty_Neutral>
3.45505e-06

> <r_epik_State_Penalty>
-0

> <r_epik_Charging_Adjusted_Penalty>
0

> <i_epik_Tot_Q>
0

> <i_epik_Tot_abs_Q>
0

> <r_epik_Metal_State_Penalty>
-0

> <b_epik_Metal_Only>
0

> <s_epik_Chemistry_Notes>
This compound contains an acetal/aminal-like group ( X-CH(R)-Y where X, Y are N, S, or O) that may be acid/base labile, releasing an aldehyde.

> <s_lp_Force_Field>
OPLS_2005

> <r_lp_Energy>
37.1345

> <b_lp_Chiralities_Consistent>
1

> <s_lp_Variant>
AV-unprocessed.smi:48-5

> <Gold.Version>
5.8.1

> <Gold.Id.Protein>
6NUR|6NUR_protein|mol2

> <Gold.PLP.Fitness>
38.4462

> <Gold.PLP.PLP>
-31.3159

> <Gold.PLP.part.hbond>
-2.9147

> <Gold.PLP.part.metal>
0.0000

> <Gold.PLP.part.buried>
-3.7436

> <Gold.PLP.part.nonpolar>
-26.4501

> <Gold.PLP.part.repulsive>
1.3076

> <Gold.PLP.ligand.clash>
0.0000

> <Gold.PLP.ligand.torsion>
0.1290

> <Gold.PLP.Chemscore.Hbond>
2.4597

> <Gold.PLP.Chemscore.CHOScore>
0.0000

> <Gold.PLP.Chemscore.Metal>
0.0000

> <Gold.Chemscore.Hbonds>
donor molecule, donor type, donor heavy atom, donor atom, acceptor molecule, acceptor atom, score
      L1  H     1    24       P1 10175  0.45
      L1  H    19    30       P1  7957  1.00
      P1  H  7989  7998       L1    17  1.00

> <Gold.PLP.Chemscore.Internal.Correction>
0.0093

> <Gold.Rescore>
     Score         DG    S(hbond)    S(metal)    S(lipo)     H(rot)  DE(clash)    DE(int)     intcor
      5.94      -8.04       2.12        0.00      44.46       3.80       0.92       1.18       ----

> <Gold.Chemscore.Fitness>
5.9390

> <Gold.Chemscore.DG>
-8.0430

> <Gold.Chemscore.ZeroCoef>
-5.4800

> <Gold.Chemscore.Hbond>
2.1238

> <Gold.Chemscore.Metal>
0.0000

> <Gold.Chemscore.Lipo>
44.4613

> <Gold.Chemscore.Internal_Hbond>
0.0000

> <Gold.Chemscore.DEClash>
0.9191

> <Gold.Chemscore.DEInternal>
1.1848

> <Gold.Chemscore.Rot>
3.8017

> <Gold.Chemscore.Internal.Correction>
   9.000000E+99

> <Gold.Chemscore.Hbonds>
donor molecule, donor type, donor heavy atom, donor atom, acceptor molecule, acceptor atom, score
      L1  H     1    24       P1 10175  0.43
      L1  H    19    30       P1  7957  0.98
      P1  H  7989  7998       L1    17  0.25

> <Gold.Chemscore.Hbond.Weighted>
-7.0934

> <Gold.Chemscore.Metal.Weighted>
-0.0000

> <Gold.Chemscore.Lipo.Weighted>
-5.2020

> <Gold.Chemscore.Internal_Hbond.Weighted>
0.0000

> <Gold.Chemscore.DEClash.Weighted>
0.9191

> <Gold.Chemscore.DEInternal.Weighted>
1.1848

> <Gold.Chemscore.Rot.Weighted>
9.7324

> <Gold.Chemscore.Internal.Correction.Weighted>
   9.000000E+99

> <Gold.Protein.RotatedTorsions>
[ 6907 6896 6895 6894 ] final  -86.96 input  -60.11 | X-H torsion
[ 7974 7965 7964 7962 ] final  119.40 input  175.53 | X-H torsion
[ 8008 7997 7996 7995 ] final  -87.10 input   59.86 | X-H torsion
[ 10167 10162 10161 10158 ] final  -15.02 input  -65.29 | X-H torsion
[ 10718 10713 10712 10709 ] final   22.04 input   66.30 | X-H torsion
[ 10763 10752 10751 10750 ] final  -50.75 input  -60.55 | X-H torsion
[ 11005 11000 10999 10996 ] final   88.80 input  -57.11 | X-H torsion

> <Gold.Protein.ActiveResidues>
 VAL166  LYS551  ARG553  GLY616  TRP617  ASP618  TYR619  PRO620  LYS621  CYS622 
 ASP623  PHE694  ASN695  SER759  ASP760  ASP761  ALA762  ILE779  LEU786  VAL792 
 PHE793  MET794  SER795  GLU796  ALA797  LYS798  CYS799  TRP800  GLU811  SER814 

> <Gold.Protein.RotatedAtoms>
  150.6866  134.2969  159.4689 H   0  0  0  0  0  0  0  0  0  0  0  0  # atno 6907 bound_to 6896
  152.0869  134.9431  160.0582 H   0  0  0  0  0  0  0  0  0  0  0  0  # atno 6908 bound_to 6896
  152.0762  133.4096  159.4518 H   0  0  0  0  0  0  0  0  0  0  0  0  # atno 6909 bound_to 6896
  145.1436  139.3253  143.4603 H   0  0  0  0  0  0  0  0  0  0  0  0  # atno 7974 bound_to 7965
  154.6594  140.0570  157.0045 H   0  0  0  0  0  0  0  0  0  0  0  0  # atno 8008 bound_to 7997
  155.1251  140.3251  155.4469 H   0  0  0  0  0  0  0  0  0  0  0  0  # atno 8009 bound_to 7997
  156.2611  140.1990  156.6372 H   0  0  0  0  0  0  0  0  0  0  0  0  # atno 8010 bound_to 7997
  140.7211  143.5261  150.9575 H   0  0  0  0  0  0  0  0  0  0  0  0  # atno 10167 bound_to 10162
  157.1468  130.6657  149.5998 H   0  0  0  0  0  0  0  0  0  0  0  0  # atno 10718 bound_to 10713
  154.1154  135.6543  153.4893 H   0  0  0  0  0  0  0  0  0  0  0  0  # atno 10763 bound_to 10752
  153.0242  135.5257  154.7150 H   0  0  0  0  0  0  0  0  0  0  0  0  # atno 10764 bound_to 10752
  154.6342  135.2980  155.0150 H   0  0  0  0  0  0  0  0  0  0  0  0  # atno 10765 bound_to 10752
  139.8888  134.8511  156.3052 H   0  0  0  0  0  0  0  0  0  0  0  0  # atno 11005 bound_to 11000
  146.3502  140.1482  142.8593 LP  0  0  0  0  0  0  0  0  0  0  0  0  # atno 17320 bound_to 7965
  145.0506  140.9015  143.4998 LP  0  0  0  0  0  0  0  0  0  0  0  0  # atno 17321 bound_to 7965
  139.8980  143.6871  152.3135 LP  0  0  0  0  0  0  0  0  0  0  0  0  # atno 17342 bound_to 10162
  139.7210  144.7602  151.0954 LP  0  0  0  0  0  0  0  0  0  0  0  0  # atno 17343 bound_to 10162
  155.9778  130.4758  150.6616 LP  0  0  0  0  0  0  0  0  0  0  0  0  # atno 17370 bound_to 10713
  157.4257  131.0842  151.1088 LP  0  0  0  0  0  0  0  0  0  0  0  0  # atno 17371 bound_to 10713
  140.9887  133.7222  156.0781 LP  0  0  0  0  0  0  0  0  0  0  0  0  # atno 17394 bound_to 11000
  140.7654  134.3893  157.5518 LP  0  0  0  0  0  0  0  0  0  0  0  0  # atno 17395 bound_to 11000

$$$$
