AV-unprocessed.smi:2110|AV-procd|sdf|8610|dock9
  -GOLD-   2272011353D 1   1.00000     0.00000
 Structure written by MMmdl.
 45 46  0  0  0  0  0  0  0  0  2 V2000
  147.0907  134.4106  162.4906 C   0  0  0  0  0  0  0  0  0  0  0  0
  146.7286  134.3427  160.9979 C   0  0  0  0  0  0  0  0  0  0  0  0
  146.7622  135.6618  160.3337 N   0  0  0  0  0  0  0  0  0  0  0  0
  145.4631  136.3211  160.0916 C   0  0  0  0  0  0  0  0  0  0  0  0
  144.6498  136.5391  161.3766 C   0  0  0  0  0  0  0  0  0  0  0  0
  148.2423  136.5764  160.2480 S   0  0  0  0  0  0  0  0  0  0  0  0
  148.5934  136.9225  161.6355 O   0  0  0  0  0  0  0  0  0  0  0  0
  149.1940  135.7538  159.4835 O   0  0  0  0  0  0  0  0  0  0  0  0
  147.6636  137.8275  159.3971 N   0  5  0  0  0  0  0  0  0  0  0  0
  148.0609  137.9839  158.0108 C   0  0  0  0  0  0  0  0  0  0  0  0
  148.7486  139.3217  157.7712 C   0  0  0  0  0  0  0  0  0  0  0  0
  148.1420  140.3095  156.9641 C   0  0  0  0  0  0  0  0  0  0  0  0
  148.8208  141.5262  156.7717 C   0  0  0  0  0  0  0  0  0  0  0  0
  150.0183  141.8035  157.3271 N   0  0  0  0  0  0  0  0  0  0  0  0
  150.6087  140.8686  158.1120 C   0  0  0  0  0  0  0  0  0  0  0  0
  151.8567  141.1785  158.6958 N   0  0  0  0  0  0  0  0  0  0  0  0
  152.5406  140.0654  159.3498 C   0  0  0  0  0  0  0  0  0  0  0  0
  153.9973  140.4442  159.6678 C   0  0  0  0  0  0  0  0  0  0  0  0
  154.0279  141.6401  160.4400 O   0  0  0  0  0  0  0  0  0  0  0  0
  153.4546  142.7376  159.7373 C   0  0  0  0  0  0  0  0  0  0  0  0
  151.9783  142.4392  159.4257 C   0  0  0  0  0  0  0  0  0  0  0  0
  150.0060  139.6097  158.3507 C   0  0  0  0  0  0  0  0  0  0  0  0
  146.9760  133.4324  162.9571 H   0  0  0  0  0  0  0  0  0  0  0  0
  146.4573  135.1110  163.0335 H   0  0  0  0  0  0  0  0  0  0  0  0
  148.1263  134.7176  162.6365 H   0  0  0  0  0  0  0  0  0  0  0  0
  147.4239  133.6771  160.4863 H   0  0  0  0  0  0  0  0  0  0  0  0
  145.7408  133.8971  160.8768 H   0  0  0  0  0  0  0  0  0  0  0  0
  145.6285  137.2799  159.6014 H   0  0  0  0  0  0  0  0  0  0  0  0
  144.8869  135.7173  159.3903 H   0  0  0  0  0  0  0  0  0  0  0  0
  143.7299  137.0808  161.1572 H   0  0  0  0  0  0  0  0  0  0  0  0
  145.2046  137.1229  162.1104 H   0  0  0  0  0  0  0  0  0  0  0  0
  144.3654  135.5944  161.8391 H   0  0  0  0  0  0  0  0  0  0  0  0
  148.7564  137.2037  157.7001 H   0  0  0  0  0  0  0  0  0  0  0  0
  147.2068  137.8986  157.3380 H   0  0  0  0  0  0  0  0  0  0  0  0
  147.1835  140.1483  156.4897 H   0  0  0  0  0  0  0  0  0  0  0  0
  148.3888  142.3006  156.1553 H   0  0  0  0  0  0  0  0  0  0  0  0
  152.0101  139.8204  160.2708 H   0  0  0  0  0  0  0  0  0  0  0  0
  152.5350  139.1673  158.7339 H   0  0  0  0  0  0  0  0  0  0  0  0
  154.4774  139.6451  160.2329 H   0  0  0  0  0  0  0  0  0  0  0  0
  154.5737  140.5751  158.7503 H   0  0  0  0  0  0  0  0  0  0  0  0
  153.5344  143.6340  160.3523 H   0  0  0  0  0  0  0  0  0  0  0  0
  154.0144  142.9290  158.8203 H   0  0  0  0  0  0  0  0  0  0  0  0
  151.5604  143.2576  158.8383 H   0  0  0  0  0  0  0  0  0  0  0  0
  151.4070  142.3771  160.3529 H   0  0  0  0  0  0  0  0  0  0  0  0
  150.5114  138.8731  158.9600 H   0  0  0  0  0  0  0  0  0  0  0  0
  1  2  1  0  0  0  0
  1 23  1  0  0  0  0
  1 24  1  0  0  0  0
  1 25  1  0  0  0  0
  2  3  1  0  0  0  0
  2 26  1  0  0  0  0
  2 27  1  0  0  0  0
  3  4  1  0  0  0  0
  3  6  1  0  0  0  0
  4  5  1  0  0  0  0
  4 28  1  0  0  0  0
  4 29  1  0  0  0  0
  5 30  1  0  0  0  0
  5 31  1  0  0  0  0
  5 32  1  0  0  0  0
  6  7  2  0  0  0  0
  6  8  2  0  0  0  0
  6  9  1  0  0  0  0
  9 10  1  0  0  0  0
 10 11  1  0  0  0  0
 10 33  1  0  0  0  0
 10 34  1  0  0  0  0
 11 22  1  0  0  0  0
 11 12  2  0  0  0  0
 12 13  1  0  0  0  0
 12 35  1  0  0  0  0
 13 14  2  0  0  0  0
 13 36  1  0  0  0  0
 14 15  1  0  0  0  0
 15 16  1  0  0  0  0
 15 22  2  0  0  0  0
 16 21  1  0  0  0  0
 16 17  1  0  0  0  0
 17 18  1  0  0  0  0
 17 37  1  0  0  0  0
 17 38  1  0  0  0  0
 18 19  1  0  0  0  0
 18 39  1  0  0  0  0
 18 40  1  0  0  0  0
 19 20  1  0  0  0  0
 20 21  1  0  0  0  0
 20 41  1  0  0  0  0
 20 42  1  0  0  0  0
 21 43  1  0  0  0  0
 21 44  1  0  0  0  0
 22 45  1  0  0  0  0
M  CHG  1   9  -1
M  END
> <s_m_source_file>
AV-unprocessed.smi

> <i_m_source_file_index>
2110

> <i_lp_mmshare_version>
43012

> <i_f3d_flags>
0

> <s_epik_input>
W0NIM11bQ0gyXU4oW0NIMl1bQ0gzXSlTKD1PKSg9TylbTkhdW0NIMl1jMVtjSF1bY0hdbmMoW2NIXTEpTjJbQ0gyXVtDSDJdT1tDSDJdW0NIMl0y

> <s_epik_cmdline>
J2VwaWtfcHl0aG9uJywgJy1waCcsICc3LjAnLCAnLXRuJywgJzgnLCAnLW1hJywgJzIwMCcsICctbWV0YWxfYmluZGluZycsICctaW1hZScsICc8aW5maWxlLm1hZT4nLCAnLW9tYWUnLCAnPG91dGZpbGUubWFlPic=

> <r_lp_tautomer_probability>
1

> <r_epik_Ionization_Penalty>
2.67693

> <r_epik_Ionization_Penalty_Charging>
2.41478

> <r_epik_Ionization_Penalty_Neutral>
0.262148

> <r_epik_State_Penalty>
2.66454

> <r_epik_Charging_Adjusted_Penalty>
5.07933

> <i_epik_Tot_Q>
-1

> <i_epik_Tot_abs_Q>
1

> <r_epik_Metal_State_Penalty>
0.588443

> <b_epik_Metal_Only>
0

> <s_lp_Force_Field>
OPLS_2005

> <r_lp_Energy>
11.2641

> <b_lp_Chiralities_Consistent>
1

> <s_lp_Variant>
AV-unprocessed.smi:2110-3

> <Gold.Version>
5.8.1

> <Gold.Id.Protein>
6NUR|6NUR_protein|mol2

> <Gold.PLP.Fitness>
41.9832

> <Gold.PLP.PLP>
-30.4798

> <Gold.PLP.part.hbond>
-2.8756

> <Gold.PLP.part.metal>
0.0000

> <Gold.PLP.part.buried>
-6.1593

> <Gold.PLP.part.nonpolar>
-22.1491

> <Gold.PLP.part.repulsive>
0.0944

> <Gold.PLP.ligand.clash>
0.0000

> <Gold.PLP.ligand.torsion>
2.0990

> <Gold.PLP.Chemscore.Hbond>
2.9975

> <Gold.PLP.Chemscore.CHOScore>
1.0000

> <Gold.PLP.Chemscore.Metal>
0.0000

> <Gold.Chemscore.Hbonds>
donor molecule, donor type, donor heavy atom, donor atom, acceptor molecule, acceptor atom, score
      P1  H  6896  6907       L1     8  1.00
      P1  H  6931  6943       L1     7  0.71
      P1  H  6934  6947       L1     9  1.09
      L1  C    13    36       P1  8028  1.00

> <Gold.PLP.Chemscore.Internal.Correction>
3.7089

> <Gold.Rescore>
     Score         DG    S(hbond)    S(metal)    S(lipo)     H(rot)  DE(clash)    DE(int)     intcor
     14.49     -16.67       2.27        0.00      67.23       1.66       0.07       2.12       ----

> <Gold.Chemscore.Fitness>
14.4884

> <Gold.Chemscore.DG>
-16.6743

> <Gold.Chemscore.ZeroCoef>
-5.4800

> <Gold.Chemscore.Hbond>
2.2719

> <Gold.Chemscore.Metal>
0.0000

> <Gold.Chemscore.Lipo>
67.2346

> <Gold.Chemscore.Internal_Hbond>
0.0000

> <Gold.Chemscore.DEClash>
0.0650

> <Gold.Chemscore.DEInternal>
2.1208

> <Gold.Chemscore.Rot>
1.6642

> <Gold.Chemscore.Internal.Correction>
   9.000000E+99

> <Gold.Chemscore.Hbonds>
donor molecule, donor type, donor heavy atom, donor atom, acceptor molecule, acceptor atom, score
      P1  H  6896  6907       L1     8  1.00
      P1  H  6931  6943       L1     7  0.69
      P1  H  6934  6947       L1     9  0.14

> <Gold.Chemscore.Hbond.Weighted>
-7.5882

> <Gold.Chemscore.Metal.Weighted>
-0.0000

> <Gold.Chemscore.Lipo.Weighted>
-7.8664

> <Gold.Chemscore.Internal_Hbond.Weighted>
0.0000

> <Gold.Chemscore.DEClash.Weighted>
0.0650

> <Gold.Chemscore.DEInternal.Weighted>
2.1208

> <Gold.Chemscore.Rot.Weighted>
4.2604

> <Gold.Chemscore.Internal.Correction.Weighted>
   9.000000E+99

> <Gold.Protein.RotatedTorsions>
[ 6907 6896 6895 6894 ] final  -52.10 input  -60.11 | X-H torsion
[ 7974 7965 7964 7962 ] final  -16.83 input  175.53 | X-H torsion
[ 8008 7997 7996 7995 ] final   51.83 input   59.86 | X-H torsion
[ 10167 10162 10161 10158 ] final   99.12 input  -65.29 | X-H torsion
[ 10718 10713 10712 10709 ] final -145.50 input   66.30 | X-H torsion
[ 10763 10752 10751 10750 ] final  -58.72 input  -60.55 | X-H torsion
[ 11005 11000 10999 10996 ] final -133.74 input  -57.11 | X-H torsion

> <Gold.Protein.ActiveResidues>
 VAL166  LYS551  ARG553  GLY616  TRP617  ASP618  TYR619  PRO620  LYS621  CYS622 
 ASP623  PHE694  ASN695  SER759  ASP760  ASP761  ALA762  ILE779  LEU786  VAL792 
 PHE793  MET794  SER795  GLU796  ALA797  LYS798  CYS799  TRP800  GLU811  SER814 

> <Gold.Protein.RotatedAtoms>
  150.8549  134.7884  159.7037 H   0  0  0  0  0  0  0  0  0  0  0  0  # atno 6907 bound_to 6896
  152.4603  134.5195  159.9788 H   0  0  0  0  0  0  0  0  0  0  0  0  # atno 6908 bound_to 6896
  151.5310  133.3411  159.2954 H   0  0  0  0  0  0  0  0  0  0  0  0  # atno 6909 bound_to 6896
  146.1970  140.3692  142.8437 H   0  0  0  0  0  0  0  0  0  0  0  0  # atno 7974 bound_to 7965
  155.4417  140.3454  155.4290 H   0  0  0  0  0  0  0  0  0  0  0  0  # atno 8008 bound_to 7997
  156.1274  140.1504  156.9145 H   0  0  0  0  0  0  0  0  0  0  0  0  # atno 8009 bound_to 7997
  154.4869  140.0853  156.7486 H   0  0  0  0  0  0  0  0  0  0  0  0  # atno 8010 bound_to 7997
  139.7646  144.6943  151.0243 H   0  0  0  0  0  0  0  0  0  0  0  0  # atno 10167 bound_to 10162
  156.3832  130.7848  151.2042 H   0  0  0  0  0  0  0  0  0  0  0  0  # atno 10718 bound_to 10713
  154.2426  135.6340  153.5212 H   0  0  0  0  0  0  0  0  0  0  0  0  # atno 10763 bound_to 10752
  152.9927  135.5545  154.5894 H   0  0  0  0  0  0  0  0  0  0  0  0  # atno 10764 bound_to 10752
  154.5403  135.2894  155.1076 H   0  0  0  0  0  0  0  0  0  0  0  0  # atno 10765 bound_to 10752
  140.9053  134.1638  157.4430 H   0  0  0  0  0  0  0  0  0  0  0  0  # atno 11005 bound_to 11000
  144.8600  140.7126  143.6113 LP  0  0  0  0  0  0  0  0  0  0  0  0  # atno 17320 bound_to 7965
  145.3612  139.1681  143.4382 LP  0  0  0  0  0  0  0  0  0  0  0  0  # atno 17321 bound_to 7965
  140.7810  143.4657  151.0215 LP  0  0  0  0  0  0  0  0  0  0  0  0  # atno 17342 bound_to 10162
  139.8343  143.7649  152.3180 LP  0  0  0  0  0  0  0  0  0  0  0  0  # atno 17343 bound_to 10162
  157.7494  131.0338  150.4287 LP  0  0  0  0  0  0  0  0  0  0  0  0  # atno 17370 bound_to 10713
  156.4535  130.4016  149.6621 LP  0  0  0  0  0  0  0  0  0  0  0  0  # atno 17371 bound_to 10713
  139.8748  134.9914  156.5549 LP  0  0  0  0  0  0  0  0  0  0  0  0  # atno 17394 bound_to 11000
  140.8179  133.8377  155.8868 LP  0  0  0  0  0  0  0  0  0  0  0  0  # atno 17395 bound_to 11000

$$$$
