AV-unprocessed.smi:2709|AV-procd|sdf|10462|dock2
  -GOLD-   2272014503D 1   1.00000     0.00000
 Structure written by MMmdl.
 40 42  0  0  0  0  0  0  0  0  1 V2000
  148.8035  138.4889  155.6861 C   0  0  0  0  0  0  0  0  0  0  0  0
  147.8509  139.1489  154.8696 O   0  0  0  0  0  0  0  0  0  0  0  0
  148.3995  140.2152  154.0993 C   0  0  2  0  0  0  0  0  0  0  0  0
  148.8131  141.3110  155.0834 C   0  0  0  0  0  0  0  0  0  0  0  0
  147.5219  142.0771  155.3581 C   0  0  0  0  0  0  0  0  0  0  0  0
  146.7803  142.0808  154.0186 C   0  0  0  0  0  0  0  0  0  0  0  0
  147.3113  140.8738  153.2202 C   0  0  2  0  0  0  0  0  0  0  0  0
  146.2290  139.9571  152.8667 N   0  0  0  0  0  0  0  0  0  0  0  0
  146.3895  138.6595  152.5745 C   0  0  0  0  0  0  0  0  0  0  0  0
  147.4843  138.0976  152.5659 O   0  0  0  0  0  0  0  0  0  0  0  0
  145.2119  138.0773  152.2918 N   0  0  0  0  0  0  0  0  0  0  0  0
  144.9554  136.7303  151.9187 C   0  0  0  0  0  0  0  0  0  0  0  0
  143.7535  136.1249  152.3414 C   0  0  0  0  0  0  0  0  0  0  0  0
  143.4444  134.8484  152.0279 N   0  0  0  0  0  0  0  0  0  0  0  0
  144.3424  134.1703  151.3082 C   0  0  0  0  0  0  0  0  0  0  0  0
  143.9727  132.7735  150.9143 C   0  0  0  0  0  0  0  0  0  0  0  0
  144.9740  131.8674  150.2275 C   0  0  0  0  0  0  0  0  0  0  0  0
  143.7971  132.3979  149.4569 C   0  0  0  0  0  0  0  0  0  0  0  0
  145.5106  134.6320  150.8543 N   0  0  0  0  0  0  0  0  0  0  0  0
  145.8274  135.9087  151.1617 C   0  0  0  0  0  0  0  0  0  0  0  0
  148.3203  137.6790  156.2325 H   0  0  0  0  0  0  0  0  0  0  0  0
  149.2384  139.1759  156.4133 H   0  0  0  0  0  0  0  0  0  0  0  0
  149.6059  138.0580  155.0859 H   0  0  0  0  0  0  0  0  0  0  0  0
  149.2502  139.8891  153.4970 H   0  0  0  0  0  0  0  0  0  0  0  0
  149.2729  140.9172  155.9906 H   0  0  0  0  0  0  0  0  0  0  0  0
  149.5358  141.9759  154.6084 H   0  0  0  0  0  0  0  0  0  0  0  0
  146.9317  141.5422  156.1034 H   0  0  0  0  0  0  0  0  0  0  0  0
  147.7039  143.0824  155.7392 H   0  0  0  0  0  0  0  0  0  0  0  0
  145.7001  142.0531  154.1679 H   0  0  0  0  0  0  0  0  0  0  0  0
  147.0028  143.0005  153.4760 H   0  0  0  0  0  0  0  0  0  0  0  0
  147.7746  141.2568  152.3086 H   0  0  0  0  0  0  0  0  0  0  0  0
  145.2944  140.3380  152.8577 H   0  0  0  0  0  0  0  0  0  0  0  0
  144.4064  138.6858  152.2934 H   0  0  0  0  0  0  0  0  0  0  0  0
  143.0293  136.6690  152.9302 H   0  0  0  0  0  0  0  0  0  0  0  0
  143.2962  132.3253  151.6396 H   0  0  0  0  0  0  0  0  0  0  0  0
  145.9534  132.2782  149.9896 H   0  0  0  0  0  0  0  0  0  0  0  0
  144.9641  130.8140  150.4999 H   0  0  0  0  0  0  0  0  0  0  0  0
  142.9988  131.7000  149.2127 H   0  0  0  0  0  0  0  0  0  0  0  0
  143.9940  133.1614  148.7068 H   0  0  0  0  0  0  0  0  0  0  0  0
  146.7871  136.2448  150.8030 H   0  0  0  0  0  0  0  0  0  0  0  0
  1  2  1  0  0  0  0
  1 21  1  0  0  0  0
  1 22  1  0  0  0  0
  1 23  1  0  0  0  0
  2  3  1  0  0  0  0
  3  7  1  0  0  0  0
  3  4  1  0  0  0  0
  3 24  1  0  0  0  0
  4  5  1  0  0  0  0
  4 25  1  0  0  0  0
  4 26  1  0  0  0  0
  5  6  1  0  0  0  0
  5 27  1  0  0  0  0
  5 28  1  0  0  0  0
  6  7  1  0  0  0  0
  6 29  1  0  0  0  0
  6 30  1  0  0  0  0
  7  8  1  0  0  0  0
  7 31  1  0  0  0  0
  8  9  1  0  0  0  0
  8 32  1  0  0  0  0
  9 10  2  0  0  0  0
  9 11  1  0  0  0  0
 11 12  1  0  0  0  0
 11 33  1  0  0  0  0
 12 20  1  0  0  0  0
 12 13  2  0  0  0  0
 13 14  1  0  0  0  0
 13 34  1  0  0  0  0
 14 15  2  0  0  0  0
 15 16  1  0  0  0  0
 15 19  1  0  0  0  0
 16 18  1  0  0  0  0
 16 17  1  0  0  0  0
 16 35  1  0  0  0  0
 17 18  1  0  0  0  0
 17 36  1  0  0  0  0
 17 37  1  0  0  0  0
 18 38  1  0  0  0  0
 18 39  1  0  0  0  0
 19 20  2  0  0  0  0
 20 40  1  0  0  0  0
M  END
> <s_m_source_file>
AV-unprocessed.smi

> <i_m_source_file_index>
2709

> <i_lp_mmshare_version>
43012

> <i_f3d_flags>
0

> <s_epik_input>
W0NIM11PW0NAQEhdMVtDSDJdW0NIMl1bQ0gyXVtDQEhdMVtOSF1DKD1PKVtOSF1jMltjSF1uYyhuW2NIXTIpW0NIXTNbQ0gyXVtDSDJdMw==

> <s_epik_cmdline>
J2VwaWtfcHl0aG9uJywgJy1waCcsICc3LjAnLCAnLXRuJywgJzgnLCAnLW1hJywgJzIwMCcsICctbWV0YWxfYmluZGluZycsICctaW1hZScsICc8aW5maWxlLm1hZT4nLCAnLW9tYWUnLCAnPG91dGZpbGUubWFlPic=

> <r_lp_tautomer_probability>
1

> <r_epik_Ionization_Penalty>
2.49969e-05

> <r_epik_Ionization_Penalty_Charging>
0

> <r_epik_Ionization_Penalty_Neutral>
2.49969e-05

> <r_epik_State_Penalty>
-0

> <r_epik_Charging_Adjusted_Penalty>
0

> <i_epik_Tot_Q>
0

> <i_epik_Tot_abs_Q>
0

> <r_epik_Metal_State_Penalty>
-0

> <b_epik_Metal_Only>
0

> <s_lp_Force_Field>
OPLS_2005

> <r_lp_Energy>
20.8159

> <b_lp_Chiralities_Consistent>
1

> <s_lp_Variant>
AV-unprocessed.smi:2709-3

> <Gold.Version>
5.8.1

> <Gold.Id.Protein>
6NUR|6NUR_protein|mol2

> <Gold.PLP.Fitness>
39.9372

> <Gold.PLP.PLP>
-32.0471

> <Gold.PLP.part.hbond>
-3.0000

> <Gold.PLP.part.metal>
0.0000

> <Gold.PLP.part.buried>
-2.0728

> <Gold.PLP.part.nonpolar>
-31.6950

> <Gold.PLP.part.repulsive>
4.9448

> <Gold.PLP.ligand.clash>
0.0000

> <Gold.PLP.ligand.torsion>
0.6311

> <Gold.PLP.Chemscore.Hbond>
2.0000

> <Gold.PLP.Chemscore.CHOScore>
1.0000

> <Gold.PLP.Chemscore.Metal>
0.0000

> <Gold.Chemscore.Hbonds>
donor molecule, donor type, donor heavy atom, donor atom, acceptor molecule, acceptor atom, score
      L1  H     8    32       P1 10175  1.00
      L1  H    11    33       P1 10175  1.00
      L1  C    20    40       P1  7948  1.00

> <Gold.PLP.Chemscore.Internal.Correction>
0.1522

> <Gold.Rescore>
     Score         DG    S(hbond)    S(metal)    S(lipo)     H(rot)  DE(clash)    DE(int)     intcor
     14.07     -17.57       1.92        0.00      79.37       1.41       3.04       0.47       ----

> <Gold.Chemscore.Fitness>
14.0669

> <Gold.Chemscore.DG>
-17.5695

> <Gold.Chemscore.ZeroCoef>
-5.4800

> <Gold.Chemscore.Hbond>
1.9212

> <Gold.Chemscore.Metal>
0.0000

> <Gold.Chemscore.Lipo>
79.3675

> <Gold.Chemscore.Internal_Hbond>
0.0000

> <Gold.Chemscore.DEClash>
3.0368

> <Gold.Chemscore.DEInternal>
0.4658

> <Gold.Chemscore.Rot>
1.4114

> <Gold.Chemscore.Internal.Correction>
   9.000000E+99

> <Gold.Chemscore.Hbonds>
donor molecule, donor type, donor heavy atom, donor atom, acceptor molecule, acceptor atom, score
      L1  H     8    32       P1 10175  0.92
      L1  H    11    33       P1 10175  0.94

> <Gold.Chemscore.Hbond.Weighted>
-6.4167

> <Gold.Chemscore.Metal.Weighted>
-0.0000

> <Gold.Chemscore.Lipo.Weighted>
-9.2860

> <Gold.Chemscore.Internal_Hbond.Weighted>
0.0000

> <Gold.Chemscore.DEClash.Weighted>
3.0368

> <Gold.Chemscore.DEInternal.Weighted>
0.4658

> <Gold.Chemscore.Rot.Weighted>
3.6133

> <Gold.Chemscore.Internal.Correction.Weighted>
   9.000000E+99

> <Gold.Protein.RotatedTorsions>
[ 6907 6896 6895 6894 ] final -156.79 input  -60.11 | X-H torsion
[ 7974 7965 7964 7962 ] final  -93.22 input  175.53 | X-H torsion
[ 8008 7997 7996 7995 ] final -179.70 input   59.86 | X-H torsion
[ 10167 10162 10161 10158 ] final  -95.07 input  -65.29 | X-H torsion
[ 10718 10713 10712 10709 ] final  144.49 input   66.30 | X-H torsion
[ 10763 10752 10751 10750 ] final  -30.38 input  -60.55 | X-H torsion
[ 11005 11000 10999 10996 ] final   22.35 input  -57.11 | X-H torsion

> <Gold.Protein.ActiveResidues>
 VAL166  LYS551  ARG553  GLY616  TRP617  ASP618  TYR619  PRO620  LYS621  CYS622 
 ASP623  PHE694  ASN695  SER759  ASP760  ASP761  ALA762  ILE779  LEU786  VAL792 
 PHE793  MET794  SER795  GLU796  ALA797  LYS798  CYS799  TRP800  GLU811  SER814 

> <Gold.Protein.RotatedAtoms>
  151.2930  133.4157  159.2634 H   0  0  0  0  0  0  0  0  0  0  0  0  # atno 6907 bound_to 6896
  151.0261  134.9505  159.8096 H   0  0  0  0  0  0  0  0  0  0  0  0  # atno 6908 bound_to 6896
  152.5335  134.2892  159.9089 H   0  0  0  0  0  0  0  0  0  0  0  0  # atno 6909 bound_to 6896
  145.3894  140.9526  143.2349 H   0  0  0  0  0  0  0  0  0  0  0  0  # atno 7974 bound_to 7965
  156.0335  140.1287  157.0232 H   0  0  0  0  0  0  0  0  0  0  0  0  # atno 8008 bound_to 7997
  154.4360  140.1044  156.6204 H   0  0  0  0  0  0  0  0  0  0  0  0  # atno 8009 bound_to 7997
  155.5772  140.3467  155.4533 H   0  0  0  0  0  0  0  0  0  0  0  0  # atno 8010 bound_to 7997
  140.3079  143.3123  152.0179 H   0  0  0  0  0  0  0  0  0  0  0  0  # atno 10167 bound_to 10162
  157.3566  131.0959  151.0953 H   0  0  0  0  0  0  0  0  0  0  0  0  # atno 10718 bound_to 10713
  153.7801  135.6906  153.4890 H   0  0  0  0  0  0  0  0  0  0  0  0  # atno 10763 bound_to 10752
  153.1817  135.4504  155.0035 H   0  0  0  0  0  0  0  0  0  0  0  0  # atno 10764 bound_to 10752
  154.8085  135.3367  154.7304 H   0  0  0  0  0  0  0  0  0  0  0  0  # atno 10765 bound_to 10752
  140.3816  134.1915  155.7663 H   0  0  0  0  0  0  0  0  0  0  0  0  # atno 11005 bound_to 11000
  144.8451  139.5410  143.6882 LP  0  0  0  0  0  0  0  0  0  0  0  0  # atno 17320 bound_to 7965
  146.2805  139.6864  142.9232 LP  0  0  0  0  0  0  0  0  0  0  0  0  # atno 17321 bound_to 7965
  139.4900  144.6407  151.6883 LP  0  0  0  0  0  0  0  0  0  0  0  0  # atno 17342 bound_to 10162
  140.5594  144.0294  150.6162 LP  0  0  0  0  0  0  0  0  0  0  0  0  # atno 17343 bound_to 10162
  157.2108  130.6437  149.5773 LP  0  0  0  0  0  0  0  0  0  0  0  0  # atno 17370 bound_to 10713
  155.9730  130.4660  150.6275 LP  0  0  0  0  0  0  0  0  0  0  0  0  # atno 17371 bound_to 10713
  141.1921  133.8179  157.0851 LP  0  0  0  0  0  0  0  0  0  0  0  0  # atno 17394 bound_to 11000
  140.0474  134.9823  157.1074 LP  0  0  0  0  0  0  0  0  0  0  0  0  # atno 17395 bound_to 11000

$$$$
