AV-unprocessed.smi:1509|AV-procd|sdf|6090|dock7
  -GOLD-   22720 6213D 1   1.00000     0.00000
 Structure written by MMmdl.
 42 43  0  0  0  0  0  0  0  0  2 V2000
  145.2101  134.0765  150.9027 C   0  0  0  0  0  0  0  0  0  0  0  0
  145.9194  132.7733  151.2974 C   0  0  2  0  0  0  0  0  0  0  0  0
  144.9139  131.7022  151.7516 C   0  0  0  0  0  0  0  0  0  0  0  0
  145.6520  130.4225  152.1632 C   0  0  0  0  0  0  0  0  0  0  0  0
  146.7117  130.7197  153.2358 C   0  0  0  0  0  0  0  0  0  0  0  0
  147.6714  131.7543  152.7706 N   0  3  2  0  0  0  0  0  0  0  0  0
  148.7799  131.9632  153.7368 C   0  0  0  0  0  0  0  0  0  0  0  0
  149.6224  133.2085  153.4105 C   0  0  0  0  0  0  0  0  0  0  0  0
  149.4491  134.3181  154.4612 C   0  0  0  0  0  0  0  0  0  0  0  0
  149.9339  135.6052  153.9762 N   0  0  0  0  0  0  0  0  0  0  0  0
  150.8401  136.3716  154.6034 C   0  0  0  0  0  0  0  0  0  0  0  0
  151.3488  136.0704  155.6830 O   0  0  0  0  0  0  0  0  0  0  0  0
  151.2390  137.6729  153.9063 C   0  0  0  0  0  0  0  0  0  0  0  0
  152.6821  137.7881  153.8083 N   0  0  0  0  0  0  0  0  0  0  0  0
  153.5146  138.7510  154.2096 C   0  0  0  0  0  0  0  0  0  0  0  0
  154.7739  138.4615  153.9196 N   0  0  0  0  0  0  0  0  0  0  0  0
  154.6775  137.2278  153.2977 N   0  0  0  0  0  0  0  0  0  0  0  0
  153.4388  136.8229  153.2293 N   0  0  0  0  0  0  0  0  0  0  0  0
  146.9749  133.0151  152.3956 C   0  0  0  0  0  0  0  0  0  0  0  0
  144.6740  134.5088  151.7482 H   0  0  0  0  0  0  0  0  0  0  0  0
  144.4881  133.9042  150.1040 H   0  0  0  0  0  0  0  0  0  0  0  0
  145.9232  134.8201  150.5454 H   0  0  0  0  0  0  0  0  0  0  0  0
  146.4346  132.3994  150.4112 H   0  0  0  0  0  0  0  0  0  0  0  0
  144.3265  132.0738  152.5927 H   0  0  0  0  0  0  0  0  0  0  0  0
  144.2073  131.4813  150.9509 H   0  0  0  0  0  0  0  0  0  0  0  0
  144.9398  129.6861  152.5366 H   0  0  0  0  0  0  0  0  0  0  0  0
  146.1287  129.9762  151.2894 H   0  0  0  0  0  0  0  0  0  0  0  0
  146.2324  131.0536  154.1576 H   0  0  0  0  0  0  0  0  0  0  0  0
  147.2460  129.7985  153.4711 H   0  0  0  0  0  0  0  0  0  0  0  0
  148.3827  132.0178  154.7516 H   0  0  0  0  0  0  0  0  0  0  0  0
  149.4427  131.0970  153.7133 H   0  0  0  0  0  0  0  0  0  0  0  0
  150.6752  132.9292  153.3496 H   0  0  0  0  0  0  0  0  0  0  0  0
  149.3502  133.6007  152.4312 H   0  0  0  0  0  0  0  0  0  0  0  0
  148.4023  134.4047  154.7574 H   0  0  0  0  0  0  0  0  0  0  0  0
  150.0066  134.0664  155.3637 H   0  0  0  0  0  0  0  0  0  0  0  0
  149.5673  135.9290  153.0925 H   0  0  0  0  0  0  0  0  0  0  0  0
  150.8155  137.7215  152.9020 H   0  0  0  0  0  0  0  0  0  0  0  0
  150.8432  138.5232  154.4638 H   0  0  0  0  0  0  0  0  0  0  0  0
  153.2007  139.6569  154.7070 H   0  0  0  0  0  0  0  0  0  0  0  0
  147.6956  133.7480  152.0347 H   0  0  0  0  0  0  0  0  0  0  0  0
  146.5054  133.4469  153.2812 H   0  0  0  0  0  0  0  0  0  0  0  0
  148.0907  131.3877  151.9279 H   0  0  0  0  0  0  0  0  0  0  0  0
  1  2  1  0  0  0  0
  1 20  1  0  0  0  0
  1 21  1  0  0  0  0
  1 22  1  0  0  0  0
  2 19  1  0  0  0  0
  2  3  1  0  0  0  0
  2 23  1  0  0  0  0
  3  4  1  0  0  0  0
  3 24  1  0  0  0  0
  3 25  1  0  0  0  0
  4  5  1  0  0  0  0
  4 26  1  0  0  0  0
  4 27  1  0  0  0  0
  5  6  1  0  0  0  0
  5 28  1  0  0  0  0
  5 29  1  0  0  0  0
  6  7  1  0  0  0  0
  6 19  1  0  0  0  0
  6 42  1  0  0  0  0
  7  8  1  0  0  0  0
  7 30  1  0  0  0  0
  7 31  1  0  0  0  0
  8  9  1  0  0  0  0
  8 32  1  0  0  0  0
  8 33  1  0  0  0  0
  9 10  1  0  0  0  0
  9 34  1  0  0  0  0
  9 35  1  0  0  0  0
 10 11  1  0  0  0  0
 10 36  1  0  0  0  0
 11 12  2  0  0  0  0
 11 13  1  0  0  0  0
 13 14  1  0  0  0  0
 13 37  1  0  0  0  0
 13 38  1  0  0  0  0
 14 18  1  0  0  0  0
 14 15  1  0  0  0  0
 15 16  2  0  0  0  0
 15 39  1  0  0  0  0
 16 17  1  0  0  0  0
 17 18  2  0  0  0  0
 19 40  1  0  0  0  0
 19 41  1  0  0  0  0
M  CHG  1   6   1
M  END
> <s_m_source_file>
AV-unprocessed.smi

> <i_m_source_file_index>
1509

> <i_lp_mmshare_version>
43012

> <i_f3d_flags>
0

> <s_epik_input>
W0NIM11bQ0BASF0xW0NIMl1bQ0gyXVtDSDJdTihbQ0gyXTEpW0NIMl1bQ0gyXVtDSDJdW05IXUMoPU8pW0NIMl1uMltjSF1ubm4y

> <s_epik_cmdline>
J2VwaWtfcHl0aG9uJywgJy1waCcsICc3LjAnLCAnLXRuJywgJzgnLCAnLW1hJywgJzIwMCcsICctbWV0YWxfYmluZGluZycsICctaW1hZScsICc8aW5maWxlLm1hZT4nLCAnLW9tYWUnLCAnPG91dGZpbGUubWFlPic=

> <r_lp_tautomer_probability>
1

> <r_epik_Ionization_Penalty>
0.00044216

> <r_epik_Ionization_Penalty_Charging>
0.000440775

> <r_epik_Ionization_Penalty_Neutral>
1.38512e-06

> <r_epik_State_Penalty>
0.000271914

> <r_epik_Charging_Adjusted_Penalty>
0.000712689

> <i_epik_Tot_Q>
1

> <i_epik_Tot_abs_Q>
1

> <r_epik_Metal_State_Penalty>
-0

> <b_epik_Metal_Only>
0

> <s_lp_Force_Field>
OPLS_2005

> <r_lp_Energy>
19.8667

> <b_lp_Chiralities_Consistent>
1

> <s_lp_Variant>
AV-unprocessed.smi:1509-1

> <Gold.Version>
5.8.1

> <Gold.Id.Protein>
6NUR|6NUR_protein|mol2

> <Gold.PLP.Fitness>
49.1765

> <Gold.PLP.PLP>
-39.4128

> <Gold.PLP.part.hbond>
-4.9571

> <Gold.PLP.part.metal>
0.0000

> <Gold.PLP.part.buried>
-6.2490

> <Gold.PLP.part.nonpolar>
-27.9493

> <Gold.PLP.part.repulsive>
0.1937

> <Gold.PLP.ligand.clash>
0.0000

> <Gold.PLP.ligand.torsion>
0.6517

> <Gold.PLP.Chemscore.Hbond>
3.6720

> <Gold.PLP.Chemscore.CHOScore>
0.0000

> <Gold.PLP.Chemscore.Metal>
0.0000

> <Gold.Chemscore.Hbonds>
donor molecule, donor type, donor heavy atom, donor atom, acceptor molecule, acceptor atom, score
      L1  H     6    42       P1 10747  1.00
      L1  H    10    36       P1  7948  0.44
      P1  H 10752 10765       L1    18  0.09

> <Gold.PLP.Chemscore.Internal.Correction>
0.0511

> <Gold.Rescore>
     Score         DG    S(hbond)    S(metal)    S(lipo)     H(rot)  DE(clash)    DE(int)     intcor
     15.55     -16.42       3.14        0.00      68.92       2.97       0.01       0.85       ----

> <Gold.Chemscore.Fitness>
15.5546

> <Gold.Chemscore.DG>
-16.4183

> <Gold.Chemscore.ZeroCoef>
-5.4800

> <Gold.Chemscore.Hbond>
3.1355

> <Gold.Chemscore.Metal>
0.0000

> <Gold.Chemscore.Lipo>
68.9213

> <Gold.Chemscore.Internal_Hbond>
0.0000

> <Gold.Chemscore.DEClash>
0.0139

> <Gold.Chemscore.DEInternal>
0.8498

> <Gold.Chemscore.Rot>
2.9680

> <Gold.Chemscore.Internal.Correction>
   9.000000E+99

> <Gold.Chemscore.Hbonds>
donor molecule, donor type, donor heavy atom, donor atom, acceptor molecule, acceptor atom, score
      L1  H     6    42       P1 10747  0.99
      L1  H    10    36       P1  7948  0.05
      P1  H 10752 10765       L1    18  0.02

> <Gold.Chemscore.Hbond.Weighted>
-10.4725

> <Gold.Chemscore.Metal.Weighted>
-0.0000

> <Gold.Chemscore.Lipo.Weighted>
-8.0638

> <Gold.Chemscore.Internal_Hbond.Weighted>
0.0000

> <Gold.Chemscore.DEClash.Weighted>
0.0139

> <Gold.Chemscore.DEInternal.Weighted>
0.8498

> <Gold.Chemscore.Rot.Weighted>
7.5980

> <Gold.Chemscore.Internal.Correction.Weighted>
   9.000000E+99

> <Gold.Protein.RotatedTorsions>
[ 6907 6896 6895 6894 ] final  159.97 input  -60.11 | X-H torsion
[ 7974 7965 7964 7962 ] final -138.34 input  175.53 | X-H torsion
[ 8008 7997 7996 7995 ] final  118.21 input   59.86 | X-H torsion
[ 10167 10162 10161 10158 ] final    1.61 input  -65.29 | X-H torsion
[ 10718 10713 10712 10709 ] final  -52.41 input   66.30 | X-H torsion
[ 10763 10752 10751 10750 ] final  152.35 input  -60.55 | X-H torsion
[ 11005 11000 10999 10996 ] final  161.77 input  -57.11 | X-H torsion

> <Gold.Protein.ActiveResidues>
 VAL166  LYS551  ARG553  GLY616  TRP617  ASP618  TYR619  PRO620  LYS621  CYS622 
 ASP623  PHE694  ASN695  SER759  ASP760  ASP761  ALA762  ILE779  LEU786  VAL792 
 PHE793  MET794  SER795  GLU796  ALA797  LYS798  CYS799  TRP800  GLU811  SER814 

> <Gold.Protein.RotatedAtoms>
  151.9777  133.3747  159.4095 H   0  0  0  0  0  0  0  0  0  0  0  0  # atno 6907 bound_to 6896
  150.6939  134.4072  159.5155 H   0  0  0  0  0  0  0  0  0  0  0  0  # atno 6908 bound_to 6896
  152.1786  134.8773  160.0579 H   0  0  0  0  0  0  0  0  0  0  0  0  # atno 6909 bound_to 6896
  144.8767  140.6447  143.5232 H   0  0  0  0  0  0  0  0  0  0  0  0  # atno 7974 bound_to 7965
  156.2535  140.2879  156.0799 H   0  0  0  0  0  0  0  0  0  0  0  0  # atno 8008 bound_to 7997
  155.1578  140.0399  157.2853 H   0  0  0  0  0  0  0  0  0  0  0  0  # atno 8009 bound_to 7997
  154.6414  140.2523  155.7324 H   0  0  0  0  0  0  0  0  0  0  0  0  # atno 8010 bound_to 7997
  140.6675  143.7141  150.7855 H   0  0  0  0  0  0  0  0  0  0  0  0  # atno 10167 bound_to 10162
  156.1624  130.4149  149.9773 H   0  0  0  0  0  0  0  0  0  0  0  0  # atno 10718 bound_to 10713
  154.1186  135.2834  155.3214 H   0  0  0  0  0  0  0  0  0  0  0  0  # atno 10763 bound_to 10752
  154.6439  135.5392  153.7825 H   0  0  0  0  0  0  0  0  0  0  0  0  # atno 10764 bound_to 10752
  153.0321  135.6493  154.1341 H   0  0  0  0  0  0  0  0  0  0  0  0  # atno 10765 bound_to 10752
  140.2191  134.8210  157.3201 H   0  0  0  0  0  0  0  0  0  0  0  0  # atno 11005 bound_to 11000
  145.4030  139.1594  143.4167 LP  0  0  0  0  0  0  0  0  0  0  0  0  # atno 17320 bound_to 7965
  146.2967  140.4128  142.8719 LP  0  0  0  0  0  0  0  0  0  0  0  0  # atno 17321 bound_to 7965
  140.0820  143.4959  152.2525 LP  0  0  0  0  0  0  0  0  0  0  0  0  # atno 17342 bound_to 10162
  139.5929  144.7556  151.3357 LP  0  0  0  0  0  0  0  0  0  0  0  0  # atno 17343 bound_to 10162
  156.7598  130.9146  151.3641 LP  0  0  0  0  0  0  0  0  0  0  0  0  # atno 17370 bound_to 10713
  157.6742  130.9079  150.0111 LP  0  0  0  0  0  0  0  0  0  0  0  0  # atno 17371 bound_to 10713
  140.1869  134.4420  155.7738 LP  0  0  0  0  0  0  0  0  0  0  0  0  # atno 17394 bound_to 11000
  141.2224  133.7009  156.7962 LP  0  0  0  0  0  0  0  0  0  0  0  0  # atno 17395 bound_to 11000

$$$$
