AV-unprocessed.smi:709|AV-procd|sdf|3461|dock2
  -GOLD-   22720 0453D 1   1.00000     0.00000
 Structure written by MMmdl.
 48 50  0  0  0  0  0  0  0  0  1 V2000
  152.6726  138.3583  154.5068 C   0  0  0  0  0  0  0  0  0  0  0  0
  152.1499  139.4499  155.4431 C   0  0  0  0  0  0  0  0  0  0  0  0
  151.1020  140.1482  154.7920 O   0  0  0  0  0  0  0  0  0  0  0  0
  150.0277  139.3026  154.4135 C   0  0  1  0  0  0  0  0  0  0  0  0
  149.5335  138.3625  155.5180 C   0  0  0  0  0  0  0  0  0  0  0  0
  148.1069  138.6740  155.0506 C   0  0  2  0  0  0  0  0  0  0  0  0
  147.6582  137.6984  154.0566 N   0  0  0  0  0  0  0  0  0  0  0  0
  146.4372  137.1474  154.0268 C   0  0  0  0  0  0  0  0  0  0  0  0
  145.5580  137.4176  154.8441 O   0  0  0  0  0  0  0  0  0  0  0  0
  146.3259  136.2942  152.9921 N   0  0  0  0  0  0  0  0  0  0  0  0
  145.2367  135.5034  152.5840 C   0  0  0  0  0  0  0  0  0  0  0  0
  143.9301  135.8106  152.7869 C   0  0  0  0  0  0  0  0  0  0  0  0
  142.8815  134.9289  152.3332 C   0  0  0  0  0  0  0  0  0  0  0  0
  143.2274  133.7937  151.7108 C   0  0  0  0  0  0  0  0  0  0  0  0
  144.5728  133.4523  151.4947 N   0  0  0  0  0  0  0  0  0  0  0  0
  144.8502  132.1883  150.8075 C   0  0  0  0  0  0  0  0  0  0  0  0
  145.6065  134.2499  151.8970 C   0  0  0  0  0  0  0  0  0  0  0  0
  146.7788  133.9257  151.6903 O   0  0  0  0  0  0  0  0  0  0  0  0
  148.6495  140.0010  154.4461 C   0  0  0  0  0  0  0  0  0  0  0  0
  148.4827  141.2295  155.3443 C   0  0  0  0  0  0  0  0  0  0  0  0
  147.1659  141.8977  154.9369 C   0  0  0  0  0  0  0  0  0  0  0  0
  146.9013  141.4444  153.4972 C   0  0  0  0  0  0  0  0  0  0  0  0
  148.0777  140.5357  153.1321 C   0  0  0  0  0  0  0  0  0  0  0  0
  153.4795  137.7955  154.9766 H   0  0  0  0  0  0  0  0  0  0  0  0
  153.0581  138.7881  153.5820 H   0  0  0  0  0  0  0  0  0  0  0  0
  151.8815  137.6550  154.2460 H   0  0  0  0  0  0  0  0  0  0  0  0
  151.7851  139.0018  156.3685 H   0  0  0  0  0  0  0  0  0  0  0  0
  152.9582  140.1344  155.7035 H   0  0  0  0  0  0  0  0  0  0  0  0
  150.1997  138.7875  153.4656 H   0  0  0  0  0  0  0  0  0  0  0  0
  149.8479  137.3239  155.4086 H   0  0  0  0  0  0  0  0  0  0  0  0
  149.7403  138.7396  156.5210 H   0  0  0  0  0  0  0  0  0  0  0  0
  147.4125  138.8154  155.8809 H   0  0  0  0  0  0  0  0  0  0  0  0
  148.3234  137.4280  153.3470 H   0  0  0  0  0  0  0  0  0  0  0  0
  147.1403  136.2090  152.4013 H   0  0  0  0  0  0  0  0  0  0  0  0
  143.6225  136.7089  153.2951 H   0  0  0  0  0  0  0  0  0  0  0  0
  141.8428  135.1783  152.4920 H   0  0  0  0  0  0  0  0  0  0  0  0
  142.5018  133.0828  151.3430 H   0  0  0  0  0  0  0  0  0  0  0  0
  145.3921  132.3691  149.8783 H   0  0  0  0  0  0  0  0  0  0  0  0
  143.9433  131.6387  150.5533 H   0  0  0  0  0  0  0  0  0  0  0  0
  145.4589  131.5357  151.4351 H   0  0  0  0  0  0  0  0  0  0  0  0
  148.4901  140.9811  156.4061 H   0  0  0  0  0  0  0  0  0  0  0  0
  149.3009  141.9320  155.1811 H   0  0  0  0  0  0  0  0  0  0  0  0
  146.3557  141.5603  155.5846 H   0  0  0  0  0  0  0  0  0  0  0  0
  147.2256  142.9831  155.0221 H   0  0  0  0  0  0  0  0  0  0  0  0
  145.9655  140.8864  153.4513 H   0  0  0  0  0  0  0  0  0  0  0  0
  146.8171  142.2862  152.8093 H   0  0  0  0  0  0  0  0  0  0  0  0
  148.8382  141.1269  152.6200 H   0  0  0  0  0  0  0  0  0  0  0  0
  147.7800  139.7561  152.4320 H   0  0  0  0  0  0  0  0  0  0  0  0
  1  2  1  0  0  0  0
  1 24  1  0  0  0  0
  1 25  1  0  0  0  0
  1 26  1  0  0  0  0
  2  3  1  0  0  0  0
  2 27  1  0  0  0  0
  2 28  1  0  0  0  0
  3  4  1  0  0  0  0
  4 19  1  0  0  0  0
  4  5  1  0  0  0  0
  4 29  1  0  0  0  0
  5  6  1  0  0  0  0
  5 30  1  0  0  0  0
  5 31  1  0  0  0  0
  6  7  1  0  0  0  0
  6 19  1  0  0  0  0
  6 32  1  0  0  0  0
  7  8  1  0  0  0  0
  7 33  1  0  0  0  0
  8  9  2  0  0  0  0
  8 10  1  0  0  0  0
 10 11  1  0  0  0  0
 10 34  1  0  0  0  0
 11 17  1  0  0  0  0
 11 12  2  0  0  0  0
 12 13  1  0  0  0  0
 12 35  1  0  0  0  0
 13 14  2  0  0  0  0
 13 36  1  0  0  0  0
 14 15  1  0  0  0  0
 14 37  1  0  0  0  0
 15 16  1  0  0  0  0
 15 17  1  0  0  0  0
 16 38  1  0  0  0  0
 16 39  1  0  0  0  0
 16 40  1  0  0  0  0
 17 18  2  0  0  0  0
 19 23  1  0  0  0  0
 19 20  1  0  0  0  0
 20 21  1  0  0  0  0
 20 41  1  0  0  0  0
 20 42  1  0  0  0  0
 21 22  1  0  0  0  0
 21 43  1  0  0  0  0
 21 44  1  0  0  0  0
 22 23  1  0  0  0  0
 22 45  1  0  0  0  0
 22 46  1  0  0  0  0
 23 47  1  0  0  0  0
 23 48  1  0  0  0  0
M  END
> <s_m_source_file>
AV-unprocessed.smi

> <i_m_source_file_index>
709

> <i_lp_mmshare_version>
43012

> <i_f3d_flags>
0

> <s_epik_input>
W0NIMl0xW0NIMl1bQ0gyXVtDSDJdQzEyW0NASF0oT1tDSDJdW0NIM10pW0NIMl1bQ0BIXTJbTkhdQyg9TylbTkhdYzNbY0hdW2NIXVtjSF1uKFtDSDNdKWMzPU8=

> <s_epik_cmdline>
J2VwaWtfcHl0aG9uJywgJy1waCcsICc3LjAnLCAnLXRuJywgJzgnLCAnLW1hJywgJzIwMCcsICctbWV0YWxfYmluZGluZycsICctaW1hZScsICc8aW5maWxlLm1hZT4nLCAnLW9tYWUnLCAnPG91dGZpbGUubWFlPic=

> <r_lp_tautomer_probability>
1

> <r_epik_Ionization_Penalty>
2.50859e-05

> <r_epik_Ionization_Penalty_Charging>
5.10493e-06

> <r_epik_Ionization_Penalty_Neutral>
1.9981e-05

> <r_epik_State_Penalty>
-0

> <r_epik_Charging_Adjusted_Penalty>
5.10493e-06

> <i_epik_Tot_Q>
0

> <i_epik_Tot_abs_Q>
0

> <r_epik_Metal_State_Penalty>
-0

> <b_epik_Metal_Only>
0

> <s_lp_Force_Field>
OPLS_2005

> <r_lp_Energy>
51.0091

> <b_lp_Chiralities_Consistent>
1

> <s_lp_Variant>
AV-unprocessed.smi:709-4

> <Gold.Version>
5.8.1

> <Gold.Id.Protein>
6NUR|6NUR_protein|mol2

> <Gold.PLP.Fitness>
45.2253

> <Gold.PLP.PLP>
-36.0424

> <Gold.PLP.part.hbond>
-2.9727

> <Gold.PLP.part.metal>
0.0000

> <Gold.PLP.part.buried>
-2.4034

> <Gold.PLP.part.nonpolar>
-31.1922

> <Gold.PLP.part.repulsive>
0.5448

> <Gold.PLP.ligand.clash>
0.0000

> <Gold.PLP.ligand.torsion>
0.5468

> <Gold.PLP.Chemscore.Hbond>
3.0000

> <Gold.PLP.Chemscore.CHOScore>
0.3066

> <Gold.PLP.Chemscore.Metal>
0.0000

> <Gold.Chemscore.Hbonds>
donor molecule, donor type, donor heavy atom, donor atom, acceptor molecule, acceptor atom, score
      L1  H     7    33       P1  7948  1.00
      L1  H    10    34       P1  7948  1.00
      P1  H  7989  7998       L1     3  1.00
      L1  C    14    37       P1 10186  0.33

> <Gold.PLP.Chemscore.Internal.Correction>
0.3569

> <Gold.Rescore>
     Score         DG    S(hbond)    S(metal)    S(lipo)     H(rot)  DE(clash)    DE(int)     intcor
     19.43     -21.95       2.76        0.00      91.76       1.36       1.80       0.73       ----

> <Gold.Chemscore.Fitness>
19.4275

> <Gold.Chemscore.DG>
-21.9547

> <Gold.Chemscore.ZeroCoef>
-5.4800

> <Gold.Chemscore.Hbond>
2.7606

> <Gold.Chemscore.Metal>
0.0000

> <Gold.Chemscore.Lipo>
91.7559

> <Gold.Chemscore.Internal_Hbond>
0.0000

> <Gold.Chemscore.DEClash>
1.8022

> <Gold.Chemscore.DEInternal>
0.7250

> <Gold.Chemscore.Rot>
1.3599

> <Gold.Chemscore.Internal.Correction>
   9.000000E+99

> <Gold.Chemscore.Hbonds>
donor molecule, donor type, donor heavy atom, donor atom, acceptor molecule, acceptor atom, score
      L1  H     7    33       P1  7948  0.93
      L1  H    10    34       P1  7948  1.00
      P1  H  7989  7998       L1     3  0.47

> <Gold.Chemscore.Hbond.Weighted>
-9.2205

> <Gold.Chemscore.Metal.Weighted>
-0.0000

> <Gold.Chemscore.Lipo.Weighted>
-10.7354

> <Gold.Chemscore.Internal_Hbond.Weighted>
0.0000

> <Gold.Chemscore.DEClash.Weighted>
1.8022

> <Gold.Chemscore.DEInternal.Weighted>
0.7250

> <Gold.Chemscore.Rot.Weighted>
3.4813

> <Gold.Chemscore.Internal.Correction.Weighted>
   9.000000E+99

> <Gold.Protein.RotatedTorsions>
[ 6907 6896 6895 6894 ] final  163.81 input  -60.11 | X-H torsion
[ 7974 7965 7964 7962 ] final -154.52 input  175.53 | X-H torsion
[ 8008 7997 7996 7995 ] final  105.84 input   59.86 | X-H torsion
[ 10167 10162 10161 10158 ] final  -53.33 input  -65.29 | X-H torsion
[ 10718 10713 10712 10709 ] final   79.27 input   66.30 | X-H torsion
[ 10763 10752 10751 10750 ] final  -80.88 input  -60.55 | X-H torsion
[ 11005 11000 10999 10996 ] final -109.12 input  -57.11 | X-H torsion

> <Gold.Protein.ActiveResidues>
 VAL166  LYS551  ARG553  GLY616  TRP617  ASP618  TYR619  PRO620  LYS621  CYS622 
 ASP623  PHE694  ASN695  SER759  ASP760  ASP761  ALA762  ILE779  LEU786  VAL792 
 PHE793  MET794  SER795  GLU796  ALA797  LYS798  CYS799  TRP800  GLU811  SER814 

> <Gold.Protein.RotatedAtoms>
  151.9195  133.3582  159.3891 H   0  0  0  0  0  0  0  0  0  0  0  0  # atno 6907 bound_to 6896
  150.7040  134.4650  159.5408 H   0  0  0  0  0  0  0  0  0  0  0  0  # atno 6908 bound_to 6896
  152.2271  134.8358  160.0529 H   0  0  0  0  0  0  0  0  0  0  0  0  # atno 6909 bound_to 6896
  144.7685  140.4376  143.5924 H   0  0  0  0  0  0  0  0  0  0  0  0  # atno 7974 bound_to 7965
  156.1693  140.3123  155.8945 H   0  0  0  0  0  0  0  0  0  0  0  0  # atno 8008 bound_to 7997
  155.3620  140.0477  157.3063 H   0  0  0  0  0  0  0  0  0  0  0  0  # atno 8009 bound_to 7997
  154.5224  140.2203  155.8961 H   0  0  0  0  0  0  0  0  0  0  0  0  # atno 8010 bound_to 7997
  140.6490  143.2554  151.4777 H   0  0  0  0  0  0  0  0  0  0  0  0  # atno 10167 bound_to 10162
  157.6771  130.9906  150.1907 H   0  0  0  0  0  0  0  0  0  0  0  0  # atno 10718 bound_to 10713
  154.5566  135.5646  153.6970 H   0  0  0  0  0  0  0  0  0  0  0  0  # atno 10763 bound_to 10752
  153.0005  135.6264  154.2301 H   0  0  0  0  0  0  0  0  0  0  0  0  # atno 10764 bound_to 10752
  154.2238  135.2868  155.2895 H   0  0  0  0  0  0  0  0  0  0  0  0  # atno 10765 bound_to 10752
  141.0865  133.9130  157.2174 H   0  0  0  0  0  0  0  0  0  0  0  0  # atno 11005 bound_to 11000
  145.6396  139.1548  143.2923 LP  0  0  0  0  0  0  0  0  0  0  0  0  # atno 17320 bound_to 7965
  146.1812  140.6494  142.9188 LP  0  0  0  0  0  0  0  0  0  0  0  0  # atno 17321 bound_to 7965
  139.5703  144.1943  152.1827 LP  0  0  0  0  0  0  0  0  0  0  0  0  # atno 17342 bound_to 10162
  140.1238  144.5350  150.6846 LP  0  0  0  0  0  0  0  0  0  0  0  0  # atno 17343 bound_to 10162
  156.2619  130.3712  149.8121 LP  0  0  0  0  0  0  0  0  0  0  0  0  # atno 17370 bound_to 10713
  156.5864  130.8487  151.3396 LP  0  0  0  0  0  0  0  0  0  0  0  0  # atno 17371 bound_to 10713
  139.9684  135.0135  156.9447 LP  0  0  0  0  0  0  0  0  0  0  0  0  # atno 17394 bound_to 11000
  140.5352  134.0774  155.7326 LP  0  0  0  0  0  0  0  0  0  0  0  0  # atno 17395 bound_to 11000

$$$$
