AV-unprocessed.smi:933|AV-procd|sdf|4202|dock9
  -GOLD-   22720 2113D 1   1.00000     0.00000
 Structure written by MMmdl.
 42 43  0  0  0  0  0  0  0  0  1 V2000
  146.2210  129.3758  151.8872 C   0  0  0  0  0  0  0  0  0  0  0  0
  146.3611  130.8008  152.4327 C   0  0  0  0  0  0  0  0  0  0  0  0
  145.4583  131.7679  151.7431 C   0  0  0  0  0  0  0  0  0  0  0  0
  145.4489  133.0787  152.0000 N   0  0  0  0  0  0  0  0  0  0  0  0
  144.4844  133.7662  151.2571 C   0  0  0  0  0  0  0  0  0  0  0  0
  144.3293  135.2500  151.4245 C   0  0  0  0  0  0  0  0  0  0  0  0
  143.9381  135.6621  152.8537 C   0  0  0  0  0  0  0  0  0  0  0  0
  143.2586  136.9572  152.8733 N   0  0  0  0  0  0  0  0  0  0  0  0
  142.0046  137.2115  153.2830 C   0  0  0  0  0  0  0  0  0  0  0  0
  141.2633  136.3214  153.6950 O   0  0  0  0  0  0  0  0  0  0  0  0
  141.6403  138.5020  153.1892 N   0  0  0  0  0  0  0  0  0  0  0  0
  140.3395  139.0562  153.5658 C   0  0  1  0  0  0  0  0  0  0  0  0
  139.2352  138.4683  152.6625 C   0  0  0  0  0  0  0  0  0  0  0  0
  138.2396  137.7588  153.5868 C   0  0  0  0  0  0  0  0  0  0  0  0
  139.0174  137.4806  154.8698 C   0  0  0  0  0  0  0  0  0  0  0  0
  139.9315  138.6979  155.0147 C   0  0  1  0  0  0  0  0  0  0  0  0
  141.0686  138.5000  156.0324 C   0  0  0  0  0  0  0  0  0  0  0  0
  143.7562  132.9496  150.4277 C   0  0  0  0  0  0  0  0  0  0  0  0
  144.2476  131.2839  150.5613 S   0  0  0  0  0  0  0  0  0  0  0  0
  146.8921  128.6930  152.4082 H   0  0  0  0  0  0  0  0  0  0  0  0
  146.4632  129.3361  150.8247 H   0  0  0  0  0  0  0  0  0  0  0  0
  145.2034  129.0051  152.0132 H   0  0  0  0  0  0  0  0  0  0  0  0
  146.1429  130.8139  153.5010 H   0  0  0  0  0  0  0  0  0  0  0  0
  147.3902  131.1429  152.3195 H   0  0  0  0  0  0  0  0  0  0  0  0
  145.2565  135.7534  151.1491 H   0  0  0  0  0  0  0  0  0  0  0  0
  143.5759  135.6223  150.7291 H   0  0  0  0  0  0  0  0  0  0  0  0
  143.2788  134.9041  153.2800 H   0  0  0  0  0  0  0  0  0  0  0  0
  144.8282  135.7048  153.4828 H   0  0  0  0  0  0  0  0  0  0  0  0
  143.7864  137.7394  152.5136 H   0  0  0  0  0  0  0  0  0  0  0  0
  142.3211  139.1557  152.8311 H   0  0  0  0  0  0  0  0  0  0  0  0
  140.3546  140.1420  153.4543 H   0  0  0  0  0  0  0  0  0  0  0  0
  138.7401  139.2448  152.0782 H   0  0  0  0  0  0  0  0  0  0  0  0
  139.6482  137.7526  151.9495 H   0  0  0  0  0  0  0  0  0  0  0  0
  137.4052  138.4265  153.8061 H   0  0  0  0  0  0  0  0  0  0  0  0
  137.8284  136.8522  153.1423 H   0  0  0  0  0  0  0  0  0  0  0  0
  138.3634  137.3421  155.7315 H   0  0  0  0  0  0  0  0  0  0  0  0
  139.6129  136.5741  154.7519 H   0  0  0  0  0  0  0  0  0  0  0  0
  139.3105  139.5179  155.3795 H   0  0  0  0  0  0  0  0  0  0  0  0
  141.7021  137.6511  155.7733 H   0  0  0  0  0  0  0  0  0  0  0  0
  140.6670  138.3156  157.0290 H   0  0  0  0  0  0  0  0  0  0  0  0
  141.6998  139.3870  156.0910 H   0  0  0  0  0  0  0  0  0  0  0  0
  142.9570  133.2246  149.7555 H   0  0  0  0  0  0  0  0  0  0  0  0
  1  2  1  0  0  0  0
  1 20  1  0  0  0  0
  1 21  1  0  0  0  0
  1 22  1  0  0  0  0
  2  3  1  0  0  0  0
  2 23  1  0  0  0  0
  2 24  1  0  0  0  0
  3 19  1  0  0  0  0
  3  4  2  0  0  0  0
  4  5  1  0  0  0  0
  5  6  1  0  0  0  0
  5 18  2  0  0  0  0
  6  7  1  0  0  0  0
  6 25  1  0  0  0  0
  6 26  1  0  0  0  0
  7  8  1  0  0  0  0
  7 27  1  0  0  0  0
  7 28  1  0  0  0  0
  8  9  1  0  0  0  0
  8 29  1  0  0  0  0
  9 10  2  0  0  0  0
  9 11  1  0  0  0  0
 11 12  1  0  0  0  0
 11 30  1  0  0  0  0
 12 16  1  0  0  0  0
 12 13  1  0  0  0  0
 12 31  1  0  0  0  0
 13 14  1  0  0  0  0
 13 32  1  0  0  0  0
 13 33  1  0  0  0  0
 14 15  1  0  0  0  0
 14 34  1  0  0  0  0
 14 35  1  0  0  0  0
 15 16  1  0  0  0  0
 15 36  1  0  0  0  0
 15 37  1  0  0  0  0
 16 17  1  0  0  0  0
 16 38  1  0  0  0  0
 17 39  1  0  0  0  0
 17 40  1  0  0  0  0
 17 41  1  0  0  0  0
 18 19  1  0  0  0  0
 18 42  1  0  0  0  0
M  END
> <s_m_source_file>
AV-unprocessed.smi

> <i_m_source_file_index>
933

> <i_lp_mmshare_version>
43012

> <i_f3d_flags>
0

> <s_epik_input>
W0NIM11bQ0gyXWMxbmMoW2NIXXMxKVtDSDJdW0NIMl1bTkhdQyg9TylbTkhdW0NAQEhdMltDSDJdW0NIMl1bQ0gyXVtDQEhdMltDSDNd

> <s_epik_cmdline>
J2VwaWtfcHl0aG9uJywgJy1waCcsICc3LjAnLCAnLXRuJywgJzgnLCAnLW1hJywgJzIwMCcsICctbWV0YWxfYmluZGluZycsICctaW1hZScsICc8aW5maWxlLm1hZT4nLCAnLW9tYWUnLCAnPG91dGZpbGUubWFlPic=

> <r_epik_Ionization_Penalty>
0.00203408

> <r_epik_Ionization_Penalty_Charging>
0

> <r_epik_Ionization_Penalty_Neutral>
0.00203408

> <r_epik_State_Penalty>
0.0013452

> <r_epik_Charging_Adjusted_Penalty>
0.0013452

> <i_epik_Tot_Q>
0

> <i_epik_Tot_abs_Q>
0

> <r_epik_Metal_State_Penalty>
-0

> <b_epik_Metal_Only>
0

> <s_lp_Force_Field>
OPLS_2005

> <r_lp_Energy>
20.9711

> <b_lp_Chiralities_Consistent>
1

> <s_lp_Variant>
AV-unprocessed.smi:933-2

> <Gold.Version>
5.8.1

> <Gold.Id.Protein>
6NUR|6NUR_protein|mol2

> <Gold.PLP.Fitness>
38.0615

> <Gold.PLP.PLP>
-32.4274

> <Gold.PLP.part.hbond>
-1.0000

> <Gold.PLP.part.metal>
0.0000

> <Gold.PLP.part.buried>
-5.5234

> <Gold.PLP.part.nonpolar>
-26.4518

> <Gold.PLP.part.repulsive>
0.2090

> <Gold.PLP.ligand.clash>
0.0000

> <Gold.PLP.ligand.torsion>
0.1916

> <Gold.PLP.Chemscore.Hbond>
1.0000

> <Gold.PLP.Chemscore.CHOScore>
1.0000

> <Gold.PLP.Chemscore.Metal>
0.0000

> <Gold.Chemscore.Hbonds>
donor molecule, donor type, donor heavy atom, donor atom, acceptor molecule, acceptor atom, score
      L1  H    11    30       P1 10175  1.00
      L1  C    18    42       P1 10186  1.00

> <Gold.PLP.Chemscore.Internal.Correction>
0.0173

> <Gold.Rescore>
     Score         DG    S(hbond)    S(metal)    S(lipo)     H(rot)  DE(clash)    DE(int)     intcor
     12.57     -15.04       0.97        0.00      87.81       1.55       0.01       2.46       ----

> <Gold.Chemscore.Fitness>
12.5712

> <Gold.Chemscore.DG>
-15.0366

> <Gold.Chemscore.ZeroCoef>
-5.4800

> <Gold.Chemscore.Hbond>
0.9721

> <Gold.Chemscore.Metal>
0.0000

> <Gold.Chemscore.Lipo>
87.8058

> <Gold.Chemscore.Internal_Hbond>
0.0000

> <Gold.Chemscore.DEClash>
0.0077

> <Gold.Chemscore.DEInternal>
2.4576

> <Gold.Chemscore.Rot>
1.5482

> <Gold.Chemscore.Internal.Correction>
   9.000000E+99

> <Gold.Chemscore.Hbonds>
donor molecule, donor type, donor heavy atom, donor atom, acceptor molecule, acceptor atom, score
      L1  H    11    30       P1 10175  0.98

> <Gold.Chemscore.Hbond.Weighted>
-3.2468

> <Gold.Chemscore.Metal.Weighted>
-0.0000

> <Gold.Chemscore.Lipo.Weighted>
-10.2733

> <Gold.Chemscore.Internal_Hbond.Weighted>
0.0000

> <Gold.Chemscore.DEClash.Weighted>
0.0077

> <Gold.Chemscore.DEInternal.Weighted>
2.4576

> <Gold.Chemscore.Rot.Weighted>
3.9635

> <Gold.Chemscore.Internal.Correction.Weighted>
   9.000000E+99

> <Gold.Protein.RotatedTorsions>
[ 6907 6896 6895 6894 ] final   -1.32 input  -60.11 | X-H torsion
[ 7974 7965 7964 7962 ] final  -21.39 input  175.53 | X-H torsion
[ 8008 7997 7996 7995 ] final   39.00 input   59.86 | X-H torsion
[ 10167 10162 10161 10158 ] final  -54.10 input  -65.29 | X-H torsion
[ 10718 10713 10712 10709 ] final  -90.27 input   66.30 | X-H torsion
[ 10763 10752 10751 10750 ] final  163.41 input  -60.55 | X-H torsion
[ 11005 11000 10999 10996 ] final  143.81 input  -57.11 | X-H torsion

> <Gold.Protein.ActiveResidues>
 VAL166  LYS551  ARG553  GLY616  TRP617  ASP618  TYR619  PRO620  LYS621  CYS622 
 ASP623  PHE694  ASN695  SER759  ASP760  ASP761  ALA762  ILE779  LEU786  VAL792 
 PHE793  MET794  SER795  GLU796  ALA797  LYS798  CYS799  TRP800  GLU811  SER814 

> <Gold.Protein.RotatedAtoms>
  151.5479  135.1068  159.9942 H   0  0  0  0  0  0  0  0  0  0  0  0  # atno 6907 bound_to 6896
  152.4505  133.7615  159.6760 H   0  0  0  0  0  0  0  0  0  0  0  0  # atno 6908 bound_to 6896
  150.8432  133.7836  159.3077 H   0  0  0  0  0  0  0  0  0  0  0  0  # atno 6909 bound_to 6896
  146.1736  140.4334  142.8522 H   0  0  0  0  0  0  0  0  0  0  0  0  # atno 7974 bound_to 7965
  155.2294  140.3337  155.4305 H   0  0  0  0  0  0  0  0  0  0  0  0  # atno 8008 bound_to 7997
  156.2301  140.1847  156.7310 H   0  0  0  0  0  0  0  0  0  0  0  0  # atno 8009 bound_to 7997
  154.5963  140.0630  156.9294 H   0  0  0  0  0  0  0  0  0  0  0  0  # atno 8010 bound_to 7997
  140.6449  143.2529  151.4888 H   0  0  0  0  0  0  0  0  0  0  0  0  # atno 10167 bound_to 10162
  155.9987  130.4903  150.5297 H   0  0  0  0  0  0  0  0  0  0  0  0  # atno 10718 bound_to 10713
  154.2932  135.2760  155.2645 H   0  0  0  0  0  0  0  0  0  0  0  0  # atno 10763 bound_to 10752
  154.5115  135.5781  153.6612 H   0  0  0  0  0  0  0  0  0  0  0  0  # atno 10764 bound_to 10752
  152.9911  135.6182  154.3098 H   0  0  0  0  0  0  0  0  0  0  0  0  # atno 10765 bound_to 10752
  140.0583  134.9218  157.1139 H   0  0  0  0  0  0  0  0  0  0  0  0  # atno 11005 bound_to 11000
  144.8201  140.6534  143.6359 LP  0  0  0  0  0  0  0  0  0  0  0  0  # atno 17320 bound_to 7965
  145.4274  139.1554  143.4041 LP  0  0  0  0  0  0  0  0  0  0  0  0  # atno 17321 bound_to 7965
  139.5659  144.2044  152.1764 LP  0  0  0  0  0  0  0  0  0  0  0  0  # atno 17342 bound_to 10162
  140.1326  144.5275  150.6793 LP  0  0  0  0  0  0  0  0  0  0  0  0  # atno 17343 bound_to 10162
  157.3248  131.0688  151.1905 LP  0  0  0  0  0  0  0  0  0  0  0  0  # atno 17370 bound_to 10713
  157.2806  130.6748  149.6064 LP  0  0  0  0  0  0  0  0  0  0  0  0  # atno 17371 bound_to 10713
  140.3810  134.2287  155.7171 LP  0  0  0  0  0  0  0  0  0  0  0  0  # atno 17394 bound_to 11000
  141.1962  133.8088  157.0683 LP  0  0  0  0  0  0  0  0  0  0  0  0  # atno 17395 bound_to 11000

$$$$
