AV-unprocessed.smi:3014|AV-procd|sdf|11468|dock2
  -GOLD-   2272016403D 1   1.00000     0.00000
 Structure written by MMmdl.
 45 46  0  0  0  0  0  0  0  0  1 V2000
  151.3373  144.1502  159.3254 C   0  0  0  0  0  0  0  0  0  0  0  0
  151.8885  142.9167  160.0548 C   0  0  2  0  0  0  0  0  0  0  0  0
  152.9138  143.3132  161.1348 C   0  0  0  0  0  0  0  0  0  0  0  0
  153.4746  142.0797  161.8601 C   0  0  0  0  0  0  0  0  0  0  0  0
  154.0855  141.0821  160.8648 C   0  0  0  0  0  0  0  0  0  0  0  0
  153.0618  140.6653  159.7960 C   0  0  2  0  0  0  0  0  0  0  0  0
  153.7316  139.8032  158.8783 O   0  0  0  0  0  0  0  0  0  0  0  0
  153.1661  138.5067  158.6989 C   0  0  0  0  0  0  0  0  0  0  0  0
  153.8213  137.4878  159.6380 C   0  0  0  0  0  0  0  0  0  0  0  0
  153.7932  136.2911  159.3501 O   0  0  0  0  0  0  0  0  0  0  0  0
  154.4009  137.9986  160.7402 N   0  0  0  0  0  0  0  0  0  0  0  0
  155.0852  137.3041  161.7718 C   0  0  0  0  0  0  0  0  0  0  0  0
  155.3821  138.0563  162.9285 C   0  0  0  0  0  0  0  0  0  0  0  0
  156.0594  137.3920  163.9692 C   0  0  0  0  0  0  0  0  0  0  0  0
  156.4127  136.0942  163.8723 N   0  0  0  0  0  0  0  0  0  0  0  0
  156.0952  135.4534  162.7407 C   0  0  0  0  0  0  0  0  0  0  0  0
  156.4595  134.1080  162.6352 N   0  0  0  0  0  0  0  0  0  0  0  0
  156.3603  133.3973  161.3632 C   0  0  0  0  0  0  0  0  0  0  0  0
  156.9457  133.3630  163.7928 C   0  0  0  0  0  0  0  0  0  0  0  0
  155.4538  136.0015  161.7005 N   0  0  0  0  0  0  0  0  0  0  0  0
  152.5060  141.9064  159.0674 C   0  0  0  0  0  0  0  0  0  0  0  0
  152.1298  144.6928  158.8086 H   0  0  0  0  0  0  0  0  0  0  0  0
  150.8631  144.8399  160.0240 H   0  0  0  0  0  0  0  0  0  0  0  0
  150.5896  143.8672  158.5839 H   0  0  0  0  0  0  0  0  0  0  0  0
  151.0494  142.4276  160.5522 H   0  0  0  0  0  0  0  0  0  0  0  0
  153.7341  143.8694  160.6788 H   0  0  0  0  0  0  0  0  0  0  0  0
  152.4519  143.9844  161.8598 H   0  0  0  0  0  0  0  0  0  0  0  0
  154.2263  142.3858  162.5882 H   0  0  0  0  0  0  0  0  0  0  0  0
  152.6781  141.5921  162.4234 H   0  0  0  0  0  0  0  0  0  0  0  0
  154.9566  141.5321  160.3866 H   0  0  0  0  0  0  0  0  0  0  0  0
  154.4453  140.2010  161.3973 H   0  0  0  0  0  0  0  0  0  0  0  0
  152.2455  140.1437  160.2977 H   0  0  0  0  0  0  0  0  0  0  0  0
  152.0833  138.5256  158.8263 H   0  0  0  0  0  0  0  0  0  0  0  0
  153.3561  138.1915  157.6729 H   0  0  0  0  0  0  0  0  0  0  0  0
  154.3461  139.0004  160.8511 H   0  0  0  0  0  0  0  0  0  0  0  0
  155.1046  139.0964  163.0195 H   0  0  0  0  0  0  0  0  0  0  0  0
  156.3187  137.9051  164.8834 H   0  0  0  0  0  0  0  0  0  0  0  0
  156.9959  133.8701  160.6136 H   0  0  0  0  0  0  0  0  0  0  0  0
  155.3324  133.4098  160.9991 H   0  0  0  0  0  0  0  0  0  0  0  0
  156.6684  132.3557  161.4521 H   0  0  0  0  0  0  0  0  0  0  0  0
  156.1845  133.3351  164.5730 H   0  0  0  0  0  0  0  0  0  0  0  0
  157.8402  133.8346  164.2010 H   0  0  0  0  0  0  0  0  0  0  0  0
  157.2002  132.3340  163.5387 H   0  0  0  0  0  0  0  0  0  0  0  0
  151.7527  141.6097  158.3376 H   0  0  0  0  0  0  0  0  0  0  0  0
  153.3073  142.3868  158.5039 H   0  0  0  0  0  0  0  0  0  0  0  0
  1  2  1  0  0  0  0
  1 22  1  0  0  0  0
  1 23  1  0  0  0  0
  1 24  1  0  0  0  0
  2 21  1  0  0  0  0
  2  3  1  0  0  0  0
  2 25  1  0  0  0  0
  3  4  1  0  0  0  0
  3 26  1  0  0  0  0
  3 27  1  0  0  0  0
  4  5  1  0  0  0  0
  4 28  1  0  0  0  0
  4 29  1  0  0  0  0
  5  6  1  0  0  0  0
  5 30  1  0  0  0  0
  5 31  1  0  0  0  0
  6  7  1  0  0  0  0
  6 21  1  0  0  0  0
  6 32  1  0  0  0  0
  7  8  1  0  0  0  0
  8  9  1  0  0  0  0
  8 33  1  0  0  0  0
  8 34  1  0  0  0  0
  9 10  2  0  0  0  0
  9 11  1  0  0  0  0
 11 12  1  0  0  0  0
 11 35  1  0  0  0  0
 12 20  1  0  0  0  0
 12 13  2  0  0  0  0
 13 14  1  0  0  0  0
 13 36  1  0  0  0  0
 14 15  2  0  0  0  0
 14 37  1  0  0  0  0
 15 16  1  0  0  0  0
 16 17  1  0  0  0  0
 16 20  2  0  0  0  0
 17 18  1  0  0  0  0
 17 19  1  0  0  0  0
 18 38  1  0  0  0  0
 18 39  1  0  0  0  0
 18 40  1  0  0  0  0
 19 41  1  0  0  0  0
 19 42  1  0  0  0  0
 19 43  1  0  0  0  0
 21 44  1  0  0  0  0
 21 45  1  0  0  0  0
M  END
> <s_m_source_file>
AV-unprocessed.smi

> <i_m_source_file_index>
3014

> <i_lp_mmshare_version>
43012

> <i_f3d_flags>
0

> <s_epik_input>
W0NIM11bQ0BASF0xW0NIMl1bQ0gyXVtDSDJdW0NASF0oW0NIMl0xKU9bQ0gyXUMoPU8pW05IXWMyW2NIXVtjSF1uYyhuMilOKFtDSDNdKVtDSDNd

> <s_epik_cmdline>
J2VwaWtfcHl0aG9uJywgJy1waCcsICc3LjAnLCAnLXRuJywgJzgnLCAnLW1hJywgJzIwMCcsICctbWV0YWxfYmluZGluZycsICctaW1hZScsICc8aW5maWxlLm1hZT4nLCAnLW9tYWUnLCAnPG91dGZpbGUubWFlPic=

> <r_lp_tautomer_probability>
1

> <r_epik_Ionization_Penalty>
0.000308195

> <r_epik_Ionization_Penalty_Charging>
0

> <r_epik_Ionization_Penalty_Neutral>
0.000308195

> <r_epik_State_Penalty>
-0

> <r_epik_Charging_Adjusted_Penalty>
0

> <i_epik_Tot_Q>
0

> <i_epik_Tot_abs_Q>
0

> <r_epik_Metal_State_Penalty>
-0

> <b_epik_Metal_Only>
0

> <s_lp_Force_Field>
OPLS_2005

> <r_lp_Energy>
8.92974

> <b_lp_Chiralities_Consistent>
1

> <s_lp_Variant>
AV-unprocessed.smi:3014-3

> <Gold.Version>
5.8.1

> <Gold.Id.Protein>
6NUR|6NUR_protein|mol2

> <Gold.PLP.Fitness>
45.4338

> <Gold.PLP.PLP>
-42.2787

> <Gold.PLP.part.hbond>
-2.0000

> <Gold.PLP.part.metal>
0.0000

> <Gold.PLP.part.buried>
-5.8138

> <Gold.PLP.part.nonpolar>
-34.2143

> <Gold.PLP.part.repulsive>
0.1274

> <Gold.PLP.ligand.clash>
0.0000

> <Gold.PLP.ligand.torsion>
1.3721

> <Gold.PLP.Chemscore.Hbond>
1.9600

> <Gold.PLP.Chemscore.CHOScore>
0.0000

> <Gold.PLP.Chemscore.Metal>
0.0000

> <Gold.Chemscore.Hbonds>
donor molecule, donor type, donor heavy atom, donor atom, acceptor molecule, acceptor atom, score
      P1  H  6896  6907       L1    10  0.41
      P1  H  7997  8010       L1     7  1.00

> <Gold.PLP.Chemscore.Internal.Correction>
0.0193

> <Gold.Rescore>
     Score         DG    S(hbond)    S(metal)    S(lipo)     H(rot)  DE(clash)    DE(int)     intcor
     17.71     -20.28       1.90        0.00     103.49       1.43       0.02       2.55       ----

> <Gold.Chemscore.Fitness>
17.7106

> <Gold.Chemscore.DG>
-20.2826

> <Gold.Chemscore.ZeroCoef>
-5.4800

> <Gold.Chemscore.Hbond>
1.9036

> <Gold.Chemscore.Metal>
0.0000

> <Gold.Chemscore.Lipo>
103.4857

> <Gold.Chemscore.Internal_Hbond>
0.0000

> <Gold.Chemscore.DEClash>
0.0202

> <Gold.Chemscore.DEInternal>
2.5518

> <Gold.Chemscore.Rot>
1.4310

> <Gold.Chemscore.Internal.Correction>
   9.000000E+99

> <Gold.Chemscore.Hbonds>
donor molecule, donor type, donor heavy atom, donor atom, acceptor molecule, acceptor atom, score
      P1  H  6896  6907       L1    10  0.40
      P1  H  7997  8010       L1     7  0.38

> <Gold.Chemscore.Hbond.Weighted>
-6.3581

> <Gold.Chemscore.Metal.Weighted>
-0.0000

> <Gold.Chemscore.Lipo.Weighted>
-12.1078

> <Gold.Chemscore.Internal_Hbond.Weighted>
0.0000

> <Gold.Chemscore.DEClash.Weighted>
0.0202

> <Gold.Chemscore.DEInternal.Weighted>
2.5518

> <Gold.Chemscore.Rot.Weighted>
3.6632

> <Gold.Chemscore.Internal.Correction.Weighted>
   9.000000E+99

> <Gold.Protein.RotatedTorsions>
[ 6907 6896 6895 6894 ] final   28.29 input  -60.11 | X-H torsion
[ 7974 7965 7964 7962 ] final -132.72 input  175.53 | X-H torsion
[ 8008 7997 7996 7995 ] final   15.63 input   59.86 | X-H torsion
[ 10167 10162 10161 10158 ] final  104.71 input  -65.29 | X-H torsion
[ 10718 10713 10712 10709 ] final -139.47 input   66.30 | X-H torsion
[ 10763 10752 10751 10750 ] final   86.83 input  -60.55 | X-H torsion
[ 11005 11000 10999 10996 ] final  -84.01 input  -57.11 | X-H torsion

> <Gold.Protein.ActiveResidues>
 VAL166  LYS551  ARG553  GLY616  TRP617  ASP618  TYR619  PRO620  LYS621  CYS622 
 ASP623  PHE694  ASN695  SER759  ASP760  ASP761  ALA762  ILE779  LEU786  VAL792 
 PHE793  MET794  SER795  GLU796  ALA797  LYS798  CYS799  TRP800  GLU811  SER814 

> <Gold.Protein.RotatedAtoms>
  152.0148  134.9856  160.0568 H   0  0  0  0  0  0  0  0  0  0  0  0  # atno 6907 bound_to 6896
  152.1394  133.4450  159.4768 H   0  0  0  0  0  0  0  0  0  0  0  0  # atno 6908 bound_to 6896
  150.6863  134.2242  159.4452 H   0  0  0  0  0  0  0  0  0  0  0  0  # atno 6909 bound_to 6896
  144.9260  140.7071  143.4936 H   0  0  0  0  0  0  0  0  0  0  0  0  # atno 7974 bound_to 7965
  154.8654  140.2950  155.5513 H   0  0  0  0  0  0  0  0  0  0  0  0  # atno 8008 bound_to 7997
  156.3020  140.2470  156.3568 H   0  0  0  0  0  0  0  0  0  0  0  0  # atno 8009 bound_to 7997
  154.8873  140.0395  157.1807 H   0  0  0  0  0  0  0  0  0  0  0  0  # atno 8010 bound_to 7997
  139.7154  144.7069  151.0958 H   0  0  0  0  0  0  0  0  0  0  0  0  # atno 10167 bound_to 10162
  156.3111  130.7482  151.1558 H   0  0  0  0  0  0  0  0  0  0  0  0  # atno 10718 bound_to 10713
  153.1609  135.4566  154.9770 H   0  0  0  0  0  0  0  0  0  0  0  0  # atno 10763 bound_to 10752
  154.7897  135.3216  154.7809 H   0  0  0  0  0  0  0  0  0  0  0  0  # atno 10764 bound_to 10752
  153.8299  135.6939  153.4870 H   0  0  0  0  0  0  0  0  0  0  0  0  # atno 10765 bound_to 10752
  141.1654  133.7324  156.8805 H   0  0  0  0  0  0  0  0  0  0  0  0  # atno 11005 bound_to 11000
  145.3219  139.1786  143.4583 LP  0  0  0  0  0  0  0  0  0  0  0  0  # atno 17320 bound_to 7965
  146.3226  140.3238  142.8635 LP  0  0  0  0  0  0  0  0  0  0  0  0  # atno 17321 bound_to 7965
  140.7742  143.5236  150.9506 LP  0  0  0  0  0  0  0  0  0  0  0  0  # atno 17342 bound_to 10162
  139.8922  143.6939  152.3143 LP  0  0  0  0  0  0  0  0  0  0  0  0  # atno 17343 bound_to 10162
  157.7391  131.0533  150.5252 LP  0  0  0  0  0  0  0  0  0  0  0  0  # atno 17370 bound_to 10713
  156.5392  130.4204  149.6162 LP  0  0  0  0  0  0  0  0  0  0  0  0  # atno 17371 bound_to 10713
  140.1718  134.9095  157.2842 LP  0  0  0  0  0  0  0  0  0  0  0  0  # atno 17394 bound_to 11000
  140.2494  134.3701  155.7448 LP  0  0  0  0  0  0  0  0  0  0  0  0  # atno 17395 bound_to 11000

$$$$
