AV-unprocessed.smi:1381|AV-procd|sdf|5610|dock7
  -GOLD-   22720 5223D 1   1.00000     0.00000
 Structure written by MMmdl.
 41 42  0  0  0  0  0  0  0  0  2 V2000
  148.1259  133.4699  155.0616 C   0  0  0  0  0  0  0  0  0  0  0  0
  148.9785  134.6868  155.1734 C   0  0  0  0  0  0  0  0  0  0  0  0
  150.2475  134.9747  154.7578 C   0  0  0  0  0  0  0  0  0  0  0  0
  150.4336  136.3169  155.1879 C   0  0  0  0  0  0  0  0  0  0  0  0
  151.5454  137.0497  155.0214 N   0  5  0  0  0  0  0  0  0  0  0  0
  151.5143  138.3885  155.2160 C   0  0  0  0  0  0  0  0  0  0  0  0
  151.2465  139.2442  154.3691 O   0  0  0  0  0  0  0  0  0  0  0  0
  151.8185  138.7586  156.4683 N   0  0  0  0  0  0  0  0  0  0  0  0
  151.8822  140.1291  156.9632 C   0  0  0  0  0  0  0  0  0  0  0  0
  152.5916  140.1970  158.3290 C   0  0  0  0  0  0  0  0  0  0  0  0
  152.6022  141.5184  158.9547 N   0  0  0  0  0  0  0  0  0  0  0  0
  152.8366  141.4124  160.3888 C   0  0  0  0  0  0  0  0  0  0  0  0
  152.8995  142.7934  161.0651 C   0  0  2  0  0  0  0  0  0  0  0  0
  153.0684  142.6839  162.5840 C   0  0  0  0  0  0  0  0  0  0  0  0
  151.6911  143.5039  160.8017 O   0  0  0  0  0  0  0  0  0  0  0  0
  151.3512  143.6342  159.4201 C   0  0  1  0  0  0  0  0  0  0  0  0
  152.2350  144.6745  158.7114 C   0  0  0  0  0  0  0  0  0  0  0  0
  151.3602  142.2546  158.7304 C   0  0  0  0  0  0  0  0  0  0  0  0
  149.3771  136.7953  155.8236 N   0  0  0  0  0  0  0  0  0  0  0  0
  148.4368  135.7578  155.8129 O   0  0  0  0  0  0  0  0  0  0  0  0
  148.0112  132.9895  156.0332 H   0  0  0  0  0  0  0  0  0  0  0  0
  148.5685  132.7468  154.3763 H   0  0  0  0  0  0  0  0  0  0  0  0
  147.1336  133.7247  154.6890 H   0  0  0  0  0  0  0  0  0  0  0  0
  150.9331  134.3305  154.2283 H   0  0  0  0  0  0  0  0  0  0  0  0
  152.0290  138.0250  157.1291 H   0  0  0  0  0  0  0  0  0  0  0  0
  152.3861  140.7680  156.2362 H   0  0  0  0  0  0  0  0  0  0  0  0
  150.8574  140.4900  157.0391 H   0  0  0  0  0  0  0  0  0  0  0  0
  152.1446  139.4700  159.0090 H   0  0  0  0  0  0  0  0  0  0  0  0
  153.6233  139.8737  158.1847 H   0  0  0  0  0  0  0  0  0  0  0  0
  152.0478  140.8147  160.8485 H   0  0  0  0  0  0  0  0  0  0  0  0
  153.7730  140.8831  160.5702 H   0  0  0  0  0  0  0  0  0  0  0  0
  153.7448  143.3553  160.6669 H   0  0  0  0  0  0  0  0  0  0  0  0
  153.9878  142.1565  162.8389 H   0  0  0  0  0  0  0  0  0  0  0  0
  152.2360  142.1444  163.0363 H   0  0  0  0  0  0  0  0  0  0  0  0
  153.1140  143.6717  163.0429 H   0  0  0  0  0  0  0  0  0  0  0  0
  150.3299  144.0149  159.3915 H   0  0  0  0  0  0  0  0  0  0  0  0
  151.8909  144.8425  157.6907 H   0  0  0  0  0  0  0  0  0  0  0  0
  153.2761  144.3577  158.6552 H   0  0  0  0  0  0  0  0  0  0  0  0
  152.2040  145.6314  159.2325 H   0  0  0  0  0  0  0  0  0  0  0  0
  151.1843  142.3932  157.6643 H   0  0  0  0  0  0  0  0  0  0  0  0
  150.5206  141.6682  159.1069 H   0  0  0  0  0  0  0  0  0  0  0  0
  1  2  1  0  0  0  0
  1 21  1  0  0  0  0
  1 22  1  0  0  0  0
  1 23  1  0  0  0  0
  2 20  1  0  0  0  0
  2  3  2  0  0  0  0
  3  4  1  0  0  0  0
  3 24  1  0  0  0  0
  4  5  1  0  0  0  0
  4 19  2  0  0  0  0
  5  6  1  0  0  0  0
  6  7  2  0  0  0  0
  6  8  1  0  0  0  0
  8  9  1  0  0  0  0
  8 25  1  0  0  0  0
  9 10  1  0  0  0  0
  9 26  1  0  0  0  0
  9 27  1  0  0  0  0
 10 11  1  0  0  0  0
 10 28  1  0  0  0  0
 10 29  1  0  0  0  0
 11 18  1  0  0  0  0
 11 12  1  0  0  0  0
 12 13  1  0  0  0  0
 12 30  1  0  0  0  0
 12 31  1  0  0  0  0
 13 14  1  0  0  0  0
 13 15  1  0  0  0  0
 13 32  1  0  0  0  0
 14 33  1  0  0  0  0
 14 34  1  0  0  0  0
 14 35  1  0  0  0  0
 15 16  1  0  0  0  0
 16 17  1  0  0  0  0
 16 18  1  0  0  0  0
 16 36  1  0  0  0  0
 17 37  1  0  0  0  0
 17 38  1  0  0  0  0
 17 39  1  0  0  0  0
 18 40  1  0  0  0  0
 18 41  1  0  0  0  0
 19 20  1  0  0  0  0
M  CHG  1   5  -1
M  END
> <s_m_source_file>
AV-unprocessed.smi

> <i_m_source_file_index>
1381

> <i_lp_mmshare_version>
43012

> <i_f3d_flags>
0

> <s_epik_input>
W0NIM11jMVtjSF1jKG5vMSlbTkhdQyg9TylbTkhdW0NIMl1bQ0gyXU4yW0NIMl1bQ0BASF0oW0NIM10pT1tDQEBIXShbQ0gzXSlbQ0gyXTI=

> <s_epik_cmdline>
J2VwaWtfcHl0aG9uJywgJy1waCcsICc3LjAnLCAnLXRuJywgJzgnLCAnLW1hJywgJzIwMCcsICctbWV0YWxfYmluZGluZycsICctaW1hZScsICc8aW5maWxlLm1hZT4nLCAnLW9tYWUnLCAnPG91dGZpbGUubWFlPic=

> <r_epik_Ionization_Penalty>
6.88366

> <r_epik_Ionization_Penalty_Charging>
6.57198

> <r_epik_Ionization_Penalty_Neutral>
0.311678

> <r_epik_State_Penalty>
6.77619

> <r_epik_Charging_Adjusted_Penalty>
13.3482

> <i_epik_Tot_Q>
-1

> <i_epik_Tot_abs_Q>
1

> <r_epik_Metal_State_Penalty>
2.70524

> <b_epik_Metal_Only>
1

> <s_lp_Force_Field>
OPLS_2005

> <r_lp_Energy>
15.7401

> <b_lp_Chiralities_Consistent>
1

> <s_lp_Variant>
AV-unprocessed.smi:1381-9

> <Gold.Version>
5.8.1

> <Gold.Id.Protein>
6NUR|6NUR_protein|mol2

> <Gold.PLP.Fitness>
43.4726

> <Gold.PLP.PLP>
-36.6423

> <Gold.PLP.part.hbond>
-2.0552

> <Gold.PLP.part.metal>
0.0000

> <Gold.PLP.part.buried>
-4.9073

> <Gold.PLP.part.nonpolar>
-30.1235

> <Gold.PLP.part.repulsive>
0.5894

> <Gold.PLP.ligand.clash>
0.0000

> <Gold.PLP.ligand.torsion>
1.1081

> <Gold.PLP.Chemscore.Hbond>
3.0000

> <Gold.PLP.Chemscore.CHOScore>
0.0000

> <Gold.PLP.Chemscore.Metal>
0.0000

> <Gold.Chemscore.Hbonds>
donor molecule, donor type, donor heavy atom, donor atom, acceptor molecule, acceptor atom, score
      P1  H  7989  7998       L1     7  1.00
      P1  H 10752 10763       L1     5  1.76

> <Gold.PLP.Chemscore.Internal.Correction>
0.0465

> <Gold.Rescore>
     Score         DG    S(hbond)    S(metal)    S(lipo)     H(rot)  DE(clash)    DE(int)     intcor
     16.88     -18.11       1.77        0.00      91.20       1.54       0.12       1.11       ----

> <Gold.Chemscore.Fitness>
16.8814

> <Gold.Chemscore.DG>
-18.1116

> <Gold.Chemscore.ZeroCoef>
-5.4800

> <Gold.Chemscore.Hbond>
1.7683

> <Gold.Chemscore.Metal>
0.0000

> <Gold.Chemscore.Lipo>
91.1986

> <Gold.Chemscore.Internal_Hbond>
0.0000

> <Gold.Chemscore.DEClash>
0.1175

> <Gold.Chemscore.DEInternal>
1.1126

> <Gold.Chemscore.Rot>
1.5409

> <Gold.Chemscore.Internal.Correction>
   9.000000E+99

> <Gold.Chemscore.Hbonds>
donor molecule, donor type, donor heavy atom, donor atom, acceptor molecule, acceptor atom, score
      P1  H  7989  7998       L1     7  1.00
      P1  H 10752 10763       L1     5  0.32

> <Gold.Chemscore.Hbond.Weighted>
-5.9060

> <Gold.Chemscore.Metal.Weighted>
-0.0000

> <Gold.Chemscore.Lipo.Weighted>
-10.6702

> <Gold.Chemscore.Internal_Hbond.Weighted>
0.0000

> <Gold.Chemscore.DEClash.Weighted>
0.1175

> <Gold.Chemscore.DEInternal.Weighted>
1.1126

> <Gold.Chemscore.Rot.Weighted>
3.9446

> <Gold.Chemscore.Internal.Correction.Weighted>
   9.000000E+99

> <Gold.Protein.RotatedTorsions>
[ 6907 6896 6895 6894 ] final   19.78 input  -60.11 | X-H torsion
[ 7974 7965 7964 7962 ] final -178.08 input  175.53 | X-H torsion
[ 8008 7997 7996 7995 ] final  -71.74 input   59.86 | X-H torsion
[ 10167 10162 10161 10158 ] final   82.22 input  -65.29 | X-H torsion
[ 10718 10713 10712 10709 ] final -105.06 input   66.30 | X-H torsion
[ 10763 10752 10751 10750 ] final   44.50 input  -60.55 | X-H torsion
[ 11005 11000 10999 10996 ] final   -9.98 input  -57.11 | X-H torsion

> <Gold.Protein.ActiveResidues>
 VAL166  LYS551  ARG553  GLY616  TRP617  ASP618  TYR619  PRO620  LYS621  CYS622 
 ASP623  PHE694  ASN695  SER759  ASP760  ASP761  ALA762  ILE779  LEU786  VAL792 
 PHE793  MET794  SER795  GLU796  ALA797  LYS798  CYS799  TRP800  GLU811  SER814 

> <Gold.Protein.RotatedAtoms>
  151.8862  135.0434  160.0493 H   0  0  0  0  0  0  0  0  0  0  0  0  # atno 6907 bound_to 6896
  152.2473  133.5180  159.5313 H   0  0  0  0  0  0  0  0  0  0  0  0  # atno 6908 bound_to 6896
  150.7072  134.0924  159.3979 H   0  0  0  0  0  0  0  0  0  0  0  0  # atno 6909 bound_to 6896
  144.7129  140.0922  143.6421 H   0  0  0  0  0  0  0  0  0  0  0  0  # atno 7974 bound_to 7965
  154.5111  140.0810  156.7992 H   0  0  0  0  0  0  0  0  0  0  0  0  # atno 8008 bound_to 7997
  155.3783  140.3426  155.4227 H   0  0  0  0  0  0  0  0  0  0  0  0  # atno 8009 bound_to 7997
  156.1574  140.1577  156.8657 H   0  0  0  0  0  0  0  0  0  0  0  0  # atno 8010 bound_to 7997
  139.9310  144.6151  150.8344 H   0  0  0  0  0  0  0  0  0  0  0  0  # atno 10167 bound_to 10162
  156.0330  130.5545  150.7485 H   0  0  0  0  0  0  0  0  0  0  0  0  # atno 10718 bound_to 10713
  152.9840  135.6069  154.3284 H   0  0  0  0  0  0  0  0  0  0  0  0  # atno 10763 bound_to 10752
  154.2989  135.2773  155.2622 H   0  0  0  0  0  0  0  0  0  0  0  0  # atno 10764 bound_to 10752
  154.4883  135.5899  153.6497 H   0  0  0  0  0  0  0  0  0  0  0  0  # atno 10765 bound_to 10752
  140.7399  133.8679  155.8959 H   0  0  0  0  0  0  0  0  0  0  0  0  # atno 11005 bound_to 11000
  145.9610  139.2801  143.1155 LP  0  0  0  0  0  0  0  0  0  0  0  0  # atno 17320 bound_to 7965
  145.9220  140.9108  143.0400 LP  0  0  0  0  0  0  0  0  0  0  0  0  # atno 17321 bound_to 7965
  140.7637  143.3230  151.2579 LP  0  0  0  0  0  0  0  0  0  0  0  0  # atno 17342 bound_to 10162
  139.6782  143.9901  152.2793 LP  0  0  0  0  0  0  0  0  0  0  0  0  # atno 17343 bound_to 10162
  157.5036  131.0920  151.0284 LP  0  0  0  0  0  0  0  0  0  0  0  0  # atno 17370 bound_to 10713
  157.0659  130.5844  149.5394 LP  0  0  0  0  0  0  0  0  0  0  0  0  # atno 17371 bound_to 10713
  140.9846  134.1360  157.4464 LP  0  0  0  0  0  0  0  0  0  0  0  0  # atno 17394 bound_to 11000
  139.8808  135.0021  156.6108 LP  0  0  0  0  0  0  0  0  0  0  0  0  # atno 17395 bound_to 11000

$$$$
