#       Name:                AV-unprocessed.smi:1416
#       Creating user name   scv26
#       Creation time:       Fri Mar 27 05:40:28 2020


#       File generated by GOLD software.
#

@<TRIPOS>MOLECULE
AV-unprocessed.smi:1416
    50    51     1
SMALL
NO_CHARGES


@<TRIPOS>ATOM
      1 ****        -7.3758  -1.3874  -1.4192 C.3            1 S1                 0.0000
      2 ****        -6.5118  -2.4495  -0.7340 C.3            1 S1                 0.0000
      3 ****        -4.7453  -2.0770  -0.8957 S.3            1 S1                 0.0000
      4 ****        -4.0546  -3.4932   0.0078 C.3            1 S1                 0.0000
      5 ****        -2.5159  -3.4637   0.0567 C.3            1 S1                 0.0000
      6 ****        -1.9480  -2.3674   0.9656 C.2            1 S1                 0.0000
      7 ****        -2.5011  -2.0862   2.0293 O.2            1 S1                 0.0000
      8 ****        -0.8344  -1.7580   0.5343 N.am           1 S1                 0.0000
      9 ****        -0.1403  -0.6945   1.2503 C.3            1 S1                 0.0000
     10 ****         1.2666  -0.4448   0.7322 C.ar           1 S1                 0.0000
     11 ****         2.0849  -1.5018   0.2818 C.ar           1 S1                 0.0000
     12 ****         3.3829  -1.1977  -0.1677 C.ar           1 S1                 0.0000
     13 ****         3.8837   0.0549  -0.1914 N.ar           1 S1                 0.0000
     14 ****         3.1069   1.0806   0.2373 C.ar           1 S1                 0.0000
     15 ****         3.6436   2.3863   0.2033 N.3            1 S1                 0.0000
     16 ****         2.8278   3.3868  -0.4810 C.3            1 S1                 0.0000
     17 ****         3.3580   4.8015  -0.1903 C.3            1 S1                 0.0000
     18 ****         4.7366   4.8816  -0.5370 O.3            1 S1                 0.0000
     19 ****         5.5269   3.9754   0.2254 C.3            1 S1                 0.0000
     20 ****         5.0753   2.5322  -0.0550 C.3            1 S1                 0.0000
     21 ****         1.7918   0.8639   0.7150 C.ar           1 S1                 0.0000
     22 ****        -8.4351  -1.6224  -1.3147 H              1 S1                 0.0000
     23 ****        -7.1519  -1.3259  -2.4845 H              1 S1                 0.0000
     24 ****        -7.2083  -0.4026  -0.9824 H              1 S1                 0.0000
     25 ****        -6.7647  -2.5099   0.3249 H              1 S1                 0.0000
     26 ****        -6.7086  -3.4296  -1.1692 H              1 S1                 0.0000
     27 ****        -4.4794  -3.5227   1.0121 H              1 S1                 0.0000
     28 ****        -4.3825  -4.4048  -0.4923 H              1 S1                 0.0000
     29 ****        -2.1514  -4.4201   0.4327 H              1 S1                 0.0000
     30 ****        -2.1165  -3.3588  -0.9534 H              1 S1                 0.0000
     31 ****        -0.4405  -2.0472  -0.3494 H              1 S1                 0.0000
     32 ****        -0.7291   0.2207   1.1727 H              1 S1                 0.0000
     33 ****        -0.0703  -0.9415   2.3108 H              1 S1                 0.0000
     34 ****         1.7380  -2.5246   0.2867 H              1 S1                 0.0000
     35 ****         4.0382  -1.9822  -0.5160 H              1 S1                 0.0000
     36 ****         2.8591   3.1906  -1.5537 H              1 S1                 0.0000
     37 ****         1.7825   3.3323  -0.1800 H              1 S1                 0.0000
     38 ****         2.8027   5.5366  -0.7732 H              1 S1                 0.0000
     39 ****         3.2203   5.0595   0.8612 H              1 S1                 0.0000
     40 ****         6.5744   4.1006  -0.0482 H              1 S1                 0.0000
     41 ****         5.4450   4.2093   1.2881 H              1 S1                 0.0000
     42 ****         5.6445   1.8475   0.5751 H              1 S1                 0.0000
     43 ****         5.2841   2.2713  -1.0935 H              1 S1                 0.0000
     44 ****         1.1901   1.6840   1.0775 H              1 S1                 0.0000
     45 ****        -3.3283  -2.5746   2.3071 LP             1 S1                 0.0000
     46 ****        -2.1229  -1.3696   2.6153 LP             1 S1                 0.0000
     47 ****         4.8129   0.2242  -0.5198 LP             1 S1                 0.0000
     48 ****         3.5797   2.6059   1.1768 LP             1 S1                 0.0000
     49 ****         5.0592   5.8130  -0.3687 LP             1 S1                 0.0000
     50 ****         4.8396   4.6634  -1.5075 LP             1 S1                 0.0000
@<TRIPOS>BOND
    1    1    2 1     
    2    1   22 1     
    3    1   23 1     
    4    1   24 1     
    5    2    3 1     
    6    2   25 1     
    7    2   26 1     
    8    3    4 1     
    9    4    5 1     
   10    4   27 1     
   11    4   28 1     
   12    5    6 1     
   13    5   29 1     
   14    5   30 1     
   15    6    7 2     
   16    6    8 am    
   17    8    9 1     
   18    8   31 1     
   19    9   10 1     
   20    9   32 1     
   21    9   33 1     
   22   10   21 ar    
   23   10   11 ar    
   24   11   12 ar    
   25   11   34 1     
   26   12   13 ar    
   27   12   35 1     
   28   13   14 ar    
   29   14   15 1     
   30   14   21 ar    
   31   15   20 1     
   32   15   16 1     
   33   16   17 1     
   34   16   36 1     
   35   16   37 1     
   36   17   18 1     
   37   17   38 1     
   38   17   39 1     
   39   18   19 1     
   40   19   20 1     
   41   19   40 1     
   42   19   41 1     
   43   20   42 1     
   44   20   43 1     
   45   21   44 1     
   46    7   45 1     
   47    7   46 1     
   48   13   47 1     
   49   15   48 1     
   50   18   49 1     
   51   18   50 1     
@<TRIPOS>SUBSTRUCTURE
      1 S1             1
@<TRIPOS>SET
LONE_PAIRS      STATIC     ATOMS    <user>   **** ""
6 45 46 47 48 49 50
DONOR_HYDROGENS      STATIC     ATOMS    <user>   **** ""
1 31
ATOM$BLUE        STATIC     ATOMS    COLORGROUP SYSTEM
6 45 46 47 48 49 50
ATOM$RED        STATIC     ATOMS    COLORGROUP SYSTEM
1 31
