AV-unprocessed.smi:837|AV-procd|sdf|3893|dock9
  -GOLD-   22720 1353D 1   1.00000     0.00000
 Structure written by MMmdl.
 49 51  0  0  0  0  0  0  0  0  1 V2000
  151.5445  139.0478  155.5268 C   0  0  0  0  0  0  0  0  0  0  0  0
  151.6736  140.2709  156.4588 C   0  0  1  0  0  0  0  0  0  0  0  0
  150.8139  141.4448  155.9420 C   0  0  0  0  0  0  0  0  0  0  0  0
  151.0002  142.7063  156.7996 C   0  0  0  0  0  0  0  0  0  0  0  0
  150.6943  142.4314  158.2787 C   0  0  0  0  0  0  0  0  0  0  0  0
  151.5425  141.2642  158.8147 C   0  0  0  0  0  0  0  0  0  0  0  0
  151.4044  139.9733  157.9681 C   0  0  2  0  0  0  0  0  0  0  0  0
  152.3140  138.9600  158.4744 N   0  0  0  0  0  0  0  0  0  0  0  0
  151.6868  137.8843  158.9660 C   0  0  0  0  0  0  0  0  0  0  0  0
  152.2414  136.9072  159.4666 O   0  0  0  0  0  0  0  0  0  0  0  0
  150.3627  138.0634  158.8176 N   0  0  0  0  0  0  0  0  0  0  0  0
  149.3418  137.1090  159.2705 C   0  0  0  0  0  0  0  0  0  0  0  0
  149.0946  135.9628  158.2783 C   0  0  0  0  0  0  0  0  0  0  0  0
  149.1972  134.7854  158.6270 O   0  0  0  0  0  0  0  0  0  0  0  0
  148.7739  136.3303  157.0288 N   0  0  0  0  0  0  0  0  0  0  0  0
  148.5043  135.4100  155.9304 C   0  0  0  0  0  0  0  0  0  0  0  0
  149.7789  134.6757  155.4832 C   0  0  0  0  0  0  0  0  0  0  0  0
  149.4653  133.3959  154.7335 C   0  0  0  0  0  0  0  0  0  0  0  0
  150.0120  132.1640  155.1481 C   0  0  0  0  0  0  0  0  0  0  0  0
  149.6877  131.0006  154.4237 C   0  0  0  0  0  0  0  0  0  0  0  0
  148.8284  131.1196  153.3131 C   0  0  0  0  0  0  0  0  0  0  0  0
  148.2985  132.2940  152.9077 N   0  0  0  0  0  0  0  0  0  0  0  0
  148.6145  133.4049  153.6076 C   0  0  0  0  0  0  0  0  0  0  0  0
  150.0881  139.2451  158.2481 C   0  0  0  0  0  0  0  0  0  0  0  0
  148.9710  139.6930  157.9885 O   0  0  0  0  0  0  0  0  0  0  0  0
  150.5216  138.6724  155.4899 H   0  0  0  0  0  0  0  0  0  0  0  0
  152.1901  138.2289  155.8440 H   0  0  0  0  0  0  0  0  0  0  0  0
  151.8320  139.3062  154.5074 H   0  0  0  0  0  0  0  0  0  0  0  0
  152.7139  140.5928  156.3868 H   0  0  0  0  0  0  0  0  0  0  0  0
  151.0830  141.6730  154.9101 H   0  0  0  0  0  0  0  0  0  0  0  0
  149.7604  141.1651  155.9228 H   0  0  0  0  0  0  0  0  0  0  0  0
  152.0252  143.0661  156.7005 H   0  0  0  0  0  0  0  0  0  0  0  0
  150.3561  143.5049  156.4305 H   0  0  0  0  0  0  0  0  0  0  0  0
  150.8892  143.3281  158.8673 H   0  0  0  0  0  0  0  0  0  0  0  0
  149.6328  142.2158  158.4011 H   0  0  0  0  0  0  0  0  0  0  0  0
  152.5893  141.5706  158.8343 H   0  0  0  0  0  0  0  0  0  0  0  0
  151.2707  141.0701  159.8537 H   0  0  0  0  0  0  0  0  0  0  0  0
  153.3168  139.0766  158.4671 H   0  0  0  0  0  0  0  0  0  0  0  0
  149.6311  136.6865  160.2343 H   0  0  0  0  0  0  0  0  0  0  0  0
  148.3975  137.6270  159.4460 H   0  0  0  0  0  0  0  0  0  0  0  0
  148.7108  137.3173  156.8242 H   0  0  0  0  0  0  0  0  0  0  0  0
  147.7331  134.6950  156.2233 H   0  0  0  0  0  0  0  0  0  0  0  0
  148.0946  135.9852  155.0994 H   0  0  0  0  0  0  0  0  0  0  0  0
  150.3807  135.3237  154.8443 H   0  0  0  0  0  0  0  0  0  0  0  0
  150.4005  134.4335  156.3466 H   0  0  0  0  0  0  0  0  0  0  0  0
  150.6660  132.1095  156.0062 H   0  0  0  0  0  0  0  0  0  0  0  0
  150.0876  130.0398  154.7126 H   0  0  0  0  0  0  0  0  0  0  0  0
  148.5589  130.2477  152.7353 H   0  0  0  0  0  0  0  0  0  0  0  0
  148.1727  134.3274  153.2603 H   0  0  0  0  0  0  0  0  0  0  0  0
  1  2  1  0  0  0  0
  1 26  1  0  0  0  0
  1 27  1  0  0  0  0
  1 28  1  0  0  0  0
  2  7  1  0  0  0  0
  2  3  1  0  0  0  0
  2 29  1  0  0  0  0
  3  4  1  0  0  0  0
  3 30  1  0  0  0  0
  3 31  1  0  0  0  0
  4  5  1  0  0  0  0
  4 32  1  0  0  0  0
  4 33  1  0  0  0  0
  5  6  1  0  0  0  0
  5 34  1  0  0  0  0
  5 35  1  0  0  0  0
  6  7  1  0  0  0  0
  6 36  1  0  0  0  0
  6 37  1  0  0  0  0
  7 24  1  0  0  0  0
  7  8  1  0  0  0  0
  8  9  1  0  0  0  0
  8 38  1  0  0  0  0
  9 10  2  0  0  0  0
  9 11  1  0  0  0  0
 11 12  1  0  0  0  0
 11 24  1  0  0  0  0
 12 13  1  0  0  0  0
 12 39  1  0  0  0  0
 12 40  1  0  0  0  0
 13 14  2  0  0  0  0
 13 15  1  0  0  0  0
 15 16  1  0  0  0  0
 15 41  1  0  0  0  0
 16 17  1  0  0  0  0
 16 42  1  0  0  0  0
 16 43  1  0  0  0  0
 17 18  1  0  0  0  0
 17 44  1  0  0  0  0
 17 45  1  0  0  0  0
 18 23  1  0  0  0  0
 18 19  2  0  0  0  0
 19 20  1  0  0  0  0
 19 46  1  0  0  0  0
 20 21  2  0  0  0  0
 20 47  1  0  0  0  0
 21 22  1  0  0  0  0
 21 48  1  0  0  0  0
 22 23  2  0  0  0  0
 23 49  1  0  0  0  0
 24 25  2  0  0  0  0
M  END
> <s_m_source_file>
AV-unprocessed.smi

> <i_m_source_file_index>
837

> <i_lp_mmshare_version>
43012

> <i_f3d_flags>
0

> <s_epik_input>
W0NIMl0xW0NIMl1bQ0gyXVtDSDJdW0NAQEhdKFtDSDNdKVtDQEBdMTJbTkhdQyg9TylOKEMyPU8pW0NIMl1DKD1PKVtOSF1bQ0gyXVtDSDJdYzNbY0hdW2NIXVtjSF1uW2NIXTM=

> <s_epik_cmdline>
J2VwaWtfcHl0aG9uJywgJy1waCcsICc3LjAnLCAnLXRuJywgJzgnLCAnLW1hJywgJzIwMCcsICctbWV0YWxfYmluZGluZycsICctaW1hZScsICc8aW5maWxlLm1hZT4nLCAnLW9tYWUnLCAnPG91dGZpbGUubWFlPic=

> <r_lp_tautomer_probability>
1

> <r_epik_Ionization_Penalty>
0.0127837

> <r_epik_Ionization_Penalty_Charging>
0

> <r_epik_Ionization_Penalty_Neutral>
0.0127837

> <r_epik_State_Penalty>
0.00987657

> <r_epik_Charging_Adjusted_Penalty>
0.00987657

> <i_epik_Tot_Q>
0

> <i_epik_Tot_abs_Q>
0

> <r_epik_Metal_State_Penalty>
0.0309865

> <b_epik_Metal_Only>
0

> <s_lp_Force_Field>
OPLS_2005

> <r_lp_Energy>
18.239

> <b_lp_Chiralities_Consistent>
1

> <s_lp_Variant>
AV-unprocessed.smi:837-2

> <Gold.Version>
5.8.1

> <Gold.Id.Protein>
6NUR|6NUR_protein|mol2

> <Gold.PLP.Fitness>
47.7662

> <Gold.PLP.PLP>
-38.1656

> <Gold.PLP.part.hbond>
-2.0000

> <Gold.PLP.part.metal>
0.0000

> <Gold.PLP.part.buried>
-3.6816

> <Gold.PLP.part.nonpolar>
-32.1994

> <Gold.PLP.part.repulsive>
0.6947

> <Gold.PLP.ligand.clash>
0.0000

> <Gold.PLP.ligand.torsion>
0.5033

> <Gold.PLP.Chemscore.Hbond>
2.0000

> <Gold.PLP.Chemscore.CHOScore>
1.5250

> <Gold.PLP.Chemscore.Metal>
0.0000

> <Gold.Chemscore.Hbonds>
donor molecule, donor type, donor heavy atom, donor atom, acceptor molecule, acceptor atom, score
      P1  H  6896  6907       L1    10  1.00
      P1  H  6896  6909       L1    14  1.00
      L1  C    21    48       P1 10747  0.52
      L1  C    23    49       P1  7948  1.00

> <Gold.PLP.Chemscore.Internal.Correction>
0.0321

> <Gold.Rescore>
     Score         DG    S(hbond)    S(metal)    S(lipo)     H(rot)  DE(clash)    DE(int)     intcor
     16.88     -17.30       1.94        0.00      86.21       1.86       0.01       0.42       ----

> <Gold.Chemscore.Fitness>
16.8793

> <Gold.Chemscore.DG>
-17.3045

> <Gold.Chemscore.ZeroCoef>
-5.4800

> <Gold.Chemscore.Hbond>
1.9426

> <Gold.Chemscore.Metal>
0.0000

> <Gold.Chemscore.Lipo>
86.2050

> <Gold.Chemscore.Internal_Hbond>
0.0000

> <Gold.Chemscore.DEClash>
0.0084

> <Gold.Chemscore.DEInternal>
0.4168

> <Gold.Chemscore.Rot>
1.8553

> <Gold.Chemscore.Internal.Correction>
   9.000000E+99

> <Gold.Chemscore.Hbonds>
donor molecule, donor type, donor heavy atom, donor atom, acceptor molecule, acceptor atom, score
      P1  H  6896  6907       L1    10  0.99
      P1  H  6896  6909       L1    14  0.95

> <Gold.Chemscore.Hbond.Weighted>
-6.4882

> <Gold.Chemscore.Metal.Weighted>
-0.0000

> <Gold.Chemscore.Lipo.Weighted>
-10.0860

> <Gold.Chemscore.Internal_Hbond.Weighted>
0.0000

> <Gold.Chemscore.DEClash.Weighted>
0.0084

> <Gold.Chemscore.DEInternal.Weighted>
0.4168

> <Gold.Chemscore.Rot.Weighted>
4.7497

> <Gold.Chemscore.Internal.Correction.Weighted>
   9.000000E+99

> <Gold.Protein.RotatedTorsions>
[ 6907 6896 6895 6894 ] final   16.05 input  -60.11 | X-H torsion
[ 7974 7965 7964 7962 ] final -166.26 input  175.53 | X-H torsion
[ 8008 7997 7996 7995 ] final    5.09 input   59.86 | X-H torsion
[ 10167 10162 10161 10158 ] final  -33.79 input  -65.29 | X-H torsion
[ 10718 10713 10712 10709 ] final  -83.43 input   66.30 | X-H torsion
[ 10763 10752 10751 10750 ] final  -49.79 input  -60.55 | X-H torsion
[ 11005 11000 10999 10996 ] final  -35.15 input  -57.11 | X-H torsion

> <Gold.Protein.ActiveResidues>
 VAL166  LYS551  ARG553  GLY616  TRP617  ASP618  TYR619  PRO620  LYS621  CYS622 
 ASP623  PHE694  ASN695  SER759  ASP760  ASP761  ALA762  ILE779  LEU786  VAL792 
 PHE793  MET794  SER795  GLU796  ALA797  LYS798  CYS799  TRP800  GLU811  SER814 

> <Gold.Protein.RotatedAtoms>
  151.8278  135.0631  160.0432 H   0  0  0  0  0  0  0  0  0  0  0  0  # atno 6907 bound_to 6896
  152.2903  133.5550  159.5561 H   0  0  0  0  0  0  0  0  0  0  0  0  # atno 6908 bound_to 6896
  150.7227  134.0354  159.3790 H   0  0  0  0  0  0  0  0  0  0  0  0  # atno 6909 bound_to 6896
  144.7249  140.2693  143.6253 H   0  0  0  0  0  0  0  0  0  0  0  0  # atno 7974 bound_to 7965
  154.7241  140.2717  155.6515 H   0  0  0  0  0  0  0  0  0  0  0  0  # atno 8008 bound_to 7997
  156.2832  140.2728  156.1846 H   0  0  0  0  0  0  0  0  0  0  0  0  # atno 8009 bound_to 7997
  155.0468  140.0371  157.2519 H   0  0  0  0  0  0  0  0  0  0  0  0  # atno 8010 bound_to 7997
  140.7198  143.3594  151.1993 H   0  0  0  0  0  0  0  0  0  0  0  0  # atno 10167 bound_to 10162
  156.0018  130.4665  150.4256 H   0  0  0  0  0  0  0  0  0  0  0  0  # atno 10718 bound_to 10713
  154.0999  135.6565  153.4866 H   0  0  0  0  0  0  0  0  0  0  0  0  # atno 10763 bound_to 10752
  153.0292  135.5222  154.7297 H   0  0  0  0  0  0  0  0  0  0  0  0  # atno 10764 bound_to 10752
  154.6446  135.2993  155.0031 H   0  0  0  0  0  0  0  0  0  0  0  0  # atno 10765 bound_to 10752
  140.9773  133.7075  156.1625 H   0  0  0  0  0  0  0  0  0  0  0  0  # atno 11005 bound_to 11000
  145.8059  139.1983  143.2021 LP  0  0  0  0  0  0  0  0  0  0  0  0  # atno 17320 bound_to 7965
  146.0637  140.7943  142.9722 LP  0  0  0  0  0  0  0  0  0  0  0  0  # atno 17321 bound_to 7965
  139.7143  143.9326  152.2960 LP  0  0  0  0  0  0  0  0  0  0  0  0  # atno 17342 bound_to 10162
  139.9061  144.6883  150.8612 LP  0  0  0  0  0  0  0  0  0  0  0  0  # atno 17343 bound_to 10162
  157.2309  131.0504  151.2493 LP  0  0  0  0  0  0  0  0  0  0  0  0  # atno 17370 bound_to 10713
  157.3712  130.7182  149.6566 LP  0  0  0  0  0  0  0  0  0  0  0  0  # atno 17371 bound_to 10713
  140.7239  134.4328  157.5572 LP  0  0  0  0  0  0  0  0  0  0  0  0  # atno 17394 bound_to 11000
  139.8936  134.8727  156.2217 LP  0  0  0  0  0  0  0  0  0  0  0  0  # atno 17395 bound_to 11000

$$$$
