AV-unprocessed.smi:3185|AV-procd|sdf|12165|dock3
  -GOLD-   2272018 03D 1   1.00000     0.00000
 Structure written by MMmdl.
 38 39  0  0  0  0  0  0  0  0  2 V2000
  152.0456  136.9628  154.5465 N   0  0  0  0  0  0  0  0  0  0  0  0
  151.5603  138.0124  154.5639 C   0  0  0  0  0  0  0  0  0  0  0  0
  150.9434  139.3470  154.5872 C   0  0  0  0  0  0  0  0  0  0  0  0
  151.5016  140.2354  155.7046 C   0  0  0  0  0  0  0  0  0  0  0  0
  151.1563  139.6996  157.0986 C   0  0  0  0  0  0  0  0  0  0  0  0
  151.2437  140.7686  158.1136 N   0  3  0  0  0  0  0  0  0  0  0  0
  152.5745  140.9229  158.7444 C   0  0  2  0  0  0  0  0  0  0  0  0
  153.0772  139.5485  159.2261 C   0  0  0  0  0  0  0  0  0  0  0  0
  154.4352  139.6583  159.9361 C   0  0  0  0  0  0  0  0  0  0  0  0
  154.3676  140.6468  161.1093 C   0  0  0  0  0  0  0  0  0  0  0  0
  153.8755  142.0248  160.6420 C   0  0  0  0  0  0  0  0  0  0  0  0
  152.5119  141.9252  159.9260 C   0  0  1  0  0  0  0  0  0  0  0  0
  152.0506  143.2428  159.5071 N   0  0  0  0  0  0  0  0  0  0  0  0
  152.0128  144.4061  160.2479 C   0  0  0  0  0  0  0  0  0  0  0  0
  151.5050  145.3862  159.4442 C   0  0  0  0  0  0  0  0  0  0  0  0
  151.2655  144.7214  158.2097 C   0  0  0  0  0  0  0  0  0  0  0  0
  151.5928  143.4404  158.2500 N   0  0  0  0  0  0  0  0  0  0  0  0
  151.1093  139.8085  153.6133 H   0  0  0  0  0  0  0  0  0  0  0  0
  149.8678  139.2150  154.7054 H   0  0  0  0  0  0  0  0  0  0  0  0
  152.5849  140.3084  155.5993 H   0  0  0  0  0  0  0  0  0  0  0  0
  151.1097  141.2471  155.5912 H   0  0  0  0  0  0  0  0  0  0  0  0
  150.1477  139.2843  157.1011 H   0  0  0  0  0  0  0  0  0  0  0  0
  151.8401  138.8920  157.3613 H   0  0  0  0  0  0  0  0  0  0  0  0
  150.9986  141.6453  157.6764 H   0  0  0  0  0  0  0  0  0  0  0  0
  153.2866  141.2929  158.0038 H   0  0  0  0  0  0  0  0  0  0  0  0
  152.3492  139.1053  159.9073 H   0  0  0  0  0  0  0  0  0  0  0  0
  153.1627  138.8654  158.3800 H   0  0  0  0  0  0  0  0  0  0  0  0
  154.7473  138.6771  160.2950 H   0  0  0  0  0  0  0  0  0  0  0  0
  155.1957  139.9840  159.2253 H   0  0  0  0  0  0  0  0  0  0  0  0
  153.6975  140.2594  161.8779 H   0  0  0  0  0  0  0  0  0  0  0  0
  155.3495  140.7406  161.5743 H   0  0  0  0  0  0  0  0  0  0  0  0
  153.7989  142.6953  161.4988 H   0  0  0  0  0  0  0  0  0  0  0  0
  154.6191  142.4627  159.9747 H   0  0  0  0  0  0  0  0  0  0  0  0
  151.7864  141.5494  160.6498 H   0  0  0  0  0  0  0  0  0  0  0  0
  152.3453  144.4401  161.2752 H   0  0  0  0  0  0  0  0  0  0  0  0
  151.3344  146.4220  159.6983 H   0  0  0  0  0  0  0  0  0  0  0  0
  150.8664  145.1285  157.2924 H   0  0  0  0  0  0  0  0  0  0  0  0
  150.5691  140.5727  158.8393 H   0  0  0  0  0  0  0  0  0  0  0  0
  1  2  3  0  0  0  0
  2  3  1  0  0  0  0
  3  4  1  0  0  0  0
  3 18  1  0  0  0  0
  3 19  1  0  0  0  0
  4  5  1  0  0  0  0
  4 20  1  0  0  0  0
  4 21  1  0  0  0  0
  5  6  1  0  0  0  0
  5 22  1  0  0  0  0
  5 23  1  0  0  0  0
  6  7  1  0  0  0  0
  6 24  1  0  0  0  0
  6 38  1  0  0  0  0
  7 12  1  0  0  0  0
  7  8  1  0  0  0  0
  7 25  1  0  0  0  0
  8  9  1  0  0  0  0
  8 26  1  0  0  0  0
  8 27  1  0  0  0  0
  9 10  1  0  0  0  0
  9 28  1  0  0  0  0
  9 29  1  0  0  0  0
 10 11  1  0  0  0  0
 10 30  1  0  0  0  0
 10 31  1  0  0  0  0
 11 12  1  0  0  0  0
 11 32  1  0  0  0  0
 11 33  1  0  0  0  0
 12 13  1  0  0  0  0
 12 34  1  0  0  0  0
 13 17  1  0  0  0  0
 13 14  1  0  0  0  0
 14 15  2  0  0  0  0
 14 35  1  0  0  0  0
 15 16  1  0  0  0  0
 15 36  1  0  0  0  0
 16 17  2  0  0  0  0
 16 37  1  0  0  0  0
M  CHG  1   6   1
M  END
> <s_m_source_file>
AV-unprocessed.smi

> <i_m_source_file_index>
3185

> <i_lp_mmshare_version>
43012

> <i_f3d_flags>
0

> <s_epik_input>
TiNDW0NIMl1bQ0gyXVtDSDJdW05IXVtDQEBIXTFbQ0gyXVtDSDJdW0NIMl1bQ0gyXVtDQEhdMW4yW2NIXVtjSF1bY0hdbjI=

> <s_epik_cmdline>
J2VwaWtfcHl0aG9uJywgJy1waCcsICc3LjAnLCAnLXRuJywgJzgnLCAnLW1hJywgJzIwMCcsICctbWV0YWxfYmluZGluZycsICctaW1hZScsICc8aW5maWxlLm1hZT4nLCAnLW9tYWUnLCAnPG91dGZpbGUubWFlPic=

> <r_lp_tautomer_probability>
1

> <r_epik_Ionization_Penalty>
0.0143465

> <r_epik_Ionization_Penalty_Charging>
0.0143338

> <r_epik_Ionization_Penalty_Neutral>
1.27047e-05

> <r_epik_State_Penalty>
0.0112058

> <r_epik_Charging_Adjusted_Penalty>
0.0255397

> <i_epik_Tot_Q>
1

> <i_epik_Tot_abs_Q>
1

> <r_epik_Metal_State_Penalty>
0.0112253

> <b_epik_Metal_Only>
0

> <s_lp_Force_Field>
OPLS_2005

> <r_lp_Energy>
16.2212

> <b_lp_Chiralities_Consistent>
1

> <s_lp_Variant>
AV-unprocessed.smi:3185-1

> <Gold.Version>
5.8.1

> <Gold.Id.Protein>
6NUR|6NUR_protein|mol2

> <Gold.PLP.Fitness>
46.8579

> <Gold.PLP.PLP>
-41.8619

> <Gold.PLP.part.hbond>
-1.0000

> <Gold.PLP.part.metal>
0.0000

> <Gold.PLP.part.buried>
-4.6740

> <Gold.PLP.part.nonpolar>
-37.0231

> <Gold.PLP.part.repulsive>
0.3259

> <Gold.PLP.ligand.clash>
0.0000

> <Gold.PLP.ligand.torsion>
0.5313

> <Gold.PLP.Chemscore.Hbond>
1.0000

> <Gold.PLP.Chemscore.CHOScore>
1.0000

> <Gold.PLP.Chemscore.Metal>
0.0000

> <Gold.Chemscore.Hbonds>
donor molecule, donor type, donor heavy atom, donor atom, acceptor molecule, acceptor atom, score
      P1  H 10752 10765       L1     1  1.00
      L1  C    16    37       P1  8028  0.96

> <Gold.PLP.Chemscore.Internal.Correction>
0.0586

> <Gold.Rescore>
     Score         DG    S(hbond)    S(metal)    S(lipo)     H(rot)  DE(clash)    DE(int)     intcor
     14.44     -16.19       0.99        0.00     104.40       1.88       0.05       1.71       ----

> <Gold.Chemscore.Fitness>
14.4365

> <Gold.Chemscore.DG>
-16.1908

> <Gold.Chemscore.ZeroCoef>
-5.4800

> <Gold.Chemscore.Hbond>
0.9883

> <Gold.Chemscore.Metal>
0.0000

> <Gold.Chemscore.Lipo>
104.3998

> <Gold.Chemscore.Internal_Hbond>
0.0000

> <Gold.Chemscore.DEClash>
0.0462

> <Gold.Chemscore.DEInternal>
1.7080

> <Gold.Chemscore.Rot>
1.8769

> <Gold.Chemscore.Internal.Correction>
   9.000000E+99

> <Gold.Chemscore.Hbonds>
donor molecule, donor type, donor heavy atom, donor atom, acceptor molecule, acceptor atom, score
      P1  H 10752 10765       L1     1  0.93

> <Gold.Chemscore.Hbond.Weighted>
-3.3010

> <Gold.Chemscore.Metal.Weighted>
-0.0000

> <Gold.Chemscore.Lipo.Weighted>
-12.2148

> <Gold.Chemscore.Internal_Hbond.Weighted>
0.0000

> <Gold.Chemscore.DEClash.Weighted>
0.0462

> <Gold.Chemscore.DEInternal.Weighted>
1.7080

> <Gold.Chemscore.Rot.Weighted>
4.8049

> <Gold.Chemscore.Internal.Correction.Weighted>
   9.000000E+99

> <Gold.Protein.RotatedTorsions>
[ 6907 6896 6895 6894 ] final  116.60 input  -60.11 | X-H torsion
[ 7974 7965 7964 7962 ] final  115.61 input  175.53 | X-H torsion
[ 8008 7997 7996 7995 ] final  -32.89 input   59.86 | X-H torsion
[ 10167 10162 10161 10158 ] final   98.65 input  -65.29 | X-H torsion
[ 10718 10713 10712 10709 ] final -107.21 input   66.30 | X-H torsion
[ 10763 10752 10751 10750 ] final  169.39 input  -60.55 | X-H torsion
[ 11005 11000 10999 10996 ] final  134.42 input  -57.11 | X-H torsion

> <Gold.Protein.ActiveResidues>
 VAL166  LYS551  ARG553  GLY616  TRP617  ASP618  TYR619  PRO620  LYS621  CYS622 
 ASP623  PHE694  ASN695  SER759  ASP760  ASP761  ALA762  ILE779  LEU786  VAL792 
 PHE793  MET794  SER795  GLU796  ALA797  LYS798  CYS799  TRP800  GLU811  SER814 

> <Gold.Protein.RotatedAtoms>
  152.4667  133.7940  159.6916 H   0  0  0  0  0  0  0  0  0  0  0  0  # atno 6907 bound_to 6896
  150.8636  133.7598  159.2990 H   0  0  0  0  0  0  0  0  0  0  0  0  # atno 6908 bound_to 6896
  151.5155  135.1069  159.9917 H   0  0  0  0  0  0  0  0  0  0  0  0  # atno 6909 bound_to 6896
  145.1899  139.3006  143.4374 H   0  0  0  0  0  0  0  0  0  0  0  0  # atno 7974 bound_to 7965
  154.4165  140.1725  156.1801 H   0  0  0  0  0  0  0  0  0  0  0  0  # atno 8008 bound_to 7997
  155.9689  140.3387  155.6534 H   0  0  0  0  0  0  0  0  0  0  0  0  # atno 8009 bound_to 7997
  155.6651  140.0705  157.2531 H   0  0  0  0  0  0  0  0  0  0  0  0  # atno 8010 bound_to 7997
  139.7689  144.6929  151.0184 H   0  0  0  0  0  0  0  0  0  0  0  0  # atno 10167 bound_to 10162
  156.0426  130.5651  150.7789 H   0  0  0  0  0  0  0  0  0  0  0  0  # atno 10718 bound_to 10713
  154.3824  135.2753  155.2203 H   0  0  0  0  0  0  0  0  0  0  0  0  # atno 10763 bound_to 10752
  154.4304  135.5978  153.6069 H   0  0  0  0  0  0  0  0  0  0  0  0  # atno 10764 bound_to 10752
  152.9834  135.5994  154.4069 H   0  0  0  0  0  0  0  0  0  0  0  0  # atno 10765 bound_to 10752
  139.9914  134.9513  156.9864 H   0  0  0  0  0  0  0  0  0  0  0  0  # atno 11005 bound_to 11000
  146.3438  140.2107  142.8590 LP  0  0  0  0  0  0  0  0  0  0  0  0  # atno 17320 bound_to 7965
  145.0052  140.8666  143.5257 LP  0  0  0  0  0  0  0  0  0  0  0  0  # atno 17321 bound_to 7965
  140.7812  143.4611  151.0276 LP  0  0  0  0  0  0  0  0  0  0  0  0  # atno 17342 bound_to 10162
  139.8295  143.7710  152.3179 LP  0  0  0  0  0  0  0  0  0  0  0  0  # atno 17343 bound_to 10162
  157.5262  131.0934  151.0014 LP  0  0  0  0  0  0  0  0  0  0  0  0  # atno 17370 bound_to 10713
  157.0332  130.5720  149.5346 LP  0  0  0  0  0  0  0  0  0  0  0  0  # atno 17371 bound_to 10713
  140.4902  134.1201  155.7231 LP  0  0  0  0  0  0  0  0  0  0  0  0  # atno 17394 bound_to 11000
  141.1569  133.8867  157.1954 LP  0  0  0  0  0  0  0  0  0  0  0  0  # atno 17395 bound_to 11000

$$$$
