AV-unprocessed.smi:1809|AV-procd|sdf|7310|dock9
  -GOLD-   22720 8563D 1   1.00000     0.00000
 Structure written by MMmdl.
 40 42  0  0  0  0  0  0  0  0  2 V2000
  153.2649  141.8555  159.5575 C   0  0  0  0  0  0  0  0  0  0  0  0
  152.8721  140.6303  158.8049 C   0  0  0  0  0  0  0  0  0  0  0  0
  153.7296  139.6390  158.5325 N   0  0  0  0  0  0  0  0  0  0  0  0
  153.1320  138.6065  157.8234 N   0  0  0  0  0  0  0  0  0  0  0  0
  151.8371  138.8514  157.5797 C   0  0  0  0  0  0  0  0  0  0  0  0
  150.9850  137.9611  156.8742 N   0  0  0  0  0  0  0  0  0  0  0  0
  151.3304  136.9290  156.0849 C   0  0  0  0  0  0  0  0  0  0  0  0
  152.4837  136.5856  155.8262 O   0  0  0  0  0  0  0  0  0  0  0  0
  150.2477  136.3015  155.6039 N   0  0  0  0  0  0  0  0  0  0  0  0
  150.2690  135.1279  154.7370 C   0  0  0  0  0  0  0  0  0  0  0  0
  149.1517  134.1282  155.1076 C   0  0  1  0  0  0  0  0  0  0  0  0
  147.7307  134.7189  154.9325 C   0  0  0  0  0  0  0  0  0  0  0  0
  147.3872  134.7432  153.4986 N   0  3  2  0  0  0  0  0  0  0  0  0
  146.0704  135.2770  153.1094 C   0  0  0  0  0  0  0  0  0  0  0  0
  145.7659  134.6262  151.7455 C   0  0  0  0  0  0  0  0  0  0  0  0
  146.8908  133.6022  151.5116 C   0  0  0  0  0  0  0  0  0  0  0  0
  147.4780  133.4079  152.9061 C   0  0  1  0  0  0  0  0  0  0  0  0
  148.9249  132.9174  153.0121 C   0  0  0  0  0  0  0  0  0  0  0  0
  149.2807  132.8857  154.3978 O   0  0  0  0  0  0  0  0  0  0  0  0
  151.2381  140.3792  158.2028 S   0  0  0  0  0  0  0  0  0  0  0  0
  154.2701  141.7503  159.9672 H   0  0  0  0  0  0  0  0  0  0  0  0
  152.5701  142.0266  160.3800 H   0  0  0  0  0  0  0  0  0  0  0  0
  153.2449  142.7210  158.8954 H   0  0  0  0  0  0  0  0  0  0  0  0
  149.9963  138.1257  156.9913 H   0  0  0  0  0  0  0  0  0  0  0  0
  149.3392  136.6548  155.8668 H   0  0  0  0  0  0  0  0  0  0  0  0
  150.1123  135.4819  153.7177 H   0  0  0  0  0  0  0  0  0  0  0  0
  151.2514  134.6541  154.7383 H   0  0  0  0  0  0  0  0  0  0  0  0
  149.2745  133.8907  156.1650 H   0  0  0  0  0  0  0  0  0  0  0  0
  147.0034  134.1068  155.4681 H   0  0  0  0  0  0  0  0  0  0  0  0
  147.6706  135.7245  155.3503 H   0  0  0  0  0  0  0  0  0  0  0  0
  145.3167  134.9824  153.8414 H   0  0  0  0  0  0  0  0  0  0  0  0
  146.0889  136.3661  153.0593 H   0  0  0  0  0  0  0  0  0  0  0  0
  144.7930  134.1341  151.7736 H   0  0  0  0  0  0  0  0  0  0  0  0
  145.7375  135.3641  150.9432 H   0  0  0  0  0  0  0  0  0  0  0  0
  146.5321  132.6714  151.0711 H   0  0  0  0  0  0  0  0  0  0  0  0
  147.6425  134.0240  150.8427 H   0  0  0  0  0  0  0  0  0  0  0  0
  146.8270  132.7298  153.4627 H   0  0  0  0  0  0  0  0  0  0  0  0
  149.0188  131.9131  152.5988 H   0  0  0  0  0  0  0  0  0  0  0  0
  149.5991  133.5594  152.4461 H   0  0  0  0  0  0  0  0  0  0  0  0
  148.0784  135.3113  153.0296 H   0  0  0  0  0  0  0  0  0  0  0  0
  1  2  1  0  0  0  0
  1 21  1  0  0  0  0
  1 22  1  0  0  0  0
  1 23  1  0  0  0  0
  2 20  1  0  0  0  0
  2  3  2  0  0  0  0
  3  4  1  0  0  0  0
  4  5  2  0  0  0  0
  5  6  1  0  0  0  0
  5 20  1  0  0  0  0
  6  7  1  0  0  0  0
  6 24  1  0  0  0  0
  7  8  2  0  0  0  0
  7  9  1  0  0  0  0
  9 10  1  0  0  0  0
  9 25  1  0  0  0  0
 10 11  1  0  0  0  0
 10 26  1  0  0  0  0
 10 27  1  0  0  0  0
 11 19  1  0  0  0  0
 11 12  1  0  0  0  0
 11 28  1  0  0  0  0
 12 13  1  0  0  0  0
 12 29  1  0  0  0  0
 12 30  1  0  0  0  0
 13 17  1  0  0  0  0
 13 14  1  0  0  0  0
 13 40  1  0  0  0  0
 14 15  1  0  0  0  0
 14 31  1  0  0  0  0
 14 32  1  0  0  0  0
 15 16  1  0  0  0  0
 15 33  1  0  0  0  0
 15 34  1  0  0  0  0
 16 17  1  0  0  0  0
 16 35  1  0  0  0  0
 16 36  1  0  0  0  0
 17 18  1  0  0  0  0
 17 37  1  0  0  0  0
 18 19  1  0  0  0  0
 18 38  1  0  0  0  0
 18 39  1  0  0  0  0
M  CHG  1  13   1
M  END
> <s_m_source_file>
AV-unprocessed.smi

> <i_m_source_file_index>
1809

> <i_lp_mmshare_version>
43012

> <i_f3d_flags>
0

> <s_epik_input>
W0NIM11jMW5uYyhzMSlbTkhdQyg9TylbTkhdW0NIMl1bQ0BIXShbQ0gyXTIpT1tDSDJdW0NAQEhdKE4yMylbQ0gyXVtDSDJdW0NIMl0z

> <s_epik_cmdline>
J2VwaWtfcHl0aG9uJywgJy1waCcsICc3LjAnLCAnLXRuJywgJzgnLCAnLW1hJywgJzIwMCcsICctbWV0YWxfYmluZGluZycsICctaW1hZScsICc8aW5maWxlLm1hZT4nLCAnLW9tYWUnLCAnPG91dGZpbGUubWFlPic=

> <r_lp_tautomer_probability>
1

> <r_epik_Ionization_Penalty>
0.112474

> <r_epik_Ionization_Penalty_Charging>
0.108916

> <r_epik_Ionization_Penalty_Neutral>
0.00355844

> <r_epik_State_Penalty>
0.0565397

> <r_epik_Charging_Adjusted_Penalty>
0.165456

> <i_epik_Tot_Q>
1

> <i_epik_Tot_abs_Q>
1

> <r_epik_Metal_State_Penalty>
0.422831

> <b_epik_Metal_Only>
0

> <s_lp_Force_Field>
OPLS_2005

> <r_lp_Energy>
36.2916

> <b_lp_Chiralities_Consistent>
1

> <s_lp_Variant>
AV-unprocessed.smi:1809-2

> <Gold.Version>
5.8.1

> <Gold.Id.Protein>
6NUR|6NUR_protein|mol2

> <Gold.PLP.Fitness>
38.7033

> <Gold.PLP.PLP>
-27.7529

> <Gold.PLP.part.hbond>
-3.1607

> <Gold.PLP.part.metal>
0.0000

> <Gold.PLP.part.buried>
-4.2490

> <Gold.PLP.part.nonpolar>
-20.7214

> <Gold.PLP.part.repulsive>
0.1646

> <Gold.PLP.ligand.clash>
0.0000

> <Gold.PLP.ligand.torsion>
0.2299

> <Gold.PLP.Chemscore.Hbond>
3.8000

> <Gold.PLP.Chemscore.CHOScore>
0.0000

> <Gold.PLP.Chemscore.Metal>
0.0000

> <Gold.Chemscore.Hbonds>
donor molecule, donor type, donor heavy atom, donor atom, acceptor molecule, acceptor atom, score
      L1  H    13    40       P1  7948  2.00
      P1  H  7997  8009       L1     3  0.80
      P1  H 10752 10764       L1     8  0.90

> <Gold.PLP.Chemscore.Internal.Correction>
0.0101

> <Gold.Rescore>
     Score         DG    S(hbond)    S(metal)    S(lipo)     H(rot)  DE(clash)    DE(int)     intcor
     15.28     -16.83       2.36        0.00      58.83       1.34       0.07       1.47       ----

> <Gold.Chemscore.Fitness>
15.2821

> <Gold.Chemscore.DG>
-16.8256

> <Gold.Chemscore.ZeroCoef>
-5.4800

> <Gold.Chemscore.Hbond>
2.3624

> <Gold.Chemscore.Metal>
0.0000

> <Gold.Chemscore.Lipo>
58.8309

> <Gold.Chemscore.Internal_Hbond>
0.0000

> <Gold.Chemscore.DEClash>
0.0739

> <Gold.Chemscore.DEInternal>
1.4695

> <Gold.Chemscore.Rot>
1.3391

> <Gold.Chemscore.Internal.Correction>
   9.000000E+99

> <Gold.Chemscore.Hbonds>
donor molecule, donor type, donor heavy atom, donor atom, acceptor molecule, acceptor atom, score
      L1  H    13    40       P1  7948  1.00
      P1  H  7997  8009       L1     3  0.10
      P1  H 10752 10764       L1     8  0.84

> <Gold.Chemscore.Hbond.Weighted>
-7.8904

> <Gold.Chemscore.Metal.Weighted>
-0.0000

> <Gold.Chemscore.Lipo.Weighted>
-6.8832

> <Gold.Chemscore.Internal_Hbond.Weighted>
0.0000

> <Gold.Chemscore.DEClash.Weighted>
0.0739

> <Gold.Chemscore.DEInternal.Weighted>
1.4695

> <Gold.Chemscore.Rot.Weighted>
3.4281

> <Gold.Chemscore.Internal.Correction.Weighted>
   9.000000E+99

> <Gold.Protein.RotatedTorsions>
[ 6907 6896 6895 6894 ] final -176.13 input  -60.11 | X-H torsion
[ 7974 7965 7964 7962 ] final   62.24 input  175.53 | X-H torsion
[ 8008 7997 7996 7995 ] final  128.42 input   59.86 | X-H torsion
[ 10167 10162 10161 10158 ] final  -76.19 input  -65.29 | X-H torsion
[ 10718 10713 10712 10709 ] final   17.89 input   66.30 | X-H torsion
[ 10763 10752 10751 10750 ] final  -30.72 input  -60.55 | X-H torsion
[ 11005 11000 10999 10996 ] final  101.05 input  -57.11 | X-H torsion

> <Gold.Protein.ActiveResidues>
 VAL166  LYS551  ARG553  GLY616  TRP617  ASP618  TYR619  PRO620  LYS621  CYS622 
 ASP623  PHE694  ASN695  SER759  ASP760  ASP761  ALA762  ILE779  LEU786  VAL792 
 PHE793  MET794  SER795  GLU796  ALA797  LYS798  CYS799  TRP800  GLU811  SER814 

> <Gold.Protein.RotatedAtoms>
  151.5999  133.3357  159.3044 H   0  0  0  0  0  0  0  0  0  0  0  0  # atno 6907 bound_to 6896
  150.8214  134.7426  159.6786 H   0  0  0  0  0  0  0  0  0  0  0  0  # atno 6908 bound_to 6896
  152.4307  134.5789  159.9994 H   0  0  0  0  0  0  0  0  0  0  0  0  # atno 6909 bound_to 6896
  145.8756  139.3407  143.0737 H   0  0  0  0  0  0  0  0  0  0  0  0  # atno 7974 bound_to 7965
  156.2914  140.2645  156.2433 H   0  0  0  0  0  0  0  0  0  0  0  0  # atno 8008 bound_to 7997
  154.9955  140.0388  157.2356 H   0  0  0  0  0  0  0  0  0  0  0  0  # atno 8009 bound_to 7997
  154.7648  140.2767  155.6190 H   0  0  0  0  0  0  0  0  0  0  0  0  # atno 8010 bound_to 7997
  140.4878  143.2387  151.7955 H   0  0  0  0  0  0  0  0  0  0  0  0  # atno 10167 bound_to 10162
  157.0885  130.6418  149.5843 H   0  0  0  0  0  0  0  0  0  0  0  0  # atno 10718 bound_to 10713
  153.7856  135.6902  153.4880 H   0  0  0  0  0  0  0  0  0  0  0  0  # atno 10763 bound_to 10752
  153.1783  135.4516  154.9992 H   0  0  0  0  0  0  0  0  0  0  0  0  # atno 10764 bound_to 10752
  154.8064  135.3359  154.7356 H   0  0  0  0  0  0  0  0  0  0  0  0  # atno 10765 bound_to 10752
  139.8772  134.9166  156.4848 H   0  0  0  0  0  0  0  0  0  0  0  0  # atno 11005 bound_to 11000
  145.9085  140.9196  143.0466 LP  0  0  0  0  0  0  0  0  0  0  0  0  # atno 17320 bound_to 7965
  144.6726  140.1128  143.7454 LP  0  0  0  0  0  0  0  0  0  0  0  0  # atno 17321 bound_to 7965
  139.4845  144.4688  151.9450 LP  0  0  0  0  0  0  0  0  0  0  0  0  # atno 17342 bound_to 10162
  140.3775  144.2778  150.5912 LP  0  0  0  0  0  0  0  0  0  0  0  0  # atno 17343 bound_to 10162
  155.9904  130.4955  150.7256 LP  0  0  0  0  0  0  0  0  0  0  0  0  # atno 17370 bound_to 10713
  157.4741  131.0896  151.0610 LP  0  0  0  0  0  0  0  0  0  0  0  0  # atno 17371 bound_to 10713
  140.8701  133.7994  155.9356 LP  0  0  0  0  0  0  0  0  0  0  0  0  # atno 17394 bound_to 11000
  140.8961  134.2436  157.5068 LP  0  0  0  0  0  0  0  0  0  0  0  0  # atno 17395 bound_to 11000

$$$$
