AV-unprocessed.smi:2910|AV-procd|sdf|11175|dock8
  -GOLD-   2272016 63D 1   1.00000     0.00000
 Structure written by MMmdl.
 47 48  0  0  0  0  0  0  0  0  1 V2000
  152.1438  132.0817  156.7243 C   0  0  0  0  0  0  0  0  0  0  0  0
  151.2294  132.8826  155.8451 C   0  0  0  0  0  0  0  0  0  0  0  0
  151.0116  134.2910  155.8580 C   0  0  0  0  0  0  0  0  0  0  0  0
  150.0962  134.4633  154.8561 C   0  0  0  0  0  0  0  0  0  0  0  0
  149.5240  135.6127  154.4090 N   0  0  0  0  0  0  0  0  0  0  0  0
  149.1261  136.6835  155.1177 C   0  0  0  0  0  0  0  0  0  0  0  0
  149.1892  136.7911  156.3425 O   0  0  0  0  0  0  0  0  0  0  0  0
  148.6385  137.6394  154.3120 N   0  0  0  0  0  0  0  0  0  0  0  0
  148.1272  138.9460  154.7358 C   0  0  2  0  0  0  0  0  0  0  0  0
  147.6648  139.7345  153.4870 C   0  0  0  0  0  0  0  0  0  0  0  0
  146.7468  138.9385  152.5424 C   0  0  0  0  0  0  0  0  0  0  0  0
  147.5280  138.2152  151.6162 O   0  0  0  0  0  0  0  0  0  0  0  0
  149.2022  139.6894  155.5813 C   0  0  0  0  0  0  0  0  0  0  0  0
  148.6953  141.0621  156.0957 C   0  0  0  0  0  0  0  0  0  0  0  0
  149.7541  141.8081  156.9226 C   0  0  0  0  0  0  0  0  0  0  0  0
  151.0496  141.9974  156.1249 C   0  0  0  0  0  0  0  0  0  0  0  0
  151.5831  140.6454  155.6362 C   0  0  0  0  0  0  0  0  0  0  0  0
  150.5291  139.8925  154.8081 C   0  0  0  0  0  0  0  0  0  0  0  0
  149.8062  133.2360  154.3027 N   0  0  0  0  0  0  0  0  0  0  0  0
  148.9007  132.9052  153.2196 C   0  0  0  0  0  0  0  0  0  0  0  0
  150.5085  132.2608  154.9188 N   0  0  0  0  0  0  0  0  0  0  0  0
  152.6545  132.7196  157.4458 H   0  0  0  0  0  0  0  0  0  0  0  0
  152.9066  131.5718  156.1353 H   0  0  0  0  0  0  0  0  0  0  0  0
  151.5907  131.3260  157.2825 H   0  0  0  0  0  0  0  0  0  0  0  0
  151.4640  135.0308  156.5010 H   0  0  0  0  0  0  0  0  0  0  0  0
  149.3911  135.6660  153.4100 H   0  0  0  0  0  0  0  0  0  0  0  0
  148.6279  137.4564  153.3192 H   0  0  0  0  0  0  0  0  0  0  0  0
  147.2519  138.8078  155.3732 H   0  0  0  0  0  0  0  0  0  0  0  0
  147.1179  140.6240  153.7968 H   0  0  0  0  0  0  0  0  0  0  0  0
  148.5361  140.0881  152.9338 H   0  0  0  0  0  0  0  0  0  0  0  0
  146.1243  138.2333  153.0933 H   0  0  0  0  0  0  0  0  0  0  0  0
  146.0805  139.6086  151.9985 H   0  0  0  0  0  0  0  0  0  0  0  0
  148.0662  137.6007  152.0918 H   0  0  0  0  0  0  0  0  0  0  0  0
  149.4208  139.0736  156.4552 H   0  0  0  0  0  0  0  0  0  0  0  0
  148.3938  141.6807  155.2492 H   0  0  0  0  0  0  0  0  0  0  0  0
  147.8077  140.9409  156.7164 H   0  0  0  0  0  0  0  0  0  0  0  0
  149.3654  142.7780  157.2340 H   0  0  0  0  0  0  0  0  0  0  0  0
  149.9640  141.2509  157.8365 H   0  0  0  0  0  0  0  0  0  0  0  0
  150.8646  142.6508  155.2714 H   0  0  0  0  0  0  0  0  0  0  0  0
  151.7989  142.4949  156.7411 H   0  0  0  0  0  0  0  0  0  0  0  0
  152.4838  140.7962  155.0405 H   0  0  0  0  0  0  0  0  0  0  0  0
  151.8775  140.0373  156.4926 H   0  0  0  0  0  0  0  0  0  0  0  0
  150.9593  138.9354  154.5171 H   0  0  0  0  0  0  0  0  0  0  0  0
  150.3358  140.4386  153.8838 H   0  0  0  0  0  0  0  0  0  0  0  0
  149.1548  133.4933  152.3375 H   0  0  0  0  0  0  0  0  0  0  0  0
  147.8768  133.1319  153.5176 H   0  0  0  0  0  0  0  0  0  0  0  0
  148.9711  131.8457  152.9690 H   0  0  0  0  0  0  0  0  0  0  0  0
  1  2  1  0  0  0  0
  1 22  1  0  0  0  0
  1 23  1  0  0  0  0
  1 24  1  0  0  0  0
  2 21  2  0  0  0  0
  2  3  1  0  0  0  0
  3  4  2  0  0  0  0
  3 25  1  0  0  0  0
  4  5  1  0  0  0  0
  4 19  1  0  0  0  0
  5  6  1  0  0  0  0
  5 26  1  0  0  0  0
  6  7  2  0  0  0  0
  6  8  1  0  0  0  0
  8  9  1  0  0  0  0
  8 27  1  0  0  0  0
  9 10  1  0  0  0  0
  9 13  1  0  0  0  0
  9 28  1  0  0  0  0
 10 11  1  0  0  0  0
 10 29  1  0  0  0  0
 10 30  1  0  0  0  0
 11 12  1  0  0  0  0
 11 31  1  0  0  0  0
 11 32  1  0  0  0  0
 12 33  1  0  0  0  0
 13 18  1  0  0  0  0
 13 14  1  0  0  0  0
 13 34  1  0  0  0  0
 14 15  1  0  0  0  0
 14 35  1  0  0  0  0
 14 36  1  0  0  0  0
 15 16  1  0  0  0  0
 15 37  1  0  0  0  0
 15 38  1  0  0  0  0
 16 17  1  0  0  0  0
 16 39  1  0  0  0  0
 16 40  1  0  0  0  0
 17 18  1  0  0  0  0
 17 41  1  0  0  0  0
 17 42  1  0  0  0  0
 18 43  1  0  0  0  0
 18 44  1  0  0  0  0
 19 20  1  0  0  0  0
 19 21  1  0  0  0  0
 20 45  1  0  0  0  0
 20 46  1  0  0  0  0
 20 47  1  0  0  0  0
M  END
> <s_m_source_file>
AV-unprocessed.smi

> <i_m_source_file_index>
2910

> <i_lp_mmshare_version>
43012

> <i_f3d_flags>
0

> <s_epik_input>
W0NIM11jMVtjSF1jKG4objEpW0NIM10pW05IXUMoPU8pW05IXVtDQEhdKFtDSDJdW0NIMl1bT0hdKVtDSF0yW0NIMl1bQ0gyXVtDSDJdW0NIMl1bQ0gyXTI=

> <s_epik_cmdline>
J2VwaWtfcHl0aG9uJywgJy1waCcsICc3LjAnLCAnLXRuJywgJzgnLCAnLW1hJywgJzIwMCcsICctbWV0YWxfYmluZGluZycsICctaW1hZScsICc8aW5maWxlLm1hZT4nLCAnLW9tYWUnLCAnPG91dGZpbGUubWFlPic=

> <r_lp_tautomer_probability>
1

> <r_epik_Ionization_Penalty>
0.000101449

> <r_epik_Ionization_Penalty_Charging>
0

> <r_epik_Ionization_Penalty_Neutral>
0.000101449

> <r_epik_State_Penalty>
-0

> <r_epik_Charging_Adjusted_Penalty>
0

> <i_epik_Tot_Q>
0

> <i_epik_Tot_abs_Q>
0

> <r_epik_Metal_State_Penalty>
-0

> <b_epik_Metal_Only>
0

> <s_lp_Force_Field>
OPLS_2005

> <r_lp_Energy>
16.2269

> <b_lp_Chiralities_Consistent>
1

> <s_lp_Variant>
AV-unprocessed.smi:2910-1

> <Gold.Version>
5.8.1

> <Gold.Id.Protein>
6NUR|6NUR_protein|mol2

> <Gold.PLP.Fitness>
46.1638

> <Gold.PLP.PLP>
-35.7110

> <Gold.PLP.part.hbond>
-4.6278

> <Gold.PLP.part.metal>
0.0000

> <Gold.PLP.part.buried>
-2.5085

> <Gold.PLP.part.nonpolar>
-28.3963

> <Gold.PLP.part.repulsive>
0.0488

> <Gold.PLP.ligand.clash>
0.0000

> <Gold.PLP.ligand.torsion>
0.5064

> <Gold.PLP.Chemscore.Hbond>
3.7920

> <Gold.PLP.Chemscore.CHOScore>
0.0000

> <Gold.PLP.Chemscore.Metal>
0.0000

> <Gold.Chemscore.Hbonds>
donor molecule, donor type, donor heavy atom, donor atom, acceptor molecule, acceptor atom, score
      L1  H     5    26       P1  7948  1.00
      L1  H     8    27       P1  7948  0.98
      L1  H    12    33       P1  7948  0.78
      P1  H  7954  7966       L1    12  0.90

> <Gold.PLP.Chemscore.Internal.Correction>
0.0896

> <Gold.Rescore>
     Score         DG    S(hbond)    S(metal)    S(lipo)     H(rot)  DE(clash)    DE(int)     intcor
     15.93     -17.84       2.90        0.00      72.75       2.27       0.04       1.87       ----

> <Gold.Chemscore.Fitness>
15.9291

> <Gold.Chemscore.DG>
-17.8390

> <Gold.Chemscore.ZeroCoef>
-5.4800

> <Gold.Chemscore.Hbond>
2.8950

> <Gold.Chemscore.Metal>
0.0000

> <Gold.Chemscore.Lipo>
72.7513

> <Gold.Chemscore.Internal_Hbond>
0.0000

> <Gold.Chemscore.DEClash>
0.0448

> <Gold.Chemscore.DEInternal>
1.8651

> <Gold.Chemscore.Rot>
2.2743

> <Gold.Chemscore.Internal.Correction>
   9.000000E+99

> <Gold.Chemscore.Hbonds>
donor molecule, donor type, donor heavy atom, donor atom, acceptor molecule, acceptor atom, score
      L1  H     5    26       P1  7948  0.30
      L1  H     8    27       P1  7948  0.93
      L1  H    12    33       P1  7948  0.79
      P1  H  7954  7966       L1    12  0.18

> <Gold.Chemscore.Hbond.Weighted>
-9.6693

> <Gold.Chemscore.Metal.Weighted>
-0.0000

> <Gold.Chemscore.Lipo.Weighted>
-8.5119

> <Gold.Chemscore.Internal_Hbond.Weighted>
0.0000

> <Gold.Chemscore.DEClash.Weighted>
0.0448

> <Gold.Chemscore.DEInternal.Weighted>
1.8651

> <Gold.Chemscore.Rot.Weighted>
5.8223

> <Gold.Chemscore.Internal.Correction.Weighted>
   9.000000E+99

> <Gold.Protein.RotatedTorsions>
[ 6907 6896 6895 6894 ] final   90.67 input  -60.11 | X-H torsion
[ 7974 7965 7964 7962 ] final  -99.20 input  175.53 | X-H torsion
[ 8008 7997 7996 7995 ] final  -97.33 input   59.86 | X-H torsion
[ 10167 10162 10161 10158 ] final   56.29 input  -65.29 | X-H torsion
[ 10718 10713 10712 10709 ] final  -76.46 input   66.30 | X-H torsion
[ 10763 10752 10751 10750 ] final  152.46 input  -60.55 | X-H torsion
[ 11005 11000 10999 10996 ] final   46.92 input  -57.11 | X-H torsion

> <Gold.Protein.ActiveResidues>
 VAL166  LYS551  ARG553  GLY616  TRP617  ASP618  TYR619  PRO620  LYS621  CYS622 
 ASP623  PHE694  ASN695  SER759  ASP760  ASP761  ALA762  ILE779  LEU786  VAL792 
 PHE793  MET794  SER795  GLU796  ALA797  LYS798  CYS799  TRP800  GLU811  SER814 

> <Gold.Protein.RotatedAtoms>
  152.5446  134.1775  159.8621 H   0  0  0  0  0  0  0  0  0  0  0  0  # atno 6907 bound_to 6896
  151.1781  133.4735  159.2601 H   0  0  0  0  0  0  0  0  0  0  0  0  # atno 6908 bound_to 6896
  151.1207  135.0089  159.8592 H   0  0  0  0  0  0  0  0  0  0  0  0  # atno 6909 bound_to 6896
  145.3106  140.9399  143.2771 H   0  0  0  0  0  0  0  0  0  0  0  0  # atno 7974 bound_to 7965
  154.7864  140.0464  157.1167 H   0  0  0  0  0  0  0  0  0  0  0  0  # atno 8008 bound_to 7997
  154.9644  140.3081  155.4996 H   0  0  0  0  0  0  0  0  0  0  0  0  # atno 8009 bound_to 7997
  156.2944  140.2265  156.4731 H   0  0  0  0  0  0  0  0  0  0  0  0  # atno 8010 bound_to 7997
  140.2103  144.3896  150.6492 H   0  0  0  0  0  0  0  0  0  0  0  0  # atno 10167 bound_to 10162
  156.0174  130.4466  150.3196 H   0  0  0  0  0  0  0  0  0  0  0  0  # atno 10718 bound_to 10713
  154.1204  135.2833  155.3210 H   0  0  0  0  0  0  0  0  0  0  0  0  # atno 10763 bound_to 10752
  154.6427  135.5396  153.7812 H   0  0  0  0  0  0  0  0  0  0  0  0  # atno 10764 bound_to 10752
  153.0315  135.6490  154.1358 H   0  0  0  0  0  0  0  0  0  0  0  0  # atno 10765 bound_to 10752
  140.1326  134.4686  155.8510 H   0  0  0  0  0  0  0  0  0  0  0  0  # atno 11005 bound_to 11000
  144.9019  139.4639  143.6628 LP  0  0  0  0  0  0  0  0  0  0  0  0  # atno 17320 bound_to 7965
  146.3119  139.7777  142.9013 LP  0  0  0  0  0  0  0  0  0  0  0  0  # atno 17321 bound_to 7965
  140.6328  143.2190  151.6459 LP  0  0  0  0  0  0  0  0  0  0  0  0  # atno 17342 bound_to 10162
  139.5182  144.3290  152.0843 LP  0  0  0  0  0  0  0  0  0  0  0  0  # atno 17343 bound_to 10162
  157.1297  131.0268  151.2974 LP  0  0  0  0  0  0  0  0  0  0  0  0  # atno 17370 bound_to 10713
  157.4561  130.7626  149.7194 LP  0  0  0  0  0  0  0  0  0  0  0  0  # atno 17371 bound_to 10713
  141.2173  133.6801  156.7097 LP  0  0  0  0  0  0  0  0  0  0  0  0  # atno 17394 bound_to 11000
  140.2823  134.8307  157.3944 LP  0  0  0  0  0  0  0  0  0  0  0  0  # atno 17395 bound_to 11000

$$$$
