#       Name:                AV-unprocessed.smi:81
#       Creating user name   scv26
#       Creation time:       Thu Mar 26 17:16:35 2020


#       File generated by GOLD software.
#

@<TRIPOS>MOLECULE
AV-unprocessed.smi:81
    71    74     1
SMALL
NO_CHARGES


@<TRIPOS>ATOM
      1 ****        -3.2436  -0.4985  -3.2705 C.3            1 S1                 0.0000
      2 ****        -2.1605  -1.0782  -2.3460 C.3            1 S1                 0.0000
      3 ****        -2.2424  -2.6122  -2.3583 C.3            1 S1                 0.0000
      4 ****        -2.2563  -0.5580  -0.8894 C.3            1 S1                 0.0000
      5 ****        -1.6901   0.7774  -0.6496 N.pl3          1 S1                 0.0000
      6 ****        -0.3344   0.7578  -0.6676 C.ar           1 S1                 0.0000
      7 ****         0.3382   1.2302  -1.7504 N.ar           1 S1                 0.0000
      8 ****         1.6739   1.1920  -1.7761 C.ar           1 S1                 0.0000
      9 ****         2.5136   0.7303  -0.8468 N.ar           1 S1                 0.0000
     10 ****         1.8399   0.2547   0.2398 C.ar           1 S1                 0.0000
     11 ****         0.4282   0.2347   0.4102 C.ar           1 S1                 0.0000
     12 ****         0.1027  -0.3082   1.6463 N.2            1 S1                 0.0000
     13 ****         1.2591  -0.6058   2.1733 C.2            1 S1                 0.0000
     14 ****         2.3550  -0.3134   1.3919 N.pl3          1 S1                 0.0000
     15 ****         3.7506  -0.5547   1.7247 C.3            1 S1                 0.0000
     16 ****         4.1967  -2.0178   1.4818 C.3            1 S1                 0.0000
     17 ****         3.4892  -2.8532   2.3832 O.3            1 S1                 0.0000
     18 ****         5.6964  -2.2123   1.7282 C.3            1 S1                 0.0000
     19 ****         6.2670  -2.4870   0.3420 C.3            1 S1                 0.0000
     20 ****         5.2103  -3.1745  -0.3033 O.3            1 S1                 0.0000
     21 ****         4.0123  -2.4811   0.0128 C.3            1 S1                 0.0000
     22 ****         2.7831  -3.3497  -0.3022 C.3            1 S1                 0.0000
     23 ****        -2.3610   2.0155  -1.0907 C.3            1 S1                 0.0000
     24 ****        -1.7715   3.2914  -0.4353 C.3            1 S1                 0.0000
     25 ****        -2.0448   3.3331   1.0793 C.3            1 S1                 0.0000
     26 ****        -3.5000   3.2627   1.3603 N.4            1 S1                 1.0000
     27 ****        -3.7998   3.3806   2.8031 C.3            1 S1                 0.0000
     28 ****        -4.1358   2.0705   0.7466 C.3            1 S1                 0.0000
     29 ****        -3.8731   2.0223  -0.7703 C.3            1 S1                 0.0000
     30 ****        -4.2429  -0.7084  -2.8890 H              1 S1                 0.0000
     31 ****        -3.1757  -0.9314  -4.2688 H              1 S1                 0.0000
     32 ****        -3.1494   0.5782  -3.3896 H              1 S1                 0.0000
     33 ****        -1.1869  -0.8180  -2.7605 H              1 S1                 0.0000
     34 ****        -3.1946  -2.9625  -1.9588 H              1 S1                 0.0000
     35 ****        -1.4468  -3.0534  -1.7571 H              1 S1                 0.0000
     36 ****        -2.1401  -3.0055  -3.3702 H              1 S1                 0.0000
     37 ****        -3.2882  -0.5990  -0.5446 H              1 S1                 0.0000
     38 ****        -1.7322  -1.2576  -0.2371 H              1 S1                 0.0000
     39 ****         2.1359   1.5852  -2.6697 H              1 S1                 0.0000
     40 ****         1.3458  -1.0597   3.1501 H              1 S1                 0.0000
     41 ****         4.3660   0.1264   1.1355 H              1 S1                 0.0000
     42 ****         3.9057  -0.2780   2.7685 H              1 S1                 0.0000
     43 ****         3.7521  -3.7476   2.2286 H              1 S1                 0.0000
     44 ****         6.1735  -1.3552   2.2049 H              1 S1                 0.0000
     45 ****         5.8820  -3.0797   2.3639 H              1 S1                 0.0000
     46 ****         6.4788  -1.5561  -0.1866 H              1 S1                 0.0000
     47 ****         7.1790  -3.0833   0.3718 H              1 S1                 0.0000
     48 ****         3.9927  -1.6074  -0.6397 H              1 S1                 0.0000
     49 ****         1.8582  -2.8353  -0.0406 H              1 S1                 0.0000
     50 ****         2.8087  -4.2958   0.2386 H              1 S1                 0.0000
     51 ****         2.7401  -3.5823  -1.3660 H              1 S1                 0.0000
     52 ****        -2.2266   2.1018  -2.1684 H              1 S1                 0.0000
     53 ****        -0.7028   3.3924  -0.6209 H              1 S1                 0.0000
     54 ****        -2.2224   4.1698  -0.8993 H              1 S1                 0.0000
     55 ****        -1.5325   2.5109   1.5815 H              1 S1                 0.0000
     56 ****        -1.6406   4.2565   1.4956 H              1 S1                 0.0000
     57 ****        -3.3783   2.5428   3.3601 H              1 S1                 0.0000
     58 ****        -4.8769   3.3976   2.9723 H              1 S1                 0.0000
     59 ****        -3.3853   4.3043   3.2081 H              1 S1                 0.0000
     60 ****        -3.7608   1.1658   1.2279 H              1 S1                 0.0000
     61 ****        -5.2108   2.1007   0.9277 H              1 S1                 0.0000
     62 ****        -4.3304   2.8969  -1.2350 H              1 S1                 0.0000
     63 ****        -4.3821   1.1685  -1.2148 H              1 S1                 0.0000
     64 ****        -3.9153   4.0683   0.9144 H              1 S1                 0.0000
     65 ****        -0.1664   1.6063  -2.5276 LP             1 S1                 0.0000
     66 ****         3.5096   0.7328  -0.9358 LP             1 S1                 0.0000
     67 ****        -0.8066  -0.4404   2.0410 LP             1 S1                 0.0000
     68 ****         2.5055  -2.7588   2.2302 LP             1 S1                 0.0000
     69 ****         3.7064  -2.5950   3.3246 LP             1 S1                 0.0000
     70 ****         5.1600  -4.1165   0.0284 LP             1 S1                 0.0000
     71 ****         5.3553  -3.1768  -1.2927 LP             1 S1                 0.0000
@<TRIPOS>BOND
    1    1    2 1     
    2    1   30 1     
    3    1   31 1     
    4    1   32 1     
    5    2    3 1     
    6    2    4 1     
    7    2   33 1     
    8    3   34 1     
    9    3   35 1     
   10    3   36 1     
   11    4    5 1     
   12    4   37 1     
   13    4   38 1     
   14    5    6 1     
   15    5   23 1     
   16    6   11 ar    
   17    6    7 ar    
   18    7    8 ar    
   19    8    9 ar    
   20    8   39 1     
   21    9   10 ar    
   22   10   14 1     
   23   10   11 ar    
   24   11   12 1     
   25   12   13 2     
   26   13   14 1     
   27   13   40 1     
   28   14   15 1     
   29   15   16 1     
   30   15   41 1     
   31   15   42 1     
   32   16   21 1     
   33   16   17 1     
   34   16   18 1     
   35   17   43 1     
   36   18   19 1     
   37   18   44 1     
   38   18   45 1     
   39   19   20 1     
   40   19   46 1     
   41   19   47 1     
   42   20   21 1     
   43   21   22 1     
   44   21   48 1     
   45   22   49 1     
   46   22   50 1     
   47   22   51 1     
   48   23   29 1     
   49   23   24 1     
   50   23   52 1     
   51   24   25 1     
   52   24   53 1     
   53   24   54 1     
   54   25   26 1     
   55   25   55 1     
   56   25   56 1     
   57   26   27 1     
   58   26   28 1     
   59   26   64 1     
   60   27   57 1     
   61   27   58 1     
   62   27   59 1     
   63   28   29 1     
   64   28   60 1     
   65   28   61 1     
   66   29   62 1     
   67   29   63 1     
   68    7   65 1     
   69    9   66 1     
   70   12   67 1     
   71   17   68 1     
   72   17   69 1     
   73   20   70 1     
   74   20   71 1     
@<TRIPOS>SUBSTRUCTURE
      1 S1             1
@<TRIPOS>SET
LONE_PAIRS      STATIC     ATOMS    <user>   **** ""
7 65 66 67 68 69 70 71
DONOR_HYDROGENS      STATIC     ATOMS    <user>   **** ""
2 43 64
ATOM$BLUE        STATIC     ATOMS    COLORGROUP SYSTEM
7 65 66 67 68 69 70 71
ATOM$RED        STATIC     ATOMS    COLORGROUP SYSTEM
2 43 64
