#       Name:                AV-unprocessed.smi:1056
#       Creating user name   scv26
#       Creation time:       Fri Mar 27 03:15:03 2020


#       File generated by GOLD software.
#

@<TRIPOS>MOLECULE
AV-unprocessed.smi:1056
    50    52     1
SMALL
NO_CHARGES


@<TRIPOS>ATOM
      1 ****        -3.2724   4.4727  -2.8779 C.3            1 S1                 0.0000
      2 ****        -2.8200   3.3679  -1.9392 C.ar           1 S1                 0.0000
      3 ****        -2.8236   3.6047  -0.5460 C.ar           1 S1                 0.0000
      4 ****        -2.4095   2.6038   0.3600 C.ar           1 S1                 0.0000
      5 ****        -2.3277   2.6184   1.7420 N.2            1 S1                 0.0000
      6 ****        -1.8729   1.3954   1.9975 C.2            1 S1                 0.0000
      7 ****        -1.6465   0.5893   0.9427 N.pl3          1 S1                 0.0000
      8 ****        -1.1494  -0.7746   0.9761 C.3            1 S1                 0.0000
      9 ****         0.3899  -0.8426   0.9725 C.3            1 S1                 0.0000
     10 ****         0.8855  -0.2339  -0.2046 O.3            1 S1                 0.0000
     11 ****         0.8928  -2.2982   1.0200 C.3            1 S1                 0.0000
     12 ****         2.3712  -2.3856   1.1205 N.4            1 S1                 1.0000
     13 ****         2.8932  -2.1423   2.4911 C.3            1 S1                 0.0000
     14 ****         4.4215  -1.9487   2.4548 C.3            1 S1                 0.0000
     15 ****         5.0507  -2.9992   1.6452 N.pl3          1 S1                -1.0000
     16 ****         4.4473  -3.7429   0.6660 C.2            1 S1                 0.0000
     17 ****         5.0213  -4.5129  -0.1009 O.2            1 S1                 0.0000
     18 ****         2.9024  -3.6514   0.5437 C.3            1 S1                 0.0000
     19 ****        -1.9907   1.3487  -0.1705 C.ar           1 S1                 0.0000
     20 ****        -1.9836   1.1005  -1.5544 C.ar           1 S1                 0.0000
     21 ****        -2.3975   2.1124  -2.4455 C.ar           1 S1                 0.0000
     22 ****        -2.3799   1.8370  -3.9387 C.3            1 S1                 0.0000
     23 ****        -3.5503   5.3730  -2.3293 H              1 S1                 0.0000
     24 ****        -4.1397   4.1516  -3.4553 H              1 S1                 0.0000
     25 ****        -2.4733   4.7370  -3.5707 H              1 S1                 0.0000
     26 ****        -3.1445   4.5611  -0.1602 H              1 S1                 0.0000
     27 ****        -1.6917   1.0661   3.0103 H              1 S1                 0.0000
     28 ****        -1.5441  -1.2588   1.8702 H              1 S1                 0.0000
     29 ****        -1.5607  -1.3165   0.1232 H              1 S1                 0.0000
     30 ****         0.7645  -0.2811   1.8280 H              1 S1                 0.0000
     31 ****         0.5837   0.6620  -0.2300 H              1 S1                 0.0000
     32 ****         0.4451  -2.8340   1.8583 H              1 S1                 0.0000
     33 ****         0.5549  -2.8097   0.1173 H              1 S1                 0.0000
     34 ****         2.4358  -1.2585   2.9340 H              1 S1                 0.0000
     35 ****         2.6315  -2.9848   3.1335 H              1 S1                 0.0000
     36 ****         4.6364  -0.9629   2.0418 H              1 S1                 0.0000
     37 ****         4.8071  -1.9341   3.4740 H              1 S1                 0.0000
     38 ****         2.4593  -4.5076   1.0547 H              1 S1                 0.0000
     39 ****         2.6238  -3.7190  -0.5089 H              1 S1                 0.0000
     40 ****        -1.6580   0.1404  -1.9268 H              1 S1                 0.0000
     41 ****        -2.0345   0.8252  -4.1527 H              1 S1                 0.0000
     42 ****        -1.7116   2.5325  -4.4469 H              1 S1                 0.0000
     43 ****        -3.3796   1.9453  -4.3599 H              1 S1                 0.0000
     44 ****         2.7420  -1.6464   0.5403 H              1 S1                 0.0000
     45 ****        -2.5517   3.3550   2.3802 LP             1 S1                 0.0000
     46 ****         0.5477  -0.7263  -1.0067 LP             1 S1                 0.0000
     47 ****         1.8853  -0.2528  -0.1986 LP             1 S1                 0.0000
     48 ****         6.0153  -3.1908   1.8266 LP             1 S1                 0.0000
     49 ****         6.0118  -4.6355  -0.0378 LP             1 S1                 0.0000
     50 ****         4.4979  -5.0168  -0.7880 LP             1 S1                 0.0000
@<TRIPOS>BOND
    1    1    2 1     
    2    1   23 1     
    3    1   24 1     
    4    1   25 1     
    5    2   21 ar    
    6    2    3 ar    
    7    3    4 ar    
    8    3   26 1     
    9    4   19 ar    
   10    4    5 1     
   11    5    6 2     
   12    6    7 1     
   13    6   27 1     
   14    7    8 1     
   15    7   19 1     
   16    8    9 1     
   17    8   28 1     
   18    8   29 1     
   19    9   10 1     
   20    9   11 1     
   21    9   30 1     
   22   10   31 1     
   23   11   12 1     
   24   11   32 1     
   25   11   33 1     
   26   12   18 1     
   27   12   13 1     
   28   12   44 1     
   29   13   14 1     
   30   13   34 1     
   31   13   35 1     
   32   14   15 1     
   33   14   36 1     
   34   14   37 1     
   35   15   16 1     
   36   16   17 2     
   37   16   18 1     
   38   18   38 1     
   39   18   39 1     
   40   19   20 ar    
   41   20   21 ar    
   42   20   40 1     
   43   21   22 1     
   44   22   41 1     
   45   22   42 1     
   46   22   43 1     
   47    5   45 1     
   48   10   46 1     
   49   10   47 1     
   50   15   48 1     
   51   17   49 1     
   52   17   50 1     
@<TRIPOS>SUBSTRUCTURE
      1 S1             1
@<TRIPOS>SET
LONE_PAIRS      STATIC     ATOMS    <user>   **** ""
6 45 46 47 48 49 50
DONOR_HYDROGENS      STATIC     ATOMS    <user>   **** ""
2 31 44
ATOM$BLUE        STATIC     ATOMS    COLORGROUP SYSTEM
6 45 46 47 48 49 50
ATOM$RED        STATIC     ATOMS    COLORGROUP SYSTEM
2 31 44
