#       Name:                AV-unprocessed.smi:1413
#       Creating user name   scv26
#       Creation time:       Fri Mar 27 05:39:02 2020


#       File generated by GOLD software.
#

@<TRIPOS>MOLECULE
AV-unprocessed.smi:1413
    61    63     1
SMALL
NO_CHARGES


@<TRIPOS>ATOM
      1 ****        -6.7443   0.6936   1.6766 C.3            1 S1                 0.0000
      2 ****        -6.0901  -0.0118   0.4841 C.3            1 S1                 0.0000
      3 ****        -4.5604   0.1622   0.4827 C.3            1 S1                 0.0000
      4 ****        -3.9924  -0.4266  -0.7216 N.3            1 S1                 0.0000
      5 ****        -2.5907  -0.4534  -0.7159 C.ar           1 S1                 0.0000
      6 ****        -1.9315  -1.6948  -0.6060 C.ar           1 S1                 0.0000
      7 ****        -0.5241  -1.7157  -0.6030 C.ar           1 S1                 0.0000
      8 ****         0.1818  -0.4995  -0.6961 C.ar           1 S1                 0.0000
      9 ****         1.6015  -0.5496  -0.7144 N.am           1 S1                 0.0000
     10 ****         2.4731   0.4201  -0.3895 C.2            1 S1                 0.0000
     11 ****         2.1678   1.5358   0.0308 O.2            1 S1                 0.0000
     12 ****         3.7376   0.0060  -0.5565 N.am           1 S1                 0.0000
     13 ****         4.9393   0.7751  -0.2408 C.3            1 S1                 0.0000
     14 ****         5.8209   0.8550  -1.4967 C.3            1 S1                 0.0000
     15 ****         5.6667   0.1169   0.9481 C.3            1 S1                 0.0000
     16 ****         6.9016   0.8745   1.4460 C.3            1 S1                 0.0000
     17 ****         6.9606   0.5589   2.9348 C.3            1 S1                 0.0000
     18 ****         5.6662  -0.2081   3.2067 C.3            1 S1                 0.0000
     19 ****         4.8359   0.1019   2.0995 O.3            1 S1                 0.0000
     20 ****        -0.5720   0.6937  -0.8098 C.ar           1 S1                 0.0000
     21 ****        -1.9221   0.7197  -0.8176 N.ar           1 S1                 0.0000
     22 ****        -4.5684   0.1355  -1.9372 C.3            1 S1                 0.0000
     23 ****        -6.1043   0.0017  -1.9257 C.3            1 S1                 0.0000
     24 ****        -6.5974  -1.4334  -2.1830 C.3            1 S1                 0.0000
     25 ****        -6.6354   0.5444  -0.7133 O.3            1 S1                 0.0000
     26 ****        -6.3686   0.2985   2.6208 H              1 S1                 0.0000
     27 ****        -7.8258   0.5557   1.6657 H              1 S1                 0.0000
     28 ****        -6.5447   1.7655   1.6587 H              1 S1                 0.0000
     29 ****        -6.3375  -1.0721   0.5413 H              1 S1                 0.0000
     30 ****        -4.3038   1.2219   0.5275 H              1 S1                 0.0000
     31 ****        -4.1280  -0.3121   1.3648 H              1 S1                 0.0000
     32 ****        -2.4922  -2.6149  -0.5298 H              1 S1                 0.0000
     33 ****         0.0037  -2.6552  -0.5265 H              1 S1                 0.0000
     34 ****         2.0014  -1.4462  -0.9493 H              1 S1                 0.0000
     35 ****         3.8832  -0.9310  -0.9021 H              1 S1                 0.0000
     36 ****         4.6715   1.7948   0.0414 H              1 S1                 0.0000
     37 ****         6.7134   1.4546  -1.3177 H              1 S1                 0.0000
     38 ****         5.2816   1.3160  -2.3249 H              1 S1                 0.0000
     39 ****         6.1445  -0.1350  -1.8198 H              1 S1                 0.0000
     40 ****         5.9403  -0.9118   0.7038 H              1 S1                 0.0000
     41 ****         7.8075   0.5758   0.9174 H              1 S1                 0.0000
     42 ****         6.7741   1.9491   1.3086 H              1 S1                 0.0000
     43 ****         7.8359  -0.0359   3.1971 H              1 S1                 0.0000
     44 ****         6.9958   1.4819   3.5145 H              1 S1                 0.0000
     45 ****         5.8515  -1.2832   3.2265 H              1 S1                 0.0000
     46 ****         5.1976   0.0754   4.1493 H              1 S1                 0.0000
     47 ****        -0.1012   1.6580  -0.9215 H              1 S1                 0.0000
     48 ****        -4.2987   1.1902  -2.0088 H              1 S1                 0.0000
     49 ****        -4.1501  -0.3606  -2.8139 H              1 S1                 0.0000
     50 ****        -6.4975   0.6195  -2.7336 H              1 S1                 0.0000
     51 ****        -6.2847  -1.7771  -3.1694 H              1 S1                 0.0000
     52 ****        -7.6859  -1.4829  -2.1462 H              1 S1                 0.0000
     53 ****        -6.2049  -2.1427  -1.4548 H              1 S1                 0.0000
     54 ****        -4.2605  -1.3899  -0.7184 LP             1 S1                 0.0000
     55 ****         1.2053   1.7777   0.1537 LP             1 S1                 0.0000
     56 ****         2.8823   2.2005   0.2493 LP             1 S1                 0.0000
     57 ****         4.1234  -0.5925   1.9996 LP             1 S1                 0.0000
     58 ****         4.4120   0.9984   2.2286 LP             1 S1                 0.0000
     59 ****        -2.4166   1.5853  -0.8967 LP             1 S1                 0.0000
     60 ****        -6.4561   1.5282  -0.7086 LP             1 S1                 0.0000
     61 ****        -7.6226   0.3855  -0.7081 LP             1 S1                 0.0000
@<TRIPOS>BOND
    1    1    2 1     
    2    1   26 1     
    3    1   27 1     
    4    1   28 1     
    5    2   25 1     
    6    2    3 1     
    7    2   29 1     
    8    3    4 1     
    9    3   30 1     
   10    3   31 1     
   11    4    5 1     
   12    4   22 1     
   13    5   21 ar    
   14    5    6 ar    
   15    6    7 ar    
   16    6   32 1     
   17    7    8 ar    
   18    7   33 1     
   19    8    9 1     
   20    8   20 ar    
   21    9   10 am    
   22    9   34 1     
   23   10   11 2     
   24   10   12 am    
   25   12   13 1     
   26   12   35 1     
   27   13   14 1     
   28   13   15 1     
   29   13   36 1     
   30   14   37 1     
   31   14   38 1     
   32   14   39 1     
   33   15   19 1     
   34   15   16 1     
   35   15   40 1     
   36   16   17 1     
   37   16   41 1     
   38   16   42 1     
   39   17   18 1     
   40   17   43 1     
   41   17   44 1     
   42   18   19 1     
   43   18   45 1     
   44   18   46 1     
   45   20   21 ar    
   46   20   47 1     
   47   22   23 1     
   48   22   48 1     
   49   22   49 1     
   50   23   24 1     
   51   23   25 1     
   52   23   50 1     
   53   24   51 1     
   54   24   52 1     
   55   24   53 1     
   56    4   54 1     
   57   11   55 1     
   58   11   56 1     
   59   19   57 1     
   60   19   58 1     
   61   21   59 1     
   62   25   60 1     
   63   25   61 1     
@<TRIPOS>SUBSTRUCTURE
      1 S1             1
@<TRIPOS>SET
LONE_PAIRS      STATIC     ATOMS    <user>   **** ""
8 54 55 56 57 58 59 60 61
DONOR_HYDROGENS      STATIC     ATOMS    <user>   **** ""
2 34 35
ATOM$BLUE        STATIC     ATOMS    COLORGROUP SYSTEM
8 54 55 56 57 58 59 60 61
ATOM$RED        STATIC     ATOMS    COLORGROUP SYSTEM
2 34 35
