AV-unprocessed.smi:270|AV-procd|sdf|2045|dock1
  -GOLD-   2262021263D 1   1.00000     0.00000
 Structure written by MMmdl.
 54 57  0  0  0  0  0  0  0  0  1 V2000
  152.1927  143.2557  159.6256 C   0  0  0  0  0  0  0  0  0  0  0  0
  150.9711  143.4139  158.7068 C   0  0  2  0  0  0  0  0  0  0  0  0
  149.8059  143.3511  159.5257 O   0  0  0  0  0  0  0  0  0  0  0  0
  148.7460  142.7866  158.7742 C   0  0  0  0  0  0  0  0  0  0  0  0
  149.4479  141.6843  157.9965 C   0  0  0  0  0  0  0  0  0  0  0  0
  150.7752  142.3301  157.6086 C   0  0  1  0  0  0  0  0  0  0  0  0
  150.5855  143.0012  156.3735 O   0  0  0  0  0  0  0  0  0  0  0  0
  151.9326  141.3127  157.4266 C   0  0  0  0  0  0  0  0  0  0  0  0
  151.4789  139.9342  157.3154 N   0  0  0  0  0  0  0  0  0  0  0  0
  151.3458  139.0248  158.3398 C   0  0  0  0  0  0  0  0  0  0  0  0
  150.9175  137.8449  157.9841 N   0  0  0  0  0  0  0  0  0  0  0  0
  150.7373  137.9448  156.6091 C   0  0  0  0  0  0  0  0  0  0  0  0
  150.2962  137.0348  155.6039 C   0  0  0  0  0  0  0  0  0  0  0  0
  149.8966  135.6904  155.8557 N   0  0  0  0  0  0  0  0  0  0  0  0
  150.6789  134.6500  155.2043 C   0  0  0  0  0  0  0  0  0  0  0  0
  149.3500  133.9484  154.9058 C   0  0  0  0  0  0  0  0  0  0  0  0
  149.0394  132.8952  155.8048 O   0  0  0  0  0  0  0  0  0  0  0  0
  149.7099  131.6855  155.4901 C   0  0  0  0  0  0  0  0  0  0  0  0
  151.0903  131.6988  156.1567 C   0  0  0  0  0  0  0  0  0  0  0  0
  151.2870  132.4988  157.0724 O   0  0  0  0  0  0  0  0  0  0  0  0
  152.0400  130.8343  155.7283 N   0  0  0  0  0  0  0  0  0  0  0  0
  153.3720  130.7406  156.3332 C   0  0  0  0  0  0  0  0  0  0  0  0
  151.7681  129.9076  154.6262 C   0  0  0  0  0  0  0  0  0  0  0  0
  148.6333  135.2473  155.2777 C   0  0  0  0  0  0  0  0  0  0  0  0
  150.2179  137.5293  154.3390 N   0  0  0  0  0  0  0  0  0  0  0  0
  150.5662  138.7897  154.0656 C   0  0  0  0  0  0  0  0  0  0  0  0
  151.0083  139.7308  154.8995 N   0  0  0  0  0  0  0  0  0  0  0  0
  151.0760  139.2593  156.1760 C   0  0  0  0  0  0  0  0  0  0  0  0
  153.1248  143.3034  159.0623 H   0  0  0  0  0  0  0  0  0  0  0  0
  152.1672  142.3095  160.1664 H   0  0  0  0  0  0  0  0  0  0  0  0
  152.2199  144.0538  160.3676 H   0  0  0  0  0  0  0  0  0  0  0  0
  151.0062  144.4085  158.2580 H   0  0  0  0  0  0  0  0  0  0  0  0
  147.9508  142.4101  159.4178 H   0  0  0  0  0  0  0  0  0  0  0  0
  148.3256  143.5378  158.1037 H   0  0  0  0  0  0  0  0  0  0  0  0
  149.6221  140.8424  158.6674 H   0  0  0  0  0  0  0  0  0  0  0  0
  148.8681  141.3188  157.1476 H   0  0  0  0  0  0  0  0  0  0  0  0
  149.8619  143.6016  156.4674 H   0  0  0  0  0  0  0  0  0  0  0  0
  152.5145  141.5512  156.5353 H   0  0  0  0  0  0  0  0  0  0  0  0
  152.6235  141.3652  158.2682 H   0  0  0  0  0  0  0  0  0  0  0  0
  151.5822  139.2649  159.3663 H   0  0  0  0  0  0  0  0  0  0  0  0
  151.1908  134.9909  154.3031 H   0  0  0  0  0  0  0  0  0  0  0  0
  151.3400  134.1146  155.8862 H   0  0  0  0  0  0  0  0  0  0  0  0
  149.2159  133.6812  153.8562 H   0  0  0  0  0  0  0  0  0  0  0  0
  149.1333  130.8379  155.8646 H   0  0  0  0  0  0  0  0  0  0  0  0
  149.8108  131.5499  154.4128 H   0  0  0  0  0  0  0  0  0  0  0  0
  153.9398  131.6545  156.1559 H   0  0  0  0  0  0  0  0  0  0  0  0
  153.9550  129.9125  155.9293 H   0  0  0  0  0  0  0  0  0  0  0  0
  153.3068  130.5790  157.4097 H   0  0  0  0  0  0  0  0  0  0  0  0
  151.1710  129.0669  154.9814 H   0  0  0  0  0  0  0  0  0  0  0  0
  152.6818  129.5075  154.1860 H   0  0  0  0  0  0  0  0  0  0  0  0
  151.2205  130.3958  153.8184 H   0  0  0  0  0  0  0  0  0  0  0  0
  147.8342  135.1310  156.0102 H   0  0  0  0  0  0  0  0  0  0  0  0
  148.3199  135.8167  154.4013 H   0  0  0  0  0  0  0  0  0  0  0  0
  150.4753  139.0862  153.0311 H   0  0  0  0  0  0  0  0  0  0  0  0
  1  2  1  0  0  0  0
  1 29  1  0  0  0  0
  1 30  1  0  0  0  0
  1 31  1  0  0  0  0
  2  6  1  0  0  0  0
  2  3  1  0  0  0  0
  2 32  1  0  0  0  0
  3  4  1  0  0  0  0
  4  5  1  0  0  0  0
  4 33  1  0  0  0  0
  4 34  1  0  0  0  0
  5  6  1  0  0  0  0
  5 35  1  0  0  0  0
  5 36  1  0  0  0  0
  6  7  1  0  0  0  0
  6  8  1  0  0  0  0
  7 37  1  0  0  0  0
  8  9  1  0  0  0  0
  8 38  1  0  0  0  0
  8 39  1  0  0  0  0
  9 28  1  0  0  0  0
  9 10  1  0  0  0  0
 10 11  2  0  0  0  0
 10 40  1  0  0  0  0
 11 12  1  0  0  0  0
 12 28  2  0  0  0  0
 12 13  1  0  0  0  0
 13 14  1  0  0  0  0
 13 25  2  0  0  0  0
 14 24  1  0  0  0  0
 14 15  1  0  0  0  0
 15 16  1  0  0  0  0
 15 41  1  0  0  0  0
 15 42  1  0  0  0  0
 16 17  1  0  0  0  0
 16 24  1  0  0  0  0
 16 43  1  0  0  0  0
 17 18  1  0  0  0  0
 18 19  1  0  0  0  0
 18 44  1  0  0  0  0
 18 45  1  0  0  0  0
 19 20  2  0  0  0  0
 19 21  1  0  0  0  0
 21 22  1  0  0  0  0
 21 23  1  0  0  0  0
 22 46  1  0  0  0  0
 22 47  1  0  0  0  0
 22 48  1  0  0  0  0
 23 49  1  0  0  0  0
 23 50  1  0  0  0  0
 23 51  1  0  0  0  0
 24 52  1  0  0  0  0
 24 53  1  0  0  0  0
 25 26  1  0  0  0  0
 26 27  2  0  0  0  0
 26 54  1  0  0  0  0
 27 28  1  0  0  0  0
M  END
> <s_m_source_file>
AV-unprocessed.smi

> <i_m_source_file_index>
270

> <i_lp_mmshare_version>
43012

> <i_f3d_flags>
0

> <s_epik_input>
W0NIMl0xW0NIMl1PW0NAQEhdKFtDSDNdKVtDQEBdMShbT0hdKVtDSDJdbihbY0hdbjIpYyhjMjMpbltjSF1uYzNONFtDSDJdW0NIXShbQ0gyXTQpT1tDSDJdQyg9TylOKFtDSDNdKVtDSDNd

> <s_epik_cmdline>
J2VwaWtfcHl0aG9uJywgJy1waCcsICc3LjAnLCAnLXRuJywgJzgnLCAnLW1hJywgJzIwMCcsICctbWV0YWxfYmluZGluZycsICctaW1hZScsICc8aW5maWxlLm1hZT4nLCAnLW9tYWUnLCAnPG91dGZpbGUubWFlPic=

> <r_lp_tautomer_probability>
1

> <r_epik_Ionization_Penalty>
0.00375854

> <r_epik_Ionization_Penalty_Charging>
0

> <r_epik_Ionization_Penalty_Neutral>
0.00375854

> <r_epik_State_Penalty>
-0

> <r_epik_Charging_Adjusted_Penalty>
0

> <i_epik_Tot_Q>
0

> <i_epik_Tot_abs_Q>
0

> <r_epik_Metal_State_Penalty>
-0

> <b_epik_Metal_Only>
0

> <s_lp_Force_Field>
OPLS_2005

> <r_lp_Energy>
54.2687

> <b_lp_Chiralities_Consistent>
1

> <s_lp_Variant>
AV-unprocessed.smi:270-1

> <Gold.Version>
5.8.1

> <Gold.Id.Protein>
6NUR|6NUR_protein|mol2

> <Gold.PLP.Fitness>
45.2619

> <Gold.PLP.PLP>
-37.0340

> <Gold.PLP.part.hbond>
-3.3232

> <Gold.PLP.part.metal>
0.0000

> <Gold.PLP.part.buried>
-7.9062

> <Gold.PLP.part.nonpolar>
-26.5712

> <Gold.PLP.part.repulsive>
0.8114

> <Gold.PLP.ligand.clash>
0.0000

> <Gold.PLP.ligand.torsion>
1.9539

> <Gold.PLP.Chemscore.Hbond>
2.8500

> <Gold.PLP.Chemscore.CHOScore>
1.0000

> <Gold.PLP.Chemscore.Metal>
0.0000

> <Gold.Chemscore.Hbonds>
donor molecule, donor type, donor heavy atom, donor atom, acceptor molecule, acceptor atom, score
      L1  H     7    37       P1  8028  0.90
      P1  H  6896  6908       L1    20  0.31
      P1  H  7989  7998       L1    27  0.70
      L1  C    26    54       P1  7957  1.00

> <Gold.PLP.Chemscore.Internal.Correction>
0.5858

> <Gold.Rescore>
     Score         DG    S(hbond)    S(metal)    S(lipo)     H(rot)  DE(clash)    DE(int)     intcor
     11.09     -14.99       2.58        0.00      76.03       3.12       1.66       2.24       ----

> <Gold.Chemscore.Fitness>
11.0914

> <Gold.Chemscore.DG>
-14.9926

> <Gold.Chemscore.ZeroCoef>
-5.4800

> <Gold.Chemscore.Hbond>
2.5788

> <Gold.Chemscore.Metal>
0.0000

> <Gold.Chemscore.Lipo>
76.0283

> <Gold.Chemscore.Internal_Hbond>
0.0000

> <Gold.Chemscore.DEClash>
1.6644

> <Gold.Chemscore.DEInternal>
2.2368

> <Gold.Chemscore.Rot>
3.1234

> <Gold.Chemscore.Internal.Correction>
   9.000000E+99

> <Gold.Chemscore.Hbonds>
donor molecule, donor type, donor heavy atom, donor atom, acceptor molecule, acceptor atom, score
      L1  H     7    37       P1  8028  0.88
      P1  H  6896  6908       L1    20  0.30
      P1  H  7989  7998       L1    27  0.07

> <Gold.Chemscore.Hbond.Weighted>
-8.6132

> <Gold.Chemscore.Metal.Weighted>
-0.0000

> <Gold.Chemscore.Lipo.Weighted>
-8.8953

> <Gold.Chemscore.Internal_Hbond.Weighted>
0.0000

> <Gold.Chemscore.DEClash.Weighted>
1.6644

> <Gold.Chemscore.DEInternal.Weighted>
2.2368

> <Gold.Chemscore.Rot.Weighted>
7.9959

> <Gold.Chemscore.Internal.Correction.Weighted>
   9.000000E+99

> <Gold.Protein.RotatedTorsions>
[ 6907 6896 6895 6894 ] final   74.70 input  -60.11 | X-H torsion
[ 7974 7965 7964 7962 ] final  -80.66 input  175.53 | X-H torsion
[ 8008 7997 7996 7995 ] final   54.27 input   59.86 | X-H torsion
[ 10167 10162 10161 10158 ] final   69.00 input  -65.29 | X-H torsion
[ 10718 10713 10712 10709 ] final -115.72 input   66.30 | X-H torsion
[ 10763 10752 10751 10750 ] final  -20.14 input  -60.55 | X-H torsion
[ 11005 11000 10999 10996 ] final  175.84 input  -57.11 | X-H torsion

> <Gold.Protein.ActiveResidues>
 VAL166  LYS551  ARG553  GLY616  TRP617  ASP618  TYR619  PRO620  LYS621  CYS622 
 ASP623  PHE694  ASN695  SER759  ASP760  ASP761  ALA762  ILE779  LEU786  VAL792 
 PHE793  MET794  SER795  GLU796  ALA797  LYS798  CYS799  TRP800  GLU811  SER814 

> <Gold.Protein.RotatedAtoms>
  152.4989  134.4232  159.9487 H   0  0  0  0  0  0  0  0  0  0  0  0  # atno 6907 bound_to 6896
  151.4206  133.3693  159.2763 H   0  0  0  0  0  0  0  0  0  0  0  0  # atno 6908 bound_to 6896
  150.9225  134.8665  159.7558 H   0  0  0  0  0  0  0  0  0  0  0  0  # atno 6909 bound_to 6896
  145.5570  140.9488  143.1468 H   0  0  0  0  0  0  0  0  0  0  0  0  # atno 7974 bound_to 7965
  155.4820  140.3468  155.4341 H   0  0  0  0  0  0  0  0  0  0  0  0  # atno 8008 bound_to 7997
  156.1033  140.1441  156.9467 H   0  0  0  0  0  0  0  0  0  0  0  0  # atno 8009 bound_to 7997
  154.4708  140.0901  156.7117 H   0  0  0  0  0  0  0  0  0  0  0  0  # atno 8010 bound_to 7997
  140.0726  144.5140  150.7217 H   0  0  0  0  0  0  0  0  0  0  0  0  # atno 10167 bound_to 10162
  156.0914  130.6096  150.8942 H   0  0  0  0  0  0  0  0  0  0  0  0  # atno 10718 bound_to 10713
  153.6158  135.6994  153.5329 H   0  0  0  0  0  0  0  0  0  0  0  0  # atno 10763 bound_to 10752
  153.2978  135.4138  155.1225 H   0  0  0  0  0  0  0  0  0  0  0  0  # atno 10764 bound_to 10752
  154.8554  135.3641  154.5698 H   0  0  0  0  0  0  0  0  0  0  0  0  # atno 10765 bound_to 10752
  140.3666  134.7066  157.4365 H   0  0  0  0  0  0  0  0  0  0  0  0  # atno 11005 bound_to 11000
  144.7501  139.7215  143.7276 LP  0  0  0  0  0  0  0  0  0  0  0  0  # atno 17320 bound_to 7965
  146.1877  139.5102  142.9825 LP  0  0  0  0  0  0  0  0  0  0  0  0  # atno 17321 bound_to 7965
  140.7118  143.2511  151.4557 LP  0  0  0  0  0  0  0  0  0  0  0  0  # atno 17342 bound_to 10162
  139.5827  144.1673  152.1989 LP  0  0  0  0  0  0  0  0  0  0  0  0  # atno 17343 bound_to 10162
  157.6064  131.0939  150.8871 LP  0  0  0  0  0  0  0  0  0  0  0  0  # atno 17370 bound_to 10713
  156.9019  130.5249  149.5282 LP  0  0  0  0  0  0  0  0  0  0  0  0  # atno 17371 bound_to 10713
  140.0584  134.6030  155.8777 LP  0  0  0  0  0  0  0  0  0  0  0  0  # atno 17394 bound_to 11000
  141.1967  133.6593  156.5708 LP  0  0  0  0  0  0  0  0  0  0  0  0  # atno 17395 bound_to 11000

$$$$
