AV-unprocessed.smi:887|AV-procd|sdf|4052|dock10
  -GOLD-   22720 1543D 1   1.00000     0.00000
 Structure written by MMmdl.
 31 32  0  0  0  0  0  0  0  0  1 V2000
  148.4799  134.8376  155.0494 C   0  0  0  0  0  0  0  0  0  0  0  0
  149.0932  136.1221  154.7485 N   0  0  0  0  0  0  0  0  0  0  0  0
  150.0336  136.7057  155.5061 C   0  0  0  0  0  0  0  0  0  0  0  0
  150.4730  136.2053  156.5416 O   0  0  0  0  0  0  0  0  0  0  0  0
  150.5620  138.0586  155.0233 C   0  0  0  0  0  0  0  0  0  0  0  0
  151.2171  138.8033  156.1424 C   0  0  0  0  0  0  0  0  0  0  0  0
  152.2430  138.2863  156.8091 N   0  0  0  0  0  0  0  0  0  0  0  0
  152.5387  139.2710  157.7623 O   0  0  0  0  0  0  0  0  0  0  0  0
  151.6679  140.2843  157.5343 C   0  0  0  0  0  0  0  0  0  0  0  0
  151.6740  141.4595  158.4616 C   0  0  2  0  0  0  0  0  0  0  0  0
  151.8829  142.7879  157.7025 C   0  0  0  0  0  0  0  0  0  0  0  0
  152.1900  143.9510  158.6299 C   0  0  0  0  0  0  0  0  0  0  0  0
  152.5082  143.8047  159.9273 C   0  0  0  0  0  0  0  0  0  0  0  0
  152.6090  142.4564  160.6162 C   0  0  0  0  0  0  0  0  0  0  0  0
  152.6891  141.2943  159.6093 C   0  0  0  0  0  0  0  0  0  0  0  0
  150.7928  140.0265  156.5639 N   0  0  0  0  0  0  0  0  0  0  0  0
  147.7296  134.5985  154.2957 H   0  0  0  0  0  0  0  0  0  0  0  0
  147.9898  134.8584  156.0236 H   0  0  0  0  0  0  0  0  0  0  0  0
  149.2265  134.0426  155.0518 H   0  0  0  0  0  0  0  0  0  0  0  0
  148.7838  136.5976  153.9128 H   0  0  0  0  0  0  0  0  0  0  0  0
  151.2815  137.8962  154.2199 H   0  0  0  0  0  0  0  0  0  0  0  0
  149.7533  138.6606  154.6059 H   0  0  0  0  0  0  0  0  0  0  0  0
  150.6854  141.5005  158.9217 H   0  0  0  0  0  0  0  0  0  0  0  0
  152.7213  142.6996  157.0108 H   0  0  0  0  0  0  0  0  0  0  0  0
  151.0015  143.0204  157.1042 H   0  0  0  0  0  0  0  0  0  0  0  0
  152.1489  144.9399  158.1972 H   0  0  0  0  0  0  0  0  0  0  0  0
  152.6958  144.6773  160.5356 H   0  0  0  0  0  0  0  0  0  0  0  0
  153.4865  142.4469  161.2633 H   0  0  0  0  0  0  0  0  0  0  0  0
  151.7371  142.3394  161.2606 H   0  0  0  0  0  0  0  0  0  0  0  0
  152.5250  140.3501  160.1299 H   0  0  0  0  0  0  0  0  0  0  0  0
  153.6975  141.2462  159.1953 H   0  0  0  0  0  0  0  0  0  0  0  0
  1  2  1  0  0  0  0
  1 17  1  0  0  0  0
  1 18  1  0  0  0  0
  1 19  1  0  0  0  0
  2  3  1  0  0  0  0
  2 20  1  0  0  0  0
  3  4  2  0  0  0  0
  3  5  1  0  0  0  0
  5  6  1  0  0  0  0
  5 21  1  0  0  0  0
  5 22  1  0  0  0  0
  6 16  1  0  0  0  0
  6  7  2  0  0  0  0
  7  8  1  0  0  0  0
  8  9  1  0  0  0  0
  9 10  1  0  0  0  0
  9 16  2  0  0  0  0
 10 15  1  0  0  0  0
 10 11  1  0  0  0  0
 10 23  1  0  0  0  0
 11 12  1  0  0  0  0
 11 24  1  0  0  0  0
 11 25  1  0  0  0  0
 12 13  2  0  0  0  0
 12 26  1  0  0  0  0
 13 14  1  0  0  0  0
 13 27  1  0  0  0  0
 14 15  1  0  0  0  0
 14 28  1  0  0  0  0
 14 29  1  0  0  0  0
 15 30  1  0  0  0  0
 15 31  1  0  0  0  0
M  END
> <s_m_source_file>
AV-unprocessed.smi

> <i_m_source_file_index>
887

> <i_lp_mmshare_version>
43012

> <i_f3d_flags>
0

> <s_epik_input>
W0NIM11bTkhdQyg9TylbQ0gyXWMxbm9jKG4xKVtDQEBIXTJbQ0gyXVtDSF09W0NIXVtDSDJdW0NIMl0y

> <s_epik_cmdline>
J2VwaWtfcHl0aG9uJywgJy1waCcsICc3LjAnLCAnLXRuJywgJzgnLCAnLW1hJywgJzIwMCcsICctbWV0YWxfYmluZGluZycsICctaW1hZScsICc8aW5maWxlLm1hZT4nLCAnLW9tYWUnLCAnPG91dGZpbGUubWFlPic=

> <r_lp_tautomer_probability>
1

> <r_epik_Ionization_Penalty>
1.02915e-07

> <r_epik_Ionization_Penalty_Charging>
0

> <r_epik_Ionization_Penalty_Neutral>
1.02915e-07

> <r_epik_State_Penalty>
-0

> <r_epik_Charging_Adjusted_Penalty>
0

> <i_epik_Tot_Q>
0

> <i_epik_Tot_abs_Q>
0

> <r_epik_Metal_State_Penalty>
-0

> <b_epik_Metal_Only>
0

> <s_lp_Force_Field>
OPLS_2005

> <r_lp_Energy>
6.3781

> <b_lp_Chiralities_Consistent>
1

> <s_lp_Variant>
AV-unprocessed.smi:887-1

> <Gold.Version>
5.8.1

> <Gold.Id.Protein>
6NUR|6NUR_protein|mol2

> <Gold.PLP.Fitness>
41.5626

> <Gold.PLP.PLP>
-33.8128

> <Gold.PLP.part.hbond>
-4.4437

> <Gold.PLP.part.metal>
0.0000

> <Gold.PLP.part.buried>
-2.9417

> <Gold.PLP.part.nonpolar>
-26.9866

> <Gold.PLP.part.repulsive>
0.0883

> <Gold.PLP.ligand.clash>
0.0000

> <Gold.PLP.ligand.torsion>
0.3423

> <Gold.PLP.Chemscore.Hbond>
2.7760

> <Gold.PLP.Chemscore.CHOScore>
0.0000

> <Gold.PLP.Chemscore.Metal>
0.0000

> <Gold.Chemscore.Hbonds>
donor molecule, donor type, donor heavy atom, donor atom, acceptor molecule, acceptor atom, score
      L1  H     2    20       P1  7948  0.60
      P1  H  7997  8009       L1     8  0.36

> <Gold.PLP.Chemscore.Internal.Correction>
0.1064

> <Gold.Rescore>
     Score         DG    S(hbond)    S(metal)    S(lipo)     H(rot)  DE(clash)    DE(int)     intcor
     13.85     -17.18       2.13        0.00      74.97       1.63       0.95       2.37       ----

> <Gold.Chemscore.Fitness>
13.8550

> <Gold.Chemscore.DG>
-17.1768

> <Gold.Chemscore.ZeroCoef>
-5.4800

> <Gold.Chemscore.Hbond>
2.1261

> <Gold.Chemscore.Metal>
0.0000

> <Gold.Chemscore.Lipo>
74.9705

> <Gold.Chemscore.Internal_Hbond>
0.0000

> <Gold.Chemscore.DEClash>
0.9492

> <Gold.Chemscore.DEInternal>
2.3726

> <Gold.Chemscore.Rot>
1.6312

> <Gold.Chemscore.Internal.Correction>
   9.000000E+99

> <Gold.Chemscore.Hbonds>
donor molecule, donor type, donor heavy atom, donor atom, acceptor molecule, acceptor atom, score
      L1  H     2    20       P1  7948  0.58
      P1  H  7997  8009       L1     8  0.05

> <Gold.Chemscore.Hbond.Weighted>
-7.1011

> <Gold.Chemscore.Metal.Weighted>
-0.0000

> <Gold.Chemscore.Lipo.Weighted>
-8.7716

> <Gold.Chemscore.Internal_Hbond.Weighted>
0.0000

> <Gold.Chemscore.DEClash.Weighted>
0.9492

> <Gold.Chemscore.DEInternal.Weighted>
2.3726

> <Gold.Chemscore.Rot.Weighted>
4.1758

> <Gold.Chemscore.Internal.Correction.Weighted>
   9.000000E+99

> <Gold.Protein.RotatedTorsions>
[ 6907 6896 6895 6894 ] final  -40.32 input  -60.11 | X-H torsion
[ 7974 7965 7964 7962 ] final   81.52 input  175.53 | X-H torsion
[ 8008 7997 7996 7995 ] final  158.22 input   59.86 | X-H torsion
[ 10167 10162 10161 10158 ] final  156.12 input  -65.29 | X-H torsion
[ 10718 10713 10712 10709 ] final -107.17 input   66.30 | X-H torsion
[ 10763 10752 10751 10750 ] final  -46.89 input  -60.55 | X-H torsion
[ 11005 11000 10999 10996 ] final  -90.21 input  -57.11 | X-H torsion

> <Gold.Protein.ActiveResidues>
 VAL166  LYS551  ARG553  GLY616  TRP617  ASP618  TYR619  PRO620  LYS621  CYS622 
 ASP623  PHE694  ASN695  SER759  ASP760  ASP761  ALA762  ILE779  LEU786  VAL792 
 PHE793  MET794  SER795  GLU796  ALA797  LYS798  CYS799  TRP800  GLU811  SER814 

> <Gold.Protein.RotatedAtoms>
  150.9798  134.9155  159.7837 H   0  0  0  0  0  0  0  0  0  0  0  0  # atno 6907 bound_to 6896
  152.5218  134.3426  159.9232 H   0  0  0  0  0  0  0  0  0  0  0  0  # atno 6908 bound_to 6896
  151.3433  133.3913  159.2708 H   0  0  0  0  0  0  0  0  0  0  0  0  # atno 6909 bound_to 6896
  145.6370  139.2417  143.2052 H   0  0  0  0  0  0  0  0  0  0  0  0  # atno 7974 bound_to 7965
  156.2316  140.1864  156.7227 H   0  0  0  0  0  0  0  0  0  0  0  0  # atno 8008 bound_to 7997
  154.6033  140.0633  156.9424 H   0  0  0  0  0  0  0  0  0  0  0  0  # atno 8009 bound_to 7997
  155.2138  140.3302  155.4327 H   0  0  0  0  0  0  0  0  0  0  0  0  # atno 8010 bound_to 7997
  139.4821  144.5037  151.8130 H   0  0  0  0  0  0  0  0  0  0  0  0  # atno 10167 bound_to 10162
  156.0424  130.5649  150.7783 H   0  0  0  0  0  0  0  0  0  0  0  0  # atno 10718 bound_to 10713
  154.0524  135.6629  153.4802 H   0  0  0  0  0  0  0  0  0  0  0  0  # atno 10763 bound_to 10752
  153.0458  135.5115  154.7738 H   0  0  0  0  0  0  0  0  0  0  0  0  # atno 10764 bound_to 10752
  154.6749  135.3035  154.9659 H   0  0  0  0  0  0  0  0  0  0  0  0  # atno 10765 bound_to 10752
  141.1570  133.7678  156.9705 H   0  0  0  0  0  0  0  0  0  0  0  0  # atno 11005 bound_to 11000
  146.1311  140.7184  142.9412 LP  0  0  0  0  0  0  0  0  0  0  0  0  # atno 17320 bound_to 7965
  144.7172  140.4249  143.7036 LP  0  0  0  0  0  0  0  0  0  0  0  0  # atno 17321 bound_to 7965
  140.4533  144.1825  150.5899 LP  0  0  0  0  0  0  0  0  0  0  0  0  # atno 17342 bound_to 10162
  140.4562  143.2467  151.9282 LP  0  0  0  0  0  0  0  0  0  0  0  0  # atno 17343 bound_to 10162
  157.5258  131.0934  151.0020 LP  0  0  0  0  0  0  0  0  0  0  0  0  # atno 17370 bound_to 10713
  157.0339  130.5722  149.5347 LP  0  0  0  0  0  0  0  0  0  0  0  0  # atno 17371 bound_to 10713
  140.1132  134.9464  157.2096 LP  0  0  0  0  0  0  0  0  0  0  0  0  # atno 17394 bound_to 11000
  140.3167  134.2963  155.7255 LP  0  0  0  0  0  0  0  0  0  0  0  0  # atno 17395 bound_to 11000

$$$$
