AV-unprocessed.smi:41|AV-procd|sdf|384|dock3
  -GOLD-   2262016243D 1   1.00000     0.00000
 Structure written by MMmdl.
 26 27  0  0  0  0  0  0  0  0  1 V2000
  148.8286  140.5318  153.4437 N   0  0  0  0  0  0  0  0  0  0  0  0
  149.4312  140.6762  154.6327 C   0  0  0  0  0  0  0  0  0  0  0  0
  150.6788  140.2722  154.7719 N   0  0  0  0  0  0  0  0  0  0  0  0
  151.3764  140.3748  155.9470 C   0  0  0  0  0  0  0  0  0  0  0  0
  152.5313  139.9572  156.0218 O   0  0  0  0  0  0  0  0  0  0  0  0
  150.7186  140.9755  157.0510 N   0  0  0  0  0  0  0  0  0  0  0  0
  151.3700  141.0459  158.3570 C   0  0  1  0  0  0  0  0  0  0  0  0
  152.0484  139.7333  158.8037 C   0  0  0  0  0  0  0  0  0  0  0  0
  153.3644  140.1976  159.9421 S   0  0  0  0  0  0  0  0  0  0  0  0
  153.1303  141.9378  159.5112 C   0  0  2  0  0  0  0  0  0  0  0  0
  152.4936  142.7413  160.6610 C   0  0  0  0  0  0  0  0  0  0  0  0
  153.2127  142.5413  161.8598 O   0  0  0  0  0  0  0  0  0  0  0  0
  152.3378  142.0480  158.3381 O   0  0  0  0  0  0  0  0  0  0  0  0
  149.3937  141.3741  156.9188 C   0  0  0  0  0  0  0  0  0  0  0  0
  148.7252  141.2562  155.7516 C   0  0  0  0  0  0  0  0  0  0  0  0
  147.4465  141.6559  155.6415 F   0  0  0  0  0  0  0  0  0  0  0  0
  150.6392  141.3262  159.1163 H   0  0  0  0  0  0  0  0  0  0  0  0
  154.1048  142.3693  159.2795 H   0  0  0  0  0  0  0  0  0  0  0  0
  147.8709  140.8305  153.3252 H   0  0  0  0  0  0  0  0  0  0  0  0
  149.3322  140.1223  152.6701 H   0  0  0  0  0  0  0  0  0  0  0  0
  151.3191  139.0754  159.2768 H   0  0  0  0  0  0  0  0  0  0  0  0
  152.5004  139.1989  157.9712 H   0  0  0  0  0  0  0  0  0  0  0  0
  152.5135  143.8066  160.4289 H   0  0  0  0  0  0  0  0  0  0  0  0
  151.4508  142.4634  160.8157 H   0  0  0  0  0  0  0  0  0  0  0  0
  152.8152  141.8265  162.3332 H   0  0  0  0  0  0  0  0  0  0  0  0
  148.8562  141.7795  157.7628 H   0  0  0  0  0  0  0  0  0  0  0  0
  1  2  1  0  0  0  0
  1 19  1  0  0  0  0
  1 20  1  0  0  0  0
  2 15  1  0  0  0  0
  2  3  2  0  0  0  0
  3  4  1  0  0  0  0
  4  5  2  0  0  0  0
  4  6  1  0  0  0  0
  6  7  1  0  0  0  0
  6 14  1  0  0  0  0
  7 17  1  0  0  0  0
  7 13  1  0  0  0  0
  7  8  1  0  0  0  0
  8  9  1  0  0  0  0
  8 21  1  0  0  0  0
  8 22  1  0  0  0  0
  9 10  1  0  0  0  0
 10 18  1  0  0  0  0
 10 11  1  0  0  0  0
 10 13  1  0  0  0  0
 11 12  1  0  0  0  0
 11 23  1  0  0  0  0
 11 24  1  0  0  0  0
 12 25  1  0  0  0  0
 14 15  2  0  0  0  0
 14 26  1  0  0  0  0
 15 16  1  0  0  0  0
M  END
> <s_m_source_file>
AV-unprocessed.smi

> <i_m_source_file_index>
41

> <i_lp_mmshare_version>
43012

> <i_f3d_flags>
0

> <s_epik_input>
W05IMl1jMW5jKD1PKW4oW2NIXWMxRilbQ0BASF0yW0NIMl1TW0NAQEhdKE8yKVtDSDJdW09IXQ==

> <s_epik_cmdline>
J2VwaWtfcHl0aG9uJywgJy1waCcsICc3LjAnLCAnLXRuJywgJzgnLCAnLW1hJywgJzIwMCcsICctbWV0YWxfYmluZGluZycsICctaW1hZScsICc8aW5maWxlLm1hZT4nLCAnLW9tYWUnLCAnPG91dGZpbGUubWFlPic=

> <r_lp_tautomer_probability>
1

> <r_epik_Ionization_Penalty>
0.000101883

> <r_epik_Ionization_Penalty_Charging>
1.48607e-08

> <r_epik_Ionization_Penalty_Neutral>
0.000101868

> <r_epik_State_Penalty>
-0

> <r_epik_Charging_Adjusted_Penalty>
1.48607e-08

> <i_epik_Tot_Q>
0

> <i_epik_Tot_abs_Q>
0

> <r_epik_Metal_State_Penalty>
-0

> <b_epik_Metal_Only>
0

> <s_epik_Chemistry_Notes>
This compound contains an acetal/aminal-like group ( X-CH(R)-Y where X, Y are N, S, or O) that may be acid/base labile, releasing an aldehyde.

> <s_lp_Force_Field>
OPLS_2005

> <r_lp_Energy>
13.4753

> <b_lp_Chiralities_Consistent>
1

> <s_lp_Variant>
AV-unprocessed.smi:41-2

> <Gold.Version>
5.8.1

> <Gold.Id.Protein>
6NUR|6NUR_protein|mol2

> <Gold.PLP.Fitness>
38.5763

> <Gold.PLP.PLP>
-30.1734

> <Gold.PLP.part.hbond>
-2.7753

> <Gold.PLP.part.metal>
0.0000

> <Gold.PLP.part.buried>
-4.5516

> <Gold.PLP.part.nonpolar>
-22.7253

> <Gold.PLP.part.repulsive>
0.2426

> <Gold.PLP.ligand.clash>
0.0000

> <Gold.PLP.ligand.torsion>
0.2873

> <Gold.PLP.Chemscore.Hbond>
2.9760

> <Gold.PLP.Chemscore.CHOScore>
0.0000

> <Gold.PLP.Chemscore.Metal>
0.0000

> <Gold.Chemscore.Hbonds>
donor molecule, donor type, donor heavy atom, donor atom, acceptor molecule, acceptor atom, score
      L1  H     1    20       P1  7957  0.99
      P1  H  7989  7998       L1     3  1.00
      P1  H  7997  8010       L1     5  1.00

> <Gold.PLP.Chemscore.Internal.Correction>
0.0496

> <Gold.Rescore>
     Score         DG    S(hbond)    S(metal)    S(lipo)     H(rot)  DE(clash)    DE(int)     intcor
     12.24     -13.83       2.70        0.00      42.43       2.19       0.04       1.56       ----

> <Gold.Chemscore.Fitness>
12.2417

> <Gold.Chemscore.DG>
-13.8348

> <Gold.Chemscore.ZeroCoef>
-5.4800

> <Gold.Chemscore.Hbond>
2.6959

> <Gold.Chemscore.Metal>
0.0000

> <Gold.Chemscore.Lipo>
42.4290

> <Gold.Chemscore.Internal_Hbond>
0.0000

> <Gold.Chemscore.DEClash>
0.0375

> <Gold.Chemscore.DEInternal>
1.5556

> <Gold.Chemscore.Rot>
2.1929

> <Gold.Chemscore.Internal.Correction>
   9.000000E+99

> <Gold.Chemscore.Hbonds>
donor molecule, donor type, donor heavy atom, donor atom, acceptor molecule, acceptor atom, score
      L1  H     1    20       P1  7957  0.88
      P1  H  7989  7998       L1     3  0.52
      P1  H  7997  8010       L1     5  1.00

> <Gold.Chemscore.Hbond.Weighted>
-9.0043

> <Gold.Chemscore.Metal.Weighted>
-0.0000

> <Gold.Chemscore.Lipo.Weighted>
-4.9642

> <Gold.Chemscore.Internal_Hbond.Weighted>
0.0000

> <Gold.Chemscore.DEClash.Weighted>
0.0375

> <Gold.Chemscore.DEInternal.Weighted>
1.5556

> <Gold.Chemscore.Rot.Weighted>
5.6137

> <Gold.Chemscore.Internal.Correction.Weighted>
   9.000000E+99

> <Gold.Protein.RotatedTorsions>
[ 6907 6896 6895 6894 ] final  -70.12 input  -60.11 | X-H torsion
[ 7974 7965 7964 7962 ] final   36.99 input  175.53 | X-H torsion
[ 8008 7997 7996 7995 ] final   85.98 input   59.86 | X-H torsion
[ 10167 10162 10161 10158 ] final    1.65 input  -65.29 | X-H torsion
[ 10718 10713 10712 10709 ] final   34.69 input   66.30 | X-H torsion
[ 10763 10752 10751 10750 ] final  -22.69 input  -60.55 | X-H torsion
[ 11005 11000 10999 10996 ] final  110.99 input  -57.11 | X-H torsion

> <Gold.Protein.ActiveResidues>
 VAL166  LYS551  ARG553  GLY616  TRP617  ASP618  TYR619  PRO620  LYS621  CYS622 
 ASP623  PHE694  ASN695  SER759  ASP760  ASP761  ALA762  ILE779  LEU786  VAL792 
 PHE793  MET794  SER795  GLU796  ALA797  LYS798  CYS799  TRP800  GLU811  SER814 

> <Gold.Protein.RotatedAtoms>
  150.7273  134.5499  159.5789 H   0  0  0  0  0  0  0  0  0  0  0  0  # atno 6907 bound_to 6896
  152.2989  134.7632  160.0371 H   0  0  0  0  0  0  0  0  0  0  0  0  # atno 6908 bound_to 6896
  151.8219  133.3360  159.3623 H   0  0  0  0  0  0  0  0  0  0  0  0  # atno 6909 bound_to 6896
  146.1170  139.5949  142.9314 H   0  0  0  0  0  0  0  0  0  0  0  0  # atno 7974 bound_to 7965
  155.9569  140.3396  155.6456 H   0  0  0  0  0  0  0  0  0  0  0  0  # atno 8008 bound_to 7997
  155.6848  140.0742  157.2489 H   0  0  0  0  0  0  0  0  0  0  0  0  # atno 8009 bound_to 7997
  154.4134  140.1668  156.2010 H   0  0  0  0  0  0  0  0  0  0  0  0  # atno 8010 bound_to 7997
  140.6673  143.7145  150.7852 H   0  0  0  0  0  0  0  0  0  0  0  0  # atno 10167 bound_to 10162
  157.3134  130.7411  149.6739 H   0  0  0  0  0  0  0  0  0  0  0  0  # atno 10718 bound_to 10713
  153.6560  135.6978  153.5193 H   0  0  0  0  0  0  0  0  0  0  0  0  # atno 10763 bound_to 10752
  153.2669  135.4227  155.0949 H   0  0  0  0  0  0  0  0  0  0  0  0  # atno 10764 bound_to 10752
  154.8464  135.3569  154.6105 H   0  0  0  0  0  0  0  0  0  0  0  0  # atno 10765 bound_to 10752
  139.8894  134.9497  156.6364 H   0  0  0  0  0  0  0  0  0  0  0  0  # atno 11005 bound_to 11000
  145.5545  141.0410  143.2260 LP  0  0  0  0  0  0  0  0  0  0  0  0  # atno 17320 bound_to 7965
  144.7562  139.7068  143.7253 LP  0  0  0  0  0  0  0  0  0  0  0  0  # atno 17321 bound_to 7965
  140.0825  143.4955  152.2522 LP  0  0  0  0  0  0  0  0  0  0  0  0  # atno 17342 bound_to 10162
  139.5926  144.7556  151.3363 LP  0  0  0  0  0  0  0  0  0  0  0  0  # atno 17343 bound_to 10162
  155.9679  130.4244  150.4608 LP  0  0  0  0  0  0  0  0  0  0  0  0  # atno 17370 bound_to 10713
  157.2611  131.0567  151.2320 LP  0  0  0  0  0  0  0  0  0  0  0  0  # atno 17371 bound_to 10713
  140.7627  133.8804  155.8431 LP  0  0  0  0  0  0  0  0  0  0  0  0  # atno 17394 bound_to 11000
  140.9908  134.1281  157.4409 LP  0  0  0  0  0  0  0  0  0  0  0  0  # atno 17395 bound_to 11000

$$$$
