AV-unprocessed.smi:2775|AV-procd|sdf|10701|dock2
  -GOLD-   2272015143D 1   1.00000     0.00000
 Structure written by MMmdl.
 43 46  0  0  0  0  0  0  0  0  2 V2000
  147.1016  138.8656  152.4677 C   0  0  0  0  0  0  0  0  0  0  0  0
  147.3296  139.9575  153.4951 C   0  0  0  0  0  0  0  0  0  0  0  0
  146.3820  140.9130  153.6174 N   0  3  0  0  0  0  0  0  0  0  0  0
  146.4722  141.9288  154.5006 C   0  0  0  0  0  0  0  0  0  0  0  0
  147.5954  142.0300  155.3440 C   0  0  0  0  0  0  0  0  0  0  0  0
  148.6284  141.0632  155.2472 C   0  0  0  0  0  0  0  0  0  0  0  0
  149.7940  141.0727  156.0622 N   0  0  0  0  0  0  0  0  0  0  0  0
  149.9790  141.5892  157.2923 C   0  0  0  0  0  0  0  0  0  0  0  0
  149.1185  142.1711  157.9484 O   0  0  0  0  0  0  0  0  0  0  0  0
  151.2256  141.4240  157.7674 N   0  0  0  0  0  0  0  0  0  0  0  0
  151.7483  141.8656  159.0615 C   0  0  1  0  0  0  0  0  0  0  0  0
  153.2229  141.4685  159.2622 C   0  0  2  0  0  0  0  0  0  0  0  0
  153.5973  140.5120  160.3618 C   0  0  0  0  0  0  0  0  0  0  0  0
  154.0420  141.4460  161.4907 C   0  0  0  0  0  0  0  0  0  0  0  0
  153.4155  142.6926  161.1959 O   0  0  0  0  0  0  0  0  0  0  0  0
  153.4737  142.8784  159.7848 C   0  0  2  0  0  0  0  0  0  0  0  0
  152.1729  143.3486  159.1227 C   0  0  0  0  0  0  0  0  0  0  0  0
  152.2283  144.2568  157.8794 C   0  0  0  0  0  0  0  0  0  0  0  0
  150.9832  144.9806  158.3991 C   0  0  0  0  0  0  0  0  0  0  0  0
  151.2843  144.4094  159.7879 C   0  0  0  0  0  0  0  0  0  0  0  0
  148.4816  140.0060  154.3149 C   0  0  0  0  0  0  0  0  0  0  0  0
  149.7005  138.7834  154.1727 Cl  0  0  0  0  0  0  0  0  0  0  0  0
  147.8949  138.8777  151.7198 H   0  0  0  0  0  0  0  0  0  0  0  0
  146.1488  138.9952  151.9529 H   0  0  0  0  0  0  0  0  0  0  0  0
  147.0958  137.8869  152.9481 H   0  0  0  0  0  0  0  0  0  0  0  0
  145.6451  142.6238  154.5101 H   0  0  0  0  0  0  0  0  0  0  0  0
  147.6328  142.8415  156.0537 H   0  0  0  0  0  0  0  0  0  0  0  0
  150.6187  140.6800  155.6310 H   0  0  0  0  0  0  0  0  0  0  0  0
  151.8757  140.9267  157.1755 H   0  0  0  0  0  0  0  0  0  0  0  0
  151.1390  141.5763  159.9206 H   0  0  0  0  0  0  0  0  0  0  0  0
  153.7434  141.3002  158.3173 H   0  0  0  0  0  0  0  0  0  0  0  0
  152.7380  139.9146  160.6682 H   0  0  0  0  0  0  0  0  0  0  0  0
  154.3939  139.8271  160.0701 H   0  0  0  0  0  0  0  0  0  0  0  0
  153.7596  141.0779  162.4774 H   0  0  0  0  0  0  0  0  0  0  0  0
  155.1246  141.5797  161.4730 H   0  0  0  0  0  0  0  0  0  0  0  0
  154.3980  143.3336  159.4265 H   0  0  0  0  0  0  0  0  0  0  0  0
  153.1075  144.9028  157.8736 H   0  0  0  0  0  0  0  0  0  0  0  0
  152.0981  143.7634  156.9163 H   0  0  0  0  0  0  0  0  0  0  0  0
  151.0310  146.0679  158.3352 H   0  0  0  0  0  0  0  0  0  0  0  0
  150.0580  144.5925  157.9719 H   0  0  0  0  0  0  0  0  0  0  0  0
  150.4150  144.0143  160.3139 H   0  0  0  0  0  0  0  0  0  0  0  0
  151.8524  145.1007  160.4121 H   0  0  0  0  0  0  0  0  0  0  0  0
  145.5580  140.8610  153.0180 H   0  0  0  0  0  0  0  0  0  0  0  0
  1  2  1  0  0  0  0
  1 23  1  0  0  0  0
  1 24  1  0  0  0  0
  1 25  1  0  0  0  0
  2 21  1  0  0  0  0
  2  3  2  0  0  0  0
  3  4  1  0  0  0  0
  3 43  1  0  0  0  0
  4  5  2  0  0  0  0
  4 26  1  0  0  0  0
  5  6  1  0  0  0  0
  5 27  1  0  0  0  0
  6  7  1  0  0  0  0
  6 21  2  0  0  0  0
  7  8  1  0  0  0  0
  7 28  1  0  0  0  0
  8  9  2  0  0  0  0
  8 10  1  0  0  0  0
 10 11  1  0  0  0  0
 10 29  1  0  0  0  0
 11 17  1  0  0  0  0
 11 12  1  0  0  0  0
 11 30  1  0  0  0  0
 12 16  1  0  0  0  0
 12 13  1  0  0  0  0
 12 31  1  0  0  0  0
 13 14  1  0  0  0  0
 13 32  1  0  0  0  0
 13 33  1  0  0  0  0
 14 15  1  0  0  0  0
 14 34  1  0  0  0  0
 14 35  1  0  0  0  0
 15 16  1  0  0  0  0
 16 17  1  0  0  0  0
 16 36  1  0  0  0  0
 17 20  1  0  0  0  0
 17 18  1  0  0  0  0
 18 19  1  0  0  0  0
 18 37  1  0  0  0  0
 18 38  1  0  0  0  0
 19 20  1  0  0  0  0
 19 39  1  0  0  0  0
 19 40  1  0  0  0  0
 20 41  1  0  0  0  0
 20 42  1  0  0  0  0
 21 22  1  0  0  0  0
M  CHG  1   3   1
M  END
> <s_m_source_file>
AV-unprocessed.smi

> <i_m_source_file_index>
2775

> <i_lp_mmshare_version>
43012

> <i_f3d_flags>
0

> <s_epik_input>
W0NIM11jMW5bY0hdW2NIXWMoYzFDbClbTkhdQyg9TylbTkhdW0NAQEhdMltDQEhdKFtDSDJdW0NIMl1PMylbQ0BASF0zQzI0W0NIMl1bQ0gyXVtDSDJdNA==

> <s_epik_cmdline>
J2VwaWtfcHl0aG9uJywgJy1waCcsICc3LjAnLCAnLXRuJywgJzgnLCAnLW1hJywgJzIwMCcsICctbWV0YWxfYmluZGluZycsICctaW1hZScsICc8aW5maWxlLm1hZT4nLCAnLW9tYWUnLCAnPG91dGZpbGUubWFlPic=

> <r_epik_Ionization_Penalty>
2.4104

> <r_epik_Ionization_Penalty_Charging>
2.41038

> <r_epik_Ionization_Penalty_Neutral>
1.9872e-05

> <r_epik_State_Penalty>
2.56896

> <r_epik_Charging_Adjusted_Penalty>
4.97934

> <i_epik_Tot_Q>
1

> <i_epik_Tot_abs_Q>
1

> <r_epik_Metal_State_Penalty>
2.57906

> <b_epik_Metal_Only>
0

> <s_lp_Force_Field>
OPLS_2005

> <r_lp_Energy>
60.4294

> <b_lp_Chiralities_Consistent>
1

> <s_lp_Variant>
AV-unprocessed.smi:2775-14

> <Gold.Version>
5.8.1

> <Gold.Id.Protein>
6NUR|6NUR_protein|mol2

> <Gold.PLP.Fitness>
52.5290

> <Gold.PLP.PLP>
-46.9462

> <Gold.PLP.part.hbond>
-1.0000

> <Gold.PLP.part.metal>
0.0000

> <Gold.PLP.part.buried>
-0.7781

> <Gold.PLP.part.nonpolar>
-44.6180

> <Gold.PLP.part.repulsive>
0.3162

> <Gold.PLP.ligand.clash>
0.0000

> <Gold.PLP.ligand.torsion>
0.3061

> <Gold.PLP.Chemscore.Hbond>
2.0000

> <Gold.PLP.Chemscore.CHOScore>
0.0000

> <Gold.PLP.Chemscore.Metal>
0.0000

> <Gold.Chemscore.Hbonds>
donor molecule, donor type, donor heavy atom, donor atom, acceptor molecule, acceptor atom, score
      L1  H     3    43       P1 10175  2.00

> <Gold.PLP.Chemscore.Internal.Correction>
0.1950

> <Gold.Rescore>
     Score         DG    S(hbond)    S(metal)    S(lipo)     H(rot)  DE(clash)    DE(int)     intcor
     20.19     -21.60       0.97        0.00     132.06       1.00       0.01       1.40       ----

> <Gold.Chemscore.Fitness>
20.1940

> <Gold.Chemscore.DG>
-21.6043

> <Gold.Chemscore.ZeroCoef>
-5.4800

> <Gold.Chemscore.Hbond>
0.9682

> <Gold.Chemscore.Metal>
0.0000

> <Gold.Chemscore.Lipo>
132.0557

> <Gold.Chemscore.Internal_Hbond>
0.0000

> <Gold.Chemscore.DEClash>
0.0086

> <Gold.Chemscore.DEInternal>
1.4017

> <Gold.Chemscore.Rot>
1.0000

> <Gold.Chemscore.Internal.Correction>
   9.000000E+99

> <Gold.Chemscore.Hbonds>
donor molecule, donor type, donor heavy atom, donor atom, acceptor molecule, acceptor atom, score
      L1  H     3    43       P1 10175  0.49

> <Gold.Chemscore.Hbond.Weighted>
-3.2338

> <Gold.Chemscore.Metal.Weighted>
-0.0000

> <Gold.Chemscore.Lipo.Weighted>
-15.4505

> <Gold.Chemscore.Internal_Hbond.Weighted>
0.0000

> <Gold.Chemscore.DEClash.Weighted>
0.0086

> <Gold.Chemscore.DEInternal.Weighted>
1.4017

> <Gold.Chemscore.Rot.Weighted>
2.5600

> <Gold.Chemscore.Internal.Correction.Weighted>
   9.000000E+99

> <Gold.Protein.RotatedTorsions>
[ 6907 6896 6895 6894 ] final    6.43 input  -60.11 | X-H torsion
[ 7974 7965 7964 7962 ] final  -10.89 input  175.53 | X-H torsion
[ 8008 7997 7996 7995 ] final  118.67 input   59.86 | X-H torsion
[ 10167 10162 10161 10158 ] final -103.13 input  -65.29 | X-H torsion
[ 10718 10713 10712 10709 ] final -117.01 input   66.30 | X-H torsion
[ 10763 10752 10751 10750 ] final   10.24 input  -60.55 | X-H torsion
[ 11005 11000 10999 10996 ] final  -23.55 input  -57.11 | X-H torsion

> <Gold.Protein.ActiveResidues>
 VAL166  LYS551  ARG553  GLY616  TRP617  ASP618  TYR619  PRO620  LYS621  CYS622 
 ASP623  PHE694  ASN695  SER759  ASP760  ASP761  ALA762  ILE779  LEU786  VAL792 
 PHE793  MET794  SER795  GLU796  ALA797  LYS798  CYS799  TRP800  GLU811  SER814 

> <Gold.Protein.RotatedAtoms>
  151.6736  135.0972  160.0202 H   0  0  0  0  0  0  0  0  0  0  0  0  # atno 6907 bound_to 6896
  152.3877  133.6630  159.6220 H   0  0  0  0  0  0  0  0  0  0  0  0  # atno 6908 bound_to 6896
  150.7799  133.8924  159.3358 H   0  0  0  0  0  0  0  0  0  0  0  0  # atno 6909 bound_to 6896
  146.2206  140.2830  142.8363 H   0  0  0  0  0  0  0  0  0  0  0  0  # atno 7974 bound_to 7965
  156.2558  140.2869  156.0871 H   0  0  0  0  0  0  0  0  0  0  0  0  # atno 8008 bound_to 7997
  155.1503  140.0397  157.2837 H   0  0  0  0  0  0  0  0  0  0  0  0  # atno 8009 bound_to 7997
  154.6465  140.2535  155.7268 H   0  0  0  0  0  0  0  0  0  0  0  0  # atno 8010 bound_to 7997
  140.2233  143.3660  152.0950 H   0  0  0  0  0  0  0  0  0  0  0  0  # atno 10167 bound_to 10162
  156.1004  130.6167  150.9110 H   0  0  0  0  0  0  0  0  0  0  0  0  # atno 10718 bound_to 10713
  153.2053  135.6861  153.8180 H   0  0  0  0  0  0  0  0  0  0  0  0  # atno 10763 bound_to 10752
  153.7432  135.3235  155.3309 H   0  0  0  0  0  0  0  0  0  0  0  0  # atno 10764 bound_to 10752
  154.8194  135.4663  154.0838 H   0  0  0  0  0  0  0  0  0  0  0  0  # atno 10765 bound_to 10752
  140.8762  133.7685  156.0246 H   0  0  0  0  0  0  0  0  0  0  0  0  # atno 11005 bound_to 11000
  144.9183  140.7838  143.5764 LP  0  0  0  0  0  0  0  0  0  0  0  0  # atno 17320 bound_to 7965
  145.2765  139.1934  143.4814 LP  0  0  0  0  0  0  0  0  0  0  0  0  # atno 17321 bound_to 7965
  139.5136  144.6935  151.5694 LP  0  0  0  0  0  0  0  0  0  0  0  0  # atno 17342 bound_to 10162
  140.6239  143.9206  150.6548 LP  0  0  0  0  0  0  0  0  0  0  0  0  # atno 17343 bound_to 10162
  157.6173  131.0932  150.8687 LP  0  0  0  0  0  0  0  0  0  0  0  0  # atno 17370 bound_to 10713
  156.8816  130.5181  149.5290 LP  0  0  0  0  0  0  0  0  0  0  0  0  # atno 17371 bound_to 10713
  140.8515  134.2948  157.5273 LP  0  0  0  0  0  0  0  0  0  0  0  0  # atno 17394 bound_to 11000
  139.8716  134.9470  156.3955 LP  0  0  0  0  0  0  0  0  0  0  0  0  # atno 17395 bound_to 11000

$$$$
