AV-unprocessed.smi:211|AV-procd|sdf|1615|dock6
  -GOLD-   2262019543D 1   1.00000     0.00000
 Structure written by MMmdl.
 59 62  0  0  0  0  0  0  0  0  1 V2000
  152.7719  143.2723  162.2524 C   0  0  0  0  0  0  0  0  0  0  0  0
  152.8623  142.8082  160.8028 C   0  0  0  0  0  0  0  0  0  0  0  0
  153.7313  142.0054  160.4643 O   0  0  0  0  0  0  0  0  0  0  0  0
  151.9551  143.3245  159.9597 N   0  0  0  0  0  0  0  0  0  0  0  0
  151.8430  143.0186  158.5340 C   0  0  2  0  0  0  0  0  0  0  0  0
  151.6706  144.3396  157.7605 C   0  0  0  0  0  0  0  0  0  0  0  0
  150.6897  142.0079  158.2951 C   0  0  0  0  0  0  0  0  0  0  0  0
  150.8755  141.2044  156.9854 C   0  0  0  0  0  0  0  0  0  0  0  0
  149.7193  140.2206  156.7479 C   0  0  0  0  0  0  0  0  0  0  0  0
  148.4325  140.9111  156.7708 N   0  0  0  0  0  0  0  0  0  0  0  0
  147.4037  140.1944  156.2498 C   0  0  0  0  0  0  0  0  0  0  0  0
  146.2299  140.0968  156.9304 N   0  0  0  0  0  0  0  0  0  0  0  0
  145.2198  139.3757  156.4357 C   0  0  0  0  0  0  0  0  0  0  0  0
  145.1676  138.6865  155.2947 N   0  0  0  0  0  0  0  0  0  0  0  0
  146.3362  138.7905  154.5997 C   0  0  0  0  0  0  0  0  0  0  0  0
  147.4946  139.5137  155.0025 C   0  0  0  0  0  0  0  0  0  0  0  0
  148.4898  139.3838  154.0407 N   0  0  0  0  0  0  0  0  0  0  0  0
  147.9567  138.6143  153.1313 C   0  0  0  0  0  0  0  0  0  0  0  0
  146.6559  138.2340  153.3734 N   0  0  0  0  0  0  0  0  0  0  0  0
  145.8503  137.3645  152.5674 C   0  0  0  0  0  0  0  0  0  0  0  0
  144.3617  137.1578  152.8610 C   0  0  0  0  0  0  0  0  0  0  0  0
  144.4698  135.7071  152.3378 C   0  0  0  0  0  0  0  0  0  0  0  0
  143.6755  134.6746  153.1568 C   0  0  0  0  0  0  0  0  0  0  0  0
  144.0707  133.3499  152.8648 O   0  0  0  0  0  0  0  0  0  0  0  0
  144.1159  135.5540  150.8431 C   0  0  0  0  0  0  0  0  0  0  0  0
  144.7510  134.4381  150.2538 O   0  0  0  0  0  0  0  0  0  0  0  0
  145.9715  135.8437  152.6796 C   0  0  0  0  0  0  0  0  0  0  0  0
  148.1759  141.6759  157.9907 C   0  0  0  0  0  0  0  0  0  0  0  0
  149.3025  142.6881  158.2555 C   0  0  0  0  0  0  0  0  0  0  0  0
  152.7652  144.3615  162.3065 H   0  0  0  0  0  0  0  0  0  0  0  0
  153.6219  142.9079  162.8302 H   0  0  0  0  0  0  0  0  0  0  0  0
  151.8582  142.8967  162.7139 H   0  0  0  0  0  0  0  0  0  0  0  0
  151.2830  143.9780  160.3353 H   0  0  0  0  0  0  0  0  0  0  0  0
  152.7705  142.5487  158.2005 H   0  0  0  0  0  0  0  0  0  0  0  0
  151.7072  144.1875  156.6826 H   0  0  0  0  0  0  0  0  0  0  0  0
  152.4672  145.0438  158.0030 H   0  0  0  0  0  0  0  0  0  0  0  0
  150.7214  144.8195  158.0014 H   0  0  0  0  0  0  0  0  0  0  0  0
  150.6888  141.2972  159.1233 H   0  0  0  0  0  0  0  0  0  0  0  0
  150.9450  141.8908  156.1403 H   0  0  0  0  0  0  0  0  0  0  0  0
  151.8090  140.6419  157.0017 H   0  0  0  0  0  0  0  0  0  0  0  0
  149.8782  139.7048  155.8015 H   0  0  0  0  0  0  0  0  0  0  0  0
  149.7191  139.4538  157.5237 H   0  0  0  0  0  0  0  0  0  0  0  0
  144.3255  139.3461  157.0407 H   0  0  0  0  0  0  0  0  0  0  0  0
  148.5015  138.3068  152.2506 H   0  0  0  0  0  0  0  0  0  0  0  0
  146.0011  137.6867  151.5356 H   0  0  0  0  0  0  0  0  0  0  0  0
  144.1382  137.2141  153.9282 H   0  0  0  0  0  0  0  0  0  0  0  0
  143.6951  137.8052  152.2904 H   0  0  0  0  0  0  0  0  0  0  0  0
  143.8270  134.8293  154.2253 H   0  0  0  0  0  0  0  0  0  0  0  0
  142.6032  134.7702  152.9835 H   0  0  0  0  0  0  0  0  0  0  0  0
  143.6458  132.7678  153.4756 H   0  0  0  0  0  0  0  0  0  0  0  0
  143.0390  135.4575  150.7019 H   0  0  0  0  0  0  0  0  0  0  0  0
  144.4148  136.4353  150.2752 H   0  0  0  0  0  0  0  0  0  0  0  0
  145.3425  134.7468  149.5847 H   0  0  0  0  0  0  0  0  0  0  0  0
  146.6549  135.3927  151.9593 H   0  0  0  0  0  0  0  0  0  0  0  0
  146.2066  135.5177  153.6946 H   0  0  0  0  0  0  0  0  0  0  0  0
  147.2268  142.2071  157.9051 H   0  0  0  0  0  0  0  0  0  0  0  0
  148.0875  140.9905  158.8349 H   0  0  0  0  0  0  0  0  0  0  0  0
  149.0917  143.1952  159.1963 H   0  0  0  0  0  0  0  0  0  0  0  0
  149.2913  143.4550  157.4798 H   0  0  0  0  0  0  0  0  0  0  0  0
  1  2  1  0  0  0  0
  1 30  1  0  0  0  0
  1 31  1  0  0  0  0
  1 32  1  0  0  0  0
  2  3  2  0  0  0  0
  2  4  1  0  0  0  0
  4  5  1  0  0  0  0
  4 33  1  0  0  0  0
  5  6  1  0  0  0  0
  5  7  1  0  0  0  0
  5 34  1  0  0  0  0
  6 35  1  0  0  0  0
  6 36  1  0  0  0  0
  6 37  1  0  0  0  0
  7 29  1  0  0  0  0
  7  8  1  0  0  0  0
  7 38  1  0  0  0  0
  8  9  1  0  0  0  0
  8 39  1  0  0  0  0
  8 40  1  0  0  0  0
  9 10  1  0  0  0  0
  9 41  1  0  0  0  0
  9 42  1  0  0  0  0
 10 11  1  0  0  0  0
 10 28  1  0  0  0  0
 11 16  1  0  0  0  0
 11 12  2  0  0  0  0
 12 13  1  0  0  0  0
 13 14  2  0  0  0  0
 13 43  1  0  0  0  0
 14 15  1  0  0  0  0
 15 19  1  0  0  0  0
 15 16  2  0  0  0  0
 16 17  1  0  0  0  0
 17 18  2  0  0  0  0
 18 19  1  0  0  0  0
 18 44  1  0  0  0  0
 19 20  1  0  0  0  0
 20 27  1  0  0  0  0
 20 21  1  0  0  0  0
 20 45  1  0  0  0  0
 21 22  1  0  0  0  0
 21 46  1  0  0  0  0
 21 47  1  0  0  0  0
 22 23  1  0  0  0  0
 22 25  1  0  0  0  0
 22 27  1  0  0  0  0
 23 24  1  0  0  0  0
 23 48  1  0  0  0  0
 23 49  1  0  0  0  0
 24 50  1  0  0  0  0
 25 26  1  0  0  0  0
 25 51  1  0  0  0  0
 25 52  1  0  0  0  0
 26 53  1  0  0  0  0
 27 54  1  0  0  0  0
 27 55  1  0  0  0  0
 28 29  1  0  0  0  0
 28 56  1  0  0  0  0
 28 57  1  0  0  0  0
 29 58  1  0  0  0  0
 29 59  1  0  0  0  0
M  END
> <s_m_source_file>
AV-unprocessed.smi

> <i_m_source_file_index>
211

> <i_lp_mmshare_version>
43012

> <i_f3d_flags>
0

> <s_epik_input>
W0NIM11DKD1PKVtOSF1bQ0BIXShbQ0gzXSlbQ0hdMVtDSDJdW0NIMl1OKFtDSDJdW0NIMl0xKWMobltjSF1uMiljKGMyMyluW2NIXW4zW0NIXShbQ0gyXTQpW0NIMl1DNChbQ0gyXVtPSF0pW0NIMl1bT0hd

> <s_epik_cmdline>
J2VwaWtfcHl0aG9uJywgJy1waCcsICc3LjAnLCAnLXRuJywgJzgnLCAnLW1hJywgJzIwMCcsICctbWV0YWxfYmluZGluZycsICctaW1hZScsICc8aW5maWxlLm1hZT4nLCAnLW9tYWUnLCAnPG91dGZpbGUubWFlPic=

> <r_lp_tautomer_probability>
1

> <r_epik_Ionization_Penalty>
0.00335435

> <r_epik_Ionization_Penalty_Charging>
0

> <r_epik_Ionization_Penalty_Neutral>
0.00335435

> <r_epik_State_Penalty>
0.00231338

> <r_epik_Charging_Adjusted_Penalty>
0.00231338

> <i_epik_Tot_Q>
0

> <i_epik_Tot_abs_Q>
0

> <r_epik_Metal_State_Penalty>
-0

> <b_epik_Metal_Only>
0

> <s_lp_Force_Field>
OPLS_2005

> <r_lp_Energy>
41.9303

> <b_lp_Chiralities_Consistent>
1

> <s_lp_Variant>
AV-unprocessed.smi:211-1

> <Gold.Version>
5.8.1

> <Gold.Id.Protein>
6NUR|6NUR_protein|mol2

> <Gold.PLP.Fitness>
44.5741

> <Gold.PLP.PLP>
-36.1115

> <Gold.PLP.part.hbond>
-2.0000

> <Gold.PLP.part.metal>
0.0000

> <Gold.PLP.part.buried>
-2.0928

> <Gold.PLP.part.nonpolar>
-32.9945

> <Gold.PLP.part.repulsive>
0.4410

> <Gold.PLP.ligand.clash>
0.0000

> <Gold.PLP.ligand.torsion>
1.5630

> <Gold.PLP.Chemscore.Hbond>
2.0000

> <Gold.PLP.Chemscore.CHOScore>
1.5609

> <Gold.PLP.Chemscore.Metal>
0.0000

> <Gold.Chemscore.Hbonds>
donor molecule, donor type, donor heavy atom, donor atom, acceptor molecule, acceptor atom, score
      L1  H    24    50       P1 10957  1.00
      L1  H    26    53       P1  7921  0.81
      L1  C    18    44       P1  7948  0.87
      L1  C    18    44       P1  7957  0.71

> <Gold.PLP.Chemscore.Internal.Correction>
0.9059

> <Gold.Rescore>
     Score         DG    S(hbond)    S(metal)    S(lipo)     H(rot)  DE(clash)    DE(int)     intcor
      6.68     -10.65       1.52        0.00      86.37       3.92       1.17       2.80       ----

> <Gold.Chemscore.Fitness>
6.6807

> <Gold.Chemscore.DG>
-10.6527

> <Gold.Chemscore.ZeroCoef>
-5.4800

> <Gold.Chemscore.Hbond>
1.5243

> <Gold.Chemscore.Metal>
0.0000

> <Gold.Chemscore.Lipo>
86.3681

> <Gold.Chemscore.Internal_Hbond>
0.0000

> <Gold.Chemscore.DEClash>
1.1710

> <Gold.Chemscore.DEInternal>
2.8010

> <Gold.Chemscore.Rot>
3.9155

> <Gold.Chemscore.Internal.Correction>
   9.000000E+99

> <Gold.Chemscore.Hbonds>
donor molecule, donor type, donor heavy atom, donor atom, acceptor molecule, acceptor atom, score
      L1  H    24    50       P1 10957  0.65
      L1  H    26    53       P1  7921  0.79

> <Gold.Chemscore.Hbond.Weighted>
-5.0912

> <Gold.Chemscore.Metal.Weighted>
-0.0000

> <Gold.Chemscore.Lipo.Weighted>
-10.1051

> <Gold.Chemscore.Internal_Hbond.Weighted>
0.0000

> <Gold.Chemscore.DEClash.Weighted>
1.1710

> <Gold.Chemscore.DEInternal.Weighted>
2.8010

> <Gold.Chemscore.Rot.Weighted>
10.0236

> <Gold.Chemscore.Internal.Correction.Weighted>
   9.000000E+99

> <Gold.Protein.RotatedTorsions>
[ 6907 6896 6895 6894 ] final  155.73 input  -60.11 | X-H torsion
[ 7974 7965 7964 7962 ] final   26.12 input  175.53 | X-H torsion
[ 8008 7997 7996 7995 ] final  121.92 input   59.86 | X-H torsion
[ 10167 10162 10161 10158 ] final -113.83 input  -65.29 | X-H torsion
[ 10718 10713 10712 10709 ] final   40.08 input   66.30 | X-H torsion
[ 10763 10752 10751 10750 ] final  162.25 input  -60.55 | X-H torsion
[ 11005 11000 10999 10996 ] final  -55.14 input  -57.11 | X-H torsion

> <Gold.Protein.ActiveResidues>
 VAL166  LYS551  ARG553  GLY616  TRP617  ASP618  TYR619  PRO620  LYS621  CYS622 
 ASP623  PHE694  ASN695  SER759  ASP760  ASP761  ALA762  ILE779  LEU786  VAL792 
 PHE793  MET794  SER795  GLU796  ALA797  LYS798  CYS799  TRP800  GLU811  SER814 

> <Gold.Protein.RotatedAtoms>
  152.0399  133.3973  159.4332 H   0  0  0  0  0  0  0  0  0  0  0  0  # atno 6907 bound_to 6896
  150.6876  134.3426  159.4884 H   0  0  0  0  0  0  0  0  0  0  0  0  # atno 6908 bound_to 6896
  152.1223  134.9196  160.0613 H   0  0  0  0  0  0  0  0  0  0  0  0  # atno 6909 bound_to 6896
  146.1854  139.7371  142.8871 H   0  0  0  0  0  0  0  0  0  0  0  0  # atno 7974 bound_to 7965
  156.2707  140.2797  156.1386 H   0  0  0  0  0  0  0  0  0  0  0  0  # atno 8008 bound_to 7997
  155.0978  140.0389  157.2705 H   0  0  0  0  0  0  0  0  0  0  0  0  # atno 8009 bound_to 7997
  154.6839  140.2614  155.6886 H   0  0  0  0  0  0  0  0  0  0  0  0  # atno 8010 bound_to 7997
  140.1076  143.4557  152.1773 H   0  0  0  0  0  0  0  0  0  0  0  0  # atno 10167 bound_to 10162
  157.3780  130.7738  149.7170 H   0  0  0  0  0  0  0  0  0  0  0  0  # atno 10718 bound_to 10713
  154.2755  135.2764  155.2720 H   0  0  0  0  0  0  0  0  0  0  0  0  # atno 10763 bound_to 10752
  154.5264  135.5742  153.6726 H   0  0  0  0  0  0  0  0  0  0  0  0  # atno 10764 bound_to 10752
  152.9938  135.6217  154.2912 H   0  0  0  0  0  0  0  0  0  0  0  0  # atno 10765 bound_to 10752
  141.1060  133.6613  156.4426 H   0  0  0  0  0  0  0  0  0  0  0  0  # atno 11005 bound_to 11000
  145.3955  141.0378  143.3100 LP  0  0  0  0  0  0  0  0  0  0  0  0  # atno 17320 bound_to 7965
  144.8387  139.5507  143.6910 LP  0  0  0  0  0  0  0  0  0  0  0  0  # atno 17321 bound_to 7965
  139.5637  144.7422  151.4083 LP  0  0  0  0  0  0  0  0  0  0  0  0  # atno 17342 bound_to 10162
  140.6944  143.7785  150.7303 LP  0  0  0  0  0  0  0  0  0  0  0  0  # atno 17343 bound_to 10162
  155.9769  130.4069  150.3745 LP  0  0  0  0  0  0  0  0  0  0  0  0  # atno 17370 bound_to 10713
  157.1845  131.0400  151.2732 LP  0  0  0  0  0  0  0  0  0  0  0  0  # atno 17371 bound_to 10713
  140.4901  134.6583  157.5207 LP  0  0  0  0  0  0  0  0  0  0  0  0  # atno 17394 bound_to 11000
  139.9930  134.6955  155.9657 LP  0  0  0  0  0  0  0  0  0  0  0  0  # atno 17395 bound_to 11000

$$$$
