AV-unprocessed.smi:275|AV-procd|sdf|2063|dock8
  -GOLD-   2262021313D 1   1.00000     0.00000
 Structure written by MMmdl.
 65 69  0  0  0  0  0  0  0  0  1 V2000
  146.0489  132.7804  158.8307 C   0  0  0  0  0  0  0  0  0  0  0  0
  147.3980  132.8871  159.5569 C   0  0  0  0  0  0  0  0  0  0  0  0
  147.3325  132.1160  160.8942 C   0  0  0  0  0  0  0  0  0  0  0  0
  147.8790  134.3601  159.6352 C   0  0  1  0  0  0  0  0  0  0  0  0
  147.8700  134.9941  158.3149 N   0  0  0  0  0  0  0  0  0  0  0  0
  149.0606  135.6827  157.9093 C   0  0  0  0  0  0  0  0  0  0  0  0
  150.1414  134.9468  157.5309 N   0  0  0  0  0  0  0  0  0  0  0  0
  151.2856  135.5223  157.1538 C   0  0  0  0  0  0  0  0  0  0  0  0
  151.5824  136.8188  157.0920 N   0  0  0  0  0  0  0  0  0  0  0  0
  150.5262  137.5774  157.4958 C   0  0  0  0  0  0  0  0  0  0  0  0
  149.2511  137.0992  157.9200 C   0  0  0  0  0  0  0  0  0  0  0  0
  148.4488  138.1812  158.2663 N   0  0  0  0  0  0  0  0  0  0  0  0
  149.1924  139.2291  158.0444 C   0  0  0  0  0  0  0  0  0  0  0  0
  150.4547  138.9571  157.5743 N   0  0  0  0  0  0  0  0  0  0  0  0
  151.4833  139.9298  157.2483 C   0  0  0  0  0  0  0  0  0  0  0  0
  151.1732  141.3515  157.7815 C   0  0  2  0  0  0  0  0  0  0  0  0
  150.7772  142.3061  156.6260 C   0  0  0  0  0  0  0  0  0  0  0  0
  149.4773  142.0365  156.1451 O   0  0  0  0  0  0  0  0  0  0  0  0
  152.3766  141.8846  158.6066 C   0  0  2  0  0  0  0  0  0  0  0  0
  152.7666  141.0082  159.7944 C   0  0  0  0  0  0  0  0  0  0  0  0
  153.3291  141.9828  160.8333 C   0  0  0  0  0  0  0  0  0  0  0  0
  153.2147  143.2747  160.2542 O   0  0  0  0  0  0  0  0  0  0  0  0
  152.1726  143.2352  159.2952 C   0  0  0  0  0  0  0  0  0  0  0  0
  146.7204  135.8304  158.6550 C   0  0  0  0  0  0  0  0  0  0  0  0
  146.9913  135.5314  160.1357 C   0  0  0  0  0  0  0  0  0  0  0  0
  147.7393  136.6587  160.8812 C   0  0  0  0  0  0  0  0  0  0  0  0
  148.1527  136.2722  162.3111 C   0  0  0  0  0  0  0  0  0  0  0  0
  146.9316  135.8761  163.1481 C   0  0  0  0  0  0  0  0  0  0  0  0
  146.1126  134.7896  162.4422 C   0  0  0  0  0  0  0  0  0  0  0  0
  145.7577  135.2023  161.0019 C   0  0  0  0  0  0  0  0  0  0  0  0
  145.2555  133.2686  159.3972 H   0  0  0  0  0  0  0  0  0  0  0  0
  145.7602  131.7391  158.6862 H   0  0  0  0  0  0  0  0  0  0  0  0
  146.0932  133.2457  157.8457 H   0  0  0  0  0  0  0  0  0  0  0  0
  148.1055  132.3461  158.9302 H   0  0  0  0  0  0  0  0  0  0  0  0
  146.5806  132.5346  161.5637 H   0  0  0  0  0  0  0  0  0  0  0  0
  148.2809  132.1099  161.4259 H   0  0  0  0  0  0  0  0  0  0  0  0
  147.0623  131.0738  160.7223 H   0  0  0  0  0  0  0  0  0  0  0  0
  148.8424  134.4313  160.1371 H   0  0  0  0  0  0  0  0  0  0  0  0
  152.0757  134.8461  156.8625 H   0  0  0  0  0  0  0  0  0  0  0  0
  148.8381  140.2349  158.2174 H   0  0  0  0  0  0  0  0  0  0  0  0
  152.4188  139.5539  157.6620 H   0  0  0  0  0  0  0  0  0  0  0  0
  151.6163  139.9542  156.1660 H   0  0  0  0  0  0  0  0  0  0  0  0
  150.3150  141.2638  158.4502 H   0  0  0  0  0  0  0  0  0  0  0  0
  150.8450  143.3475  156.9416 H   0  0  0  0  0  0  0  0  0  0  0  0
  151.4403  142.1962  155.7696 H   0  0  0  0  0  0  0  0  0  0  0  0
  149.1363  142.8221  155.7453 H   0  0  0  0  0  0  0  0  0  0  0  0
  153.2452  141.9751  157.9524 H   0  0  0  0  0  0  0  0  0  0  0  0
  151.8958  140.4975  160.2077 H   0  0  0  0  0  0  0  0  0  0  0  0
  153.4950  140.2470  159.5129 H   0  0  0  0  0  0  0  0  0  0  0  0
  152.7482  141.9412  161.7557 H   0  0  0  0  0  0  0  0  0  0  0  0
  154.3701  141.7700  161.0775 H   0  0  0  0  0  0  0  0  0  0  0  0
  152.2495  144.0784  158.6084 H   0  0  0  0  0  0  0  0  0  0  0  0
  151.2069  143.2838  159.8012 H   0  0  0  0  0  0  0  0  0  0  0  0
  146.7806  136.8892  158.4033 H   0  0  0  0  0  0  0  0  0  0  0  0
  145.7881  135.3991  158.2910 H   0  0  0  0  0  0  0  0  0  0  0  0
  148.6339  136.9549  160.3334 H   0  0  0  0  0  0  0  0  0  0  0  0
  147.1176  137.5544  160.9194 H   0  0  0  0  0  0  0  0  0  0  0  0
  148.8617  135.4442  162.2801 H   0  0  0  0  0  0  0  0  0  0  0  0
  148.6724  137.1049  162.7857 H   0  0  0  0  0  0  0  0  0  0  0  0
  147.2453  135.5309  164.1335 H   0  0  0  0  0  0  0  0  0  0  0  0
  146.3048  136.7535  163.3119 H   0  0  0  0  0  0  0  0  0  0  0  0
  146.6787  133.8586  162.4358 H   0  0  0  0  0  0  0  0  0  0  0  0
  145.2012  134.5900  163.0065 H   0  0  0  0  0  0  0  0  0  0  0  0
  145.0957  136.0685  161.0389 H   0  0  0  0  0  0  0  0  0  0  0  0
  145.1593  134.4130  160.5532 H   0  0  0  0  0  0  0  0  0  0  0  0
  1  2  1  0  0  0  0
  1 31  1  0  0  0  0
  1 32  1  0  0  0  0
  1 33  1  0  0  0  0
  2  3  1  0  0  0  0
  2  4  1  0  0  0  0
  2 34  1  0  0  0  0
  3 35  1  0  0  0  0
  3 36  1  0  0  0  0
  3 37  1  0  0  0  0
  4 25  1  0  0  0  0
  4  5  1  0  0  0  0
  4 38  1  0  0  0  0
  5  6  1  0  0  0  0
  5 24  1  0  0  0  0
  6 11  1  0  0  0  0
  6  7  2  0  0  0  0
  7  8  1  0  0  0  0
  8  9  2  0  0  0  0
  8 39  1  0  0  0  0
  9 10  1  0  0  0  0
 10 14  1  0  0  0  0
 10 11  2  0  0  0  0
 11 12  1  0  0  0  0
 12 13  2  0  0  0  0
 13 14  1  0  0  0  0
 13 40  1  0  0  0  0
 14 15  1  0  0  0  0
 15 16  1  0  0  0  0
 15 41  1  0  0  0  0
 15 42  1  0  0  0  0
 16 17  1  0  0  0  0
 16 19  1  0  0  0  0
 16 43  1  0  0  0  0
 17 18  1  0  0  0  0
 17 44  1  0  0  0  0
 17 45  1  0  0  0  0
 18 46  1  0  0  0  0
 19 23  1  0  0  0  0
 19 20  1  0  0  0  0
 19 47  1  0  0  0  0
 20 21  1  0  0  0  0
 20 48  1  0  0  0  0
 20 49  1  0  0  0  0
 21 22  1  0  0  0  0
 21 50  1  0  0  0  0
 21 51  1  0  0  0  0
 22 23  1  0  0  0  0
 23 52  1  0  0  0  0
 23 53  1  0  0  0  0
 24 25  1  0  0  0  0
 24 54  1  0  0  0  0
 24 55  1  0  0  0  0
 25 30  1  0  0  0  0
 25 26  1  0  0  0  0
 26 27  1  0  0  0  0
 26 56  1  0  0  0  0
 26 57  1  0  0  0  0
 27 28  1  0  0  0  0
 27 58  1  0  0  0  0
 27 59  1  0  0  0  0
 28 29  1  0  0  0  0
 28 60  1  0  0  0  0
 28 61  1  0  0  0  0
 29 30  1  0  0  0  0
 29 62  1  0  0  0  0
 29 63  1  0  0  0  0
 30 64  1  0  0  0  0
 30 65  1  0  0  0  0
M  END
> <s_m_source_file>
AV-unprocessed.smi

> <i_m_source_file_index>
275

> <i_lp_mmshare_version>
43012

> <i_f3d_flags>
0

> <s_epik_input>
W0NIMl0xW0NIMl1bQ0gyXVtDSDJdW0NIMl1DMTJbQ0BIXShbQ0hdKFtDSDNdKVtDSDNdKU4oW0NIMl0yKWMobltjSF1uMyljKGMzNCluW2NIXW40W0NIMl1bQ0BIXShbQ0gyXVtPSF0pW0NAQEhdNVtDSDJdW0NIMl1PW0NIMl01

> <s_epik_cmdline>
J2VwaWtfcHl0aG9uJywgJy1waCcsICc3LjAnLCAnLXRuJywgJzgnLCAnLW1hJywgJzIwMCcsICctbWV0YWxfYmluZGluZycsICctaW1hZScsICc8aW5maWxlLm1hZT4nLCAnLW9tYWUnLCAnPG91dGZpbGUubWFlPic=

> <r_lp_tautomer_probability>
1

> <r_epik_Ionization_Penalty>
0.00375122

> <r_epik_Ionization_Penalty_Charging>
0

> <r_epik_Ionization_Penalty_Neutral>
0.00375122

> <r_epik_State_Penalty>
0.00260593

> <r_epik_Charging_Adjusted_Penalty>
0.00260593

> <i_epik_Tot_Q>
0

> <i_epik_Tot_abs_Q>
0

> <r_epik_Metal_State_Penalty>
-0

> <b_epik_Metal_Only>
0

> <s_lp_Force_Field>
OPLS_2005

> <r_lp_Energy>
70.0888

> <b_lp_Chiralities_Consistent>
1

> <s_lp_Variant>
AV-unprocessed.smi:275-2

> <Gold.Version>
5.8.1

> <Gold.Id.Protein>
6NUR|6NUR_protein|mol2

> <Gold.PLP.Fitness>
41.6350

> <Gold.PLP.PLP>
-38.6964

> <Gold.PLP.part.hbond>
-2.0000

> <Gold.PLP.part.metal>
0.0000

> <Gold.PLP.part.buried>
-3.5790

> <Gold.PLP.part.nonpolar>
-34.2525

> <Gold.PLP.part.repulsive>
0.0000

> <Gold.PLP.ligand.clash>
0.0000

> <Gold.PLP.ligand.torsion>
1.3260

> <Gold.PLP.Chemscore.Hbond>
1.7200

> <Gold.PLP.Chemscore.CHOScore>
0.0000

> <Gold.PLP.Chemscore.Metal>
0.0000

> <Gold.Chemscore.Hbonds>
donor molecule, donor type, donor heavy atom, donor atom, acceptor molecule, acceptor atom, score
      L1  H    18    46       P1  8028  1.00
      P1  H  6896  6909       L1     7  0.68

> <Gold.PLP.Chemscore.Internal.Correction>
0.4305

> <Gold.Rescore>
     Score         DG    S(hbond)    S(metal)    S(lipo)     H(rot)  DE(clash)    DE(int)     intcor
     13.78     -16.68       1.07        0.00     120.60       2.54       0.34       2.56       ----

> <Gold.Chemscore.Fitness>
13.7815

> <Gold.Chemscore.DG>
-16.6823

> <Gold.Chemscore.ZeroCoef>
-5.4800

> <Gold.Chemscore.Hbond>
1.0745

> <Gold.Chemscore.Metal>
0.0000

> <Gold.Chemscore.Lipo>
120.5995

> <Gold.Chemscore.Internal_Hbond>
0.0000

> <Gold.Chemscore.DEClash>
0.3380

> <Gold.Chemscore.DEInternal>
2.5628

> <Gold.Chemscore.Rot>
2.5377

> <Gold.Chemscore.Internal.Correction>
   9.000000E+99

> <Gold.Chemscore.Hbonds>
donor molecule, donor type, donor heavy atom, donor atom, acceptor molecule, acceptor atom, score
      L1  H    18    46       P1  8028  0.97
      P1  H  6896  6909       L1     7  0.05

> <Gold.Chemscore.Hbond.Weighted>
-3.5887

> <Gold.Chemscore.Metal.Weighted>
-0.0000

> <Gold.Chemscore.Lipo.Weighted>
-14.1101

> <Gold.Chemscore.Internal_Hbond.Weighted>
0.0000

> <Gold.Chemscore.DEClash.Weighted>
0.3380

> <Gold.Chemscore.DEInternal.Weighted>
2.5628

> <Gold.Chemscore.Rot.Weighted>
6.4966

> <Gold.Chemscore.Internal.Correction.Weighted>
   9.000000E+99

> <Gold.Protein.RotatedTorsions>
[ 6907 6896 6895 6894 ] final   22.09 input  -60.11 | X-H torsion
[ 7974 7965 7964 7962 ] final  -87.95 input  175.53 | X-H torsion
[ 8008 7997 7996 7995 ] final -123.30 input   59.86 | X-H torsion
[ 10167 10162 10161 10158 ] final   92.25 input  -65.29 | X-H torsion
[ 10718 10713 10712 10709 ] final -114.46 input   66.30 | X-H torsion
[ 10763 10752 10751 10750 ] final   80.01 input  -60.55 | X-H torsion
[ 11005 11000 10999 10996 ] final   89.61 input  -57.11 | X-H torsion

> <Gold.Protein.ActiveResidues>
 VAL166  LYS551  ARG553  GLY616  TRP617  ASP618  TYR619  PRO620  LYS621  CYS622 
 ASP623  PHE694  ASN695  SER759  ASP760  ASP761  ALA762  ILE779  LEU786  VAL792 
 PHE793  MET794  SER795  GLU796  ALA797  LYS798  CYS799  TRP800  GLU811  SER814 

> <Gold.Protein.RotatedAtoms>
  151.9219  135.0294  160.0522 H   0  0  0  0  0  0  0  0  0  0  0  0  # atno 6907 bound_to 6896
  152.2192  133.4966  159.5161 H   0  0  0  0  0  0  0  0  0  0  0  0  # atno 6908 bound_to 6896
  150.6995  134.1281  159.4102 H   0  0  0  0  0  0  0  0  0  0  0  0  # atno 6909 bound_to 6896
  145.4596  140.9561  143.1977 H   0  0  0  0  0  0  0  0  0  0  0  0  # atno 7974 bound_to 7965
  155.1782  140.0410  157.2877 H   0  0  0  0  0  0  0  0  0  0  0  0  # atno 8008 bound_to 7997
  154.6222  140.2503  155.7508 H   0  0  0  0  0  0  0  0  0  0  0  0  # atno 8009 bound_to 7997
  156.2439  140.2892  156.0535 H   0  0  0  0  0  0  0  0  0  0  0  0  # atno 8010 bound_to 7997
  139.8295  144.6694  150.9417 H   0  0  0  0  0  0  0  0  0  0  0  0  # atno 10167 bound_to 10162
  156.0831  130.6028  150.8778 H   0  0  0  0  0  0  0  0  0  0  0  0  # atno 10718 bound_to 10713
  153.0998  135.4818  154.8846 H   0  0  0  0  0  0  0  0  0  0  0  0  # atno 10763 bound_to 10752
  154.7366  135.3072  154.8803 H   0  0  0  0  0  0  0  0  0  0  0  0  # atno 10764 bound_to 10752
  153.9423  135.6832  153.4797 H   0  0  0  0  0  0  0  0  0  0  0  0  # atno 10765 bound_to 10752
  139.8872  134.8562  156.3167 H   0  0  0  0  0  0  0  0  0  0  0  0  # atno 11005 bound_to 11000
  144.8011  139.6140  143.7071 LP  0  0  0  0  0  0  0  0  0  0  0  0  # atno 17320 bound_to 7965
  146.2458  139.6096  142.9460 LP  0  0  0  0  0  0  0  0  0  0  0  0  # atno 17321 bound_to 7965
  140.7808  143.4014  151.1142 LP  0  0  0  0  0  0  0  0  0  0  0  0  # atno 17342 bound_to 10162
  139.7669  143.8552  152.3112 LP  0  0  0  0  0  0  0  0  0  0  0  0  # atno 17343 bound_to 10162
  157.5956  131.0943  150.9046 LP  0  0  0  0  0  0  0  0  0  0  0  0  # atno 17370 bound_to 10713
  156.9214  130.5316  149.5279 LP  0  0  0  0  0  0  0  0  0  0  0  0  # atno 17371 bound_to 10713
  140.9814  133.7265  156.0678 LP  0  0  0  0  0  0  0  0  0  0  0  0  # atno 17394 bound_to 11000
  140.7744  134.3796  157.5501 LP  0  0  0  0  0  0  0  0  0  0  0  0  # atno 17395 bound_to 11000

$$$$
