AV-unprocessed.smi:504|AV-procd|sdf|2747|dock1
  -GOLD-   2262023213D 1   1.00000     0.00000
 Structure written by MMmdl.
 35 36  0  0  0  0  0  0  0  0  1 V2000
  152.6550  139.7719  156.0906 N   0  0  0  0  0  0  0  0  0  0  0  0
  152.1957  139.7921  157.1526 C   0  0  0  0  0  0  0  0  0  0  0  0
  151.6090  139.8167  158.5081 C   0  0  0  0  0  0  0  0  0  0  0  0
  150.2729  139.2162  158.5106 N   0  0  0  0  0  0  0  0  0  0  0  0
  149.9760  137.9063  158.5054 C   0  0  0  0  0  0  0  0  0  0  0  0
  150.8286  137.0179  158.5245 O   0  0  0  0  0  0  0  0  0  0  0  0
  148.4799  137.5594  158.4947 C   0  0  0  0  0  0  0  0  0  0  0  0
  148.0870  136.6299  159.5643 N   0  0  0  0  0  0  0  0  0  0  0  0
  147.5138  137.2443  160.6638 N   0  0  0  0  0  0  0  0  0  0  0  0
  147.1423  136.5283  161.6686 C   0  0  0  0  0  0  0  0  0  0  0  0
  147.2995  135.0907  161.6905 C   0  0  0  0  0  0  0  0  0  0  0  0
  146.7821  134.1831  163.0675 Cl  0  0  0  0  0  0  0  0  0  0  0  0
  147.8574  134.4974  160.6054 C   0  0  0  0  0  0  0  0  0  0  0  0
  148.0770  132.7817  160.5574 Cl  0  0  0  0  0  0  0  0  0  0  0  0
  148.2915  135.2819  159.4410 C   0  0  0  0  0  0  0  0  0  0  0  0
  148.7975  134.7814  158.4355 O   0  0  0  0  0  0  0  0  0  0  0  0
  152.5265  139.0738  159.5125 C   0  0  0  0  0  0  0  0  0  0  0  0
  153.8866  139.7717  159.6859 C   0  0  0  0  0  0  0  0  0  0  0  0
  153.7081  141.2333  160.1201 C   0  0  0  0  0  0  0  0  0  0  0  0
  152.8028  141.9964  159.1426 C   0  0  0  0  0  0  0  0  0  0  0  0
  151.4505  141.2834  158.9703 C   0  0  0  0  0  0  0  0  0  0  0  0
  149.4982  139.8633  158.4997 H   0  0  0  0  0  0  0  0  0  0  0  0
  147.9180  138.4915  158.5778 H   0  0  0  0  0  0  0  0  0  0  0  0
  148.2093  137.1407  157.5234 H   0  0  0  0  0  0  0  0  0  0  0  0
  146.6886  136.9683  162.5567 H   0  0  0  0  0  0  0  0  0  0  0  0
  152.0339  139.0095  160.4838 H   0  0  0  0  0  0  0  0  0  0  0  0
  152.6953  138.0463  159.1892 H   0  0  0  0  0  0  0  0  0  0  0  0
  154.4863  139.2370  160.4230 H   0  0  0  0  0  0  0  0  0  0  0  0
  154.4452  139.7325  158.7500 H   0  0  0  0  0  0  0  0  0  0  0  0
  153.2743  141.2661  161.1204 H   0  0  0  0  0  0  0  0  0  0  0  0
  154.6797  141.7231  160.1887 H   0  0  0  0  0  0  0  0  0  0  0  0
  152.6427  143.0127  159.5039 H   0  0  0  0  0  0  0  0  0  0  0  0
  153.3001  142.0891  158.1764 H   0  0  0  0  0  0  0  0  0  0  0  0
  150.8388  141.8358  158.2554 H   0  0  0  0  0  0  0  0  0  0  0  0
  150.9121  141.3161  159.9191 H   0  0  0  0  0  0  0  0  0  0  0  0
  1  2  3  0  0  0  0
  2  3  1  0  0  0  0
  3 21  1  0  0  0  0
  3  4  1  0  0  0  0
  3 17  1  0  0  0  0
  4  5  1  0  0  0  0
  4 22  1  0  0  0  0
  5  6  2  0  0  0  0
  5  7  1  0  0  0  0
  7  8  1  0  0  0  0
  7 23  1  0  0  0  0
  7 24  1  0  0  0  0
  8 15  1  0  0  0  0
  8  9  1  0  0  0  0
  9 10  2  0  0  0  0
 10 11  1  0  0  0  0
 10 25  1  0  0  0  0
 11 12  1  0  0  0  0
 11 13  2  0  0  0  0
 13 14  1  0  0  0  0
 13 15  1  0  0  0  0
 15 16  2  0  0  0  0
 17 18  1  0  0  0  0
 17 26  1  0  0  0  0
 17 27  1  0  0  0  0
 18 19  1  0  0  0  0
 18 28  1  0  0  0  0
 18 29  1  0  0  0  0
 19 20  1  0  0  0  0
 19 30  1  0  0  0  0
 19 31  1  0  0  0  0
 20 21  1  0  0  0  0
 20 32  1  0  0  0  0
 20 33  1  0  0  0  0
 21 34  1  0  0  0  0
 21 35  1  0  0  0  0
M  END
> <s_m_source_file>
AV-unprocessed.smi

> <i_m_source_file_index>
504

> <i_lp_mmshare_version>
43012

> <i_f3d_flags>
0

> <s_epik_input>
W0NIMl0xW0NIMl1bQ0gyXVtDSDJdW0NIMl1DMShDI04pW05IXUMoPU8pW0NIMl1uMm5bY0hdYyhDbCljKENsKWMyPU8=

> <s_epik_cmdline>
J2VwaWtfcHl0aG9uJywgJy1waCcsICc3LjAnLCAnLXRuJywgJzgnLCAnLW1hJywgJzIwMCcsICctbWV0YWxfYmluZGluZycsICctaW1hZScsICc8aW5maWxlLm1hZT4nLCAnLW9tYWUnLCAnPG91dGZpbGUubWFlPic=

> <r_lp_tautomer_probability>
1

> <r_epik_Ionization_Penalty>
4.52612e-07

> <r_epik_Ionization_Penalty_Charging>
2.33921e-11

> <r_epik_Ionization_Penalty_Neutral>
4.52589e-07

> <r_epik_State_Penalty>
-0

> <r_epik_Charging_Adjusted_Penalty>
2.33921e-11

> <i_epik_Tot_Q>
0

> <i_epik_Tot_abs_Q>
0

> <r_epik_Metal_State_Penalty>
-0

> <b_epik_Metal_Only>
0

> <s_lp_Force_Field>
OPLS_2005

> <r_lp_Energy>
21.394

> <b_lp_Chiralities_Consistent>
1

> <s_lp_Variant>
AV-unprocessed.smi:504-1

> <Gold.Version>
5.8.1

> <Gold.Id.Protein>
6NUR|6NUR_protein|mol2

> <Gold.PLP.Fitness>
41.4527

> <Gold.PLP.PLP>
-33.4805

> <Gold.PLP.part.hbond>
-4.3739

> <Gold.PLP.part.metal>
0.0000

> <Gold.PLP.part.buried>
-1.7546

> <Gold.PLP.part.nonpolar>
-27.5095

> <Gold.PLP.part.repulsive>
0.1712

> <Gold.PLP.ligand.clash>
0.0000

> <Gold.PLP.ligand.torsion>
0.7066

> <Gold.PLP.Chemscore.Hbond>
3.1267

> <Gold.PLP.Chemscore.CHOScore>
0.0000

> <Gold.PLP.Chemscore.Metal>
0.0000

> <Gold.Chemscore.Hbonds>
donor molecule, donor type, donor heavy atom, donor atom, acceptor molecule, acceptor atom, score
      P1  H  6896  6908       L1    16  0.50
      P1  H  6931  6943       L1     9  0.24
      P1  H  6934  6947       L1     9  1.00
      P1  H  7997  8010       L1     1  1.00

> <Gold.PLP.Chemscore.Internal.Correction>
0.0055

> <Gold.Rescore>
     Score         DG    S(hbond)    S(metal)    S(lipo)     H(rot)  DE(clash)    DE(int)     intcor
     16.32     -20.41       2.65        0.00      86.93       1.60       1.38       2.71       ----

> <Gold.Chemscore.Fitness>
16.3243

> <Gold.Chemscore.DG>
-20.4145

> <Gold.Chemscore.ZeroCoef>
-5.4800

> <Gold.Chemscore.Hbond>
2.6531

> <Gold.Chemscore.Metal>
0.0000

> <Gold.Chemscore.Lipo>
86.9320

> <Gold.Chemscore.Internal_Hbond>
0.0000

> <Gold.Chemscore.DEClash>
1.3811

> <Gold.Chemscore.DEInternal>
2.7090

> <Gold.Chemscore.Rot>
1.6007

> <Gold.Chemscore.Internal.Correction>
   9.000000E+99

> <Gold.Chemscore.Hbonds>
donor molecule, donor type, donor heavy atom, donor atom, acceptor molecule, acceptor atom, score
      P1  H  6896  6908       L1    16  0.05
      P1  H  6931  6943       L1     9  0.01
      P1  H  6934  6947       L1     9  0.78
      P1  H  7997  8010       L1     1  0.70

> <Gold.Chemscore.Hbond.Weighted>
-8.8612

> <Gold.Chemscore.Metal.Weighted>
-0.0000

> <Gold.Chemscore.Lipo.Weighted>
-10.1710

> <Gold.Chemscore.Internal_Hbond.Weighted>
0.0000

> <Gold.Chemscore.DEClash.Weighted>
1.3811

> <Gold.Chemscore.DEInternal.Weighted>
2.7090

> <Gold.Chemscore.Rot.Weighted>
4.0978

> <Gold.Chemscore.Internal.Correction.Weighted>
   9.000000E+99

> <Gold.Protein.RotatedTorsions>
[ 6907 6896 6895 6894 ] final  149.09 input  -60.11 | X-H torsion
[ 7974 7965 7964 7962 ] final  -14.99 input  175.53 | X-H torsion
[ 8008 7997 7996 7995 ] final   86.42 input   59.86 | X-H torsion
[ 10167 10162 10161 10158 ] final    8.66 input  -65.29 | X-H torsion
[ 10718 10713 10712 10709 ] final    4.38 input   66.30 | X-H torsion
[ 10763 10752 10751 10750 ] final  -55.14 input  -60.55 | X-H torsion
[ 11005 11000 10999 10996 ] final   61.35 input  -57.11 | X-H torsion

> <Gold.Protein.ActiveResidues>
 VAL166  LYS551  ARG553  GLY616  TRP617  ASP618  TYR619  PRO620  LYS621  CYS622 
 ASP623  PHE694  ASN695  SER759  ASP760  ASP761  ALA762  ILE779  LEU786  VAL792 
 PHE793  MET794  SER795  GLU796  ALA797  LYS798  CYS799  TRP800  GLU811  SER814 

> <Gold.Protein.RotatedAtoms>
  152.1327  133.4417  159.4728 H   0  0  0  0  0  0  0  0  0  0  0  0  # atno 6907 bound_to 6896
  150.6879  134.2401  159.4478 H   0  0  0  0  0  0  0  0  0  0  0  0  # atno 6908 bound_to 6896
  152.0286  134.9780  160.0623 H   0  0  0  0  0  0  0  0  0  0  0  0  # atno 6909 bound_to 6896
  146.2051  140.3428  142.8410 H   0  0  0  0  0  0  0  0  0  0  0  0  # atno 7974 bound_to 7965
  155.9626  140.3392  155.6504 H   0  0  0  0  0  0  0  0  0  0  0  0  # atno 8008 bound_to 7997
  155.6779  140.0734  157.2514 H   0  0  0  0  0  0  0  0  0  0  0  0  # atno 8009 bound_to 7997
  154.4147  140.1680  156.1937 H   0  0  0  0  0  0  0  0  0  0  0  0  # atno 8010 bound_to 7997
  140.6301  143.8013  150.7284 H   0  0  0  0  0  0  0  0  0  0  0  0  # atno 10167 bound_to 10162
  156.8917  130.5690  149.5650 H   0  0  0  0  0  0  0  0  0  0  0  0  # atno 10718 bound_to 10713
  154.1860  135.6435  153.5047 H   0  0  0  0  0  0  0  0  0  0  0  0  # atno 10763 bound_to 10752
  153.0047  135.5417  154.6465 H   0  0  0  0  0  0  0  0  0  0  0  0  # atno 10764 bound_to 10752
  154.5841  135.2928  155.0675 H   0  0  0  0  0  0  0  0  0  0  0  0  # atno 10765 bound_to 10752
  140.0168  134.6213  155.9698 H   0  0  0  0  0  0  0  0  0  0  0  0  # atno 11005 bound_to 11000
  144.8773  140.7354  143.6008 LP  0  0  0  0  0  0  0  0  0  0  0  0  # atno 17320 bound_to 7965
  145.3348  139.1749  143.4517 LP  0  0  0  0  0  0  0  0  0  0  0  0  # atno 17321 bound_to 7965
  140.1622  143.4266  152.2059 LP  0  0  0  0  0  0  0  0  0  0  0  0  # atno 17342 bound_to 10162
  139.5516  144.7342  151.4417 LP  0  0  0  0  0  0  0  0  0  0  0  0  # atno 17343 bound_to 10162
  156.0625  130.5675  150.9222 LP  0  0  0  0  0  0  0  0  0  0  0  0  # atno 17370 bound_to 10713
  157.6079  131.0938  150.8846 LP  0  0  0  0  0  0  0  0  0  0  0  0  # atno 17371 bound_to 10713
  141.1748  133.6539  156.4786 LP  0  0  0  0  0  0  0  0  0  0  0  0  # atno 17394 bound_to 11000
  140.4458  134.6974  157.5014 LP  0  0  0  0  0  0  0  0  0  0  0  0  # atno 17395 bound_to 11000

$$$$
