#       Name:                AV-unprocessed.smi:561
#       Creating user name   scv26
#       Creation time:       Thu Mar 26 23:43:20 2020


#       File generated by GOLD software.
#

@<TRIPOS>MOLECULE
AV-unprocessed.smi:561
    42    43     1
SMALL
NO_CHARGES


@<TRIPOS>ATOM
      1 ****        -2.9500  -0.7746   2.0481 C.3            1 S1                 0.0000
      2 ****        -2.3806  -0.0959   0.7955 C.3            1 S1                 0.0000
      3 ****        -2.9046  -0.7650  -0.4929 C.3            1 S1                 0.0000
      4 ****        -2.4785  -0.0714  -1.7128 N.pl3          1 S1                 0.0000
      5 ****        -1.5135  -0.4706  -2.6019 C.2            1 S1                 0.0000
      6 ****        -1.4554   0.4941  -3.5742 C.2            1 S1                 0.0000
      7 ****        -2.3892   1.4381  -3.2402 N.pl3          1 S1                 1.0000
      8 ****        -3.0132   1.0904  -2.1101 C.2            1 S1                 0.0000
      9 ****        -0.9201  -0.1436   0.8511 N.am           1 S1                 0.0000
     10 ****        -0.0855   0.8564   0.5101 C.2            1 S1                 0.0000
     11 ****        -0.4765   1.9505   0.1023 O.2            1 S1                 0.0000
     12 ****         1.3648   0.5649   0.6459 C.2            1 S1                 0.0000
     13 ****         1.7703  -0.6586   0.7811 N.2            1 S1                 0.0000
     14 ****         3.1076  -0.9794   0.8983 N.am           1 S1                 0.0000
     15 ****         3.3831  -2.4076   0.7440 C.3            1 S1                 0.0000
     16 ****         4.0923  -0.0812   1.1615 C.2            1 S1                 0.0000
     17 ****         5.2845  -0.3710   1.2584 O.2            1 S1                 0.0000
     18 ****         3.6516   1.3708   1.3726 C.3            1 S1                 0.0000
     19 ****         2.3596   1.7061   0.6024 C.3            1 S1                 0.0000
     20 ****        -4.0395  -0.7299   2.0568 H              1 S1                 0.0000
     21 ****        -2.5947  -0.2858   2.9561 H              1 S1                 0.0000
     22 ****        -2.6601  -1.8247   2.0991 H              1 S1                 0.0000
     23 ****        -2.7177   0.9420   0.8141 H              1 S1                 0.0000
     24 ****        -2.5673  -1.8007  -0.5565 H              1 S1                 0.0000
     25 ****        -3.9954  -0.7875  -0.4943 H              1 S1                 0.0000
     26 ****        -0.9503  -1.3841  -2.4758 H              1 S1                 0.0000
     27 ****        -0.8356   0.5775  -4.4550 H              1 S1                 0.0000
     28 ****        -3.7892   1.6437  -1.6117 H              1 S1                 0.0000
     29 ****        -0.5068  -1.0052   1.1785 H              1 S1                 0.0000
     30 ****         4.4405  -2.6647   0.8181 H              1 S1                 0.0000
     31 ****         3.0335  -2.7524  -0.2300 H              1 S1                 0.0000
     32 ****         2.8543  -2.9760   1.5099 H              1 S1                 0.0000
     33 ****         3.4893   1.5120   2.4418 H              1 S1                 0.0000
     34 ****         4.4526   2.0520   1.0838 H              1 S1                 0.0000
     35 ****         2.5947   1.9404  -0.4365 H              1 S1                 0.0000
     36 ****         1.9249   2.6098   1.0316 H              1 S1                 0.0000
     37 ****        -2.5811   2.2794  -3.7696 H              1 S1                 0.0000
     38 ****        -1.4562   2.1292   0.0113 LP             1 S1                 0.0000
     39 ****         0.1857   2.6604  -0.1379 LP             1 S1                 0.0000
     40 ****         1.0927  -1.3937   0.8012 LP             1 S1                 0.0000
     41 ****         5.5797  -1.3192   1.1413 LP             1 S1                 0.0000
     42 ****         5.9580   0.3418   1.4543 LP             1 S1                 0.0000
@<TRIPOS>BOND
    1    1    2 1     
    2    1   20 1     
    3    1   21 1     
    4    1   22 1     
    5    2    3 1     
    6    2    9 1     
    7    2   23 1     
    8    3    4 1     
    9    3   24 1     
   10    3   25 1     
   11    4    8 1     
   12    4    5 1     
   13    5    6 2     
   14    5   26 1     
   15    6    7 1     
   16    6   27 1     
   17    7    8 2     
   18    7   37 1     
   19    8   28 1     
   20    9   10 am    
   21    9   29 1     
   22   10   11 2     
   23   10   12 1     
   24   12   19 1     
   25   12   13 2     
   26   13   14 1     
   27   14   15 1     
   28   14   16 am    
   29   15   30 1     
   30   15   31 1     
   31   15   32 1     
   32   16   17 2     
   33   16   18 1     
   34   18   19 1     
   35   18   33 1     
   36   18   34 1     
   37   19   35 1     
   38   19   36 1     
   39   11   38 1     
   40   11   39 1     
   41   13   40 1     
   42   17   41 1     
   43   17   42 1     
@<TRIPOS>SUBSTRUCTURE
      1 S1             1
@<TRIPOS>SET
LONE_PAIRS      STATIC     ATOMS    <user>   **** ""
5 38 39 40 41 42
DONOR_HYDROGENS      STATIC     ATOMS    <user>   **** ""
2 37 29
ATOM$BLUE        STATIC     ATOMS    COLORGROUP SYSTEM
5 38 39 40 41 42
ATOM$RED        STATIC     ATOMS    COLORGROUP SYSTEM
2 37 29
