AV-unprocessed.smi:896|AV-procd|sdf|4077|dock5
  -GOLD-   22720 1563D 1   1.00000     0.00000
 Structure written by MMmdl.
 49 50  0  0  0  0  0  0  0  0  2 V2000
  150.7070  142.9224  157.3640 C   0  0  0  0  0  0  0  0  0  0  0  0
  151.3754  141.9160  156.6114 O   0  0  0  0  0  0  0  0  0  0  0  0
  150.6139  141.0561  155.8470 C   0  0  0  0  0  0  0  0  0  0  0  0
  149.2760  141.3998  155.5753 C   0  0  0  0  0  0  0  0  0  0  0  0
  148.4961  140.5295  154.7910 C   0  0  0  0  0  0  0  0  0  0  0  0
  149.0800  139.3399  154.2931 C   0  0  0  0  0  0  0  0  0  0  0  0
  148.3646  138.3916  153.5092 N   0  0  0  0  0  0  0  0  0  0  0  0
  147.0358  138.2891  153.3364 C   0  0  0  0  0  0  0  0  0  0  0  0
  146.1930  139.0313  153.8413 O   0  0  0  0  0  0  0  0  0  0  0  0
  146.7289  137.2756  152.5141 N   0  0  0  0  0  0  0  0  0  0  0  0
  145.3761  136.9055  152.1144 C   0  0  0  0  0  0  0  0  0  0  0  0
  144.8782  135.6699  152.8873 C   0  0  0  0  0  0  0  0  0  0  0  0
  145.1058  134.3353  152.1495 C   0  0  2  0  0  0  0  0  0  0  0  0
  146.5910  134.1564  151.7827 C   0  0  0  0  0  0  0  0  0  0  0  0
  146.8321  132.8408  151.0245 C   0  0  0  0  0  0  0  0  0  0  0  0
  145.9910  132.7698  149.8048 N   0  3  1  0  0  0  0  0  0  0  0  0
  146.2849  131.5735  148.9869 C   0  0  0  0  0  0  0  0  0  0  0  0
  144.5474  132.8986  150.1208 C   0  0  0  0  0  0  0  0  0  0  0  0
  144.2579  134.2123  150.8668 C   0  0  0  0  0  0  0  0  0  0  0  0
  150.4270  139.0745  154.6395 C   0  0  0  0  0  0  0  0  0  0  0  0
  151.1308  137.8116  154.1749 C   0  0  0  0  0  0  0  0  0  0  0  0
  151.1769  139.9108  155.3904 N   0  0  0  0  0  0  0  0  0  0  0  0
  151.4431  143.5132  157.9087 H   0  0  0  0  0  0  0  0  0  0  0  0
  150.0261  142.4859  158.0963 H   0  0  0  0  0  0  0  0  0  0  0  0
  150.1506  143.6022  156.7170 H   0  0  0  0  0  0  0  0  0  0  0  0
  148.8534  142.3144  155.9645 H   0  0  0  0  0  0  0  0  0  0  0  0
  147.4647  140.7828  154.5996 H   0  0  0  0  0  0  0  0  0  0  0  0
  148.9346  137.7683  152.9567 H   0  0  0  0  0  0  0  0  0  0  0  0
  147.4840  136.7195  152.1399 H   0  0  0  0  0  0  0  0  0  0  0  0
  144.7214  137.7551  152.3101 H   0  0  0  0  0  0  0  0  0  0  0  0
  145.3498  136.7356  151.0376 H   0  0  0  0  0  0  0  0  0  0  0  0
  145.3518  135.6271  153.8692 H   0  0  0  0  0  0  0  0  0  0  0  0
  143.8104  135.7926  153.0751 H   0  0  0  0  0  0  0  0  0  0  0  0
  144.8290  133.5236  152.8242 H   0  0  0  0  0  0  0  0  0  0  0  0
  146.9246  134.9955  151.1701 H   0  0  0  0  0  0  0  0  0  0  0  0
  147.2034  134.1717  152.6850 H   0  0  0  0  0  0  0  0  0  0  0  0
  147.8846  132.7692  150.7475 H   0  0  0  0  0  0  0  0  0  0  0  0
  146.6147  131.9885  151.6704 H   0  0  0  0  0  0  0  0  0  0  0  0
  146.0498  130.6589  149.5326 H   0  0  0  0  0  0  0  0  0  0  0  0
  147.3393  131.5456  148.7102 H   0  0  0  0  0  0  0  0  0  0  0  0
  145.7001  131.5832  148.0665 H   0  0  0  0  0  0  0  0  0  0  0  0
  143.9680  132.8711  149.1970 H   0  0  0  0  0  0  0  0  0  0  0  0
  144.2265  132.0462  150.7221 H   0  0  0  0  0  0  0  0  0  0  0  0
  143.1952  134.2549  151.1044 H   0  0  0  0  0  0  0  0  0  0  0  0
  144.4600  135.0577  150.2074 H   0  0  0  0  0  0  0  0  0  0  0  0
  151.1169  137.7465  153.0865 H   0  0  0  0  0  0  0  0  0  0  0  0
  150.6343  136.9299  154.5812 H   0  0  0  0  0  0  0  0  0  0  0  0
  152.1722  137.7905  154.4990 H   0  0  0  0  0  0  0  0  0  0  0  0
  146.2347  133.5707  149.2396 H   0  0  0  0  0  0  0  0  0  0  0  0
  1  2  1  0  0  0  0
  1 23  1  0  0  0  0
  1 24  1  0  0  0  0
  1 25  1  0  0  0  0
  2  3  1  0  0  0  0
  3 22  1  0  0  0  0
  3  4  2  0  0  0  0
  4  5  1  0  0  0  0
  4 26  1  0  0  0  0
  5  6  2  0  0  0  0
  5 27  1  0  0  0  0
  6  7  1  0  0  0  0
  6 20  1  0  0  0  0
  7  8  1  0  0  0  0
  7 28  1  0  0  0  0
  8  9  2  0  0  0  0
  8 10  1  0  0  0  0
 10 11  1  0  0  0  0
 10 29  1  0  0  0  0
 11 12  1  0  0  0  0
 11 30  1  0  0  0  0
 11 31  1  0  0  0  0
 12 13  1  0  0  0  0
 12 32  1  0  0  0  0
 12 33  1  0  0  0  0
 13 19  1  0  0  0  0
 13 14  1  0  0  0  0
 13 34  1  0  0  0  0
 14 15  1  0  0  0  0
 14 35  1  0  0  0  0
 14 36  1  0  0  0  0
 15 16  1  0  0  0  0
 15 37  1  0  0  0  0
 15 38  1  0  0  0  0
 16 17  1  0  0  0  0
 16 18  1  0  0  0  0
 16 49  1  0  0  0  0
 17 39  1  0  0  0  0
 17 40  1  0  0  0  0
 17 41  1  0  0  0  0
 18 19  1  0  0  0  0
 18 42  1  0  0  0  0
 18 43  1  0  0  0  0
 19 44  1  0  0  0  0
 19 45  1  0  0  0  0
 20 21  1  0  0  0  0
 20 22  2  0  0  0  0
 21 46  1  0  0  0  0
 21 47  1  0  0  0  0
 21 48  1  0  0  0  0
M  CHG  1  16   1
M  END
> <s_m_source_file>
AV-unprocessed.smi

> <i_m_source_file_index>
896

> <i_lp_mmshare_version>
43012

> <i_f3d_flags>
0

> <s_epik_input>
W0NIM11PYzFbY0hdW2NIXWMoYyhuMSlbQ0gzXSlbTkhdQyg9TylbTkhdW0NIMl1bQ0gyXVtDSF0yW0NIMl1bQ0gyXU4oW0NIM10pW0NIMl1bQ0gyXTI=

> <s_epik_cmdline>
J2VwaWtfcHl0aG9uJywgJy1waCcsICc3LjAnLCAnLXRuJywgJzgnLCAnLW1hJywgJzIwMCcsICctbWV0YWxfYmluZGluZycsICctaW1hZScsICc8aW5maWxlLm1hZT4nLCAnLW9tYWUnLCAnPG91dGZpbGUubWFlPic=

> <r_lp_tautomer_probability>
1

> <r_epik_Ionization_Penalty>
0.000968128

> <r_epik_Ionization_Penalty_Charging>
0.000718523

> <r_epik_Ionization_Penalty_Neutral>
0.000249604

> <r_epik_State_Penalty>
0.00045807

> <r_epik_Charging_Adjusted_Penalty>
0.00117659

> <i_epik_Tot_Q>
1

> <i_epik_Tot_abs_Q>
1

> <r_epik_Metal_State_Penalty>
-0

> <b_epik_Metal_Only>
0

> <s_lp_Force_Field>
OPLS_2005

> <r_lp_Energy>
19.0488

> <b_lp_Chiralities_Consistent>
1

> <s_lp_Variant>
AV-unprocessed.smi:896-1

> <Gold.Version>
5.8.1

> <Gold.Id.Protein>
6NUR|6NUR_protein|mol2

> <Gold.PLP.Fitness>
44.4920

> <Gold.PLP.PLP>
-36.8904

> <Gold.PLP.part.hbond>
-4.3419

> <Gold.PLP.part.metal>
0.0000

> <Gold.PLP.part.buried>
-2.4898

> <Gold.PLP.part.nonpolar>
-32.2264

> <Gold.PLP.part.repulsive>
0.4216

> <Gold.PLP.ligand.clash>
0.0000

> <Gold.PLP.ligand.torsion>
0.6255

> <Gold.PLP.Chemscore.Hbond>
2.9166

> <Gold.PLP.Chemscore.CHOScore>
0.0000

> <Gold.PLP.Chemscore.Metal>
0.0000

> <Gold.Chemscore.Hbonds>
donor molecule, donor type, donor heavy atom, donor atom, acceptor molecule, acceptor atom, score
      L1  H     7    28       P1  7948  0.94
      L1  H    10    29       P1  7948  1.00
      L1  H    16    49       P1  7921  0.30
      P1  H  7989  7998       L1    22  0.08

> <Gold.PLP.Chemscore.Internal.Correction>
0.1026

> <Gold.Rescore>
     Score         DG    S(hbond)    S(metal)    S(lipo)     H(rot)  DE(clash)    DE(int)     intcor
     18.00     -21.47       2.73        0.00      94.89       1.65       1.53       1.94       ----

> <Gold.Chemscore.Fitness>
18.0029

> <Gold.Chemscore.DG>
-21.4736

> <Gold.Chemscore.ZeroCoef>
-5.4800

> <Gold.Chemscore.Hbond>
2.7308

> <Gold.Chemscore.Metal>
0.0000

> <Gold.Chemscore.Lipo>
94.8902

> <Gold.Chemscore.Internal_Hbond>
0.0000

> <Gold.Chemscore.DEClash>
1.5349

> <Gold.Chemscore.DEInternal>
1.9357

> <Gold.Chemscore.Rot>
1.6521

> <Gold.Chemscore.Internal.Correction>
   9.000000E+99

> <Gold.Chemscore.Hbonds>
donor molecule, donor type, donor heavy atom, donor atom, acceptor molecule, acceptor atom, score
      L1  H     7    28       P1  7948  0.91
      L1  H    10    29       P1  7948  0.96

> <Gold.Chemscore.Hbond.Weighted>
-9.1208

> <Gold.Chemscore.Metal.Weighted>
-0.0000

> <Gold.Chemscore.Lipo.Weighted>
-11.1022

> <Gold.Chemscore.Internal_Hbond.Weighted>
0.0000

> <Gold.Chemscore.DEClash.Weighted>
1.5349

> <Gold.Chemscore.DEInternal.Weighted>
1.9357

> <Gold.Chemscore.Rot.Weighted>
4.2294

> <Gold.Chemscore.Internal.Correction.Weighted>
   9.000000E+99

> <Gold.Protein.RotatedTorsions>
[ 6907 6896 6895 6894 ] final  -97.26 input  -60.11 | X-H torsion
[ 7974 7965 7964 7962 ] final  -18.15 input  175.53 | X-H torsion
[ 8008 7997 7996 7995 ] final  151.28 input   59.86 | X-H torsion
[ 10167 10162 10161 10158 ] final    9.22 input  -65.29 | X-H torsion
[ 10718 10713 10712 10709 ] final   43.62 input   66.30 | X-H torsion
[ 10763 10752 10751 10750 ] final  128.89 input  -60.55 | X-H torsion
[ 11005 11000 10999 10996 ] final   67.60 input  -57.11 | X-H torsion

> <Gold.Protein.ActiveResidues>
 VAL166  LYS551  ARG553  GLY616  TRP617  ASP618  TYR619  PRO620  LYS621  CYS622 
 ASP623  PHE694  ASN695  SER759  ASP760  ASP761  ALA762  ILE779  LEU786  VAL792 
 PHE793  MET794  SER795  GLU796  ALA797  LYS798  CYS799  TRP800  GLU811  SER814 

> <Gold.Protein.RotatedAtoms>
  150.7011  134.1376  159.4092 H   0  0  0  0  0  0  0  0  0  0  0  0  # atno 6907 bound_to 6896
  151.9361  135.0232  160.0542 H   0  0  0  0  0  0  0  0  0  0  0  0  # atno 6908 bound_to 6896
  152.2134  133.4893  159.5159 H   0  0  0  0  0  0  0  0  0  0  0  0  # atno 6909 bound_to 6896
  146.1906  140.3880  142.8459 H   0  0  0  0  0  0  0  0  0  0  0  0  # atno 7974 bound_to 7965
  156.2681  140.2052  156.6150 H   0  0  0  0  0  0  0  0  0  0  0  0  # atno 8008 bound_to 7997
  154.6802  140.0541  157.0281 H   0  0  0  0  0  0  0  0  0  0  0  0  # atno 8009 bound_to 7997
  155.1012  140.3206  155.4549 H   0  0  0  0  0  0  0  0  0  0  0  0  # atno 8010 bound_to 7997
  140.6268  143.8084  150.7243 H   0  0  0  0  0  0  0  0  0  0  0  0  # atno 10167 bound_to 10162
  157.4179  130.7952  149.7489 H   0  0  0  0  0  0  0  0  0  0  0  0  # atno 10718 bound_to 10713
  153.7329  135.3236  155.3289 H   0  0  0  0  0  0  0  0  0  0  0  0  # atno 10763 bound_to 10752
  154.8320  135.4526  154.1104 H   0  0  0  0  0  0  0  0  0  0  0  0  # atno 10764 bound_to 10752
  153.2256  135.6953  153.8030 H   0  0  0  0  0  0  0  0  0  0  0  0  # atno 10765 bound_to 10752
  139.9761  134.6820  156.0351 H   0  0  0  0  0  0  0  0  0  0  0  0  # atno 11005 bound_to 11000
  144.8480  140.6958  143.6186 LP  0  0  0  0  0  0  0  0  0  0  0  0  # atno 17320 bound_to 7965
  145.3803  139.1638  143.4284 LP  0  0  0  0  0  0  0  0  0  0  0  0  # atno 17321 bound_to 7965
  140.1686  143.4214  152.2017 LP  0  0  0  0  0  0  0  0  0  0  0  0  # atno 17342 bound_to 10162
  139.5487  144.7320  151.4503 LP  0  0  0  0  0  0  0  0  0  0  0  0  # atno 17343 bound_to 10162
  155.9871  130.3969  150.3181 LP  0  0  0  0  0  0  0  0  0  0  0  0  # atno 17370 bound_to 10713
  157.1326  131.0275  151.2963 LP  0  0  0  0  0  0  0  0  0  0  0  0  # atno 17371 bound_to 10713
  141.1438  133.6560  156.3806 LP  0  0  0  0  0  0  0  0  0  0  0  0  # atno 17394 bound_to 11000
  140.5192  134.6321  157.5312 LP  0  0  0  0  0  0  0  0  0  0  0  0  # atno 17395 bound_to 11000

$$$$
