AV-unprocessed.smi:2730|AV-procd|sdf|10528|dock2
  -GOLD-   2272014573D 1   1.00000     0.00000
 Structure written by MMmdl.
 43 44  0  0  0  0  0  0  0  0  1 V2000
  151.6629  132.9667  156.2561 C   0  0  0  0  0  0  0  0  0  0  0  0
  151.4477  134.4242  155.8222 C   0  0  0  0  0  0  0  0  0  0  0  0
  150.0896  134.6746  155.1355 C   0  0  2  0  0  0  0  0  0  0  0  0
  149.8903  133.7889  153.8917 C   0  0  0  0  0  0  0  0  0  0  0  0
  148.4797  133.4929  153.5960 C   0  0  0  0  0  0  0  0  0  0  0  0
  147.3704  133.2607  153.3634 N   0  0  0  0  0  0  0  0  0  0  0  0
  149.9665  136.0828  154.7660 N   0  0  0  0  0  0  0  0  0  0  0  0
  150.2056  137.1204  155.5807 C   0  0  0  0  0  0  0  0  0  0  0  0
  150.5515  136.9947  156.7557 O   0  0  0  0  0  0  0  0  0  0  0  0
  150.0175  138.2900  154.9452 N   0  0  0  0  0  0  0  0  0  0  0  0
  150.1665  139.6031  155.4618 C   0  0  0  0  0  0  0  0  0  0  0  0
  149.8346  140.7427  154.7810 N   0  0  0  0  0  0  0  0  0  0  0  0
  150.1665  141.6408  155.6989 C   0  0  0  0  0  0  0  0  0  0  0  0
  150.6526  141.1131  156.8262 N   0  0  0  0  0  0  0  0  0  0  0  0
  151.1180  141.7633  158.0416 C   0  0  0  0  0  0  0  0  0  0  0  0
  151.1230  143.2995  157.8967 C   0  0  0  0  0  0  0  0  0  0  0  0
  151.6058  143.9799  159.1881 C   0  0  0  0  0  0  0  0  0  0  0  0
  152.9901  143.4599  159.6083 C   0  0  0  0  0  0  0  0  0  0  0  0
  152.9897  141.9296  159.7545 C   0  0  0  0  0  0  0  0  0  0  0  0
  152.5095  141.2467  158.4633 C   0  0  0  0  0  0  0  0  0  0  0  0
  150.6600  139.7637  156.6876 N   0  0  0  0  0  0  0  0  0  0  0  0
  152.6543  132.8359  156.6903 H   0  0  0  0  0  0  0  0  0  0  0  0
  151.5811  132.2883  155.4066 H   0  0  0  0  0  0  0  0  0  0  0  0
  150.9337  132.6569  157.0049 H   0  0  0  0  0  0  0  0  0  0  0  0
  151.5466  135.0776  156.6898 H   0  0  0  0  0  0  0  0  0  0  0  0
  152.2548  134.7001  155.1434 H   0  0  0  0  0  0  0  0  0  0  0  0
  149.3044  134.4335  155.8549 H   0  0  0  0  0  0  0  0  0  0  0  0
  150.3107  134.2687  153.0074 H   0  0  0  0  0  0  0  0  0  0  0  0
  150.4078  132.8371  154.0154 H   0  0  0  0  0  0  0  0  0  0  0  0
  149.6868  136.2791  153.8161 H   0  0  0  0  0  0  0  0  0  0  0  0
  149.7350  138.2363  153.9778 H   0  0  0  0  0  0  0  0  0  0  0  0
  150.0533  142.7040  155.5460 H   0  0  0  0  0  0  0  0  0  0  0  0
  150.4104  141.5032  158.8309 H   0  0  0  0  0  0  0  0  0  0  0  0
  151.7721  143.5967  157.0719 H   0  0  0  0  0  0  0  0  0  0  0  0
  150.1227  143.6548  157.6462 H   0  0  0  0  0  0  0  0  0  0  0  0
  151.6419  145.0604  159.0472 H   0  0  0  0  0  0  0  0  0  0  0  0
  150.8880  143.7960  159.9885 H   0  0  0  0  0  0  0  0  0  0  0  0
  153.7321  143.7552  158.8654 H   0  0  0  0  0  0  0  0  0  0  0  0
  153.2920  143.9231  160.5480 H   0  0  0  0  0  0  0  0  0  0  0  0
  153.9906  141.5807  160.0095 H   0  0  0  0  0  0  0  0  0  0  0  0
  152.3414  141.6416  160.5832 H   0  0  0  0  0  0  0  0  0  0  0  0
  152.4788  140.1662  158.6088 H   0  0  0  0  0  0  0  0  0  0  0  0
  153.2351  141.4312  157.6695 H   0  0  0  0  0  0  0  0  0  0  0  0
  1  2  1  0  0  0  0
  1 22  1  0  0  0  0
  1 23  1  0  0  0  0
  1 24  1  0  0  0  0
  2  3  1  0  0  0  0
  2 25  1  0  0  0  0
  2 26  1  0  0  0  0
  3  4  1  0  0  0  0
  3  7  1  0  0  0  0
  3 27  1  0  0  0  0
  4  5  1  0  0  0  0
  4 28  1  0  0  0  0
  4 29  1  0  0  0  0
  5  6  3  0  0  0  0
  7  8  1  0  0  0  0
  7 30  1  0  0  0  0
  8  9  2  0  0  0  0
  8 10  1  0  0  0  0
 10 11  1  0  0  0  0
 10 31  1  0  0  0  0
 11 21  2  0  0  0  0
 11 12  1  0  0  0  0
 12 13  2  0  0  0  0
 13 14  1  0  0  0  0
 13 32  1  0  0  0  0
 14 15  1  0  0  0  0
 14 21  1  0  0  0  0
 15 20  1  0  0  0  0
 15 16  1  0  0  0  0
 15 33  1  0  0  0  0
 16 17  1  0  0  0  0
 16 34  1  0  0  0  0
 16 35  1  0  0  0  0
 17 18  1  0  0  0  0
 17 36  1  0  0  0  0
 17 37  1  0  0  0  0
 18 19  1  0  0  0  0
 18 38  1  0  0  0  0
 18 39  1  0  0  0  0
 19 20  1  0  0  0  0
 19 40  1  0  0  0  0
 19 41  1  0  0  0  0
 20 42  1  0  0  0  0
 20 43  1  0  0  0  0
M  END
> <s_m_source_file>
AV-unprocessed.smi

> <i_m_source_file_index>
2730

> <i_lp_mmshare_version>
43012

> <i_f3d_flags>
0

> <s_epik_input>
TiNDW0NIMl1bQ0BASF0oW0NIMl1bQ0gzXSlbTkhdQyg9TylbTkhdYzFuW2NIXW4objEpW0NIXTJbQ0gyXVtDSDJdW0NIMl1bQ0gyXVtDSDJdMg==

> <s_epik_cmdline>
J2VwaWtfcHl0aG9uJywgJy1waCcsICc3LjAnLCAnLXRuJywgJzgnLCAnLW1hJywgJzIwMCcsICctbWV0YWxfYmluZGluZycsICctaW1hZScsICc8aW5maWxlLm1hZT4nLCAnLW9tYWUnLCAnPG91dGZpbGUubWFlPic=

> <r_lp_tautomer_probability>
1

> <r_epik_Ionization_Penalty>
7.18854e-05

> <r_epik_Ionization_Penalty_Charging>
0

> <r_epik_Ionization_Penalty_Neutral>
7.18854e-05

> <r_epik_State_Penalty>
-0

> <r_epik_Charging_Adjusted_Penalty>
0

> <i_epik_Tot_Q>
0

> <i_epik_Tot_abs_Q>
0

> <r_epik_Metal_State_Penalty>
-0

> <b_epik_Metal_Only>
0

> <s_lp_Force_Field>
OPLS_2005

> <r_lp_Energy>
15.2848

> <b_lp_Chiralities_Consistent>
1

> <s_lp_Variant>
AV-unprocessed.smi:2730-1

> <Gold.Version>
5.8.1

> <Gold.Id.Protein>
6NUR|6NUR_protein|mol2

> <Gold.PLP.Fitness>
45.0009

> <Gold.PLP.PLP>
-37.6050

> <Gold.PLP.part.hbond>
-2.0000

> <Gold.PLP.part.metal>
0.0000

> <Gold.PLP.part.buried>
-3.9901

> <Gold.PLP.part.nonpolar>
-30.7587

> <Gold.PLP.part.repulsive>
0.2877

> <Gold.PLP.ligand.clash>
0.0000

> <Gold.PLP.ligand.torsion>
0.5076

> <Gold.PLP.Chemscore.Hbond>
1.7840

> <Gold.PLP.Chemscore.CHOScore>
1.0000

> <Gold.PLP.Chemscore.Metal>
0.0000

> <Gold.Chemscore.Hbonds>
donor molecule, donor type, donor heavy atom, donor atom, acceptor molecule, acceptor atom, score
      L1  H     7    30       P1  7948  0.94
      P1  H  7989  7998       L1    12  0.39
      L1  C    13    32       P1  8028  1.00

> <Gold.PLP.Chemscore.Internal.Correction>
0.0591

> <Gold.Rescore>
     Score         DG    S(hbond)    S(metal)    S(lipo)     H(rot)  DE(clash)    DE(int)     intcor
     10.90     -13.91       1.08        0.00      81.22       1.82       0.05       2.96       ----

> <Gold.Chemscore.Fitness>
10.9029

> <Gold.Chemscore.DG>
-13.9072

> <Gold.Chemscore.ZeroCoef>
-5.4800

> <Gold.Chemscore.Hbond>
1.0768

> <Gold.Chemscore.Metal>
0.0000

> <Gold.Chemscore.Lipo>
81.2194

> <Gold.Chemscore.Internal_Hbond>
0.0000

> <Gold.Chemscore.DEClash>
0.0473

> <Gold.Chemscore.DEInternal>
2.9571

> <Gold.Chemscore.Rot>
1.8249

> <Gold.Chemscore.Internal.Correction>
   9.000000E+99

> <Gold.Chemscore.Hbonds>
donor molecule, donor type, donor heavy atom, donor atom, acceptor molecule, acceptor atom, score
      L1  H     7    30       P1  7948  0.40
      P1  H  7989  7998       L1    12  0.02

> <Gold.Chemscore.Hbond.Weighted>
-3.5964

> <Gold.Chemscore.Metal.Weighted>
-0.0000

> <Gold.Chemscore.Lipo.Weighted>
-9.5027

> <Gold.Chemscore.Internal_Hbond.Weighted>
0.0000

> <Gold.Chemscore.DEClash.Weighted>
0.0473

> <Gold.Chemscore.DEInternal.Weighted>
2.9571

> <Gold.Chemscore.Rot.Weighted>
4.6718

> <Gold.Chemscore.Internal.Correction.Weighted>
   9.000000E+99

> <Gold.Protein.RotatedTorsions>
[ 6907 6896 6895 6894 ] final  111.10 input  -60.11 | X-H torsion
[ 7974 7965 7964 7962 ] final    7.99 input  175.53 | X-H torsion
[ 8008 7997 7996 7995 ] final   71.72 input   59.86 | X-H torsion
[ 10167 10162 10161 10158 ] final -147.43 input  -65.29 | X-H torsion
[ 10718 10713 10712 10709 ] final  144.38 input   66.30 | X-H torsion
[ 10763 10752 10751 10750 ] final -108.74 input  -60.55 | X-H torsion
[ 11005 11000 10999 10996 ] final  -42.29 input  -57.11 | X-H torsion

> <Gold.Protein.ActiveResidues>
 VAL166  LYS551  ARG553  GLY616  TRP617  ASP618  TYR619  PRO620  LYS621  CYS622 
 ASP623  PHE694  ASN695  SER759  ASP760  ASP761  ALA762  ILE779  LEU786  VAL792 
 PHE793  MET794  SER795  GLU796  ALA797  LYS798  CYS799  TRP800  GLU811  SER814 

> <Gold.Protein.RotatedAtoms>
  152.4986  133.8705  159.7295 H   0  0  0  0  0  0  0  0  0  0  0  0  # atno 6907 bound_to 6896
  150.9193  133.6891  159.2842 H   0  0  0  0  0  0  0  0  0  0  0  0  # atno 6908 bound_to 6896
  151.4273  135.1010  159.9684 H   0  0  0  0  0  0  0  0  0  0  0  0  # atno 6909 bound_to 6896
  146.2421  140.0001  142.8417 H   0  0  0  0  0  0  0  0  0  0  0  0  # atno 7974 bound_to 7965
  155.7581  140.3487  155.5184 H   0  0  0  0  0  0  0  0  0  0  0  0  # atno 8008 bound_to 7997
  155.8940  140.1023  157.1419 H   0  0  0  0  0  0  0  0  0  0  0  0  # atno 8009 bound_to 7997
  154.4036  140.1299  156.4339 H   0  0  0  0  0  0  0  0  0  0  0  0  # atno 8010 bound_to 7997
  139.7623  143.8359  152.2609 H   0  0  0  0  0  0  0  0  0  0  0  0  # atno 10167 bound_to 10162
  157.3579  131.0960  151.0942 H   0  0  0  0  0  0  0  0  0  0  0  0  # atno 10718 bound_to 10713
  154.8153  135.4627  154.0626 H   0  0  0  0  0  0  0  0  0  0  0  0  # atno 10763 bound_to 10752
  153.2024  135.6870  153.8221 H   0  0  0  0  0  0  0  0  0  0  0  0  # atno 10764 bound_to 10752
  153.7701  135.3271  155.3327 H   0  0  0  0  0  0  0  0  0  0  0  0  # atno 10765 bound_to 10752
  141.0305  133.6822  156.2574 H   0  0  0  0  0  0  0  0  0  0  0  0  # atno 11005 bound_to 11000
  145.1423  140.9578  143.4481 LP  0  0  0  0  0  0  0  0  0  0  0  0  # atno 17320 bound_to 7965
  145.0284  139.3362  143.6037 LP  0  0  0  0  0  0  0  0  0  0  0  0  # atno 17321 bound_to 7965
  139.8369  144.7228  150.9380 LP  0  0  0  0  0  0  0  0  0  0  0  0  # atno 17342 bound_to 10162
  140.7808  143.4019  151.1135 LP  0  0  0  0  0  0  0  0  0  0  0  0  # atno 17343 bound_to 10162
  157.2093  130.6430  149.5768 LP  0  0  0  0  0  0  0  0  0  0  0  0  # atno 17370 bound_to 10713
  155.9732  130.4665  150.6292 LP  0  0  0  0  0  0  0  0  0  0  0  0  # atno 17371 bound_to 10713
  140.6415  134.5161  157.5570 LP  0  0  0  0  0  0  0  0  0  0  0  0  # atno 17394 bound_to 11000
  139.9205  134.8159  156.1228 LP  0  0  0  0  0  0  0  0  0  0  0  0  # atno 17395 bound_to 11000

$$$$
