AV-unprocessed.smi:3337|AV-procd|sdf|12862|dock10
  -GOLD-   2272019263D 1   1.00000     0.00000
 Structure written by MMmdl.
 46 47  0  0  0  0  0  0  0  0  2 V2000
  154.1833  141.4591  161.6088 C   0  0  0  0  0  0  0  0  0  0  0  0
  152.9802  141.8352  160.7326 C   0  0  1  0  0  0  0  0  0  0  0  0
  152.8408  143.3614  160.5974 C   0  0  0  0  0  0  0  0  0  0  0  0
  151.6585  143.7280  159.6834 C   0  0  1  0  0  0  0  0  0  0  0  0
  151.5263  145.2492  159.5247 C   0  0  0  0  0  0  0  0  0  0  0  0
  151.8115  143.0300  158.3155 C   0  0  0  0  0  0  0  0  0  0  0  0
  151.9396  141.5548  158.4489 N   0  3  2  0  0  0  0  0  0  0  0  0
  150.6546  140.8722  158.7579 C   0  0  0  0  0  0  0  0  0  0  0  0
  150.8353  139.3609  159.0019 C   0  0  0  0  0  0  0  0  0  0  0  0
  149.5578  138.6979  159.2352 N   0  0  0  0  0  0  0  0  0  0  0  0
  149.4105  137.3889  159.4956 C   0  0  0  0  0  0  0  0  0  0  0  0
  150.3638  136.6140  159.5852 O   0  0  0  0  0  0  0  0  0  0  0  0
  147.9701  136.8859  159.6802 C   0  0  2  0  0  0  0  0  0  0  0  0
  146.9190  137.9223  159.2340 C   0  0  0  0  0  0  0  0  0  0  0  0
  147.7605  136.4472  161.0544 N   0  0  0  0  0  0  0  0  0  0  0  0
  147.5692  135.2199  161.5434 C   0  0  0  0  0  0  0  0  0  0  0  0
  147.4534  135.1777  162.8631 N   0  0  0  0  0  0  0  0  0  0  0  0
  147.6020  136.5052  163.1479 C   0  0  0  0  0  0  0  0  0  0  0  0
  147.7994  137.3078  162.1023 N   0  0  0  0  0  0  0  0  0  0  0  0
  153.0750  141.1800  159.3367 C   0  0  0  0  0  0  0  0  0  0  0  0
  155.1200  141.8020  161.1681 H   0  0  0  0  0  0  0  0  0  0  0  0
  154.2517  140.3785  161.7381 H   0  0  0  0  0  0  0  0  0  0  0  0
  154.1005  141.9032  162.6014 H   0  0  0  0  0  0  0  0  0  0  0  0
  152.0912  141.4577  161.2380 H   0  0  0  0  0  0  0  0  0  0  0  0
  152.7028  143.8104  161.5820 H   0  0  0  0  0  0  0  0  0  0  0  0
  153.7630  143.7816  160.1925 H   0  0  0  0  0  0  0  0  0  0  0  0
  150.7412  143.3715  160.1539 H   0  0  0  0  0  0  0  0  0  0  0  0
  152.4083  145.6777  159.0474 H   0  0  0  0  0  0  0  0  0  0  0  0
  151.4034  145.7359  160.4929 H   0  0  0  0  0  0  0  0  0  0  0  0
  150.6595  145.5070  158.9155 H   0  0  0  0  0  0  0  0  0  0  0  0
  150.9737  143.2747  157.6612 H   0  0  0  0  0  0  0  0  0  0  0  0
  152.7044  143.4050  157.8128 H   0  0  0  0  0  0  0  0  0  0  0  0
  150.1655  141.3487  159.6070 H   0  0  0  0  0  0  0  0  0  0  0  0
  149.9756  140.9940  157.9129 H   0  0  0  0  0  0  0  0  0  0  0  0
  151.3036  138.8975  158.1332 H   0  0  0  0  0  0  0  0  0  0  0  0
  151.4935  139.1649  159.8485 H   0  0  0  0  0  0  0  0  0  0  0  0
  148.7263  139.2682  159.1765 H   0  0  0  0  0  0  0  0  0  0  0  0
  147.8459  136.0088  159.0424 H   0  0  0  0  0  0  0  0  0  0  0  0
  147.0615  138.2005  158.1892 H   0  0  0  0  0  0  0  0  0  0  0  0
  146.9641  138.8361  159.8277 H   0  0  0  0  0  0  0  0  0  0  0  0
  145.9110  137.5179  159.3295 H   0  0  0  0  0  0  0  0  0  0  0  0
  147.5157  134.3381  160.9220 H   0  0  0  0  0  0  0  0  0  0  0  0
  147.5705  136.8908  164.1565 H   0  0  0  0  0  0  0  0  0  0  0  0
  153.9979  141.5002  158.8508 H   0  0  0  0  0  0  0  0  0  0  0  0
  153.1512  140.0975  159.4299 H   0  0  0  0  0  0  0  0  0  0  0  0
  152.1878  141.2272  157.5263 H   0  0  0  0  0  0  0  0  0  0  0  0
  1  2  1  0  0  0  0
  1 21  1  0  0  0  0
  1 22  1  0  0  0  0
  1 23  1  0  0  0  0
  2 20  1  0  0  0  0
  2  3  1  0  0  0  0
  2 24  1  0  0  0  0
  3  4  1  0  0  0  0
  3 25  1  0  0  0  0
  3 26  1  0  0  0  0
  4  5  1  0  0  0  0
  4  6  1  0  0  0  0
  4 27  1  0  0  0  0
  5 28  1  0  0  0  0
  5 29  1  0  0  0  0
  5 30  1  0  0  0  0
  6  7  1  0  0  0  0
  6 31  1  0  0  0  0
  6 32  1  0  0  0  0
  7  8  1  0  0  0  0
  7 20  1  0  0  0  0
  7 46  1  0  0  0  0
  8  9  1  0  0  0  0
  8 33  1  0  0  0  0
  8 34  1  0  0  0  0
  9 10  1  0  0  0  0
  9 35  1  0  0  0  0
  9 36  1  0  0  0  0
 10 11  1  0  0  0  0
 10 37  1  0  0  0  0
 11 12  2  0  0  0  0
 11 13  1  0  0  0  0
 13 14  1  0  0  0  0
 13 15  1  0  0  0  0
 13 38  1  0  0  0  0
 14 39  1  0  0  0  0
 14 40  1  0  0  0  0
 14 41  1  0  0  0  0
 15 19  1  0  0  0  0
 15 16  1  0  0  0  0
 16 17  2  0  0  0  0
 16 42  1  0  0  0  0
 17 18  1  0  0  0  0
 18 19  2  0  0  0  0
 18 43  1  0  0  0  0
 20 44  1  0  0  0  0
 20 45  1  0  0  0  0
M  CHG  1   7   1
M  END
> <s_m_source_file>
AV-unprocessed.smi

> <i_m_source_file_index>
3337

> <i_lp_mmshare_version>
43012

> <i_f3d_flags>
0

> <s_epik_input>
W0NIM11bQ0BASF0xW0NIMl1bQ0BASF0oW0NIM10pW0NIMl1OKFtDSDJdMSlbQ0gyXVtDSDJdW05IXUMoPU8pW0NASF0oW0NIM10pbjJbY0hdbltjSF1uMg==

> <s_epik_cmdline>
J2VwaWtfcHl0aG9uJywgJy1waCcsICc3LjAnLCAnLXRuJywgJzgnLCAnLW1hJywgJzIwMCcsICctbWV0YWxfYmluZGluZycsICctaW1hZScsICc8aW5maWxlLm1hZT4nLCAnLW9tYWUnLCAnPG91dGZpbGUubWFlPic=

> <r_lp_tautomer_probability>
1

> <r_epik_Ionization_Penalty>
0.00175613

> <r_epik_Ionization_Penalty_Charging>
0.00174812

> <r_epik_Ionization_Penalty_Neutral>
8.01354e-06

> <r_epik_State_Penalty>
0.00118332

> <r_epik_Charging_Adjusted_Penalty>
0.00293143

> <i_epik_Tot_Q>
1

> <i_epik_Tot_abs_Q>
1

> <r_epik_Metal_State_Penalty>
-0

> <b_epik_Metal_Only>
0

> <s_lp_Force_Field>
OPLS_2005

> <r_lp_Energy>
24.5444

> <b_lp_Chiralities_Consistent>
1

> <s_lp_Variant>
AV-unprocessed.smi:3337-2

> <Gold.Version>
5.8.1

> <Gold.Id.Protein>
6NUR|6NUR_protein|mol2

> <Gold.PLP.Fitness>
49.4023

> <Gold.PLP.PLP>
-41.3681

> <Gold.PLP.part.hbond>
-3.0000

> <Gold.PLP.part.metal>
0.0000

> <Gold.PLP.part.buried>
-6.3268

> <Gold.PLP.part.nonpolar>
-32.9221

> <Gold.PLP.part.repulsive>
0.2855

> <Gold.PLP.ligand.clash>
0.0000

> <Gold.PLP.ligand.torsion>
0.2974

> <Gold.PLP.Chemscore.Hbond>
2.8320

> <Gold.PLP.Chemscore.CHOScore>
0.0000

> <Gold.PLP.Chemscore.Metal>
0.0000

> <Gold.Chemscore.Hbonds>
donor molecule, donor type, donor heavy atom, donor atom, acceptor molecule, acceptor atom, score
      P1  H  6896  6908       L1    12  1.00
      P1  H  6931  6943       L1    19  0.96
      P1  H  6934  6947       L1    19  0.28

> <Gold.PLP.Chemscore.Internal.Correction>
0.1332

> <Gold.Rescore>
     Score         DG    S(hbond)    S(metal)    S(lipo)     H(rot)  DE(clash)    DE(int)     intcor
     17.95     -18.27       2.61        0.00      89.79       2.51       0.03       0.29       ----

> <Gold.Chemscore.Fitness>
17.9501

> <Gold.Chemscore.DG>
-18.2721

> <Gold.Chemscore.ZeroCoef>
-5.4800

> <Gold.Chemscore.Hbond>
2.6108

> <Gold.Chemscore.Metal>
0.0000

> <Gold.Chemscore.Lipo>
89.7886

> <Gold.Chemscore.Internal_Hbond>
0.0000

> <Gold.Chemscore.DEClash>
0.0319

> <Gold.Chemscore.DEInternal>
0.2901

> <Gold.Chemscore.Rot>
2.5129

> <Gold.Chemscore.Internal.Correction>
   9.000000E+99

> <Gold.Chemscore.Hbonds>
donor molecule, donor type, donor heavy atom, donor atom, acceptor molecule, acceptor atom, score
      P1  H  6896  6908       L1    12  1.00
      P1  H  6931  6943       L1    19  0.62
      P1  H  6934  6947       L1    19  0.03

> <Gold.Chemscore.Hbond.Weighted>
-8.7199

> <Gold.Chemscore.Metal.Weighted>
-0.0000

> <Gold.Chemscore.Lipo.Weighted>
-10.5053

> <Gold.Chemscore.Internal_Hbond.Weighted>
0.0000

> <Gold.Chemscore.DEClash.Weighted>
0.0319

> <Gold.Chemscore.DEInternal.Weighted>
0.2901

> <Gold.Chemscore.Rot.Weighted>
6.4331

> <Gold.Chemscore.Internal.Correction.Weighted>
   9.000000E+99

> <Gold.Protein.RotatedTorsions>
[ 6907 6896 6895 6894 ] final -156.52 input  -60.11 | X-H torsion
[ 7974 7965 7964 7962 ] final  -94.91 input  175.53 | X-H torsion
[ 8008 7997 7996 7995 ] final   21.81 input   59.86 | X-H torsion
[ 10167 10162 10161 10158 ] final  137.40 input  -65.29 | X-H torsion
[ 10718 10713 10712 10709 ] final -137.73 input   66.30 | X-H torsion
[ 10763 10752 10751 10750 ] final -123.26 input  -60.55 | X-H torsion
[ 11005 11000 10999 10996 ] final  -50.91 input  -57.11 | X-H torsion

> <Gold.Protein.ActiveResidues>
 VAL166  LYS551  ARG553  GLY616  TRP617  ASP618  TYR619  PRO620  LYS621  CYS622 
 ASP623  PHE694  ASN695  SER759  ASP760  ASP761  ALA762  ILE779  LEU786  VAL792 
 PHE793  MET794  SER795  GLU796  ALA797  LYS798  CYS799  TRP800  GLU811  SER814 

> <Gold.Protein.RotatedAtoms>
  151.2888  133.4175  159.2631 H   0  0  0  0  0  0  0  0  0  0  0  0  # atno 6907 bound_to 6896
  151.0295  134.9529  159.8114 H   0  0  0  0  0  0  0  0  0  0  0  0  # atno 6908 bound_to 6896
  152.5342  134.2849  159.9074 H   0  0  0  0  0  0  0  0  0  0  0  0  # atno 6909 bound_to 6896
  145.3670  140.9500  143.2469 H   0  0  0  0  0  0  0  0  0  0  0  0  # atno 7974 bound_to 7965
  154.9562  140.3072  155.5052 H   0  0  0  0  0  0  0  0  0  0  0  0  # atno 8008 bound_to 7997
  156.2982  140.2309  156.4582 H   0  0  0  0  0  0  0  0  0  0  0  0  # atno 8009 bound_to 7997
  154.8008  140.0434  157.1259 H   0  0  0  0  0  0  0  0  0  0  0  0  # atno 8010 bound_to 7997
  139.5146  144.6412  151.5564 H   0  0  0  0  0  0  0  0  0  0  0  0  # atno 10167 bound_to 10162
  156.2914  130.7377  151.1403 H   0  0  0  0  0  0  0  0  0  0  0  0  # atno 10718 bound_to 10713
  154.8705  135.4104  154.2915 H   0  0  0  0  0  0  0  0  0  0  0  0  # atno 10763 bound_to 10752
  153.3790  135.7010  153.6585 H   0  0  0  0  0  0  0  0  0  0  0  0  # atno 10764 bound_to 10752
  153.5415  135.3647  155.2692 H   0  0  0  0  0  0  0  0  0  0  0  0  # atno 10765 bound_to 10752
  141.0842  133.6646  156.3800 H   0  0  0  0  0  0  0  0  0  0  0  0  # atno 11005 bound_to 11000
  144.8604  139.5185  143.6815 LP  0  0  0  0  0  0  0  0  0  0  0  0  # atno 17320 bound_to 7965
  146.2902  139.7118  142.9166 LP  0  0  0  0  0  0  0  0  0  0  0  0  # atno 17321 bound_to 7965
  140.6179  143.9314  150.6503 LP  0  0  0  0  0  0  0  0  0  0  0  0  # atno 17342 bound_to 10162
  140.2578  143.3546  152.1350 LP  0  0  0  0  0  0  0  0  0  0  0  0  # atno 17343 bound_to 10162
  157.7343  131.0583  150.5530 LP  0  0  0  0  0  0  0  0  0  0  0  0  # atno 17370 bound_to 10713
  156.5647  130.4264  149.6047 LP  0  0  0  0  0  0  0  0  0  0  0  0  # atno 17371 bound_to 10713
  140.5401  134.6129  157.5377 LP  0  0  0  0  0  0  0  0  0  0  0  0  # atno 17394 bound_to 11000
  139.9658  134.7375  156.0141 LP  0  0  0  0  0  0  0  0  0  0  0  0  # atno 17395 bound_to 11000

$$$$
