AV-unprocessed.smi:2807|AV-procd|sdf|10819|dock2
  -GOLD-   2272015253D 1   1.00000     0.00000
 Structure written by MMmdl.
 32 33  0  0  0  0  0  0  0  0  1 V2000
  152.6657  139.5536  156.0357 O   0  0  0  0  0  0  0  0  0  0  0  0
  151.6880  139.7987  156.7447 C   0  0  0  0  0  0  0  0  0  0  0  0
  150.4257  139.7218  156.2929 N   0  0  0  0  0  0  0  0  0  0  0  0
  150.0344  139.3626  154.9318 C   0  0  1  0  0  0  0  0  0  0  0  0
  149.4588  137.9340  154.8927 C   0  0  0  0  0  0  0  0  0  0  0  0
  147.9410  138.1059  154.8965 C   0  0  0  0  0  0  0  0  0  0  0  0
  147.7195  139.3701  154.0727 C   0  0  0  0  0  0  0  0  0  0  0  0
  148.8966  140.2856  154.4377 C   0  0  2  0  0  0  0  0  0  0  0  0
  149.2908  141.0421  153.3118 O   0  0  0  0  0  0  0  0  0  0  0  0
  151.8541  140.1924  158.2225 C   0  0  0  0  0  0  0  0  0  0  0  0
  150.8574  139.6514  158.9275 F   0  0  0  0  0  0  0  0  0  0  0  0
  152.9967  139.6619  158.6630 F   0  0  0  0  0  0  0  0  0  0  0  0
  151.8622  141.7078  158.4212 C   0  0  0  0  0  0  0  0  0  0  0  0
  152.2504  142.2791  159.6548 C   0  0  0  0  0  0  0  0  0  0  0  0
  152.2536  143.6816  159.7784 C   0  0  0  0  0  0  0  0  0  0  0  0
  151.8712  144.4614  158.6708 C   0  0  0  0  0  0  0  0  0  0  0  0
  151.5023  143.8009  157.4828 C   0  0  0  0  0  0  0  0  0  0  0  0
  151.4958  142.4570  157.3537 N   0  0  0  0  0  0  0  0  0  0  0  0
  149.6798  139.9330  156.9400 H   0  0  0  0  0  0  0  0  0  0  0  0
  150.9060  139.4282  154.2770 H   0  0  0  0  0  0  0  0  0  0  0  0
  149.7595  137.4528  153.9612 H   0  0  0  0  0  0  0  0  0  0  0  0
  149.8064  137.2972  155.7073 H   0  0  0  0  0  0  0  0  0  0  0  0
  147.4184  137.2404  154.4885 H   0  0  0  0  0  0  0  0  0  0  0  0
  147.5884  138.2615  155.9170 H   0  0  0  0  0  0  0  0  0  0  0  0
  147.7522  139.1092  153.0134 H   0  0  0  0  0  0  0  0  0  0  0  0
  146.7523  139.8345  154.2668 H   0  0  0  0  0  0  0  0  0  0  0  0
  148.5861  140.9746  155.2250 H   0  0  0  0  0  0  0  0  0  0  0  0
  149.1310  140.5290  152.5343 H   0  0  0  0  0  0  0  0  0  0  0  0
  152.5463  141.6606  160.4891 H   0  0  0  0  0  0  0  0  0  0  0  0
  152.5461  144.1506  160.7062 H   0  0  0  0  0  0  0  0  0  0  0  0
  151.8623  145.5397  158.7294 H   0  0  0  0  0  0  0  0  0  0  0  0
  151.2039  144.3672  156.6131 H   0  0  0  0  0  0  0  0  0  0  0  0
  1  2  2  0  0  0  0
  2  3  1  0  0  0  0
  2 10  1  0  0  0  0
  3  4  1  0  0  0  0
  3 19  1  0  0  0  0
  4  8  1  0  0  0  0
  4  5  1  0  0  0  0
  4 20  1  0  0  0  0
  5  6  1  0  0  0  0
  5 21  1  0  0  0  0
  5 22  1  0  0  0  0
  6  7  1  0  0  0  0
  6 23  1  0  0  0  0
  6 24  1  0  0  0  0
  7  8  1  0  0  0  0
  7 25  1  0  0  0  0
  7 26  1  0  0  0  0
  8  9  1  0  0  0  0
  8 27  1  0  0  0  0
  9 28  1  0  0  0  0
 10 11  1  0  0  0  0
 10 12  1  0  0  0  0
 10 13  1  0  0  0  0
 13 18  1  0  0  0  0
 13 14  2  0  0  0  0
 14 15  1  0  0  0  0
 14 29  1  0  0  0  0
 15 16  2  0  0  0  0
 15 30  1  0  0  0  0
 16 17  1  0  0  0  0
 16 31  1  0  0  0  0
 17 18  2  0  0  0  0
 17 32  1  0  0  0  0
M  END
> <s_m_source_file>
AV-unprocessed.smi

> <i_m_source_file_index>
2807

> <i_lp_mmshare_version>
43012

> <i_f3d_flags>
0

> <s_epik_input>
bjFbY0hdW2NIXVtjSF1bY0hdYzFDKEYpKEYpQyg9TylbTkhdW0NAQEhdMltDSDJdW0NIMl1bQ0gyXVtDQEhdMltPSF0=

> <s_epik_cmdline>
J2VwaWtfcHl0aG9uJywgJy1waCcsICc3LjAnLCAnLXRuJywgJzgnLCAnLW1hJywgJzIwMCcsICctbWV0YWxfYmluZGluZycsICctaW1hZScsICc8aW5maWxlLm1hZT4nLCAnLW9tYWUnLCAnPG91dGZpbGUubWFlPic=

> <r_lp_tautomer_probability>
1

> <r_epik_Ionization_Penalty>
4.08325e-05

> <r_epik_Ionization_Penalty_Charging>
0

> <r_epik_Ionization_Penalty_Neutral>
4.08325e-05

> <r_epik_State_Penalty>
-0

> <r_epik_Charging_Adjusted_Penalty>
0

> <i_epik_Tot_Q>
0

> <i_epik_Tot_abs_Q>
0

> <r_epik_Metal_State_Penalty>
0.034564

> <b_epik_Metal_Only>
0

> <s_lp_Force_Field>
OPLS_2005

> <r_lp_Energy>
23.3641

> <b_lp_Chiralities_Consistent>
1

> <s_lp_Variant>
AV-unprocessed.smi:2807-4

> <Gold.Version>
5.8.1

> <Gold.Id.Protein>
6NUR|6NUR_protein|mol2

> <Gold.PLP.Fitness>
41.8923

> <Gold.PLP.PLP>
-34.4952

> <Gold.PLP.part.hbond>
-3.5205

> <Gold.PLP.part.metal>
0.0000

> <Gold.PLP.part.buried>
-3.0319

> <Gold.PLP.part.nonpolar>
-28.8611

> <Gold.PLP.part.repulsive>
0.1104

> <Gold.PLP.ligand.clash>
0.0000

> <Gold.PLP.ligand.torsion>
1.6069

> <Gold.PLP.Chemscore.Hbond>
2.5278

> <Gold.PLP.Chemscore.CHOScore>
1.0000

> <Gold.PLP.Chemscore.Metal>
0.0000

> <Gold.Chemscore.Hbonds>
donor molecule, donor type, donor heavy atom, donor atom, acceptor molecule, acceptor atom, score
      L1  H     9    28       P1  7957  0.98
      P1  H  7989  7998       L1     9  0.06
      P1  H  7997  8010       L1     1  1.00
      P1  H  8011  8017       L1     9  0.50
      L1  C    17    32       P1  8028  1.00

> <Gold.PLP.Chemscore.Internal.Correction>
0.0275

> <Gold.Rescore>
     Score         DG    S(hbond)    S(metal)    S(lipo)     H(rot)  DE(clash)    DE(int)     intcor
     15.46     -17.05       1.99        0.00      86.72       2.05       0.11       1.48       ----

> <Gold.Chemscore.Fitness>
15.4649

> <Gold.Chemscore.DG>
-17.0483

> <Gold.Chemscore.ZeroCoef>
-5.4800

> <Gold.Chemscore.Hbond>
1.9936

> <Gold.Chemscore.Metal>
0.0000

> <Gold.Chemscore.Lipo>
86.7241

> <Gold.Chemscore.Internal_Hbond>
0.0000

> <Gold.Chemscore.DEClash>
0.1077

> <Gold.Chemscore.DEInternal>
1.4758

> <Gold.Chemscore.Rot>
2.0457

> <Gold.Chemscore.Internal.Correction>
   9.000000E+99

> <Gold.Chemscore.Hbonds>
donor molecule, donor type, donor heavy atom, donor atom, acceptor molecule, acceptor atom, score
      L1  H     9    28       P1  7957  0.87
      P1  H  7989  7998       L1     9  0.01
      P1  H  7997  8010       L1     1  1.00
      P1  H  8011  8017       L1     9  0.02

> <Gold.Chemscore.Hbond.Weighted>
-6.6587

> <Gold.Chemscore.Metal.Weighted>
-0.0000

> <Gold.Chemscore.Lipo.Weighted>
-10.1467

> <Gold.Chemscore.Internal_Hbond.Weighted>
0.0000

> <Gold.Chemscore.DEClash.Weighted>
0.1077

> <Gold.Chemscore.DEInternal.Weighted>
1.4758

> <Gold.Chemscore.Rot.Weighted>
5.2371

> <Gold.Chemscore.Internal.Correction.Weighted>
   9.000000E+99

> <Gold.Protein.RotatedTorsions>
[ 6907 6896 6895 6894 ] final  141.66 input  -60.11 | X-H torsion
[ 7974 7965 7964 7962 ] final  159.06 input  175.53 | X-H torsion
[ 8008 7997 7996 7995 ] final   84.34 input   59.86 | X-H torsion
[ 10167 10162 10161 10158 ] final   36.41 input  -65.29 | X-H torsion
[ 10718 10713 10712 10709 ] final  101.16 input   66.30 | X-H torsion
[ 10763 10752 10751 10750 ] final  -42.04 input  -60.55 | X-H torsion
[ 11005 11000 10999 10996 ] final   -6.55 input  -57.11 | X-H torsion

> <Gold.Protein.ActiveResidues>
 VAL166  LYS551  ARG553  GLY616  TRP617  ASP618  TYR619  PRO620  LYS621  CYS622 
 ASP623  PHE694  ASN695  SER759  ASP760  ASP761  ALA762  ILE779  LEU786  VAL792 
 PHE793  MET794  SER795  GLU796  ALA797  LYS798  CYS799  TRP800  GLU811  SER814 

> <Gold.Protein.RotatedAtoms>
  152.2282  133.5037  159.5200 H   0  0  0  0  0  0  0  0  0  0  0  0  # atno 6907 bound_to 6896
  150.7030  134.1251  159.4058 H   0  0  0  0  0  0  0  0  0  0  0  0  # atno 6908 bound_to 6896
  151.9172  135.0313  160.0570 H   0  0  0  0  0  0  0  0  0  0  0  0  # atno 6909 bound_to 6896
  144.7811  139.7564  143.6259 H   0  0  0  0  0  0  0  0  0  0  0  0  # atno 7974 bound_to 7965
  155.9358  140.3411  155.6286 H   0  0  0  0  0  0  0  0  0  0  0  0  # atno 8008 bound_to 7997
  155.7101  140.0771  157.2393 H   0  0  0  0  0  0  0  0  0  0  0  0  # atno 8009 bound_to 7997
  154.4093  140.1624  156.2274 H   0  0  0  0  0  0  0  0  0  0  0  0  # atno 8010 bound_to 7997
  140.4130  144.1566  150.6141 H   0  0  0  0  0  0  0  0  0  0  0  0  # atno 10167 bound_to 10162
  157.6836  131.0718  150.5210 H   0  0  0  0  0  0  0  0  0  0  0  0  # atno 10718 bound_to 10713
  153.9724  135.6727  153.4747 H   0  0  0  0  0  0  0  0  0  0  0  0  # atno 10763 bound_to 10752
  153.0786  135.4935  154.8453 H   0  0  0  0  0  0  0  0  0  0  0  0  # atno 10764 bound_to 10752
  154.7211  135.3117  154.9006 H   0  0  0  0  0  0  0  0  0  0  0  0  # atno 10765 bound_to 10752
  140.7032  133.8972  155.8698 H   0  0  0  0  0  0  0  0  0  0  0  0  # atno 11005 bound_to 11000
  146.2019  139.5320  142.9737 LP  0  0  0  0  0  0  0  0  0  0  0  0  # atno 17320 bound_to 7965
  145.6048  141.0349  143.1999 LP  0  0  0  0  0  0  0  0  0  0  0  0  # atno 17321 bound_to 7965
  140.4617  143.2446  151.9211 LP  0  0  0  0  0  0  0  0  0  0  0  0  # atno 17342 bound_to 10162
  139.4782  144.5461  151.8456 LP  0  0  0  0  0  0  0  0  0  0  0  0  # atno 17343 bound_to 10162
  156.5523  130.4234  149.6102 LP  0  0  0  0  0  0  0  0  0  0  0  0  # atno 17370 bound_to 10713
  156.2892  130.7114  151.1959 LP  0  0  0  0  0  0  0  0  0  0  0  0  # atno 17371 bound_to 10713
  141.0146  134.0973  157.4185 LP  0  0  0  0  0  0  0  0  0  0  0  0  # atno 17394 bound_to 11000
  139.8891  135.0102  156.6660 LP  0  0  0  0  0  0  0  0  0  0  0  0  # atno 17395 bound_to 11000

$$$$
