AV-unprocessed.smi:198|AV-procd|sdf|1557|dock5
  -GOLD-   2262019433D 1   1.00000     0.00000
 Structure written by MMmdl.
 59 63  0  0  0  0  0  0  0  0  2 V2000
  150.6039  141.9426  156.2582 C   0  0  0  0  0  0  0  0  0  0  0  0
  150.5459  140.4690  156.1483 N   0  3  2  0  0  0  0  0  0  0  0  0
  149.9581  140.0236  154.8621 C   0  0  0  0  0  0  0  0  0  0  0  0
  150.0319  138.4943  154.7291 C   0  0  0  0  0  0  0  0  0  0  0  0
  149.3316  137.7747  155.9065 C   0  0  1  0  0  0  0  0  0  0  0  0
  149.9285  138.2986  157.2363 C   0  0  2  0  0  0  0  0  0  0  0  0
  149.2497  137.6222  158.4439 C   0  0  0  0  0  0  0  0  0  0  0  0
  147.7205  137.7519  158.3746 C   0  0  0  0  0  0  0  0  0  0  0  0
  147.1915  137.2484  157.0242 C   0  0  0  0  0  0  0  0  0  0  0  0
  147.8664  137.9099  155.9084 N   0  0  0  0  0  0  0  0  0  0  0  0
  147.2403  137.6400  154.7416 C   0  0  0  0  0  0  0  0  0  0  0  0
  146.8017  138.6993  154.0191 N   0  0  0  0  0  0  0  0  0  0  0  0
  146.1686  138.4978  152.8592 C   0  0  0  0  0  0  0  0  0  0  0  0
  145.8788  137.3431  152.2556 N   0  0  0  0  0  0  0  0  0  0  0  0
  146.3200  136.2757  152.9818 C   0  0  0  0  0  0  0  0  0  0  0  0
  147.0023  136.3335  154.2294 C   0  0  0  0  0  0  0  0  0  0  0  0
  147.2800  135.0489  154.6794 N   0  0  0  0  0  0  0  0  0  0  0  0
  146.7817  134.2747  153.7543 C   0  0  0  0  0  0  0  0  0  0  0  0
  146.2109  134.9280  152.6848 N   0  0  0  0  0  0  0  0  0  0  0  0
  145.5514  134.3212  151.5650 C   0  0  0  0  0  0  0  0  0  0  0  0
  144.6472  133.0986  151.7495 C   0  0  0  0  0  0  0  0  0  0  0  0
  145.1327  132.5194  150.4024 C   0  0  0  0  0  0  0  0  0  0  0  0
  145.5184  131.0323  150.4324 C   0  0  0  0  0  0  0  0  0  0  0  0
  146.5675  130.7892  151.3478 O   0  0  0  0  0  0  0  0  0  0  0  0
  144.2177  132.7261  149.1748 C   0  0  0  0  0  0  0  0  0  0  0  0
  142.9877  132.0367  149.2698 O   0  0  0  0  0  0  0  0  0  0  0  0
  146.3273  133.4904  150.5381 C   0  0  0  0  0  0  0  0  0  0  0  0
  149.8731  139.8426  157.3126 C   0  0  0  0  0  0  0  0  0  0  0  0
  149.6026  142.3755  156.2497 H   0  0  0  0  0  0  0  0  0  0  0  0
  151.1679  142.3692  155.4278 H   0  0  0  0  0  0  0  0  0  0  0  0
  151.0986  142.2413  157.1829 H   0  0  0  0  0  0  0  0  0  0  0  0
  148.9233  140.3621  154.7910 H   0  0  0  0  0  0  0  0  0  0  0  0
  150.4996  140.4853  154.0354 H   0  0  0  0  0  0  0  0  0  0  0  0
  149.6271  138.1798  153.7669 H   0  0  0  0  0  0  0  0  0  0  0  0
  151.0807  138.1954  154.7103 H   0  0  0  0  0  0  0  0  0  0  0  0
  149.5581  136.7102  155.8341 H   0  0  0  0  0  0  0  0  0  0  0  0
  150.9824  138.0169  157.2620 H   0  0  0  0  0  0  0  0  0  0  0  0
  149.5149  136.5642  158.4568 H   0  0  0  0  0  0  0  0  0  0  0  0
  149.6229  138.0414  159.3788 H   0  0  0  0  0  0  0  0  0  0  0  0
  147.2623  137.1859  159.1860 H   0  0  0  0  0  0  0  0  0  0  0  0
  147.4229  138.7901  158.5232 H   0  0  0  0  0  0  0  0  0  0  0  0
  147.3441  136.1707  156.9505 H   0  0  0  0  0  0  0  0  0  0  0  0
  146.1157  137.4207  156.9668 H   0  0  0  0  0  0  0  0  0  0  0  0
  145.8484  139.3890  152.3397 H   0  0  0  0  0  0  0  0  0  0  0  0
  146.8202  133.1974  153.8269 H   0  0  0  0  0  0  0  0  0  0  0  0
  145.0083  135.1283  151.0720 H   0  0  0  0  0  0  0  0  0  0  0  0
  144.9452  132.4853  152.6016 H   0  0  0  0  0  0  0  0  0  0  0  0
  143.5825  133.3294  151.7908 H   0  0  0  0  0  0  0  0  0  0  0  0
  144.6649  130.4069  150.6967 H   0  0  0  0  0  0  0  0  0  0  0  0
  145.8526  130.6967  149.4503 H   0  0  0  0  0  0  0  0  0  0  0  0
  147.3595  130.6218  150.8602 H   0  0  0  0  0  0  0  0  0  0  0  0
  143.9935  133.7842  149.0356 H   0  0  0  0  0  0  0  0  0  0  0  0
  144.7080  132.3891  148.2609 H   0  0  0  0  0  0  0  0  0  0  0  0
  142.2918  132.6721  149.3423 H   0  0  0  0  0  0  0  0  0  0  0  0
  146.5849  134.0318  149.6269 H   0  0  0  0  0  0  0  0  0  0  0  0
  147.2120  133.0213  150.9717 H   0  0  0  0  0  0  0  0  0  0  0  0
  150.3583  140.1789  158.2299 H   0  0  0  0  0  0  0  0  0  0  0  0
  148.8418  140.1951  157.3546 H   0  0  0  0  0  0  0  0  0  0  0  0
  151.5018  140.1429  156.1574 H   0  0  0  0  0  0  0  0  0  0  0  0
  1  2  1  0  0  0  0
  1 29  1  0  0  0  0
  1 30  1  0  0  0  0
  1 31  1  0  0  0  0
  2 28  1  0  0  0  0
  2  3  1  0  0  0  0
  2 59  1  0  0  0  0
  3  4  1  0  0  0  0
  3 32  1  0  0  0  0
  3 33  1  0  0  0  0
  4  5  1  0  0  0  0
  4 34  1  0  0  0  0
  4 35  1  0  0  0  0
  5 10  1  0  0  0  0
  5  6  1  0  0  0  0
  5 36  1  0  0  0  0
  6  7  1  0  0  0  0
  6 28  1  0  0  0  0
  6 37  1  0  0  0  0
  7  8  1  0  0  0  0
  7 38  1  0  0  0  0
  7 39  1  0  0  0  0
  8  9  1  0  0  0  0
  8 40  1  0  0  0  0
  8 41  1  0  0  0  0
  9 10  1  0  0  0  0
  9 42  1  0  0  0  0
  9 43  1  0  0  0  0
 10 11  1  0  0  0  0
 11 16  1  0  0  0  0
 11 12  2  0  0  0  0
 12 13  1  0  0  0  0
 13 14  2  0  0  0  0
 13 44  1  0  0  0  0
 14 15  1  0  0  0  0
 15 19  1  0  0  0  0
 15 16  2  0  0  0  0
 16 17  1  0  0  0  0
 17 18  2  0  0  0  0
 18 19  1  0  0  0  0
 18 45  1  0  0  0  0
 19 20  1  0  0  0  0
 20 27  1  0  0  0  0
 20 21  1  0  0  0  0
 20 46  1  0  0  0  0
 21 22  1  0  0  0  0
 21 47  1  0  0  0  0
 21 48  1  0  0  0  0
 22 23  1  0  0  0  0
 22 25  1  0  0  0  0
 22 27  1  0  0  0  0
 23 24  1  0  0  0  0
 23 49  1  0  0  0  0
 23 50  1  0  0  0  0
 24 51  1  0  0  0  0
 25 26  1  0  0  0  0
 25 52  1  0  0  0  0
 25 53  1  0  0  0  0
 26 54  1  0  0  0  0
 27 55  1  0  0  0  0
 27 56  1  0  0  0  0
 28 57  1  0  0  0  0
 28 58  1  0  0  0  0
M  CHG  1   2   1
M  END
> <s_m_source_file>
AV-unprocessed.smi

> <i_m_source_file_index>
198

> <i_lp_mmshare_version>
43012

> <i_f3d_flags>
0

> <s_epik_input>
W0NIMl0xW0NIMl1OKFtDSDNdKVtDSDJdW0NAQEhdKFtDQEhdMTIpW0NIMl1bQ0gyXVtDSDJdTjJjKG5bY0hdbjMpYyhjMzQpbltjSF1uNFtDSF0oW0NIMl01KVtDSDJdQzUoW0NIMl1bT0hdKVtDSDJdW09IXQ==

> <s_epik_cmdline>
J2VwaWtfcHl0aG9uJywgJy1waCcsICc3LjAnLCAnLXRuJywgJzgnLCAnLW1hJywgJzIwMCcsICctbWV0YWxfYmluZGluZycsICctaW1hZScsICc8aW5maWxlLm1hZT4nLCAnLW9tYWUnLCAnPG91dGZpbGUubWFlPic=

> <r_lp_tautomer_probability>
1

> <r_epik_Ionization_Penalty>
0.00239938

> <r_epik_Ionization_Penalty_Charging>
0.00138697

> <r_epik_Ionization_Penalty_Neutral>
0.00101241

> <r_epik_State_Penalty>
-0

> <r_epik_Charging_Adjusted_Penalty>
0.00138697

> <i_epik_Tot_Q>
1

> <i_epik_Tot_abs_Q>
1

> <r_epik_Metal_State_Penalty>
-0

> <b_epik_Metal_Only>
0

> <s_lp_Force_Field>
OPLS_2005

> <r_lp_Energy>
60.6867

> <b_lp_Chiralities_Consistent>
1

> <s_lp_Variant>
AV-unprocessed.smi:198-6

> <Gold.Version>
5.8.1

> <Gold.Id.Protein>
6NUR|6NUR_protein|mol2

> <Gold.PLP.Fitness>
43.2042

> <Gold.PLP.PLP>
-32.6401

> <Gold.PLP.part.hbond>
-3.9874

> <Gold.PLP.part.metal>
0.0000

> <Gold.PLP.part.buried>
-3.0443

> <Gold.PLP.part.nonpolar>
-25.9242

> <Gold.PLP.part.repulsive>
0.5934

> <Gold.PLP.ligand.clash>
0.0000

> <Gold.PLP.ligand.torsion>
0.7225

> <Gold.PLP.Chemscore.Hbond>
2.9500

> <Gold.PLP.Chemscore.CHOScore>
0.8526

> <Gold.PLP.Chemscore.Metal>
0.0000

> <Gold.Chemscore.Hbonds>
donor molecule, donor type, donor heavy atom, donor atom, acceptor molecule, acceptor atom, score
      L1  H    24    51       P1 10747  1.00
      L1  H    26    54       P1 10186  0.65
      P1  H 10785 10796       L1    26  1.00
      L1  C    13    44       P1 10175  0.96

> <Gold.PLP.Chemscore.Internal.Correction>
0.6014

> <Gold.Rescore>
     Score         DG    S(hbond)    S(metal)    S(lipo)     H(rot)  DE(clash)    DE(int)     intcor
     14.05     -15.78       2.55        0.00      82.50       3.08       0.94       0.78       ----

> <Gold.Chemscore.Fitness>
14.0471

> <Gold.Chemscore.DG>
-15.7765

> <Gold.Chemscore.ZeroCoef>
-5.4800

> <Gold.Chemscore.Hbond>
2.5522

> <Gold.Chemscore.Metal>
0.0000

> <Gold.Chemscore.Lipo>
82.4975

> <Gold.Chemscore.Internal_Hbond>
0.0000

> <Gold.Chemscore.DEClash>
0.9444

> <Gold.Chemscore.DEInternal>
0.7850

> <Gold.Chemscore.Rot>
3.0781

> <Gold.Chemscore.Internal.Correction>
   9.000000E+99

> <Gold.Chemscore.Hbonds>
donor molecule, donor type, donor heavy atom, donor atom, acceptor molecule, acceptor atom, score
      L1  H    24    51       P1 10747  1.00
      L1  H    26    54       P1 10186  0.65
      P1  H 10785 10796       L1    26  0.77

> <Gold.Chemscore.Hbond.Weighted>
-8.5243

> <Gold.Chemscore.Metal.Weighted>
-0.0000

> <Gold.Chemscore.Lipo.Weighted>
-9.6522

> <Gold.Chemscore.Internal_Hbond.Weighted>
0.0000

> <Gold.Chemscore.DEClash.Weighted>
0.9444

> <Gold.Chemscore.DEInternal.Weighted>
0.7850

> <Gold.Chemscore.Rot.Weighted>
7.8800

> <Gold.Chemscore.Internal.Correction.Weighted>
   9.000000E+99

> <Gold.Protein.RotatedTorsions>
[ 6907 6896 6895 6894 ] final  -28.21 input  -60.11 | X-H torsion
[ 7974 7965 7964 7962 ] final   15.67 input  175.53 | X-H torsion
[ 8008 7997 7996 7995 ] final    3.06 input   59.86 | X-H torsion
[ 10167 10162 10161 10158 ] final -172.37 input  -65.29 | X-H torsion
[ 10718 10713 10712 10709 ] final -174.76 input   66.30 | X-H torsion
[ 10763 10752 10751 10750 ] final -165.31 input  -60.55 | X-H torsion
[ 11005 11000 10999 10996 ] final  -23.44 input  -57.11 | X-H torsion

> <Gold.Protein.ActiveResidues>
 VAL166  LYS551  ARG553  GLY616  TRP617  ASP618  TYR619  PRO620  LYS621  CYS622 
 ASP623  PHE694  ASN695  SER759  ASP760  ASP761  ALA762  ILE779  LEU786  VAL792 
 PHE793  MET794  SER795  GLU796  ALA797  LYS798  CYS799  TRP800  GLU811  SER814 

> <Gold.Protein.RotatedAtoms>
  151.1362  135.0156  159.8604 H   0  0  0  0  0  0  0  0  0  0  0  0  # atno 6907 bound_to 6896
  152.5452  134.1553  159.8545 H   0  0  0  0  0  0  0  0  0  0  0  0  # atno 6908 bound_to 6896
  151.1624  133.4791  159.2627 H   0  0  0  0  0  0  0  0  0  0  0  0  # atno 6909 bound_to 6896
  146.2272  139.8861  142.8562 H   0  0  0  0  0  0  0  0  0  0  0  0  # atno 7974 bound_to 7965
  154.6990  140.2669  155.6738 H   0  0  0  0  0  0  0  0  0  0  0  0  # atno 8008 bound_to 7997
  156.2758  140.2776  156.1518 H   0  0  0  0  0  0  0  0  0  0  0  0  # atno 8009 bound_to 7997
  155.0790  140.0372  157.2623 H   0  0  0  0  0  0  0  0  0  0  0  0  # atno 8010 bound_to 7997
  139.5749  144.1556  152.1436 H   0  0  0  0  0  0  0  0  0  0  0  0  # atno 10167 bound_to 10162
  156.7898  130.9514  151.3120 H   0  0  0  0  0  0  0  0  0  0  0  0  # atno 10718 bound_to 10713
  154.6944  135.2976  154.9432 H   0  0  0  0  0  0  0  0  0  0  0  0  # atno 10763 bound_to 10752
  154.0385  135.6660  153.4791 H   0  0  0  0  0  0  0  0  0  0  0  0  # atno 10764 bound_to 10752
  153.0635  135.5101  154.8054 H   0  0  0  0  0  0  0  0  0  0  0  0  # atno 10765 bound_to 10752
  140.8752  133.7693  156.0234 H   0  0  0  0  0  0  0  0  0  0  0  0  # atno 11005 bound_to 11000
  145.2464  141.0028  143.3906 LP  0  0  0  0  0  0  0  0  0  0  0  0  # atno 17320 bound_to 7965
  144.9410  139.4189  143.6449 LP  0  0  0  0  0  0  0  0  0  0  0  0  # atno 17321 bound_to 7965
  140.1097  144.5468  150.6933 LP  0  0  0  0  0  0  0  0  0  0  0  0  # atno 17342 bound_to 10162
  140.7032  143.2449  151.4804 LP  0  0  0  0  0  0  0  0  0  0  0  0  # atno 17343 bound_to 10162
  157.6606  130.8963  149.9821 LP  0  0  0  0  0  0  0  0  0  0  0  0  # atno 17370 bound_to 10713
  156.1166  130.3647  149.9958 LP  0  0  0  0  0  0  0  0  0  0  0  0  # atno 17371 bound_to 10713
  140.8527  134.2935  157.5268 LP  0  0  0  0  0  0  0  0  0  0  0  0  # atno 17394 bound_to 11000
  139.8715  134.9476  156.3972 LP  0  0  0  0  0  0  0  0  0  0  0  0  # atno 17395 bound_to 11000

$$$$
