AV-unprocessed.smi:791|AV-procd|sdf|3748|dock7
  -GOLD-   22720 1183D 1   1.00000     0.00000
 Structure written by MMmdl.
 30 32  0  0  0  0  0  0  0  0  2 V2000
  151.9909  143.9182  160.8998 C   0  0  0  0  0  0  0  0  0  0  0  0
  151.9054  145.2245  160.0922 C   0  0  0  0  0  0  0  0  0  0  0  0
  150.9708  145.0774  158.9548 N   0  3  0  0  0  0  0  0  0  0  0  0
  151.3475  143.9820  158.0342 C   0  0  0  0  0  0  0  0  0  0  0  0
  151.4486  142.6407  158.7877 C   0  0  1  0  0  0  0  0  0  0  0  0
  151.8130  141.5110  157.8746 C   0  0  0  0  0  0  0  0  0  0  0  0
  152.8149  140.6892  158.1637 N   0  0  0  0  0  0  0  0  0  0  0  0
  152.8132  139.7851  157.0920 O   0  0  0  0  0  0  0  0  0  0  0  0
  151.8121  140.1851  156.2729 C   0  0  0  0  0  0  0  0  0  0  0  0
  151.5323  139.3953  155.0400 C   0  0  0  0  0  0  0  0  0  0  0  0
  151.2142  137.9203  155.1237 C   0  0  0  0  0  0  0  0  0  0  0  0
  152.5240  138.3740  154.5308 C   0  0  0  0  0  0  0  0  0  0  0  0
  151.1366  141.2392  156.7236 N   0  0  0  0  0  0  0  0  0  0  0  0
  152.3948  142.7403  159.9998 C   0  0  0  0  0  0  0  0  0  0  0  0
  151.0260  143.7107  161.3645 H   0  0  0  0  0  0  0  0  0  0  0  0
  152.7086  144.0284  161.7134 H   0  0  0  0  0  0  0  0  0  0  0  0
  151.5655  146.0414  160.7291 H   0  0  0  0  0  0  0  0  0  0  0  0
  152.8900  145.5033  159.7145 H   0  0  0  0  0  0  0  0  0  0  0  0
  150.0486  144.8867  159.3204 H   0  0  0  0  0  0  0  0  0  0  0  0
  150.6037  143.9172  157.2396 H   0  0  0  0  0  0  0  0  0  0  0  0
  152.2991  144.2292  157.5613 H   0  0  0  0  0  0  0  0  0  0  0  0
  150.4539  142.4257  159.1835 H   0  0  0  0  0  0  0  0  0  0  0  0
  150.9913  139.9941  154.3101 H   0  0  0  0  0  0  0  0  0  0  0  0
  151.2427  137.4520  156.1057 H   0  0  0  0  0  0  0  0  0  0  0  0
  150.4629  137.5284  154.4413 H   0  0  0  0  0  0  0  0  0  0  0  0
  152.6453  138.2862  153.4532 H   0  0  0  0  0  0  0  0  0  0  0  0
  153.4246  138.2039  155.1176 H   0  0  0  0  0  0  0  0  0  0  0  0
  153.4224  142.8811  159.6615 H   0  0  0  0  0  0  0  0  0  0  0  0
  152.3794  141.8112  160.5709 H   0  0  0  0  0  0  0  0  0  0  0  0
  150.9427  145.9446  158.4379 H   0  0  0  0  0  0  0  0  0  0  0  0
  1 14  1  0  0  0  0
  1  2  1  0  0  0  0
  1 15  1  0  0  0  0
  1 16  1  0  0  0  0
  2  3  1  0  0  0  0
  2 17  1  0  0  0  0
  2 18  1  0  0  0  0
  3  4  1  0  0  0  0
  3 19  1  0  0  0  0
  3 30  1  0  0  0  0
  4  5  1  0  0  0  0
  4 20  1  0  0  0  0
  4 21  1  0  0  0  0
  5  6  1  0  0  0  0
  5 14  1  0  0  0  0
  5 22  1  0  0  0  0
  6 13  1  0  0  0  0
  6  7  2  0  0  0  0
  7  8  1  0  0  0  0
  8  9  1  0  0  0  0
  9 10  1  0  0  0  0
  9 13  2  0  0  0  0
 10 12  1  0  0  0  0
 10 11  1  0  0  0  0
 10 23  1  0  0  0  0
 11 12  1  0  0  0  0
 11 24  1  0  0  0  0
 11 25  1  0  0  0  0
 12 26  1  0  0  0  0
 12 27  1  0  0  0  0
 14 28  1  0  0  0  0
 14 29  1  0  0  0  0
M  CHG  1   3   1
M  END
> <s_m_source_file>
AV-unprocessed.smi

> <i_m_source_file_index>
791

> <i_lp_mmshare_version>
43012

> <i_f3d_flags>
0

> <s_epik_input>
W0NIMl0xW0NIMl1bQ0gyXVtOSF1bQ0gyXVtDQEhdMWMybm9jKG4yKVtDSF0zW0NIMl1bQ0gyXTM=

> <s_epik_cmdline>
J2VwaWtfcHl0aG9uJywgJy1waCcsICc3LjAnLCAnLXRuJywgJzgnLCAnLW1hJywgJzIwMCcsICctbWV0YWxfYmluZGluZycsICctaW1hZScsICc8aW5maWxlLm1hZT4nLCAnLW9tYWUnLCAnPG91dGZpbGUubWFlPic=

> <r_lp_tautomer_probability>
1

> <r_epik_Ionization_Penalty>
0.000532935

> <r_epik_Ionization_Penalty_Charging>
0.000532935

> <r_epik_Ionization_Penalty_Neutral>
2.72852e-13

> <r_epik_State_Penalty>
0.000332992

> <r_epik_Charging_Adjusted_Penalty>
0.000865928

> <i_epik_Tot_Q>
1

> <i_epik_Tot_abs_Q>
1

> <r_epik_Metal_State_Penalty>
-0

> <b_epik_Metal_Only>
0

> <s_lp_Force_Field>
OPLS_2005

> <r_lp_Energy>
11.8714

> <b_lp_Chiralities_Consistent>
1

> <s_lp_Variant>
AV-unprocessed.smi:791-1

> <Gold.Version>
5.8.1

> <Gold.Id.Protein>
6NUR|6NUR_protein|mol2

> <Gold.PLP.Fitness>
35.3502

> <Gold.PLP.PLP>
-32.6040

> <Gold.PLP.part.hbond>
-2.0000

> <Gold.PLP.part.metal>
0.0000

> <Gold.PLP.part.buried>
-2.2905

> <Gold.PLP.part.nonpolar>
-27.6628

> <Gold.PLP.part.repulsive>
0.2215

> <Gold.PLP.ligand.clash>
0.0000

> <Gold.PLP.ligand.torsion>
0.2153

> <Gold.PLP.Chemscore.Hbond>
1.0000

> <Gold.PLP.Chemscore.CHOScore>
0.0000

> <Gold.PLP.Chemscore.Metal>
0.0000

> <Gold.Chemscore.Hbonds>
donor molecule, donor type, donor heavy atom, donor atom, acceptor molecule, acceptor atom, score
      P1  H  7997  8008       L1     8  0.99

> <Gold.PLP.Chemscore.Internal.Correction>
0.1769

> <Gold.Rescore>
     Score         DG    S(hbond)    S(metal)    S(lipo)     H(rot)  DE(clash)    DE(int)     intcor
     12.76     -12.96       0.49        0.00      76.99       1.23       0.08       0.12       ----

> <Gold.Chemscore.Fitness>
12.7621

> <Gold.Chemscore.DG>
-12.9607

> <Gold.Chemscore.ZeroCoef>
-5.4800

> <Gold.Chemscore.Hbond>
0.4864

> <Gold.Chemscore.Metal>
0.0000

> <Gold.Chemscore.Lipo>
76.9920

> <Gold.Chemscore.Internal_Hbond>
0.0000

> <Gold.Chemscore.DEClash>
0.0801

> <Gold.Chemscore.DEInternal>
0.1186

> <Gold.Chemscore.Rot>
1.2312

> <Gold.Chemscore.Internal.Correction>
   9.000000E+99

> <Gold.Chemscore.Hbonds>
donor molecule, donor type, donor heavy atom, donor atom, acceptor molecule, acceptor atom, score
      P1  H  7997  8008       L1     8  0.21

> <Gold.Chemscore.Hbond.Weighted>
-1.6245

> <Gold.Chemscore.Metal.Weighted>
-0.0000

> <Gold.Chemscore.Lipo.Weighted>
-9.0081

> <Gold.Chemscore.Internal_Hbond.Weighted>
0.0000

> <Gold.Chemscore.DEClash.Weighted>
0.0801

> <Gold.Chemscore.DEInternal.Weighted>
0.1186

> <Gold.Chemscore.Rot.Weighted>
3.1518

> <Gold.Chemscore.Internal.Correction.Weighted>
   9.000000E+99

> <Gold.Protein.RotatedTorsions>
[ 6907 6896 6895 6894 ] final  145.79 input  -60.11 | X-H torsion
[ 7974 7965 7964 7962 ] final   25.81 input  175.53 | X-H torsion
[ 8008 7997 7996 7995 ] final  -43.07 input   59.86 | X-H torsion
[ 10167 10162 10161 10158 ] final   80.19 input  -65.29 | X-H torsion
[ 10718 10713 10712 10709 ] final -160.14 input   66.30 | X-H torsion
[ 10763 10752 10751 10750 ] final  -24.07 input  -60.55 | X-H torsion
[ 11005 11000 10999 10996 ] final  -39.36 input  -57.11 | X-H torsion

> <Gold.Protein.ActiveResidues>
 VAL166  LYS551  ARG553  GLY616  TRP617  ASP618  TYR619  PRO620  LYS621  CYS622 
 ASP623  PHE694  ASN695  SER759  ASP760  ASP761  ALA762  ILE779  LEU786  VAL792 
 PHE793  MET794  SER795  GLU796  ALA797  LYS798  CYS799  TRP800  GLU811  SER814 

> <Gold.Protein.RotatedAtoms>
  152.1763  133.4677  159.4934 H   0  0  0  0  0  0  0  0  0  0  0  0  # atno 6907 bound_to 6896
  150.6927  134.1889  159.4286 H   0  0  0  0  0  0  0  0  0  0  0  0  # atno 6908 bound_to 6896
  151.9799  135.0034  160.0607 H   0  0  0  0  0  0  0  0  0  0  0  0  # atno 6909 bound_to 6896
  146.1870  139.7414  142.8860 H   0  0  0  0  0  0  0  0  0  0  0  0  # atno 7974 bound_to 7965
  154.3997  140.1457  156.3458 H   0  0  0  0  0  0  0  0  0  0  0  0  # atno 8008 bound_to 7997
  155.8314  140.3465  155.5554 H   0  0  0  0  0  0  0  0  0  0  0  0  # atno 8009 bound_to 7997
  155.8184  140.0894  157.1854 H   0  0  0  0  0  0  0  0  0  0  0  0  # atno 8010 bound_to 7997
  139.9524  144.6017  150.8148 H   0  0  0  0  0  0  0  0  0  0  0  0  # atno 10167 bound_to 10162
  156.5779  130.8717  151.2856 H   0  0  0  0  0  0  0  0  0  0  0  0  # atno 10718 bound_to 10713
  153.6778  135.6968  153.5127 H   0  0  0  0  0  0  0  0  0  0  0  0  # atno 10763 bound_to 10752
  153.2508  135.4276  155.0794 H   0  0  0  0  0  0  0  0  0  0  0  0  # atno 10764 bound_to 10752
  154.8408  135.3531  154.6322 H   0  0  0  0  0  0  0  0  0  0  0  0  # atno 10765 bound_to 10752
  141.0096  133.6914  156.2176 H   0  0  0  0  0  0  0  0  0  0  0  0  # atno 11005 bound_to 11000
  145.3910  141.0372  143.3124 LP  0  0  0  0  0  0  0  0  0  0  0  0  # atno 17320 bound_to 7965
  144.8415  139.5465  143.6898 LP  0  0  0  0  0  0  0  0  0  0  0  0  # atno 17321 bound_to 7965
  140.7579  143.3095  151.2879 LP  0  0  0  0  0  0  0  0  0  0  0  0  # atno 17342 bound_to 10162
  139.6618  144.0176  152.2697 LP  0  0  0  0  0  0  0  0  0  0  0  0  # atno 17343 bound_to 10162
  157.7333  130.9729  150.1972 LP  0  0  0  0  0  0  0  0  0  0  0  0  # atno 17370 bound_to 10713
  156.2657  130.3716  149.8084 LP  0  0  0  0  0  0  0  0  0  0  0  0  # atno 17371 bound_to 10713
  140.6756  134.4822  157.5588 LP  0  0  0  0  0  0  0  0  0  0  0  0  # atno 17394 bound_to 11000
  139.9082  134.8402  156.1625 LP  0  0  0  0  0  0  0  0  0  0  0  0  # atno 17395 bound_to 11000

$$$$
