AV-unprocessed.smi:1867|AV-procd|sdf|7563|dock1
  -GOLD-   22720 9283D 1   1.00000     0.00000
 Structure written by MMmdl.
 52 55  0  0  0  0  0  0  0  0  2 V2000
  149.8179  134.6206  156.2155 O   0  0  0  0  0  0  0  0  0  0  0  0
  149.6063  135.0778  155.0952 C   0  0  0  0  0  0  0  0  0  0  0  0
  150.0034  136.2937  154.6711 N   0  0  0  0  0  0  0  0  0  0  0  0
  150.7261  137.2929  155.3771 C   0  0  0  0  0  0  0  0  0  0  0  0
  151.0769  138.5565  154.8445 C   0  0  0  0  0  0  0  0  0  0  0  0
  151.7814  139.4652  155.6571 C   0  0  0  0  0  0  0  0  0  0  0  0
  152.1068  139.0912  156.9769 C   0  0  0  0  0  0  0  0  0  0  0  0
  152.8082  140.0005  157.7832 N   0  0  0  0  0  0  0  0  0  0  0  0
  152.1308  141.2620  158.0343 C   0  0  0  0  0  0  0  0  0  0  0  0
  152.8840  141.9008  159.2030 C   0  0  0  0  0  0  0  0  0  0  0  0
  153.5654  140.7278  159.9180 C   0  0  0  0  0  0  0  0  0  0  0  0
  153.2012  139.4931  159.0878 C   0  0  0  0  0  0  0  0  0  0  0  0
  151.7638  137.8881  157.4961 N   0  0  0  0  0  0  0  0  0  0  0  0
  151.0888  137.0217  156.7123 C   0  0  0  0  0  0  0  0  0  0  0  0
  148.9172  134.3736  154.1794 N   0  0  0  0  0  0  0  0  0  0  0  0
  148.3454  133.0310  154.3103 C   0  0  1  0  0  0  0  0  0  0  0  0
  147.1763  132.9737  155.3034 C   0  0  0  0  0  0  0  0  0  0  0  0
  146.2399  131.8789  154.7622 C   0  0  0  0  0  0  0  0  0  0  0  0
  146.8564  131.3924  153.5080 N   0  3  1  0  0  0  0  0  0  0  0  0
  145.9362  130.7922  152.5083 C   0  0  0  0  0  0  0  0  0  0  0  0
  145.1627  131.8498  151.7034 C   0  0  0  0  0  0  0  0  0  0  0  0
  146.1273  132.8573  151.0696 C   0  0  0  0  0  0  0  0  0  0  0  0
  146.9742  133.5166  152.1631 C   0  0  0  0  0  0  0  0  0  0  0  0
  147.7418  132.4690  153.0103 C   0  0  1  0  0  0  0  0  0  0  0  0
  149.7027  136.5571  153.7445 H   0  0  0  0  0  0  0  0  0  0  0  0
  150.8119  138.8540  153.8424 H   0  0  0  0  0  0  0  0  0  0  0  0
  152.0618  140.4349  155.2724 H   0  0  0  0  0  0  0  0  0  0  0  0
  152.1458  141.8997  157.1499 H   0  0  0  0  0  0  0  0  0  0  0  0
  151.0891  141.0915  158.3097 H   0  0  0  0  0  0  0  0  0  0  0  0
  153.6385  142.5948  158.8307 H   0  0  0  0  0  0  0  0  0  0  0  0
  152.2140  142.4577  159.8586 H   0  0  0  0  0  0  0  0  0  0  0  0
  154.6461  140.8756  159.9293 H   0  0  0  0  0  0  0  0  0  0  0  0
  153.2337  140.6245  160.9515 H   0  0  0  0  0  0  0  0  0  0  0  0
  152.3742  138.9574  159.5560 H   0  0  0  0  0  0  0  0  0  0  0  0
  154.0427  138.8050  159.0036 H   0  0  0  0  0  0  0  0  0  0  0  0
  150.8324  136.0763  157.1679 H   0  0  0  0  0  0  0  0  0  0  0  0
  148.7839  134.8210  153.2836 H   0  0  0  0  0  0  0  0  0  0  0  0
  149.1124  132.3420  154.6701 H   0  0  0  0  0  0  0  0  0  0  0  0
  147.5191  132.7587  156.3159 H   0  0  0  0  0  0  0  0  0  0  0  0
  146.6441  133.9258  155.3345 H   0  0  0  0  0  0  0  0  0  0  0  0
  146.1274  131.0538  155.4658 H   0  0  0  0  0  0  0  0  0  0  0  0
  145.2494  132.2957  154.5766 H   0  0  0  0  0  0  0  0  0  0  0  0
  146.5346  130.1903  151.8232 H   0  0  0  0  0  0  0  0  0  0  0  0
  145.2496  130.1052  153.0044 H   0  0  0  0  0  0  0  0  0  0  0  0
  144.5699  131.3637  150.9281 H   0  0  0  0  0  0  0  0  0  0  0  0
  144.4538  132.3707  152.3479 H   0  0  0  0  0  0  0  0  0  0  0  0
  146.7730  132.3548  150.3482 H   0  0  0  0  0  0  0  0  0  0  0  0
  145.5701  133.6153  150.5184 H   0  0  0  0  0  0  0  0  0  0  0  0
  147.6750  134.2154  151.7052 H   0  0  0  0  0  0  0  0  0  0  0  0
  146.3219  134.1139  152.8016 H   0  0  0  0  0  0  0  0  0  0  0  0
  148.5198  132.0211  152.3903 H   0  0  0  0  0  0  0  0  0  0  0  0
  147.4757  130.6498  153.7997 H   0  0  0  0  0  0  0  0  0  0  0  0
  1  2  2  0  0  0  0
  2  3  1  0  0  0  0
  2 15  1  0  0  0  0
  3  4  1  0  0  0  0
  3 25  1  0  0  0  0
  4 14  1  0  0  0  0
  4  5  2  0  0  0  0
  5  6  1  0  0  0  0
  5 26  1  0  0  0  0
  6  7  2  0  0  0  0
  6 27  1  0  0  0  0
  7  8  1  0  0  0  0
  7 13  1  0  0  0  0
  8 12  1  0  0  0  0
  8  9  1  0  0  0  0
  9 10  1  0  0  0  0
  9 28  1  0  0  0  0
  9 29  1  0  0  0  0
 10 11  1  0  0  0  0
 10 30  1  0  0  0  0
 10 31  1  0  0  0  0
 11 12  1  0  0  0  0
 11 32  1  0  0  0  0
 11 33  1  0  0  0  0
 12 34  1  0  0  0  0
 12 35  1  0  0  0  0
 13 14  2  0  0  0  0
 14 36  1  0  0  0  0
 15 16  1  0  0  0  0
 15 37  1  0  0  0  0
 16 24  1  0  0  0  0
 16 17  1  0  0  0  0
 16 38  1  0  0  0  0
 17 18  1  0  0  0  0
 17 39  1  0  0  0  0
 17 40  1  0  0  0  0
 18 19  1  0  0  0  0
 18 41  1  0  0  0  0
 18 42  1  0  0  0  0
 19 24  1  0  0  0  0
 19 20  1  0  0  0  0
 19 52  1  0  0  0  0
 20 21  1  0  0  0  0
 20 43  1  0  0  0  0
 20 44  1  0  0  0  0
 21 22  1  0  0  0  0
 21 45  1  0  0  0  0
 21 46  1  0  0  0  0
 22 23  1  0  0  0  0
 22 47  1  0  0  0  0
 22 48  1  0  0  0  0
 23 24  1  0  0  0  0
 23 49  1  0  0  0  0
 23 50  1  0  0  0  0
 24 51  1  0  0  0  0
M  CHG  1  19   1
M  END
> <s_m_source_file>
AV-unprocessed.smi

> <i_m_source_file_index>
1867

> <i_lp_mmshare_version>
43012

> <i_f3d_flags>
0

> <s_epik_input>
W0NIMl0xW0NIMl1bQ0gyXVtDSDJdW0NASF0oTjEyKVtDQEBIXShbQ0gyXVtDSDJdMilbTkhdQyg9TylbTkhdYzNbY0hdW2NIXWMobltjSF0zKU40W0NIMl1bQ0gyXVtDSDJdW0NIMl00

> <s_epik_cmdline>
J2VwaWtfcHl0aG9uJywgJy1waCcsICc3LjAnLCAnLXRuJywgJzgnLCAnLW1hJywgJzIwMCcsICctbWV0YWxfYmluZGluZycsICctaW1hZScsICc8aW5maWxlLm1hZT4nLCAnLW9tYWUnLCAnPG91dGZpbGUubWFlPic=

> <r_lp_tautomer_probability>
1

> <r_epik_Ionization_Penalty>
0.0751123

> <r_epik_Ionization_Penalty_Charging>
0.000974069

> <r_epik_Ionization_Penalty_Neutral>
0.0741382

> <r_epik_State_Penalty>
0.0647261

> <r_epik_Charging_Adjusted_Penalty>
0.0657002

> <i_epik_Tot_Q>
1

> <i_epik_Tot_abs_Q>
1

> <r_epik_Metal_State_Penalty>
0.0580571

> <b_epik_Metal_Only>
0

> <s_lp_Force_Field>
OPLS_2005

> <r_lp_Energy>
77.3857

> <b_lp_Chiralities_Consistent>
1

> <s_lp_Variant>
AV-unprocessed.smi:1867-4

> <Gold.Version>
5.8.1

> <Gold.Id.Protein>
6NUR|6NUR_protein|mol2

> <Gold.PLP.Fitness>
47.4195

> <Gold.PLP.PLP>
-38.5447

> <Gold.PLP.part.hbond>
-3.0773

> <Gold.PLP.part.metal>
0.0000

> <Gold.PLP.part.buried>
-5.5436

> <Gold.PLP.part.nonpolar>
-30.6361

> <Gold.PLP.part.repulsive>
0.0738

> <Gold.PLP.ligand.clash>
0.0000

> <Gold.PLP.ligand.torsion>
0.0750

> <Gold.PLP.Chemscore.Hbond>
3.0000

> <Gold.PLP.Chemscore.CHOScore>
0.0000

> <Gold.PLP.Chemscore.Metal>
0.0000

> <Gold.Chemscore.Hbonds>
donor molecule, donor type, donor heavy atom, donor atom, acceptor molecule, acceptor atom, score
      L1  H     3    25       P1  7948  1.00
      L1  H    15    37       P1  7948  1.00
      P1  H  7997  8008       L1     8  0.95

> <Gold.PLP.Chemscore.Internal.Correction>
0.0248

> <Gold.Rescore>
     Score         DG    S(hbond)    S(metal)    S(lipo)     H(rot)  DE(clash)    DE(int)     intcor
     17.66     -19.31       1.59        0.00      98.79       1.18       0.00       1.64       ----

> <Gold.Chemscore.Fitness>
17.6610

> <Gold.Chemscore.DG>
-19.3056

> <Gold.Chemscore.ZeroCoef>
-5.4800

> <Gold.Chemscore.Hbond>
1.5867

> <Gold.Chemscore.Metal>
0.0000

> <Gold.Chemscore.Lipo>
98.7908

> <Gold.Chemscore.Internal_Hbond>
0.0000

> <Gold.Chemscore.DEClash>
0.0004

> <Gold.Chemscore.DEInternal>
1.6441

> <Gold.Chemscore.Rot>
1.1845

> <Gold.Chemscore.Internal.Correction>
   9.000000E+99

> <Gold.Chemscore.Hbonds>
donor molecule, donor type, donor heavy atom, donor atom, acceptor molecule, acceptor atom, score
      L1  H     3    25       P1  7948  0.51
      L1  H    15    37       P1  7948  0.34
      P1  H  7997  8008       L1     8  0.09

> <Gold.Chemscore.Hbond.Weighted>
-5.2994

> <Gold.Chemscore.Metal.Weighted>
-0.0000

> <Gold.Chemscore.Lipo.Weighted>
-11.5585

> <Gold.Chemscore.Internal_Hbond.Weighted>
0.0000

> <Gold.Chemscore.DEClash.Weighted>
0.0004

> <Gold.Chemscore.DEInternal.Weighted>
1.6441

> <Gold.Chemscore.Rot.Weighted>
3.0324

> <Gold.Chemscore.Internal.Correction.Weighted>
   9.000000E+99

> <Gold.Protein.RotatedTorsions>
[ 6907 6896 6895 6894 ] final -120.26 input  -60.11 | X-H torsion
[ 7974 7965 7964 7962 ] final  -49.89 input  175.53 | X-H torsion
[ 8008 7997 7996 7995 ] final  -70.53 input   59.86 | X-H torsion
[ 10167 10162 10161 10158 ] final   90.69 input  -65.29 | X-H torsion
[ 10718 10713 10712 10709 ] final   90.50 input   66.30 | X-H torsion
[ 10763 10752 10751 10750 ] final  109.27 input  -60.55 | X-H torsion
[ 11005 11000 10999 10996 ] final -121.11 input  -57.11 | X-H torsion

> <Gold.Protein.ActiveResidues>
 VAL166  LYS551  ARG553  GLY616  TRP617  ASP618  TYR619  PRO620  LYS621  CYS622 
 ASP623  PHE694  ASN695  SER759  ASP760  ASP761  ALA762  ILE779  LEU786  VAL792 
 PHE793  MET794  SER795  GLU796  ALA797  LYS798  CYS799  TRP800  GLU811  SER814 

> <Gold.Protein.RotatedAtoms>
  150.8377  133.7986  159.3072 H   0  0  0  0  0  0  0  0  0  0  0  0  # atno 6907 bound_to 6896
  151.5697  135.1061  160.0002 H   0  0  0  0  0  0  0  0  0  0  0  0  # atno 6908 bound_to 6896
  152.4446  133.7471  159.6729 H   0  0  0  0  0  0  0  0  0  0  0  0  # atno 6909 bound_to 6896
  145.9357  140.7709  142.9577 H   0  0  0  0  0  0  0  0  0  0  0  0  # atno 7974 bound_to 7965
  154.5019  140.0832  156.7815 H   0  0  0  0  0  0  0  0  0  0  0  0  # atno 8008 bound_to 7997
  155.3984  140.3436  155.4237 H   0  0  0  0  0  0  0  0  0  0  0  0  # atno 8009 bound_to 7997
  156.1467  140.1546  156.8823 H   0  0  0  0  0  0  0  0  0  0  0  0  # atno 8010 bound_to 7997
  139.8448  144.6623  150.9240 H   0  0  0  0  0  0  0  0  0  0  0  0  # atno 10167 bound_to 10162
  157.6959  131.0373  150.3587 H   0  0  0  0  0  0  0  0  0  0  0  0  # atno 10718 bound_to 10713
  153.4323  135.3785  155.2178 H   0  0  0  0  0  0  0  0  0  0  0  0  # atno 10763 bound_to 10752
  154.8750  135.3843  154.4252 H   0  0  0  0  0  0  0  0  0  0  0  0  # atno 10764 bound_to 10752
  153.4787  135.7088  153.6014 H   0  0  0  0  0  0  0  0  0  0  0  0  # atno 10765 bound_to 10752
  141.0094  134.0287  157.3434 H   0  0  0  0  0  0  0  0  0  0  0  0  # atno 11005 bound_to 11000
  144.6771  140.2198  143.7367 LP  0  0  0  0  0  0  0  0  0  0  0  0  # atno 17320 bound_to 7965
  145.8367  139.2111  143.1851 LP  0  0  0  0  0  0  0  0  0  0  0  0  # atno 17321 bound_to 7965
  140.7794  143.3880  151.1360 LP  0  0  0  0  0  0  0  0  0  0  0  0  # atno 17342 bound_to 10162
  139.7523  143.8760  152.3080 LP  0  0  0  0  0  0  0  0  0  0  0  0  # atno 17343 bound_to 10162
  156.4026  130.3918  149.6949 LP  0  0  0  0  0  0  0  0  0  0  0  0  # atno 17370 bound_to 10713
  156.4261  130.7792  151.2811 LP  0  0  0  0  0  0  0  0  0  0  0  0  # atno 17371 bound_to 10713
  139.9081  135.0184  156.7575 LP  0  0  0  0  0  0  0  0  0  0  0  0  # atno 17394 bound_to 11000
  140.6759  133.9518  155.7882 LP  0  0  0  0  0  0  0  0  0  0  0  0  # atno 17395 bound_to 11000

$$$$
