#       Name:                AV-unprocessed.smi:2718
#       Creating user name   scv26
#       Creation time:       Fri Mar 27 14:53:45 2020


#       File generated by GOLD software.
#

@<TRIPOS>MOLECULE
AV-unprocessed.smi:2718
    51    52     1
SMALL
NO_CHARGES


@<TRIPOS>ATOM
      1 ****        -4.6886  -0.5473   2.1750 C.3            1 S1                 0.0000
      2 ****        -3.3320  -1.1857   1.9525 C.2            1 S1                 0.0000
      3 ****        -3.1118  -2.4877   2.7026 C.3            1 S1                 0.0000
      4 ****        -2.4100  -0.6252   1.1468 C.2            1 S1                 0.0000
      5 ****        -1.0546  -1.1574   0.8480 C.3            1 S1                 0.0000
      6 ****        -0.4061  -0.9110  -0.5015 C.3            1 S1                 0.0000
      7 ****         1.0577  -0.5990  -0.5450 C.2            1 S1                 0.0000
      8 ****         1.8365  -0.8442   0.3771 O.2            1 S1                 0.0000
      9 ****         1.4445   0.0022  -1.6797 N.am           1 S1                 0.0000
     10 ****         2.7998   0.4625  -1.9689 C.3            1 S1                 0.0000
     11 ****         3.1634   1.7653  -1.2218 C.3            1 S1                 0.0000
     12 ****         4.5628   2.2694  -1.6042 C.3            1 S1                 0.0000
     13 ****         2.1211   2.8392  -1.3898 C.2            1 S1                 0.0000
     14 ****         1.8245   3.4011  -2.5697 N.2            1 S1                 0.0000
     15 ****         0.8209   4.3119  -2.3097 N.2            1 S1                 0.0000
     16 ****         0.6082   4.2099  -0.9987 C.2            1 S1                 0.0000
     17 ****         1.3795   3.3136  -0.3655 N.pl3          1 S1                 0.0000
     18 ****         1.3855   2.9703   1.0430 C.3            1 S1                 0.0000
     19 ****        -0.8620  -2.3152  -0.1185 C.3            1 S1                 0.0000
     20 ****         0.1012  -3.4333   0.2634 C.3            1 S1                 0.0000
     21 ****        -2.0343  -2.9045  -0.8889 C.3            1 S1                 0.0000
     22 ****        -5.4815  -1.2293   1.8670 H              1 S1                 0.0000
     23 ****        -4.7964   0.3763   1.6053 H              1 S1                 0.0000
     24 ****        -4.8279  -0.3130   3.2305 H              1 S1                 0.0000
     25 ****        -3.8454  -3.2301   2.3878 H              1 S1                 0.0000
     26 ****        -3.2284  -2.3264   3.7745 H              1 S1                 0.0000
     27 ****        -2.1198  -2.9057   2.5339 H              1 S1                 0.0000
     28 ****        -2.6535   0.3068   0.6572 H              1 S1                 0.0000
     29 ****        -0.4104  -1.1241   1.7255 H              1 S1                 0.0000
     30 ****        -1.0116  -0.4030  -1.2515 H              1 S1                 0.0000
     31 ****         0.7449   0.1745  -2.3874 H              1 S1                 0.0000
     32 ****         3.5189  -0.3255  -1.7390 H              1 S1                 0.0000
     33 ****         2.8610   0.6286  -3.0449 H              1 S1                 0.0000
     34 ****         3.2178   1.5134  -0.1631 H              1 S1                 0.0000
     35 ****         4.8381   3.1449  -1.0153 H              1 S1                 0.0000
     36 ****         4.6121   2.5470  -2.6576 H              1 S1                 0.0000
     37 ****         5.3174   1.5026  -1.4277 H              1 S1                 0.0000
     38 ****        -0.1331   4.8058  -0.4865 H              1 S1                 0.0000
     39 ****         0.6768   3.5969   1.5853 H              1 S1                 0.0000
     40 ****         2.3819   3.1260   1.4572 H              1 S1                 0.0000
     41 ****         1.1009   1.9257   1.1702 H              1 S1                 0.0000
     42 ****         0.6373  -3.7876  -0.6173 H              1 S1                 0.0000
     43 ****        -0.4437  -4.2723   0.6968 H              1 S1                 0.0000
     44 ****         0.8281  -3.1036   1.0048 H              1 S1                 0.0000
     45 ****        -1.6783  -3.4380  -1.7706 H              1 S1                 0.0000
     46 ****        -2.7200  -2.1239  -1.2200 H              1 S1                 0.0000
     47 ****        -2.5905  -3.6010  -0.2609 H              1 S1                 0.0000
     48 ****         1.5002  -1.2757   1.2142 LP             1 S1                 0.0000
     49 ****         2.8051  -0.6118   0.2887 LP             1 S1                 0.0000
     50 ****         2.2437   3.2016  -3.4554 LP             1 S1                 0.0000
     51 ****         0.3571   4.9137  -2.9599 LP             1 S1                 0.0000
@<TRIPOS>BOND
    1    1    2 1     
    2    1   22 1     
    3    1   23 1     
    4    1   24 1     
    5    2    3 1     
    6    2    4 2     
    7    3   25 1     
    8    3   26 1     
    9    3   27 1     
   10    4    5 1     
   11    4   28 1     
   12    5   19 1     
   13    5    6 1     
   14    5   29 1     
   15    6    7 1     
   16    6   19 1     
   17    6   30 1     
   18    7    8 2     
   19    7    9 am    
   20    9   10 1     
   21    9   31 1     
   22   10   11 1     
   23   10   32 1     
   24   10   33 1     
   25   11   12 1     
   26   11   13 1     
   27   11   34 1     
   28   12   35 1     
   29   12   36 1     
   30   12   37 1     
   31   13   17 1     
   32   13   14 2     
   33   14   15 1     
   34   15   16 2     
   35   16   17 1     
   36   16   38 1     
   37   17   18 1     
   38   18   39 1     
   39   18   40 1     
   40   18   41 1     
   41   19   20 1     
   42   19   21 1     
   43   20   42 1     
   44   20   43 1     
   45   20   44 1     
   46   21   45 1     
   47   21   46 1     
   48   21   47 1     
   49    8   48 1     
   50    8   49 1     
   51   14   50 1     
   52   15   51 1     
@<TRIPOS>SUBSTRUCTURE
      1 S1             1
@<TRIPOS>SET
LONE_PAIRS      STATIC     ATOMS    <user>   **** ""
4 48 49 50 51
DONOR_HYDROGENS      STATIC     ATOMS    <user>   **** ""
1 31
ATOM$BLUE        STATIC     ATOMS    COLORGROUP SYSTEM
4 48 49 50 51
ATOM$RED        STATIC     ATOMS    COLORGROUP SYSTEM
1 31
