AV-unprocessed.smi:3011|AV-procd|sdf|11459|dock10
  -GOLD-   2272016393D 1   1.00000     0.00000
 Structure written by MMmdl.
 47 49  0  0  0  0  0  0  0  0  2 V2000
  151.5527  145.8210  160.4814 C   0  0  0  0  0  0  0  0  0  0  0  0
  151.2923  144.5099  160.0028 O   0  0  0  0  0  0  0  0  0  0  0  0
  152.0762  143.4749  160.4714 C   0  0  0  0  0  0  0  0  0  0  0  0
  152.6688  143.4576  161.7596 C   0  0  0  0  0  0  0  0  0  0  0  0
  153.4551  142.3654  162.1686 C   0  0  0  0  0  0  0  0  0  0  0  0
  153.6585  141.2804  161.2989 C   0  0  0  0  0  0  0  0  0  0  0  0
  153.0757  141.2869  160.0188 C   0  0  0  0  0  0  0  0  0  0  0  0
  152.2820  142.3829  159.5973 C   0  0  0  0  0  0  0  0  0  0  0  0
  151.6824  142.4617  158.3595 O   0  0  0  0  0  0  0  0  0  0  0  0
  151.7608  141.3463  157.4835 C   0  0  0  0  0  0  0  0  0  0  0  0
  151.2087  141.7644  156.1133 C   0  0  0  0  0  0  0  0  0  0  0  0
  150.5435  140.6500  155.4214 N   0  0  0  0  0  0  0  0  0  0  0  0
  150.9487  139.3602  155.2273 C   0  0  0  0  0  0  0  0  0  0  0  0
  152.2202  138.7336  155.7301 C   0  0  2  0  0  0  0  0  0  0  0  0
  153.2433  138.4958  154.6036 C   0  0  0  0  0  0  0  0  0  0  0  0
  151.9768  137.5158  156.4999 N   0  0  0  0  0  0  0  0  0  0  0  0
  151.6326  136.3259  155.9883 C   0  0  0  0  0  0  0  0  0  0  0  0
  151.4812  136.1297  154.7856 O   0  0  0  0  0  0  0  0  0  0  0  0
  149.9580  138.7330  154.5292 N   0  3  0  0  0  0  0  0  0  0  0  0
  148.9267  139.6310  154.2556 C   0  0  0  0  0  0  0  0  0  0  0  0
  147.7261  139.4595  153.5736 C   0  0  0  0  0  0  0  0  0  0  0  0
  146.8908  140.5911  153.4694 C   0  0  0  0  0  0  0  0  0  0  0  0
  147.2609  141.8311  154.0297 C   0  0  0  0  0  0  0  0  0  0  0  0
  148.4803  141.9918  154.7203 C   0  0  0  0  0  0  0  0  0  0  0  0
  149.2986  140.8671  154.8214 C   0  0  0  0  0  0  0  0  0  0  0  0
  150.8563  146.5182  160.0162 H   0  0  0  0  0  0  0  0  0  0  0  0
  152.5624  146.1453  160.2266 H   0  0  0  0  0  0  0  0  0  0  0  0
  151.4124  145.8865  161.5611 H   0  0  0  0  0  0  0  0  0  0  0  0
  152.5352  144.2719  162.4553 H   0  0  0  0  0  0  0  0  0  0  0  0
  153.9027  142.3604  163.1515 H   0  0  0  0  0  0  0  0  0  0  0  0
  154.2626  140.4423  161.6137 H   0  0  0  0  0  0  0  0  0  0  0  0
  153.2544  140.4382  159.3768 H   0  0  0  0  0  0  0  0  0  0  0  0
  152.7947  141.0160  157.3756 H   0  0  0  0  0  0  0  0  0  0  0  0
  151.1772  140.5140  157.8802 H   0  0  0  0  0  0  0  0  0  0  0  0
  150.4771  142.5636  156.2339 H   0  0  0  0  0  0  0  0  0  0  0  0
  151.9964  142.1649  155.4749 H   0  0  0  0  0  0  0  0  0  0  0  0
  152.6759  139.4369  156.4266 H   0  0  0  0  0  0  0  0  0  0  0  0
  153.4825  139.4286  154.0921 H   0  0  0  0  0  0  0  0  0  0  0  0
  152.8744  137.7931  153.8557 H   0  0  0  0  0  0  0  0  0  0  0  0
  154.1755  138.0949  155.0024 H   0  0  0  0  0  0  0  0  0  0  0  0
  152.0709  137.5865  157.5032 H   0  0  0  0  0  0  0  0  0  0  0  0
  151.5051  135.5618  156.7712 H   0  0  0  0  0  0  0  0  0  0  0  0
  147.4414  138.5108  153.1426 H   0  0  0  0  0  0  0  0  0  0  0  0
  145.9479  140.5065  152.9486 H   0  0  0  0  0  0  0  0  0  0  0  0
  146.5958  142.6764  153.9287 H   0  0  0  0  0  0  0  0  0  0  0  0
  148.7545  142.9459  155.1451 H   0  0  0  0  0  0  0  0  0  0  0  0
  149.9917  137.7587  154.2577 H   0  0  0  0  0  0  0  0  0  0  0  0
  1  2  1  0  0  0  0
  1 26  1  0  0  0  0
  1 27  1  0  0  0  0
  1 28  1  0  0  0  0
  2  3  1  0  0  0  0
  3  8  1  0  0  0  0
  3  4  2  0  0  0  0
  4  5  1  0  0  0  0
  4 29  1  0  0  0  0
  5  6  2  0  0  0  0
  5 30  1  0  0  0  0
  6  7  1  0  0  0  0
  6 31  1  0  0  0  0
  7  8  2  0  0  0  0
  7 32  1  0  0  0  0
  8  9  1  0  0  0  0
  9 10  1  0  0  0  0
 10 11  1  0  0  0  0
 10 33  1  0  0  0  0
 10 34  1  0  0  0  0
 11 12  1  0  0  0  0
 11 35  1  0  0  0  0
 11 36  1  0  0  0  0
 12 25  1  0  0  0  0
 12 13  1  0  0  0  0
 13 14  1  0  0  0  0
 13 19  2  0  0  0  0
 14 15  1  0  0  0  0
 14 16  1  0  0  0  0
 14 37  1  0  0  0  0
 15 38  1  0  0  0  0
 15 39  1  0  0  0  0
 15 40  1  0  0  0  0
 16 17  1  0  0  0  0
 16 41  1  0  0  0  0
 17 18  2  0  0  0  0
 17 42  1  0  0  0  0
 19 20  1  0  0  0  0
 19 47  1  0  0  0  0
 20 25  2  0  0  0  0
 20 21  1  0  0  0  0
 21 22  2  0  0  0  0
 21 43  1  0  0  0  0
 22 23  1  0  0  0  0
 22 44  1  0  0  0  0
 23 24  2  0  0  0  0
 23 45  1  0  0  0  0
 24 25  1  0  0  0  0
 24 46  1  0  0  0  0
M  CHG  1  19   1
M  END
> <s_m_source_file>
AV-unprocessed.smi

> <i_m_source_file_index>
3011

> <i_lp_mmshare_version>
43012

> <i_f3d_flags>
0

> <s_epik_input>
W0NIM11PYzFbY0hdW2NIXVtjSF1bY0hdYzFPW0NIMl1bQ0gyXW4oYyhuMilbQ0BIXShbQ0gzXSlbTkhdW0NIXT1PKWMoYzIzKVtjSF1bY0hdW2NIXVtjSF0z

> <s_epik_cmdline>
J2VwaWtfcHl0aG9uJywgJy1waCcsICc3LjAnLCAnLXRuJywgJzgnLCAnLW1hJywgJzIwMCcsICctbWV0YWxfYmluZGluZycsICctaW1hZScsICc8aW5maWxlLm1hZT4nLCAnLW9tYWUnLCAnPG91dGZpbGUubWFlPic=

> <r_lp_tautomer_probability>
1

> <r_epik_Ionization_Penalty>
1.14644

> <r_epik_Ionization_Penalty_Charging>
1.14644

> <r_epik_Ionization_Penalty_Neutral>
5.5802e-08

> <r_epik_State_Penalty>
1.20743

> <r_epik_Charging_Adjusted_Penalty>
2.35387

> <i_epik_Tot_Q>
1

> <i_epik_Tot_abs_Q>
1

> <r_epik_Metal_State_Penalty>
1.28856

> <b_epik_Metal_Only>
0

> <s_lp_Force_Field>
OPLS_2005

> <r_lp_Energy>
19.8167

> <b_lp_Chiralities_Consistent>
1

> <s_lp_Variant>
AV-unprocessed.smi:3011-3

> <Gold.Version>
5.8.1

> <Gold.Id.Protein>
6NUR|6NUR_protein|mol2

> <Gold.PLP.Fitness>
53.2825

> <Gold.PLP.PLP>
-52.3967

> <Gold.PLP.part.hbond>
-1.0000

> <Gold.PLP.part.metal>
0.0000

> <Gold.PLP.part.buried>
-1.5128

> <Gold.PLP.part.nonpolar>
-50.8585

> <Gold.PLP.part.repulsive>
0.4141

> <Gold.PLP.ligand.clash>
0.0000

> <Gold.PLP.ligand.torsion>
1.1270

> <Gold.PLP.Chemscore.Hbond>
1.0000

> <Gold.PLP.Chemscore.CHOScore>
0.0000

> <Gold.PLP.Chemscore.Metal>
0.0000

> <Gold.Chemscore.Hbonds>
donor molecule, donor type, donor heavy atom, donor atom, acceptor molecule, acceptor atom, score
      P1  H 10752 10763       L1    18  0.90

> <Gold.PLP.Chemscore.Internal.Correction>
0.1396

> <Gold.Rescore>
     Score         DG    S(hbond)    S(metal)    S(lipo)     H(rot)  DE(clash)    DE(int)     intcor
     15.18     -19.26       0.94        0.00     149.30       2.66       1.60       2.47       ----

> <Gold.Chemscore.Fitness>
15.1833

> <Gold.Chemscore.DG>
-19.2630

> <Gold.Chemscore.ZeroCoef>
-5.4800

> <Gold.Chemscore.Hbond>
0.9357

> <Gold.Chemscore.Metal>
0.0000

> <Gold.Chemscore.Lipo>
149.3036

> <Gold.Chemscore.Internal_Hbond>
0.0000

> <Gold.Chemscore.DEClash>
1.6048

> <Gold.Chemscore.DEInternal>
2.4749

> <Gold.Chemscore.Rot>
2.6604

> <Gold.Chemscore.Internal.Correction>
   9.000000E+99

> <Gold.Chemscore.Hbonds>
donor molecule, donor type, donor heavy atom, donor atom, acceptor molecule, acceptor atom, score
      P1  H 10752 10763       L1    18  0.17

> <Gold.Chemscore.Hbond.Weighted>
-3.1251

> <Gold.Chemscore.Metal.Weighted>
-0.0000

> <Gold.Chemscore.Lipo.Weighted>
-17.4685

> <Gold.Chemscore.Internal_Hbond.Weighted>
0.0000

> <Gold.Chemscore.DEClash.Weighted>
1.6048

> <Gold.Chemscore.DEInternal.Weighted>
2.4749

> <Gold.Chemscore.Rot.Weighted>
6.8106

> <Gold.Chemscore.Internal.Correction.Weighted>
   9.000000E+99

> <Gold.Protein.RotatedTorsions>
[ 6907 6896 6895 6894 ] final  176.31 input  -60.11 | X-H torsion
[ 7974 7965 7964 7962 ] final   39.08 input  175.53 | X-H torsion
[ 8008 7997 7996 7995 ] final -170.49 input   59.86 | X-H torsion
[ 10167 10162 10161 10158 ] final   71.41 input  -65.29 | X-H torsion
[ 10718 10713 10712 10709 ] final  152.83 input   66.30 | X-H torsion
[ 10763 10752 10751 10750 ] final   51.49 input  -60.55 | X-H torsion
[ 11005 11000 10999 10996 ] final -120.37 input  -57.11 | X-H torsion

> <Gold.Protein.ActiveResidues>
 VAL166  LYS551  ARG553  GLY616  TRP617  ASP618  TYR619  PRO620  LYS621  CYS622 
 ASP623  PHE694  ASN695  SER759  ASP760  ASP761  ALA762  ILE779  LEU786  VAL792 
 PHE793  MET794  SER795  GLU796  ALA797  LYS798  CYS799  TRP800  GLU811  SER814 

> <Gold.Protein.RotatedAtoms>
  151.7222  133.3315  159.3317 H   0  0  0  0  0  0  0  0  0  0  0  0  # atno 6907 bound_to 6896
  150.7648  134.6438  159.6261 H   0  0  0  0  0  0  0  0  0  0  0  0  # atno 6908 bound_to 6896
  152.3645  134.6827  160.0248 H   0  0  0  0  0  0  0  0  0  0  0  0  # atno 6909 bound_to 6896
  146.1012  139.5694  142.9413 H   0  0  0  0  0  0  0  0  0  0  0  0  # atno 7974 bound_to 7965
  155.9190  140.1071  157.1221 H   0  0  0  0  0  0  0  0  0  0  0  0  # atno 8008 bound_to 7997
  154.4051  140.1259  156.4720 H   0  0  0  0  0  0  0  0  0  0  0  0  # atno 8009 bound_to 7997
  155.7219  140.3469  155.5022 H   0  0  0  0  0  0  0  0  0  0  0  0  # atno 8010 bound_to 7997
  140.0464  144.5347  150.7395 H   0  0  0  0  0  0  0  0  0  0  0  0  # atno 10167 bound_to 10162
  157.2526  131.0782  151.1719 H   0  0  0  0  0  0  0  0  0  0  0  0  # atno 10718 bound_to 10713
  152.9785  135.5844  154.4424 H   0  0  0  0  0  0  0  0  0  0  0  0  # atno 10763 bound_to 10752
  154.4024  135.2769  155.2090 H   0  0  0  0  0  0  0  0  0  0  0  0  # atno 10764 bound_to 10752
  154.3915  135.6124  153.5900 H   0  0  0  0  0  0  0  0  0  0  0  0  # atno 10765 bound_to 10752
  141.0148  134.0211  157.3364 H   0  0  0  0  0  0  0  0  0  0  0  0  # atno 11005 bound_to 11000
  145.5851  141.0377  143.2101 LP  0  0  0  0  0  0  0  0  0  0  0  0  # atno 17320 bound_to 7965
  144.7434  139.7386  143.7302 LP  0  0  0  0  0  0  0  0  0  0  0  0  # atno 17321 bound_to 7965
  140.7237  143.2614  151.4194 LP  0  0  0  0  0  0  0  0  0  0  0  0  # atno 17342 bound_to 10162
  139.5981  144.1355  152.2166 LP  0  0  0  0  0  0  0  0  0  0  0  0  # atno 17343 bound_to 10162
  157.3261  130.6961  149.6297 LP  0  0  0  0  0  0  0  0  0  0  0  0  # atno 17370 bound_to 10713
  155.9666  130.4321  150.4949 LP  0  0  0  0  0  0  0  0  0  0  0  0  # atno 17371 bound_to 10713
  139.9111  135.0190  156.7694 LP  0  0  0  0  0  0  0  0  0  0  0  0  # atno 17394 bound_to 11000
  140.6672  133.9592  155.7837 LP  0  0  0  0  0  0  0  0  0  0  0  0  # atno 17395 bound_to 11000

$$$$
