#       Name:                AV-unprocessed.smi:3240
#       Creating user name   scv26
#       Creation time:       Fri Mar 27 18:24:46 2020


#       File generated by GOLD software.
#

@<TRIPOS>MOLECULE
AV-unprocessed.smi:3240
    47    48     1
SMALL
NO_CHARGES


@<TRIPOS>ATOM
      1 ****        -0.0880  -2.4041   3.7971 C.3            1 S1                 0.0000
      2 ****        -1.1750  -2.1004   2.8072 C.2            1 S1                 0.0000
      3 ****        -2.3519  -2.8567   2.5420 C.2            1 S1                 0.0000
      4 ****        -3.1121  -2.3140   1.6051 N.2            1 S1                 0.0000
      5 ****        -2.4468  -1.1990   1.2336 N.pl3          1 S1                 0.0000
      6 ****        -2.9945  -0.3355   0.1992 C.3            1 S1                 0.0000
      7 ****        -2.4168  -0.6119  -1.2119 C.3            1 S1                 0.0000
      8 ****        -2.6904  -2.0482  -1.6851 C.3            1 S1                 0.0000
      9 ****        -0.9786  -0.3383  -1.3043 N.3            1 S1                 0.0000
     10 ****        -0.5801   1.0557  -1.0949 C.3            1 S1                 0.0000
     11 ****         0.9376   1.2692  -1.2929 C.3            1 S1                 0.0000
     12 ****         1.2141   1.0521  -2.6651 O.3            1 S1                 0.0000
     13 ****         1.2946   2.7400  -0.9718 C.3            1 S1                 0.0000
     14 ****         2.8051   3.0266  -1.0488 C.3            1 S1                 0.0000
     15 ****         3.5992   2.0712  -0.1477 C.3            1 S1                 0.0000
     16 ****         3.2990   0.6088  -0.5029 C.3            1 S1                 0.0000
     17 ****         1.7912   0.3093  -0.4247 C.3            1 S1                 0.0000
     18 ****        -1.2785  -1.0426   1.9494 C.2            1 S1                 0.0000
     19 ****         0.2210  -3.4483   3.7474 H              1 S1                 0.0000
     20 ****        -0.4120  -2.2122   4.8201 H              1 S1                 0.0000
     21 ****         0.8015  -1.7983   3.6221 H              1 S1                 0.0000
     22 ****        -2.6750  -3.7790   3.0017 H              1 S1                 0.0000
     23 ****        -4.0769  -0.4723   0.1770 H              1 S1                 0.0000
     24 ****        -2.8426   0.7012   0.4980 H              1 S1                 0.0000
     25 ****        -2.9348   0.0511  -1.9058 H              1 S1                 0.0000
     26 ****        -3.7528  -2.2854  -1.6240 H              1 S1                 0.0000
     27 ****        -2.1504  -2.7814  -1.0848 H              1 S1                 0.0000
     28 ****        -2.3833  -2.1830  -2.7228 H              1 S1                 0.0000
     29 ****        -0.6296  -0.6528  -2.2044 H              1 S1                 0.0000
     30 ****        -1.1322   1.7063  -1.7745 H              1 S1                 0.0000
     31 ****        -0.8448   1.3700  -0.0861 H              1 S1                 0.0000
     32 ****         2.1363   1.1980  -2.8100 H              1 S1                 0.0000
     33 ****         0.7590   3.4142  -1.6416 H              1 S1                 0.0000
     34 ****         0.9492   2.9807   0.0347 H              1 S1                 0.0000
     35 ****         3.1496   2.9307  -2.0791 H              1 S1                 0.0000
     36 ****         3.0002   4.0588  -0.7561 H              1 S1                 0.0000
     37 ****         4.6674   2.2672  -0.2454 H              1 S1                 0.0000
     38 ****         3.3438   2.2548   0.8968 H              1 S1                 0.0000
     39 ****         3.6673   0.3926  -1.5064 H              1 S1                 0.0000
     40 ****         3.8419  -0.0541   0.1714 H              1 S1                 0.0000
     41 ****         1.4732   0.3903   0.6154 H              1 S1                 0.0000
     42 ****         1.6194  -0.7283  -0.7130 H              1 S1                 0.0000
     43 ****        -0.6214  -0.2013   1.7874 H              1 S1                 0.0000
     44 ****        -3.9838  -2.6533   1.2513 LP             1 S1                 0.0000
     45 ****        -0.5718  -0.8463  -0.5451 LP             1 S1                 0.0000
     46 ****         0.6798   1.6880  -3.2221 LP             1 S1                 0.0000
     47 ****         0.9777   0.1125  -2.9128 LP             1 S1                 0.0000
@<TRIPOS>BOND
    1    1    2 1     
    2    1   19 1     
    3    1   20 1     
    4    1   21 1     
    5    2   18 2     
    6    2    3 1     
    7    3    4 2     
    8    3   22 1     
    9    4    5 1     
   10    5    6 1     
   11    5   18 1     
   12    6    7 1     
   13    6   23 1     
   14    6   24 1     
   15    7    8 1     
   16    7    9 1     
   17    7   25 1     
   18    8   26 1     
   19    8   27 1     
   20    8   28 1     
   21    9   10 1     
   22    9   29 1     
   23   10   11 1     
   24   10   30 1     
   25   10   31 1     
   26   11   17 1     
   27   11   12 1     
   28   11   13 1     
   29   12   32 1     
   30   13   14 1     
   31   13   33 1     
   32   13   34 1     
   33   14   15 1     
   34   14   35 1     
   35   14   36 1     
   36   15   16 1     
   37   15   37 1     
   38   15   38 1     
   39   16   17 1     
   40   16   39 1     
   41   16   40 1     
   42   17   41 1     
   43   17   42 1     
   44   18   43 1     
   45    4   44 1     
   46    9   45 1     
   47   12   46 1     
   48   12   47 1     
@<TRIPOS>SUBSTRUCTURE
      1 S1             1
@<TRIPOS>SET
LONE_PAIRS      STATIC     ATOMS    <user>   **** ""
4 44 45 46 47
DONOR_HYDROGENS      STATIC     ATOMS    <user>   **** ""
2 29 32
ATOM$BLUE        STATIC     ATOMS    COLORGROUP SYSTEM
4 44 45 46 47
ATOM$RED        STATIC     ATOMS    COLORGROUP SYSTEM
2 29 32
