#       Name:                AV-unprocessed.smi:1007
#       Creating user name   scv26
#       Creation time:       Fri Mar 27 02:35:08 2020


#       File generated by GOLD software.
#

@<TRIPOS>MOLECULE
AV-unprocessed.smi:1007
    62    64     1
SMALL
NO_CHARGES


@<TRIPOS>ATOM
      1 ****        -2.8289   4.8472   3.6935 C.3            1 S1                 0.0000
      2 ****        -2.7719   3.8996   2.6414 O.3            1 S1                 0.0000
      3 ****        -2.2006   2.6675   3.0489 C.3            1 S1                 0.0000
      4 ****        -2.2013   1.7033   1.8527 C.3            1 S1                 0.0000
      5 ****        -1.3723   2.1978   0.7241 N.4            1 S1                 1.0000
      6 ****        -1.7777   1.6041  -0.5745 C.3            1 S1                 0.0000
      7 ****        -0.9709   2.2112  -1.7384 C.3            1 S1                 0.0000
      8 ****         0.4909   2.0579  -1.5324 N.4            1 S1                 1.0000
      9 ****         0.9773   0.6756  -1.7886 C.3            1 S1                 0.0000
     10 ****         2.4801   0.6233  -2.1442 C.3            1 S1                 0.0000
     11 ****         2.6833   1.3040  -3.3655 O.3            1 S1                 0.0000
     12 ****         3.0254  -0.8099  -2.3036 C.3            1 S1                 0.0000
     13 ****         2.8733  -1.5969  -1.0934 N.pl3          1 S1                 0.0000
     14 ****         3.6971  -1.6105  -0.0280 C.2            1 S1                 0.0000
     15 ****         3.3571  -2.3905   0.9936 N.2            1 S1                 0.0000
     16 ****         2.1815  -2.9585   0.5337 C.ar           1 S1                 0.0000
     17 ****         1.3071  -3.8821   1.1468 C.ar           1 S1                 0.0000
     18 ****         0.1392  -4.3239   0.4849 C.ar           1 S1                 0.0000
     19 ****        -0.7734  -5.3177   1.1820 C.3            1 S1                 0.0000
     20 ****        -0.1683  -3.8411  -0.8126 C.ar           1 S1                 0.0000
     21 ****        -1.4166  -4.3026  -1.5438 C.3            1 S1                 0.0000
     22 ****         0.6955  -2.9198  -1.4403 C.ar           1 S1                 0.0000
     23 ****         1.8533  -2.4861  -0.7706 C.ar           1 S1                 0.0000
     24 ****         0.9030   2.6321  -0.2239 C.3            1 S1                 0.0000
     25 ****         0.0892   2.0545   0.9532 C.3            1 S1                 0.0000
     26 ****        -3.2751   5.7727   3.3293 H              1 S1                 0.0000
     27 ****        -1.8317   5.0800   4.0693 H              1 S1                 0.0000
     28 ****        -3.4388   4.4823   4.5211 H              1 S1                 0.0000
     29 ****        -1.1946   2.8190   3.4407 H              1 S1                 0.0000
     30 ****        -2.7957   2.2404   3.8573 H              1 S1                 0.0000
     31 ****        -1.8567   0.7143   2.1583 H              1 S1                 0.0000
     32 ****        -3.2338   1.5793   1.5226 H              1 S1                 0.0000
     33 ****        -1.6469   0.5213  -0.5403 H              1 S1                 0.0000
     34 ****        -2.8395   1.7871  -0.7442 H              1 S1                 0.0000
     35 ****        -1.2711   1.7663  -2.6880 H              1 S1                 0.0000
     36 ****        -1.1967   3.2754  -1.8191 H              1 S1                 0.0000
     37 ****         0.7602   0.0584  -0.9187 H              1 S1                 0.0000
     38 ****         0.4158   0.2348  -2.6137 H              1 S1                 0.0000
     39 ****         3.0707   1.1267  -1.3797 H              1 S1                 0.0000
     40 ****         2.2847   0.8053  -4.0630 H              1 S1                 0.0000
     41 ****         2.5173  -1.3261  -3.1194 H              1 S1                 0.0000
     42 ****         4.0848  -0.7852  -2.5636 H              1 S1                 0.0000
     43 ****         4.5918  -1.0054   0.0035 H              1 S1                 0.0000
     44 ****         1.5416  -4.2506   2.1349 H              1 S1                 0.0000
     45 ****        -0.8833  -6.2223   0.5835 H              1 S1                 0.0000
     46 ****        -1.7610  -4.8841   1.3395 H              1 S1                 0.0000
     47 ****        -0.3767  -5.6084   2.1551 H              1 S1                 0.0000
     48 ****        -1.5138  -3.8134  -2.5133 H              1 S1                 0.0000
     49 ****        -2.3093  -4.0720  -0.9620 H              1 S1                 0.0000
     50 ****        -1.3825  -5.3790  -1.7142 H              1 S1                 0.0000
     51 ****         0.4725  -2.5459  -2.4286 H              1 S1                 0.0000
     52 ****         1.9691   2.4937  -0.0500 H              1 S1                 0.0000
     53 ****         0.7476   3.7109  -0.2679 H              1 S1                 0.0000
     54 ****         0.3787   2.5761   1.8647 H              1 S1                 0.0000
     55 ****         0.3346   1.0032   1.1095 H              1 S1                 0.0000
     56 ****         0.9313   2.6219  -2.2464 H              1 S1                 0.0000
     57 ****        -1.5643   3.1872   0.6505 H              1 S1                 0.0000
     58 ****        -2.2202   4.2784   1.8984 LP             1 S1                 0.0000
     59 ****        -3.7010   3.7290   2.3130 LP             1 S1                 0.0000
     60 ****         3.6637   1.3988  -3.5382 LP             1 S1                 0.0000
     61 ****         2.2639   2.2105  -3.3187 LP             1 S1                 0.0000
     62 ****         3.8271  -2.5302   1.8651 LP             1 S1                 0.0000
@<TRIPOS>BOND
    1    1    2 1     
    2    1   26 1     
    3    1   27 1     
    4    1   28 1     
    5    2    3 1     
    6    3    4 1     
    7    3   29 1     
    8    3   30 1     
    9    4    5 1     
   10    4   31 1     
   11    4   32 1     
   12    5   25 1     
   13    5    6 1     
   14    5   57 1     
   15    6    7 1     
   16    6   33 1     
   17    6   34 1     
   18    7    8 1     
   19    7   35 1     
   20    7   36 1     
   21    8    9 1     
   22    8   24 1     
   23    8   56 1     
   24    9   10 1     
   25    9   37 1     
   26    9   38 1     
   27   10   11 1     
   28   10   12 1     
   29   10   39 1     
   30   11   40 1     
   31   12   13 1     
   32   12   41 1     
   33   12   42 1     
   34   13   23 1     
   35   13   14 1     
   36   14   15 2     
   37   14   43 1     
   38   15   16 1     
   39   16   23 ar    
   40   16   17 ar    
   41   17   18 ar    
   42   17   44 1     
   43   18   19 1     
   44   18   20 ar    
   45   19   45 1     
   46   19   46 1     
   47   19   47 1     
   48   20   21 1     
   49   20   22 ar    
   50   21   48 1     
   51   21   49 1     
   52   21   50 1     
   53   22   23 ar    
   54   22   51 1     
   55   24   25 1     
   56   24   52 1     
   57   24   53 1     
   58   25   54 1     
   59   25   55 1     
   60    2   58 1     
   61    2   59 1     
   62   11   60 1     
   63   11   61 1     
   64   15   62 1     
@<TRIPOS>SUBSTRUCTURE
      1 S1             1
@<TRIPOS>SET
LONE_PAIRS      STATIC     ATOMS    <user>   **** ""
5 58 59 60 61 62
DONOR_HYDROGENS      STATIC     ATOMS    <user>   **** ""
3 57 56 40
ATOM$BLUE        STATIC     ATOMS    COLORGROUP SYSTEM
5 58 59 60 61 62
ATOM$RED        STATIC     ATOMS    COLORGROUP SYSTEM
3 57 56 40
