AV-unprocessed.smi:2760|AV-procd|sdf|10629|dock8
  -GOLD-   2272015 73D 1   1.00000     0.00000
 Structure written by MMmdl.
 32 33  0  0  0  0  0  0  0  0  1 V2000
  149.7636  136.5204  159.2184 O   0  0  0  0  0  0  0  0  0  0  0  0
  150.6539  137.3157  158.9254 C   0  0  0  0  0  0  0  0  0  0  0  0
  150.6324  138.0348  157.6454 C   0  0  0  0  0  0  0  0  0  0  0  0
  151.6201  138.9031  157.3492 C   0  0  0  0  0  0  0  0  0  0  0  0
  151.6830  139.6786  156.0755 C   0  0  0  0  0  0  0  0  0  0  0  0
  150.5779  139.6246  155.0426 C   0  0  0  0  0  0  0  0  0  0  0  0
  151.9251  139.0129  154.7380 C   0  0  0  0  0  0  0  0  0  0  0  0
  152.6505  139.1144  158.2496 N   0  0  0  0  0  0  0  0  0  0  0  0
  152.6535  138.4220  159.4560 C   0  0  0  0  0  0  0  0  0  0  0  0
  154.0958  138.8381  160.4988 S   0  0  0  0  0  0  0  0  0  0  0  0
  154.5610  140.5163  159.9713 C   0  0  0  0  0  0  0  0  0  0  0  0
  153.7989  141.5809  160.7647 C   0  0  0  0  0  0  0  0  0  0  0  0
  153.0493  142.3734  159.8596 O   0  0  0  0  0  0  0  0  0  0  0  0
  152.5727  143.5745  160.4456 C   0  0  0  0  0  0  0  0  0  0  0  0
  151.9424  144.4588  159.3626 C   0  0  0  0  0  0  0  0  0  0  0  0
  150.8785  143.8391  158.8534 F   0  0  0  0  0  0  0  0  0  0  0  0
  151.5510  145.6205  159.8858 F   0  0  0  0  0  0  0  0  0  0  0  0
  152.8181  144.6807  158.3827 F   0  0  0  0  0  0  0  0  0  0  0  0
  151.7267  137.5729  159.7948 N   0  0  0  0  0  0  0  0  0  0  0  0
  153.3715  139.7725  157.9926 H   0  0  0  0  0  0  0  0  0  0  0  0
  149.8251  137.8643  156.9481 H   0  0  0  0  0  0  0  0  0  0  0  0
  152.1537  140.6505  156.2136 H   0  0  0  0  0  0  0  0  0  0  0  0
  149.7453  138.9441  155.2106 H   0  0  0  0  0  0  0  0  0  0  0  0
  150.3222  140.5521  154.5346 H   0  0  0  0  0  0  0  0  0  0  0  0
  152.5644  139.5346  154.0288 H   0  0  0  0  0  0  0  0  0  0  0  0
  151.9849  137.9269  154.7029 H   0  0  0  0  0  0  0  0  0  0  0  0
  154.3489  140.6317  158.9076 H   0  0  0  0  0  0  0  0  0  0  0  0
  155.6336  140.6548  160.1118 H   0  0  0  0  0  0  0  0  0  0  0  0
  153.1331  141.1054  161.4867 H   0  0  0  0  0  0  0  0  0  0  0  0
  154.4987  142.2072  161.3203 H   0  0  0  0  0  0  0  0  0  0  0  0
  151.8332  143.3468  161.2151 H   0  0  0  0  0  0  0  0  0  0  0  0
  153.3941  144.1066  160.9281 H   0  0  0  0  0  0  0  0  0  0  0  0
  1  2  2  0  0  0  0
  2 19  1  0  0  0  0
  2  3  1  0  0  0  0
  3 21  1  0  0  0  0
  3  4  2  0  0  0  0
  4  5  1  0  0  0  0
  4  8  1  0  0  0  0
  5  7  1  0  0  0  0
  5  6  1  0  0  0  0
  5 22  1  0  0  0  0
  6  7  1  0  0  0  0
  6 23  1  0  0  0  0
  6 24  1  0  0  0  0
  7 25  1  0  0  0  0
  7 26  1  0  0  0  0
  8  9  1  0  0  0  0
  8 20  1  0  0  0  0
  9 10  1  0  0  0  0
  9 19  2  0  0  0  0
 10 11  1  0  0  0  0
 11 12  1  0  0  0  0
 11 27  1  0  0  0  0
 11 28  1  0  0  0  0
 12 13  1  0  0  0  0
 12 29  1  0  0  0  0
 12 30  1  0  0  0  0
 13 14  1  0  0  0  0
 14 15  1  0  0  0  0
 14 31  1  0  0  0  0
 14 32  1  0  0  0  0
 15 16  1  0  0  0  0
 15 17  1  0  0  0  0
 15 18  1  0  0  0  0
M  END
> <s_m_source_file>
AV-unprocessed.smi

> <i_m_source_file_index>
2760

> <i_lp_mmshare_version>
43012

> <i_f3d_flags>
0

> <s_epik_input>
W09IXWMxW2NIXWMoW0NIXTJbQ0gyXVtDSDJdMiluYyhuMSlTW0NIMl1bQ0gyXU9bQ0gyXUMoRikoRilG

> <s_epik_cmdline>
J2VwaWtfcHl0aG9uJywgJy1waCcsICc3LjAnLCAnLXRuJywgJzgnLCAnLW1hJywgJzIwMCcsICctbWV0YWxfYmluZGluZycsICctaW1hZScsICc8aW5maWxlLm1hZT4nLCAnLW9tYWUnLCAnPG91dGZpbGUubWFlPic=

> <r_lp_tautomer_probability>
0.273662

> <r_epik_Ionization_Penalty>
0.0792867

> <r_epik_Ionization_Penalty_Charging>
0.0792819

> <r_epik_Ionization_Penalty_Neutral>
4.79647e-06

> <r_epik_State_Penalty>
1.03359

> <r_epik_Charging_Adjusted_Penalty>
1.11287

> <i_epik_Tot_Q>
0

> <i_epik_Tot_abs_Q>
0

> <r_epik_Metal_State_Penalty>
1.68441

> <b_epik_Metal_Only>
0

> <s_lp_Force_Field>
OPLS_2005

> <r_lp_Energy>
16.1148

> <b_lp_Chiralities_Consistent>
1

> <s_lp_Variant>
AV-unprocessed.smi:2760-2

> <Gold.Version>
5.8.1

> <Gold.Id.Protein>
6NUR|6NUR_protein|mol2

> <Gold.PLP.Fitness>
44.6828

> <Gold.PLP.PLP>
-43.5969

> <Gold.PLP.part.hbond>
-1.0000

> <Gold.PLP.part.metal>
0.0000

> <Gold.PLP.part.buried>
-5.0869

> <Gold.PLP.part.nonpolar>
-37.2497

> <Gold.PLP.part.repulsive>
0.0827

> <Gold.PLP.ligand.clash>
0.0000

> <Gold.PLP.ligand.torsion>
1.0591

> <Gold.PLP.Chemscore.Hbond>
1.0000

> <Gold.PLP.Chemscore.CHOScore>
0.0000

> <Gold.PLP.Chemscore.Metal>
0.0000

> <Gold.Chemscore.Hbonds>
donor molecule, donor type, donor heavy atom, donor atom, acceptor molecule, acceptor atom, score
      P1  H  6896  6907       L1     1  0.96

> <Gold.PLP.Chemscore.Internal.Correction>
0.2040

> <Gold.Rescore>
     Score         DG    S(hbond)    S(metal)    S(lipo)     H(rot)  DE(clash)    DE(int)     intcor
     10.44     -11.61       0.96        0.00      81.20       2.57       0.07       1.10       ----

> <Gold.Chemscore.Fitness>
10.4436

> <Gold.Chemscore.DG>
-11.6100

> <Gold.Chemscore.ZeroCoef>
-5.4800

> <Gold.Chemscore.Hbond>
0.9590

> <Gold.Chemscore.Metal>
0.0000

> <Gold.Chemscore.Lipo>
81.2046

> <Gold.Chemscore.Internal_Hbond>
0.0000

> <Gold.Chemscore.DEClash>
0.0710

> <Gold.Chemscore.DEInternal>
1.0954

> <Gold.Chemscore.Rot>
2.5680

> <Gold.Chemscore.Internal.Correction>
   9.000000E+99

> <Gold.Chemscore.Hbonds>
donor molecule, donor type, donor heavy atom, donor atom, acceptor molecule, acceptor atom, score
      P1  H  6896  6907       L1     1  0.36

> <Gold.Chemscore.Hbond.Weighted>
-3.2032

> <Gold.Chemscore.Metal.Weighted>
-0.0000

> <Gold.Chemscore.Lipo.Weighted>
-9.5009

> <Gold.Chemscore.Internal_Hbond.Weighted>
0.0000

> <Gold.Chemscore.DEClash.Weighted>
0.0710

> <Gold.Chemscore.DEInternal.Weighted>
1.0954

> <Gold.Chemscore.Rot.Weighted>
6.5741

> <Gold.Chemscore.Internal.Correction.Weighted>
   9.000000E+99

> <Gold.Protein.RotatedTorsions>
[ 6907 6896 6895 6894 ] final  -54.93 input  -60.11 | X-H torsion
[ 7974 7965 7964 7962 ] final   57.22 input  175.53 | X-H torsion
[ 8008 7997 7996 7995 ] final -148.50 input   59.86 | X-H torsion
[ 10167 10162 10161 10158 ] final   15.67 input  -65.29 | X-H torsion
[ 10718 10713 10712 10709 ] final  -66.14 input   66.30 | X-H torsion
[ 10763 10752 10751 10750 ] final  143.06 input  -60.55 | X-H torsion
[ 11005 11000 10999 10996 ] final   -2.99 input  -57.11 | X-H torsion

> <Gold.Protein.ActiveResidues>
 VAL166  LYS551  ARG553  GLY616  TRP617  ASP618  TYR619  PRO620  LYS621  CYS622 
 ASP623  PHE694  ASN695  SER759  ASP760  ASP761  ALA762  ILE779  LEU786  VAL792 
 PHE793  MET794  SER795  GLU796  ALA797  LYS798  CYS799  TRP800  GLU811  SER814 

> <Gold.Protein.RotatedAtoms>
  150.8295  134.7541  159.6841 H   0  0  0  0  0  0  0  0  0  0  0  0  # atno 6907 bound_to 6896
  152.4401  134.5604  159.9902 H   0  0  0  0  0  0  0  0  0  0  0  0  # atno 6908 bound_to 6896
  151.5768  133.3345  159.3036 H   0  0  0  0  0  0  0  0  0  0  0  0  # atno 6909 bound_to 6896
  145.9314  139.3811  143.0419 H   0  0  0  0  0  0  0  0  0  0  0  0  # atno 7974 bound_to 7965
  155.5926  140.0654  157.2754 H   0  0  0  0  0  0  0  0  0  0  0  0  # atno 8008 bound_to 7997
  154.4301  140.1832  156.1137 H   0  0  0  0  0  0  0  0  0  0  0  0  # atno 8009 bound_to 7997
  156.0221  140.3315  155.7053 H   0  0  0  0  0  0  0  0  0  0  0  0  # atno 8010 bound_to 7997
  140.5851  143.8906  150.6823 H   0  0  0  0  0  0  0  0  0  0  0  0  # atno 10167 bound_to 10162
  156.0629  130.4257  150.1666 H   0  0  0  0  0  0  0  0  0  0  0  0  # atno 10718 bound_to 10713
  153.9661  135.2955  155.3430 H   0  0  0  0  0  0  0  0  0  0  0  0  # atno 10763 bound_to 10752
  154.7348  135.5051  153.9026 H   0  0  0  0  0  0  0  0  0  0  0  0  # atno 10764 bound_to 10752
  153.0923  135.6711  153.9942 H   0  0  0  0  0  0  0  0  0  0  0  0  # atno 10765 bound_to 10752
  140.6644  133.9291  155.8456 H   0  0  0  0  0  0  0  0  0  0  0  0  # atno 11005 bound_to 11000
  145.8421  140.9575  143.0794 LP  0  0  0  0  0  0  0  0  0  0  0  0  # atno 17320 bound_to 7965
  144.6765  140.0297  143.7483 LP  0  0  0  0  0  0  0  0  0  0  0  0  # atno 17321 bound_to 7965
  140.2415  143.3660  152.1483 LP  0  0  0  0  0  0  0  0  0  0  0  0  # atno 17342 bound_to 10162
  139.5192  144.7017  151.5474 LP  0  0  0  0  0  0  0  0  0  0  0  0  # atno 17343 bound_to 10162
  156.9731  130.9841  151.3454 LP  0  0  0  0  0  0  0  0  0  0  0  0  # atno 17370 bound_to 10713
  157.5651  130.8272  149.8316 LP  0  0  0  0  0  0  0  0  0  0  0  0  # atno 17371 bound_to 10713
  141.0440  134.0580  157.3867 LP  0  0  0  0  0  0  0  0  0  0  0  0  # atno 17394 bound_to 11000
  139.9002  135.0161  156.7231 LP  0  0  0  0  0  0  0  0  0  0  0  0  # atno 17395 bound_to 11000

$$$$
