#       Name:                AV-unprocessed.smi:1627
#       Creating user name   scv26
#       Creation time:       Fri Mar 27 07:19:17 2020


#       File generated by GOLD software.
#

@<TRIPOS>MOLECULE
AV-unprocessed.smi:1627
    49    50     1
SMALL
NO_CHARGES


@<TRIPOS>ATOM
      1 ****         1.2117  -4.8521  -2.8344 C.3            1 S1                 0.0000
      2 ****         1.8266  -3.9605  -1.7456 C.3            1 S1                 0.0000
      3 ****         3.2217  -3.8573  -2.0164 O.3            1 S1                 0.0000
      4 ****         4.0161  -3.3461  -0.9511 C.3            1 S1                 0.0000
      5 ****         5.4895  -3.3371  -1.3758 C.3            1 S1                 0.0000
      6 ****         6.2346  -2.8905  -0.3654 F              1 S1                 0.0000
      7 ****         5.8878  -4.5699  -1.6887 F              1 S1                 0.0000
      8 ****         5.6608  -2.5308  -2.4229 F              1 S1                 0.0000
      9 ****         1.1815  -2.5650  -1.7400 C.2            1 S1                 0.0000
     10 ****         1.1770  -1.8930  -2.7710 O.2            1 S1                 0.0000
     11 ****         0.6855  -2.1518  -0.5588 N.am           1 S1                 0.0000
     12 ****         0.0384  -0.9242  -0.2523 C.ar           1 S1                 0.0000
     13 ****        -0.6270  -0.1183  -1.2081 C.ar           1 S1                 0.0000
     14 ****        -1.2532   1.0759  -0.7959 C.ar           1 S1                 0.0000
     15 ****        -1.2235   1.4577   0.5667 C.ar           1 S1                 0.0000
     16 ****        -1.8332   2.6429   1.0330 N.3            1 S1                 0.0000
     17 ****        -3.2133   2.8638   0.5946 C.3            1 S1                 0.0000
     18 ****        -3.6322   4.3310   0.7911 C.3            1 S1                 0.0000
     19 ****        -3.3917   4.7863   2.2377 C.3            1 S1                 0.0000
     20 ****        -1.9274   4.5401   2.6274 C.3            1 S1                 0.0000
     21 ****        -1.5337   3.0700   2.4026 C.3            1 S1                 0.0000
     22 ****        -0.5819   0.6464   1.4438 N.pl3          1 S1                 1.0000
     23 ****         0.0293  -0.5057   1.0934 C.ar           1 S1                 0.0000
     24 ****         0.1359  -4.9648  -2.6950 H              1 S1                 0.0000
     25 ****         1.6522  -5.8490  -2.8105 H              1 S1                 0.0000
     26 ****         1.3800  -4.4433  -3.8315 H              1 S1                 0.0000
     27 ****         1.6774  -4.4469  -0.7796 H              1 S1                 0.0000
     28 ****         3.7099  -2.3342  -0.6836 H              1 S1                 0.0000
     29 ****         3.8912  -3.9696  -0.0645 H              1 S1                 0.0000
     30 ****         0.8423  -2.7690   0.2250 H              1 S1                 0.0000
     31 ****        -0.6795  -0.3956  -2.2495 H              1 S1                 0.0000
     32 ****        -1.7404   1.6918  -1.5370 H              1 S1                 0.0000
     33 ****        -3.3549   2.5973  -0.4516 H              1 S1                 0.0000
     34 ****        -3.8688   2.2114   1.1732 H              1 S1                 0.0000
     35 ****        -3.0648   4.9665   0.1098 H              1 S1                 0.0000
     36 ****        -4.6830   4.4571   0.5288 H              1 S1                 0.0000
     37 ****        -3.6387   5.8428   2.3465 H              1 S1                 0.0000
     38 ****        -4.0508   4.2386   2.9127 H              1 S1                 0.0000
     39 ****        -1.2792   5.1859   2.0334 H              1 S1                 0.0000
     40 ****        -1.7657   4.8147   3.6702 H              1 S1                 0.0000
     41 ****        -2.0716   2.4285   3.1020 H              1 S1                 0.0000
     42 ****        -0.4692   2.9558   2.6110 H              1 S1                 0.0000
     43 ****         0.4969  -1.0515   1.9001 H              1 S1                 0.0000
     44 ****        -0.5625   0.9198   2.4264 H              1 S1                 0.0000
     45 ****         3.3387  -3.2538  -2.8052 LP             1 S1                 0.0000
     46 ****         3.5602  -4.7707  -2.2424 LP             1 S1                 0.0000
     47 ****         1.5913  -2.2554  -3.6059 LP             1 S1                 0.0000
     48 ****         0.7590  -0.9845  -2.7739 LP             1 S1                 0.0000
     49 ****        -1.3117   3.3197   0.5133 LP             1 S1                 0.0000
@<TRIPOS>BOND
    1    1    2 1     
    2    1   24 1     
    3    1   25 1     
    4    1   26 1     
    5    2    3 1     
    6    2    9 1     
    7    2   27 1     
    8    3    4 1     
    9    4    5 1     
   10    4   28 1     
   11    4   29 1     
   12    5    6 1     
   13    5    7 1     
   14    5    8 1     
   15    9   10 2     
   16    9   11 am    
   17   11   12 1     
   18   11   30 1     
   19   12   23 ar    
   20   12   13 ar    
   21   13   14 ar    
   22   13   31 1     
   23   14   15 ar    
   24   14   32 1     
   25   15   16 1     
   26   15   22 ar    
   27   16   21 1     
   28   16   17 1     
   29   17   18 1     
   30   17   33 1     
   31   17   34 1     
   32   18   19 1     
   33   18   35 1     
   34   18   36 1     
   35   19   20 1     
   36   19   37 1     
   37   19   38 1     
   38   20   21 1     
   39   20   39 1     
   40   20   40 1     
   41   21   41 1     
   42   21   42 1     
   43   22   23 ar    
   44   22   44 1     
   45   23   43 1     
   46    3   45 1     
   47    3   46 1     
   48   10   47 1     
   49   10   48 1     
   50   16   49 1     
@<TRIPOS>SUBSTRUCTURE
      1 S1             1
@<TRIPOS>SET
LONE_PAIRS      STATIC     ATOMS    <user>   **** ""
5 45 46 47 48 49
DONOR_HYDROGENS      STATIC     ATOMS    <user>   **** ""
2 30 44
ATOM$BLUE        STATIC     ATOMS    COLORGROUP SYSTEM
5 45 46 47 48 49
ATOM$RED        STATIC     ATOMS    COLORGROUP SYSTEM
2 30 44
