AV-unprocessed.smi:1626|AV-procd|sdf|6514|dock5
  -GOLD-   22720 7183D 1   1.00000     0.00000
 Structure written by MMmdl.
 47 49  0  0  0  0  0  0  0  0  1 V2000
  153.7411  142.3315  160.6519 C   0  0  0  0  0  0  0  0  0  0  0  0
  152.8105  142.1910  159.4600 C   0  0  0  0  0  0  0  0  0  0  0  0
  152.6887  140.9326  158.8279 C   0  0  0  0  0  0  0  0  0  0  0  0
  151.8302  140.7582  157.7203 C   0  0  0  0  0  0  0  0  0  0  0  0
  151.5569  139.6333  156.9603 N   0  0  0  0  0  0  0  0  0  0  0  0
  150.6760  140.1089  156.0842 C   0  0  0  0  0  0  0  0  0  0  0  0
  150.3471  141.4109  156.1872 N   0  0  0  0  0  0  0  0  0  0  0  0
  149.4118  142.1546  155.3644 C   0  0  0  0  0  0  0  0  0  0  0  0
  148.6645  141.2427  154.3712 C   0  0  2  0  0  0  0  0  0  0  0  0
  149.5698  140.7973  153.3815 O   0  0  0  0  0  0  0  0  0  0  0  0
  147.4977  141.9581  153.6615 C   0  0  0  0  0  0  0  0  0  0  0  0
  146.5973  142.7174  154.5318 N   0  0  0  0  0  0  0  0  0  0  0  0
  145.7692  141.8498  155.3771 C   0  0  0  0  0  0  0  0  0  0  0  0
  144.8551  142.6442  156.3259 C   0  0  0  0  0  0  0  0  0  0  0  0
  143.9617  143.6067  155.5280 C   0  0  0  0  0  0  0  0  0  0  0  0
  143.2170  144.4201  156.4101 O   0  0  0  0  0  0  0  0  0  0  0  0
  144.8286  144.4822  154.6095 C   0  0  0  0  0  0  0  0  0  0  0  0
  145.7397  143.6003  153.7388 C   0  0  0  0  0  0  0  0  0  0  0  0
  151.0921  141.8869  157.2592 C   0  0  0  0  0  0  0  0  0  0  0  0
  151.2075  143.1448  157.8758 C   0  0  0  0  0  0  0  0  0  0  0  0
  152.0704  143.3018  158.9805 C   0  0  0  0  0  0  0  0  0  0  0  0
  152.1879  144.6650  159.6387 C   0  0  0  0  0  0  0  0  0  0  0  0
  154.1580  141.3681  160.9469 H   0  0  0  0  0  0  0  0  0  0  0  0
  153.2074  142.7394  161.5107 H   0  0  0  0  0  0  0  0  0  0  0  0
  154.5702  142.9970  160.4103 H   0  0  0  0  0  0  0  0  0  0  0  0
  153.2544  140.0873  159.1909 H   0  0  0  0  0  0  0  0  0  0  0  0
  150.2399  139.4733  155.3273 H   0  0  0  0  0  0  0  0  0  0  0  0
  148.7049  142.6507  156.0308 H   0  0  0  0  0  0  0  0  0  0  0  0
  149.9500  142.9445  154.8384 H   0  0  0  0  0  0  0  0  0  0  0  0
  148.3048  140.3524  154.8861 H   0  0  0  0  0  0  0  0  0  0  0  0
  149.1063  140.2317  152.7834 H   0  0  0  0  0  0  0  0  0  0  0  0
  147.9241  142.6323  152.9173 H   0  0  0  0  0  0  0  0  0  0  0  0
  146.9161  141.2258  153.0989 H   0  0  0  0  0  0  0  0  0  0  0  0
  145.1630  141.1924  154.7519 H   0  0  0  0  0  0  0  0  0  0  0  0
  146.3980  141.2032  155.9869 H   0  0  0  0  0  0  0  0  0  0  0  0
  144.2429  141.9601  156.9144 H   0  0  0  0  0  0  0  0  0  0  0  0
  145.4690  143.2024  157.0344 H   0  0  0  0  0  0  0  0  0  0  0  0
  143.2600  143.0312  154.9225 H   0  0  0  0  0  0  0  0  0  0  0  0
  142.3276  144.1013  156.4335 H   0  0  0  0  0  0  0  0  0  0  0  0
  144.1977  145.1075  153.9766 H   0  0  0  0  0  0  0  0  0  0  0  0
  145.4431  145.1583  155.2062 H   0  0  0  0  0  0  0  0  0  0  0  0
  146.3575  144.2472  153.1146 H   0  0  0  0  0  0  0  0  0  0  0  0
  145.1279  143.0073  153.0568 H   0  0  0  0  0  0  0  0  0  0  0  0
  150.6350  143.9806  157.5012 H   0  0  0  0  0  0  0  0  0  0  0  0
  151.6259  145.4211  159.0896 H   0  0  0  0  0  0  0  0  0  0  0  0
  153.2293  144.9857  159.6750 H   0  0  0  0  0  0  0  0  0  0  0  0
  151.7992  144.6306  160.6567 H   0  0  0  0  0  0  0  0  0  0  0  0
  1  2  1  0  0  0  0
  1 23  1  0  0  0  0
  1 24  1  0  0  0  0
  1 25  1  0  0  0  0
  2 21  1  0  0  0  0
  2  3  2  0  0  0  0
  3  4  1  0  0  0  0
  3 26  1  0  0  0  0
  4 19  2  0  0  0  0
  4  5  1  0  0  0  0
  5  6  2  0  0  0  0
  6  7  1  0  0  0  0
  6 27  1  0  0  0  0
  7  8  1  0  0  0  0
  7 19  1  0  0  0  0
  8  9  1  0  0  0  0
  8 28  1  0  0  0  0
  8 29  1  0  0  0  0
  9 10  1  0  0  0  0
  9 11  1  0  0  0  0
  9 30  1  0  0  0  0
 10 31  1  0  0  0  0
 11 12  1  0  0  0  0
 11 32  1  0  0  0  0
 11 33  1  0  0  0  0
 12 18  1  0  0  0  0
 12 13  1  0  0  0  0
 13 14  1  0  0  0  0
 13 34  1  0  0  0  0
 13 35  1  0  0  0  0
 14 15  1  0  0  0  0
 14 36  1  0  0  0  0
 14 37  1  0  0  0  0
 15 16  1  0  0  0  0
 15 17  1  0  0  0  0
 15 38  1  0  0  0  0
 16 39  1  0  0  0  0
 17 18  1  0  0  0  0
 17 40  1  0  0  0  0
 17 41  1  0  0  0  0
 18 42  1  0  0  0  0
 18 43  1  0  0  0  0
 19 20  1  0  0  0  0
 20 21  2  0  0  0  0
 20 44  1  0  0  0  0
 21 22  1  0  0  0  0
 22 45  1  0  0  0  0
 22 46  1  0  0  0  0
 22 47  1  0  0  0  0
M  END
> <s_m_source_file>
AV-unprocessed.smi

> <i_m_source_file_index>
1626

> <i_lp_mmshare_version>
43012

> <i_f3d_flags>
0

> <s_epik_input>
W0NIM11jKFtjSF0xKWMoW0NIM10pW2NIXWMoYzEyKW4oW2NIXW4yKVtDSDJdW0NASF0oW09IXSlbQ0gyXU4zW0NIMl1bQ0gyXVtDSF0oW09IXSlbQ0gyXVtDSDJdMw==

> <s_epik_cmdline>
J2VwaWtfcHl0aG9uJywgJy1waCcsICc3LjAnLCAnLXRuJywgJzgnLCAnLW1hJywgJzIwMCcsICctbWV0YWxfYmluZGluZycsICctaW1hZScsICc8aW5maWxlLm1hZT4nLCAnLW9tYWUnLCAnPG91dGZpbGUubWFlPic=

> <r_epik_Ionization_Penalty>
2.14395

> <r_epik_Ionization_Penalty_Charging>
0

> <r_epik_Ionization_Penalty_Neutral>
2.14395

> <r_epik_State_Penalty>
2.24477

> <r_epik_Charging_Adjusted_Penalty>
2.24477

> <i_epik_Tot_Q>
0

> <i_epik_Tot_abs_Q>
0

> <r_epik_Metal_State_Penalty>
2.17429

> <b_epik_Metal_Only>
0

> <s_lp_Force_Field>
OPLS_2005

> <r_lp_Energy>
28.7152

> <b_lp_Chiralities_Consistent>
1

> <s_lp_Variant>
AV-unprocessed.smi:1626-9

> <Gold.Version>
5.8.1

> <Gold.Id.Protein>
6NUR|6NUR_protein|mol2

> <Gold.PLP.Fitness>
51.2138

> <Gold.PLP.PLP>
-46.2662

> <Gold.PLP.part.hbond>
-2.3953

> <Gold.PLP.part.metal>
0.0000

> <Gold.PLP.part.buried>
-4.8074

> <Gold.PLP.part.nonpolar>
-39.5869

> <Gold.PLP.part.repulsive>
0.1846

> <Gold.PLP.ligand.clash>
0.0000

> <Gold.PLP.ligand.torsion>
0.2331

> <Gold.PLP.Chemscore.Hbond>
1.7840

> <Gold.PLP.Chemscore.CHOScore>
0.0000

> <Gold.PLP.Chemscore.Metal>
0.0000

> <Gold.Chemscore.Hbonds>
donor molecule, donor type, donor heavy atom, donor atom, acceptor molecule, acceptor atom, score
      L1  H    10    31       P1  7957  0.43
      P1  H  7989  7998       L1    10  0.30
      P1  H  8011  8017       L1    10  1.00

> <Gold.PLP.Chemscore.Internal.Correction>
0.0618

> <Gold.Rescore>
     Score         DG    S(hbond)    S(metal)    S(lipo)     H(rot)  DE(clash)    DE(int)     intcor
     14.74     -17.06       1.23        0.00     120.71       2.59       2.10       0.22       ----

> <Gold.Chemscore.Fitness>
14.7437

> <Gold.Chemscore.DG>
-17.0648

> <Gold.Chemscore.ZeroCoef>
-5.4800

> <Gold.Chemscore.Hbond>
1.2286

> <Gold.Chemscore.Metal>
0.0000

> <Gold.Chemscore.Lipo>
120.7142

> <Gold.Chemscore.Internal_Hbond>
0.0000

> <Gold.Chemscore.DEClash>
2.1003

> <Gold.Chemscore.DEInternal>
0.2208

> <Gold.Chemscore.Rot>
2.5947

> <Gold.Chemscore.Internal.Correction>
   9.000000E+99

> <Gold.Chemscore.Hbonds>
donor molecule, donor type, donor heavy atom, donor atom, acceptor molecule, acceptor atom, score
      L1  H    10    31       P1  7957  0.44
      P1  H  7989  7998       L1    10  0.28
      P1  H  8011  8017       L1    10  0.12

> <Gold.Chemscore.Hbond.Weighted>
-4.1037

> <Gold.Chemscore.Metal.Weighted>
-0.0000

> <Gold.Chemscore.Lipo.Weighted>
-14.1236

> <Gold.Chemscore.Internal_Hbond.Weighted>
0.0000

> <Gold.Chemscore.DEClash.Weighted>
2.1003

> <Gold.Chemscore.DEInternal.Weighted>
0.2208

> <Gold.Chemscore.Rot.Weighted>
6.6424

> <Gold.Chemscore.Internal.Correction.Weighted>
   9.000000E+99

> <Gold.Protein.RotatedTorsions>
[ 6907 6896 6895 6894 ] final  -20.03 input  -60.11 | X-H torsion
[ 7974 7965 7964 7962 ] final  -39.36 input  175.53 | X-H torsion
[ 8008 7997 7996 7995 ] final -175.47 input   59.86 | X-H torsion
[ 10167 10162 10161 10158 ] final  -82.30 input  -65.29 | X-H torsion
[ 10718 10713 10712 10709 ] final   40.14 input   66.30 | X-H torsion
[ 10763 10752 10751 10750 ] final  110.70 input  -60.55 | X-H torsion
[ 11005 11000 10999 10996 ] final   84.05 input  -57.11 | X-H torsion

> <Gold.Protein.ActiveResidues>
 VAL166  LYS551  ARG553  GLY616  TRP617  ASP618  TYR619  PRO620  LYS621  CYS622 
 ASP623  PHE694  ASN695  SER759  ASP760  ASP761  ALA762  ILE779  LEU786  VAL792 
 PHE793  MET794  SER795  GLU796  ALA797  LYS798  CYS799  TRP800  GLU811  SER814 

> <Gold.Protein.RotatedAtoms>
  151.2542  135.0632  159.9073 H   0  0  0  0  0  0  0  0  0  0  0  0  # atno 6907 bound_to 6896
  152.5375  134.0300  159.8030 H   0  0  0  0  0  0  0  0  0  0  0  0  # atno 6908 bound_to 6896
  151.0512  133.5573  159.2673 H   0  0  0  0  0  0  0  0  0  0  0  0  # atno 6909 bound_to 6896
  146.0404  140.6616  142.9090 H   0  0  0  0  0  0  0  0  0  0  0  0  # atno 7974 bound_to 7965
  155.9830  140.1185  157.0709 H   0  0  0  0  0  0  0  0  0  0  0  0  # atno 8008 bound_to 7997
  154.4188  140.1141  156.5529 H   0  0  0  0  0  0  0  0  0  0  0  0  # atno 8009 bound_to 7997
  155.6446  140.3473  155.4729 H   0  0  0  0  0  0  0  0  0  0  0  0  # atno 8010 bound_to 7997
  140.4333  143.2541  151.8729 H   0  0  0  0  0  0  0  0  0  0  0  0  # atno 10167 bound_to 10162
  157.3788  130.7742  149.7176 H   0  0  0  0  0  0  0  0  0  0  0  0  # atno 10718 bound_to 10713
  153.4528  135.3740  155.2293 H   0  0  0  0  0  0  0  0  0  0  0  0  # atno 10763 bound_to 10752
  154.8756  135.3890  154.4018 H   0  0  0  0  0  0  0  0  0  0  0  0  # atno 10764 bound_to 10752
  153.4580  135.7086  153.6132 H   0  0  0  0  0  0  0  0  0  0  0  0  # atno 10765 bound_to 10752
  139.9012  134.8189  156.2393 H   0  0  0  0  0  0  0  0  0  0  0  0  # atno 11005 bound_to 11000
  144.7071  140.3897  143.7109 LP  0  0  0  0  0  0  0  0  0  0  0  0  # atno 17320 bound_to 7965
  145.6894  139.1636  143.2655 LP  0  0  0  0  0  0  0  0  0  0  0  0  # atno 17321 bound_to 7965
  139.4786  144.5311  151.8665 LP  0  0  0  0  0  0  0  0  0  0  0  0  # atno 17342 bound_to 10162
  140.4403  144.1996  150.5891 LP  0  0  0  0  0  0  0  0  0  0  0  0  # atno 17343 bound_to 10162
  155.9771  130.4067  150.3735 LP  0  0  0  0  0  0  0  0  0  0  0  0  # atno 17370 bound_to 10713
  157.1836  131.0398  151.2736 LP  0  0  0  0  0  0  0  0  0  0  0  0  # atno 17371 bound_to 10713
  141.0295  133.6996  156.1406 LP  0  0  0  0  0  0  0  0  0  0  0  0  # atno 17394 bound_to 11000
  140.7117  134.4454  157.5581 LP  0  0  0  0  0  0  0  0  0  0  0  0  # atno 17395 bound_to 11000

$$$$
