AV-unprocessed.smi:2206|AV-procd|sdf|8943|dock4
  -GOLD-   2272012163D 1   1.00000     0.00000
 Structure written by MMmdl.
 25 26  0  0  0  0  0  0  0  0  3 V2000
  149.4321  135.6873  158.8101 O   0  0  0  0  0  0  0  0  0  0  0  0
  149.0118  136.6680  159.4630 C   0  0  0  0  0  0  0  0  0  0  0  0
  148.7735  136.6736  160.6912 O   0  5  0  0  0  0  0  0  0  0  0  0
  148.7829  137.9763  158.7013 C   0  0  0  0  0  0  0  0  0  0  0  0
  150.0967  138.4389  158.1350 C   0  0  0  0  0  0  0  0  0  0  0  0
  150.5002  138.3861  156.8247 C   0  0  0  0  0  0  0  0  0  0  0  0
  152.0979  139.0417  156.6127 S   0  0  0  0  0  0  0  0  0  0  0  0
  152.1739  139.3857  158.3411 C   0  0  0  0  0  0  0  0  0  0  0  0
  153.2238  139.9525  158.9648 N   0  5  0  0  0  0  0  0  0  0  0  0
  153.1085  141.0865  159.7060 C   0  0  0  0  0  0  0  0  0  0  0  0
  153.6673  141.2396  160.7917 O   0  0  0  0  0  0  0  0  0  0  0  0
  152.3439  142.0814  159.2158 N   0  0  0  0  0  0  0  0  0  0  0  0
  152.1014  143.3486  159.8268 C   0  0  0  0  0  0  0  0  0  0  0  0
  151.0623  144.2461  159.1908 C   0  0  0  0  0  0  0  0  0  0  0  0
  152.5217  144.5831  159.0591 C   0  0  0  0  0  0  0  0  0  0  0  0
  151.0517  139.0232  158.9735 N   0  0  0  0  0  0  0  0  0  0  0  0
  148.0532  137.8204  157.9060 H   0  0  0  0  0  0  0  0  0  0  0  0
  148.3580  138.7180  159.3790 H   0  0  0  0  0  0  0  0  0  0  0  0
  149.9570  137.9949  155.9777 H   0  0  0  0  0  0  0  0  0  0  0  0
  151.9084  141.9242  158.3182 H   0  0  0  0  0  0  0  0  0  0  0  0
  152.1887  143.4101  160.9104 H   0  0  0  0  0  0  0  0  0  0  0  0
  150.5496  143.8800  158.3032 H   0  0  0  0  0  0  0  0  0  0  0  0
  150.4612  144.8645  159.8541 H   0  0  0  0  0  0  0  0  0  0  0  0
  152.8975  145.4267  159.6342 H   0  0  0  0  0  0  0  0  0  0  0  0
  152.9829  144.4423  158.0832 H   0  0  0  0  0  0  0  0  0  0  0  0
  1  2  2  0  0  0  0
  2  3  1  0  0  0  0
  2  4  1  0  0  0  0
  4  5  1  0  0  0  0
  4 17  1  0  0  0  0
  4 18  1  0  0  0  0
  5 16  1  0  0  0  0
  5  6  2  0  0  0  0
  6  7  1  0  0  0  0
  6 19  1  0  0  0  0
  7  8  1  0  0  0  0
  8  9  1  0  0  0  0
  8 16  2  0  0  0  0
  9 10  1  0  0  0  0
 10 11  2  0  0  0  0
 10 12  1  0  0  0  0
 12 13  1  0  0  0  0
 12 20  1  0  0  0  0
 13 15  1  0  0  0  0
 13 14  1  0  0  0  0
 13 21  1  0  0  0  0
 14 15  1  0  0  0  0
 14 22  1  0  0  0  0
 14 23  1  0  0  0  0
 15 24  1  0  0  0  0
 15 25  1  0  0  0  0
M  CHG  1   3  -1
M  CHG  1   9  -1
M  END
> <s_m_source_file>
AV-unprocessed.smi

> <i_m_source_file_index>
2206

> <i_lp_mmshare_version>
43012

> <i_f3d_flags>
0

> <s_epik_input>
Tz1DKFtPSF0pW0NIMl1jMVtjSF1zYyhuMSlbTkhdQyg9TylbTkhdW0NIXTJbQ0gyXVtDSDJdMg==

> <s_epik_cmdline>
J2VwaWtfcHl0aG9uJywgJy1waCcsICc3LjAnLCAnLXRuJywgJzgnLCAnLW1hJywgJzIwMCcsICctbWV0YWxfYmluZGluZycsICctaW1hZScsICc8aW5maWxlLm1hZT4nLCAnLW9tYWUnLCAnPG91dGZpbGUubWFlPic=

> <r_lp_tautomer_probability>
0.999

> <r_epik_Ionization_Penalty>
7.78494

> <r_epik_Ionization_Penalty_Charging>
6.1535

> <r_epik_Ionization_Penalty_Neutral>
1.63144

> <r_epik_State_Penalty>
6.15322

> <r_epik_Charging_Adjusted_Penalty>
12.3067

> <i_epik_Tot_Q>
-2

> <i_epik_Tot_abs_Q>
2

> <r_epik_Metal_State_Penalty>
2.09572

> <b_epik_Metal_Only>
1

> <s_lp_Force_Field>
OPLS_2005

> <r_lp_Energy>
21.0072

> <b_lp_Chiralities_Consistent>
1

> <s_lp_Variant>
AV-unprocessed.smi:2206-2

> <Gold.Version>
5.8.1

> <Gold.Id.Protein>
6NUR|6NUR_protein|mol2

> <Gold.PLP.Fitness>
42.1977

> <Gold.PLP.PLP>
-27.4708

> <Gold.PLP.part.hbond>
-3.0818

> <Gold.PLP.part.metal>
0.0000

> <Gold.PLP.part.buried>
-4.8367

> <Gold.PLP.part.nonpolar>
-19.8082

> <Gold.PLP.part.repulsive>
0.0748

> <Gold.PLP.ligand.clash>
0.0000

> <Gold.PLP.ligand.torsion>
1.0765

> <Gold.PLP.Chemscore.Hbond>
5.6000

> <Gold.PLP.Chemscore.CHOScore>
0.0000

> <Gold.PLP.Chemscore.Metal>
0.0000

> <Gold.Chemscore.Hbonds>
donor molecule, donor type, donor heavy atom, donor atom, acceptor molecule, acceptor atom, score
      P1  H  6896  6909       L1     1  2.00
      P1  H  6931  6943       L1     3  1.89
      P1  H  7997  8010       L1     9  0.37

> <Gold.PLP.Chemscore.Internal.Correction>
0.0799

> <Gold.Rescore>
     Score         DG    S(hbond)    S(metal)    S(lipo)     H(rot)  DE(clash)    DE(int)     intcor
     14.22     -15.19       2.58        0.00      51.33       1.92       0.05       0.93       ----

> <Gold.Chemscore.Fitness>
14.2171

> <Gold.Chemscore.DG>
-15.1907

> <Gold.Chemscore.ZeroCoef>
-5.4800

> <Gold.Chemscore.Hbond>
2.5847

> <Gold.Chemscore.Metal>
0.0000

> <Gold.Chemscore.Lipo>
51.3309

> <Gold.Chemscore.Internal_Hbond>
0.0000

> <Gold.Chemscore.DEClash>
0.0456

> <Gold.Chemscore.DEInternal>
0.9280

> <Gold.Chemscore.Rot>
1.9249

> <Gold.Chemscore.Internal.Correction>
   9.000000E+99

> <Gold.Chemscore.Hbonds>
donor molecule, donor type, donor heavy atom, donor atom, acceptor molecule, acceptor atom, score
      P1  H  6896  6909       L1     1  0.98
      P1  H  6931  6943       L1     3  0.88
      P1  H  7997  8010       L1     9  0.04

> <Gold.Chemscore.Hbond.Weighted>
-8.6329

> <Gold.Chemscore.Metal.Weighted>
-0.0000

> <Gold.Chemscore.Lipo.Weighted>
-6.0057

> <Gold.Chemscore.Internal_Hbond.Weighted>
0.0000

> <Gold.Chemscore.DEClash.Weighted>
0.0456

> <Gold.Chemscore.DEInternal.Weighted>
0.9280

> <Gold.Chemscore.Rot.Weighted>
4.9279

> <Gold.Chemscore.Internal.Correction.Weighted>
   9.000000E+99

> <Gold.Protein.RotatedTorsions>
[ 6907 6896 6895 6894 ] final   46.98 input  -60.11 | X-H torsion
[ 7974 7965 7964 7962 ] final   52.49 input  175.53 | X-H torsion
[ 8008 7997 7996 7995 ] final   24.32 input   59.86 | X-H torsion
[ 10167 10162 10161 10158 ] final    1.22 input  -65.29 | X-H torsion
[ 10718 10713 10712 10709 ] final  -95.24 input   66.30 | X-H torsion
[ 10763 10752 10751 10750 ] final -107.38 input  -60.55 | X-H torsion
[ 11005 11000 10999 10996 ] final   -3.64 input  -57.11 | X-H torsion

> <Gold.Protein.ActiveResidues>
 VAL166  LYS551  ARG553  GLY616  TRP617  ASP618  TYR619  PRO620  LYS621  CYS622 
 ASP623  PHE694  ASN695  SER759  ASP760  ASP761  ALA762  ILE779  LEU786  VAL792 
 PHE793  MET794  SER795  GLU796  ALA797  LYS798  CYS799  TRP800  GLU811  SER814 

> <Gold.Protein.RotatedAtoms>
  152.2627  134.8017  160.0427 H   0  0  0  0  0  0  0  0  0  0  0  0  # atno 6907 bound_to 6896
  151.8657  133.3460  159.3726 H   0  0  0  0  0  0  0  0  0  0  0  0  # atno 6908 bound_to 6896
  150.7122  134.5089  159.5642 H   0  0  0  0  0  0  0  0  0  0  0  0  # atno 6909 bound_to 6896
  145.9807  139.4240  143.0133 H   0  0  0  0  0  0  0  0  0  0  0  0  # atno 7974 bound_to 7965
  154.9945  140.3117  155.4893 H   0  0  0  0  0  0  0  0  0  0  0  0  # atno 8008 bound_to 7997
  156.2935  140.2243  156.4991 H   0  0  0  0  0  0  0  0  0  0  0  0  # atno 8009 bound_to 7997
  154.7674  140.0455  157.1011 H   0  0  0  0  0  0  0  0  0  0  0  0  # atno 8010 bound_to 7997
  140.6693  143.7094  150.7890 H   0  0  0  0  0  0  0  0  0  0  0  0  # atno 10167 bound_to 10162
  156.0040  130.5101  150.6046 H   0  0  0  0  0  0  0  0  0  0  0  0  # atno 10718 bound_to 10713
  154.8071  135.4677  154.0421 H   0  0  0  0  0  0  0  0  0  0  0  0  # atno 10763 bound_to 10752
  153.1881  135.6851  153.8395 H   0  0  0  0  0  0  0  0  0  0  0  0  # atno 10764 bound_to 10752
  153.7923  135.3241  155.3357 H   0  0  0  0  0  0  0  0  0  0  0  0  # atno 10765 bound_to 10752
  140.6716  133.9232  155.8498 H   0  0  0  0  0  0  0  0  0  0  0  0  # atno 11005 bound_to 11000
  145.7773  140.9871  143.1118 LP  0  0  0  0  0  0  0  0  0  0  0  0  # atno 17320 bound_to 7965
  144.6861  139.9521  143.7478 LP  0  0  0  0  0  0  0  0  0  0  0  0  # atno 17321 bound_to 7965
  140.0776  143.5000  152.2547 LP  0  0  0  0  0  0  0  0  0  0  0  0  # atno 17342 bound_to 10162
  139.5954  144.7565  151.3299 LP  0  0  0  0  0  0  0  0  0  0  0  0  # atno 17343 bound_to 10162
  157.3889  131.0792  151.1411 LP  0  0  0  0  0  0  0  0  0  0  0  0  # atno 17370 bound_to 10713
  157.2109  130.6437  149.5774 LP  0  0  0  0  0  0  0  0  0  0  0  0  # atno 17371 bound_to 10713
  141.0388  134.0652  157.3927 LP  0  0  0  0  0  0  0  0  0  0  0  0  # atno 17394 bound_to 11000
  139.8980  135.0152  156.7126 LP  0  0  0  0  0  0  0  0  0  0  0  0  # atno 17395 bound_to 11000

$$$$
