AV-unprocessed.smi:1976|AV-procd|sdf|7988|dock6
  -GOLD-   2272010173D 1   1.00000     0.00000
 Structure written by MMmdl.
 45 47  0  0  0  0  0  0  0  0  2 V2000
  147.2789  133.0213  155.0231 O   0  0  0  0  0  0  0  0  0  0  0  0
  148.1093  133.6789  154.3944 C   0  0  0  0  0  0  0  0  0  0  0  0
  149.5696  133.7614  154.8621 C   0  0  0  0  0  0  0  0  0  0  0  0
  149.8589  134.9569  155.6723 N   0  0  0  0  0  0  0  0  0  0  0  0
  150.2289  136.1266  154.9801 C   0  0  0  0  0  0  0  0  0  0  0  0
  150.5293  137.2827  155.6023 C   0  0  0  0  0  0  0  0  0  0  0  0
  150.8701  138.5445  154.8247 C   0  0  0  0  0  0  0  0  0  0  0  0
  151.9544  138.3653  154.0700 F   0  0  0  0  0  0  0  0  0  0  0  0
  149.8562  138.8698  154.0240 F   0  0  0  0  0  0  0  0  0  0  0  0
  151.0963  139.5706  155.6458 F   0  0  0  0  0  0  0  0  0  0  0  0
  150.4209  137.2842  157.0480 C   0  0  0  0  0  0  0  0  0  0  0  0
  150.0570  136.1774  157.7249 C   0  0  0  0  0  0  0  0  0  0  0  0
  149.7539  134.9217  157.0348 C   0  0  0  0  0  0  0  0  0  0  0  0
  149.4223  133.9024  157.6413 O   0  0  0  0  0  0  0  0  0  0  0  0
  147.8124  134.3624  153.2790 N   0  0  0  0  0  0  0  0  0  0  0  0
  146.5024  134.3961  152.6354 C   0  0  1  0  0  0  0  0  0  0  0  0
  145.9443  135.8177  152.4820 C   0  0  0  0  0  0  0  0  0  0  0  0
  145.2278  135.8305  151.1167 C   0  0  0  0  0  0  0  0  0  0  0  0
  145.3306  134.4589  150.5664 N   0  3  2  0  0  0  0  0  0  0  0  0
  144.0906  133.6684  150.8007 C   0  0  0  0  0  0  0  0  0  0  0  0
  144.2729  132.1867  150.4480 C   0  0  0  0  0  0  0  0  0  0  0  0
  145.4236  131.5885  151.2609 C   0  0  0  0  0  0  0  0  0  0  0  0
  146.7087  132.3701  150.9716 C   0  0  0  0  0  0  0  0  0  0  0  0
  146.5533  133.8932  151.1868 C   0  0  2  0  0  0  0  0  0  0  0  0
  149.8169  132.8626  155.4307 H   0  0  0  0  0  0  0  0  0  0  0  0
  150.2120  133.7267  153.9811 H   0  0  0  0  0  0  0  0  0  0  0  0
  150.2453  136.0263  153.9045 H   0  0  0  0  0  0  0  0  0  0  0  0
  150.6370  138.1880  157.5984 H   0  0  0  0  0  0  0  0  0  0  0  0
  149.9871  136.2150  158.8021 H   0  0  0  0  0  0  0  0  0  0  0  0
  148.5542  134.8834  152.8335 H   0  0  0  0  0  0  0  0  0  0  0  0
  145.7803  133.8084  153.2054 H   0  0  0  0  0  0  0  0  0  0  0  0
  145.2642  136.0620  153.2988 H   0  0  0  0  0  0  0  0  0  0  0  0
  146.7417  136.5625  152.4861 H   0  0  0  0  0  0  0  0  0  0  0  0
  144.1949  136.1737  151.1930 H   0  0  0  0  0  0  0  0  0  0  0  0
  145.7433  136.5125  150.4395 H   0  0  0  0  0  0  0  0  0  0  0  0
  143.7858  133.7545  151.8450 H   0  0  0  0  0  0  0  0  0  0  0  0
  143.2816  134.0928  150.2050 H   0  0  0  0  0  0  0  0  0  0  0  0
  143.3512  131.6401  150.6500 H   0  0  0  0  0  0  0  0  0  0  0  0
  144.4720  132.0782  149.3808 H   0  0  0  0  0  0  0  0  0  0  0  0
  145.1918  131.6231  152.3260 H   0  0  0  0  0  0  0  0  0  0  0  0
  145.5591  130.5375  151.0046 H   0  0  0  0  0  0  0  0  0  0  0  0
  147.5308  131.9792  151.5714 H   0  0  0  0  0  0  0  0  0  0  0  0
  146.9915  132.1931  149.9330 H   0  0  0  0  0  0  0  0  0  0  0  0
  147.4015  134.3770  150.6979 H   0  0  0  0  0  0  0  0  0  0  0  0
  145.4688  134.5090  149.5671 H   0  0  0  0  0  0  0  0  0  0  0  0
  1  2  2  0  0  0  0
  2  3  1  0  0  0  0
  2 15  1  0  0  0  0
  3  4  1  0  0  0  0
  3 25  1  0  0  0  0
  3 26  1  0  0  0  0
  4 13  1  0  0  0  0
  4  5  1  0  0  0  0
  5  6  2  0  0  0  0
  5 27  1  0  0  0  0
  6  7  1  0  0  0  0
  6 11  1  0  0  0  0
  7  8  1  0  0  0  0
  7  9  1  0  0  0  0
  7 10  1  0  0  0  0
 11 12  2  0  0  0  0
 11 28  1  0  0  0  0
 12 13  1  0  0  0  0
 12 29  1  0  0  0  0
 13 14  2  0  0  0  0
 15 16  1  0  0  0  0
 15 30  1  0  0  0  0
 16 24  1  0  0  0  0
 16 17  1  0  0  0  0
 16 31  1  0  0  0  0
 17 18  1  0  0  0  0
 17 32  1  0  0  0  0
 17 33  1  0  0  0  0
 18 19  1  0  0  0  0
 18 34  1  0  0  0  0
 18 35  1  0  0  0  0
 19 24  1  0  0  0  0
 19 20  1  0  0  0  0
 19 45  1  0  0  0  0
 20 21  1  0  0  0  0
 20 36  1  0  0  0  0
 20 37  1  0  0  0  0
 21 22  1  0  0  0  0
 21 38  1  0  0  0  0
 21 39  1  0  0  0  0
 22 23  1  0  0  0  0
 22 40  1  0  0  0  0
 22 41  1  0  0  0  0
 23 24  1  0  0  0  0
 23 42  1  0  0  0  0
 23 43  1  0  0  0  0
 24 44  1  0  0  0  0
M  CHG  1  19   1
M  END
> <s_m_source_file>
AV-unprocessed.smi

> <i_m_source_file_index>
1976

> <i_lp_mmshare_version>
43012

> <i_f3d_flags>
0

> <s_epik_input>
W0NIMl0xW0NIMl1bQ0gyXVtDSDJdW0NASF0oTjEyKVtDQEBIXShbQ0gyXVtDSDJdMilbTkhdQyg9TylbQ0gyXW4zW2NIXWMoQyhGKShGKUYpW2NIXVtjSF1jMz1P

> <s_epik_cmdline>
J2VwaWtfcHl0aG9uJywgJy1waCcsICc3LjAnLCAnLXRuJywgJzgnLCAnLW1hJywgJzIwMCcsICctbWV0YWxfYmluZGluZycsICctaW1hZScsICc8aW5maWxlLm1hZT4nLCAnLW9tYWUnLCAnPG91dGZpbGUubWFlPic=

> <r_lp_tautomer_probability>
1

> <r_epik_Ionization_Penalty>
0.00171506

> <r_epik_Ionization_Penalty_Charging>
0.00171498

> <r_epik_Ionization_Penalty_Neutral>
7.81737e-08

> <r_epik_State_Penalty>
0.00115937

> <r_epik_Charging_Adjusted_Penalty>
0.00287436

> <i_epik_Tot_Q>
1

> <i_epik_Tot_abs_Q>
1

> <r_epik_Metal_State_Penalty>
-0

> <b_epik_Metal_Only>
0

> <s_lp_Force_Field>
OPLS_2005

> <r_lp_Energy>
48.7142

> <b_lp_Chiralities_Consistent>
1

> <s_lp_Variant>
AV-unprocessed.smi:1976-6

> <Gold.Version>
5.8.1

> <Gold.Id.Protein>
6NUR|6NUR_protein|mol2

> <Gold.PLP.Fitness>
45.7951

> <Gold.PLP.PLP>
-37.0324

> <Gold.PLP.part.hbond>
-2.7243

> <Gold.PLP.part.metal>
0.0000

> <Gold.PLP.part.buried>
-0.4363

> <Gold.PLP.part.nonpolar>
-32.9820

> <Gold.PLP.part.repulsive>
0.0689

> <Gold.PLP.ligand.clash>
0.0000

> <Gold.PLP.ligand.torsion>
0.7313

> <Gold.PLP.Chemscore.Hbond>
2.7150

> <Gold.PLP.Chemscore.CHOScore>
0.6790

> <Gold.PLP.Chemscore.Metal>
0.0000

> <Gold.Chemscore.Hbonds>
donor molecule, donor type, donor heavy atom, donor atom, acceptor molecule, acceptor atom, score
      L1  H    15    30       P1  7948  0.94
      L1  H    19    45       P1  7921  0.91
      P1  H  6896  6907       L1    14  0.83
      L1  C     5    27       P1  7948  0.56
      L1  C     5    27       P1  7949  0.11

> <Gold.PLP.Chemscore.Internal.Correction>
0.0433

> <Gold.Rescore>
     Score         DG    S(hbond)    S(metal)    S(lipo)     H(rot)  DE(clash)    DE(int)     intcor
     14.49     -15.66       1.93        0.00      66.52       1.58       0.40       0.77       ----

> <Gold.Chemscore.Fitness>
14.4899

> <Gold.Chemscore.DG>
-15.6605

> <Gold.Chemscore.ZeroCoef>
-5.4800

> <Gold.Chemscore.Hbond>
1.9312

> <Gold.Chemscore.Metal>
0.0000

> <Gold.Chemscore.Lipo>
66.5174

> <Gold.Chemscore.Internal_Hbond>
0.0000

> <Gold.Chemscore.DEClash>
0.4038

> <Gold.Chemscore.DEInternal>
0.7669

> <Gold.Chemscore.Rot>
1.5830

> <Gold.Chemscore.Internal.Correction>
   9.000000E+99

> <Gold.Chemscore.Hbonds>
donor molecule, donor type, donor heavy atom, donor atom, acceptor molecule, acceptor atom, score
      L1  H    15    30       P1  7948  0.36
      L1  H    19    45       P1  7921  0.83
      P1  H  6896  6907       L1    14  0.24

> <Gold.Chemscore.Hbond.Weighted>
-6.4504

> <Gold.Chemscore.Metal.Weighted>
-0.0000

> <Gold.Chemscore.Lipo.Weighted>
-7.7825

> <Gold.Chemscore.Internal_Hbond.Weighted>
0.0000

> <Gold.Chemscore.DEClash.Weighted>
0.4038

> <Gold.Chemscore.DEInternal.Weighted>
0.7669

> <Gold.Chemscore.Rot.Weighted>
4.0524

> <Gold.Chemscore.Internal.Correction.Weighted>
   9.000000E+99

> <Gold.Protein.RotatedTorsions>
[ 6907 6896 6895 6894 ] final -106.74 input  -60.11 | X-H torsion
[ 7974 7965 7964 7962 ] final -103.00 input  175.53 | X-H torsion
[ 8008 7997 7996 7995 ] final  -73.27 input   59.86 | X-H torsion
[ 10167 10162 10161 10158 ] final   93.14 input  -65.29 | X-H torsion
[ 10718 10713 10712 10709 ] final -176.22 input   66.30 | X-H torsion
[ 10763 10752 10751 10750 ] final   22.28 input  -60.55 | X-H torsion
[ 11005 11000 10999 10996 ] final  -65.83 input  -57.11 | X-H torsion

> <Gold.Protein.ActiveResidues>
 VAL166  LYS551  ARG553  GLY616  TRP617  ASP618  TYR619  PRO620  LYS621  CYS622 
 ASP623  PHE694  ASN695  SER759  ASP760  ASP761  ALA762  ILE779  LEU786  VAL792 
 PHE793  MET794  SER795  GLU796  ALA797  LYS798  CYS799  TRP800  GLU811  SER814 

> <Gold.Protein.RotatedAtoms>
  150.7405  133.9931  159.3613 H   0  0  0  0  0  0  0  0  0  0  0  0  # atno 6907 bound_to 6896
  151.7880  135.0741  160.0392 H   0  0  0  0  0  0  0  0  0  0  0  0  # atno 6908 bound_to 6896
  152.3227  133.5835  159.5792 H   0  0  0  0  0  0  0  0  0  0  0  0  # atno 6909 bound_to 6896
  145.2615  140.9271  143.3038 H   0  0  0  0  0  0  0  0  0  0  0  0  # atno 7974 bound_to 7965
  154.5234  140.0782  156.8213 H   0  0  0  0  0  0  0  0  0  0  0  0  # atno 8008 bound_to 7997
  155.3528  140.3413  155.4221 H   0  0  0  0  0  0  0  0  0  0  0  0  # atno 8009 bound_to 7997
  156.1705  140.1618  156.8442 H   0  0  0  0  0  0  0  0  0  0  0  0  # atno 8010 bound_to 7997
  139.8208  144.6732  150.9521 H   0  0  0  0  0  0  0  0  0  0  0  0  # atno 10167 bound_to 10162
  156.8114  130.9587  151.3115 H   0  0  0  0  0  0  0  0  0  0  0  0  # atno 10718 bound_to 10713
  153.0928  135.6651  153.9821 H   0  0  0  0  0  0  0  0  0  0  0  0  # atno 10763 bound_to 10752
  153.9413  135.2993  155.3444 H   0  0  0  0  0  0  0  0  0  0  0  0  # atno 10764 bound_to 10752
  154.7344  135.5108  153.9091 H   0  0  0  0  0  0  0  0  0  0  0  0  # atno 10765 bound_to 10752
  141.1465  133.6688  156.6046 H   0  0  0  0  0  0  0  0  0  0  0  0  # atno 11005 bound_to 11000
  144.9414  139.4185  143.6447 LP  0  0  0  0  0  0  0  0  0  0  0  0  # atno 17320 bound_to 7965
  146.3273  139.8375  142.8896 LP  0  0  0  0  0  0  0  0  0  0  0  0  # atno 17321 bound_to 7965
  140.7813  143.4093  151.1019 LP  0  0  0  0  0  0  0  0  0  0  0  0  # atno 17342 bound_to 10162
  139.7754  143.8433  152.3128 LP  0  0  0  0  0  0  0  0  0  0  0  0  # atno 17343 bound_to 10162
  157.6504  130.8879  149.9621 LP  0  0  0  0  0  0  0  0  0  0  0  0  # atno 17370 bound_to 10713
  156.1042  130.3654  150.0163 LP  0  0  0  0  0  0  0  0  0  0  0  0  # atno 17371 bound_to 10713
  140.3662  134.7645  157.4568 LP  0  0  0  0  0  0  0  0  0  0  0  0  # atno 17394 bound_to 11000
  140.0746  134.5815  155.8605 LP  0  0  0  0  0  0  0  0  0  0  0  0  # atno 17395 bound_to 11000

$$$$
