AV-unprocessed.smi:1475|AV-procd|sdf|5978|dock7
  -GOLD-   22720 6 73D 1   1.00000     0.00000
 Structure written by MMmdl.
 50 51  0  0  0  0  0  0  0  0  2 V2000
  147.6554  141.7642  153.9250 C   0  0  0  0  0  0  0  0  0  0  0  0
  148.8123  140.9649  154.4477 C   0  0  0  0  0  0  0  0  0  0  0  0
  149.8250  141.3741  155.3597 C   0  0  0  0  0  0  0  0  0  0  0  0
  150.6242  140.2738  155.4928 C   0  0  0  0  0  0  0  0  0  0  0  0
  151.8568  140.0740  156.3122 C   0  0  0  0  0  0  0  0  0  0  0  0
  150.0825  139.2848  154.6908 N   0  0  0  0  0  0  0  0  0  0  0  0
  150.5393  137.9204  154.4802 C   0  0  0  0  0  0  0  0  0  0  0  0
  149.7702  136.9417  155.3687 C   0  0  0  0  0  0  0  0  0  0  0  0
  149.6895  137.1404  156.5807 O   0  0  0  0  0  0  0  0  0  0  0  0
  149.2067  135.8901  154.7539 N   0  0  0  0  0  0  0  0  0  0  0  0
  148.4057  134.8651  155.4118 C   0  0  0  0  0  0  0  0  0  0  0  0
  148.0276  133.7257  154.4438 C   0  0  0  0  0  0  0  0  0  0  0  0
  147.1899  134.1932  153.3107 N   0  3  1  0  0  0  0  0  0  0  0  0
  146.7152  133.0668  152.4655 C   0  0  0  0  0  0  0  0  0  0  0  0
  145.9916  133.5729  151.2024 C   0  0  1  0  0  0  0  0  0  0  0  0
  145.4936  132.4070  150.3363 C   0  0  0  0  0  0  0  0  0  0  0  0
  144.8363  134.5137  151.5887 C   0  0  0  0  0  0  0  0  0  0  0  0
  145.3098  135.6465  152.5178 C   0  0  2  0  0  0  0  0  0  0  0  0
  146.1289  136.7223  151.7826 C   0  0  0  0  0  0  0  0  0  0  0  0
  146.0629  135.0684  153.7322 C   0  0  0  0  0  0  0  0  0  0  0  0
  148.9709  139.7124  154.0520 N   0  0  0  0  0  0  0  0  0  0  0  0
  147.6729  142.7827  154.3132 H   0  0  0  0  0  0  0  0  0  0  0  0
  146.7052  141.3151  154.2145 H   0  0  0  0  0  0  0  0  0  0  0  0
  147.6792  141.8242  152.8368 H   0  0  0  0  0  0  0  0  0  0  0  0
  149.9468  142.3320  155.8433 H   0  0  0  0  0  0  0  0  0  0  0  0
  152.0850  140.9658  156.8959 H   0  0  0  0  0  0  0  0  0  0  0  0
  152.7161  139.8620  155.6758 H   0  0  0  0  0  0  0  0  0  0  0  0
  151.7336  139.2433  157.0069 H   0  0  0  0  0  0  0  0  0  0  0  0
  150.4175  137.6556  153.4283 H   0  0  0  0  0  0  0  0  0  0  0  0
  151.6060  137.8605  154.6978 H   0  0  0  0  0  0  0  0  0  0  0  0
  149.3175  135.8142  153.7526 H   0  0  0  0  0  0  0  0  0  0  0  0
  148.9570  134.4941  156.2759 H   0  0  0  0  0  0  0  0  0  0  0  0
  147.5032  135.3388  155.7987 H   0  0  0  0  0  0  0  0  0  0  0  0
  148.9520  133.2974  154.0535 H   0  0  0  0  0  0  0  0  0  0  0  0
  147.5110  132.9182  154.9650 H   0  0  0  0  0  0  0  0  0  0  0  0
  147.5656  132.4525  152.1660 H   0  0  0  0  0  0  0  0  0  0  0  0
  146.0544  132.4267  153.0531 H   0  0  0  0  0  0  0  0  0  0  0  0
  146.7091  134.1353  150.6037 H   0  0  0  0  0  0  0  0  0  0  0  0
  144.7708  131.7928  150.8746 H   0  0  0  0  0  0  0  0  0  0  0  0
  146.3179  131.7613  150.0325 H   0  0  0  0  0  0  0  0  0  0  0  0
  145.0097  132.7710  149.4295 H   0  0  0  0  0  0  0  0  0  0  0  0
  144.3687  134.9297  150.6953 H   0  0  0  0  0  0  0  0  0  0  0  0
  144.0608  133.9393  152.0978 H   0  0  0  0  0  0  0  0  0  0  0  0
  144.4177  136.1477  152.8956 H   0  0  0  0  0  0  0  0  0  0  0  0
  147.0671  136.3275  151.3928 H   0  0  0  0  0  0  0  0  0  0  0  0
  146.3737  137.5495  152.4495 H   0  0  0  0  0  0  0  0  0  0  0  0
  145.5690  137.1351  150.9428 H   0  0  0  0  0  0  0  0  0  0  0  0
  145.3756  134.4896  154.3515 H   0  0  0  0  0  0  0  0  0  0  0  0
  146.4183  135.8895  154.3533 H   0  0  0  0  0  0  0  0  0  0  0  0
  147.7922  134.7518  152.7231 H   0  0  0  0  0  0  0  0  0  0  0  0
  1  2  1  0  0  0  0
  1 22  1  0  0  0  0
  1 23  1  0  0  0  0
  1 24  1  0  0  0  0
  2 21  2  0  0  0  0
  2  3  1  0  0  0  0
  3  4  2  0  0  0  0
  3 25  1  0  0  0  0
  4  5  1  0  0  0  0
  4  6  1  0  0  0  0
  5 26  1  0  0  0  0
  5 27  1  0  0  0  0
  5 28  1  0  0  0  0
  6  7  1  0  0  0  0
  6 21  1  0  0  0  0
  7  8  1  0  0  0  0
  7 29  1  0  0  0  0
  7 30  1  0  0  0  0
  8  9  2  0  0  0  0
  8 10  1  0  0  0  0
 10 11  1  0  0  0  0
 10 31  1  0  0  0  0
 11 12  1  0  0  0  0
 11 32  1  0  0  0  0
 11 33  1  0  0  0  0
 12 13  1  0  0  0  0
 12 34  1  0  0  0  0
 12 35  1  0  0  0  0
 13 20  1  0  0  0  0
 13 14  1  0  0  0  0
 13 50  1  0  0  0  0
 14 15  1  0  0  0  0
 14 36  1  0  0  0  0
 14 37  1  0  0  0  0
 15 16  1  0  0  0  0
 15 17  1  0  0  0  0
 15 38  1  0  0  0  0
 16 39  1  0  0  0  0
 16 40  1  0  0  0  0
 16 41  1  0  0  0  0
 17 18  1  0  0  0  0
 17 42  1  0  0  0  0
 17 43  1  0  0  0  0
 18 19  1  0  0  0  0
 18 20  1  0  0  0  0
 18 44  1  0  0  0  0
 19 45  1  0  0  0  0
 19 46  1  0  0  0  0
 19 47  1  0  0  0  0
 20 48  1  0  0  0  0
 20 49  1  0  0  0  0
M  CHG  1  13   1
M  END
> <s_m_source_file>
AV-unprocessed.smi

> <i_m_source_file_index>
1475

> <i_lp_mmshare_version>
43012

> <i_f3d_flags>
0

> <s_epik_input>
W0NIM11jMVtjSF1jKFtDSDNdKW4objEpW0NIMl1DKD1PKVtOSF1bQ0gyXVtDSDJdTjJbQ0gyXVtDQEBIXShbQ0gzXSlbQ0gyXVtDQEBIXShbQ0gzXSlbQ0gyXTI=

> <s_epik_cmdline>
J2VwaWtfcHl0aG9uJywgJy1waCcsICc3LjAnLCAnLXRuJywgJzgnLCAnLW1hJywgJzIwMCcsICctbWV0YWxfYmluZGluZycsICctaW1hZScsICc8aW5maWxlLm1hZT4nLCAnLW9tYWUnLCAnPG91dGZpbGUubWFlPic=

> <r_lp_tautomer_probability>
1

> <r_epik_Ionization_Penalty>
0.00206431

> <r_epik_Ionization_Penalty_Charging>
0.00187095

> <r_epik_Ionization_Penalty_Neutral>
0.000193364

> <r_epik_State_Penalty>
-0

> <r_epik_Charging_Adjusted_Penalty>
0.00187095

> <i_epik_Tot_Q>
1

> <i_epik_Tot_abs_Q>
1

> <r_epik_Metal_State_Penalty>
-0

> <b_epik_Metal_Only>
0

> <s_lp_Force_Field>
OPLS_2005

> <r_lp_Energy>
16.2356

> <b_lp_Chiralities_Consistent>
1

> <s_lp_Variant>
AV-unprocessed.smi:1475-3

> <Gold.Version>
5.8.1

> <Gold.Id.Protein>
6NUR|6NUR_protein|mol2

> <Gold.PLP.Fitness>
46.5565

> <Gold.PLP.PLP>
-38.4204

> <Gold.PLP.part.hbond>
-2.0447

> <Gold.PLP.part.metal>
0.0000

> <Gold.PLP.part.buried>
-1.0728

> <Gold.PLP.part.nonpolar>
-36.4962

> <Gold.PLP.part.repulsive>
1.6184

> <Gold.PLP.ligand.clash>
0.0000

> <Gold.PLP.ligand.torsion>
0.4456

> <Gold.PLP.Chemscore.Hbond>
3.0000

> <Gold.PLP.Chemscore.CHOScore>
0.0000

> <Gold.PLP.Chemscore.Metal>
0.0000

> <Gold.Chemscore.Hbonds>
donor molecule, donor type, donor heavy atom, donor atom, acceptor molecule, acceptor atom, score
      L1  H    10    31       P1  7948  1.00
      L1  H    13    50       P1  7948  1.98

> <Gold.PLP.Chemscore.Internal.Correction>
0.0273

> <Gold.Rescore>
     Score         DG    S(hbond)    S(metal)    S(lipo)     H(rot)  DE(clash)    DE(int)     intcor
     15.88     -16.66       1.55        0.00      87.19       1.64       0.36       0.43       ----

> <Gold.Chemscore.Fitness>
15.8760

> <Gold.Chemscore.DG>
-16.6630

> <Gold.Chemscore.ZeroCoef>
-5.4800

> <Gold.Chemscore.Hbond>
1.5510

> <Gold.Chemscore.Metal>
0.0000

> <Gold.Chemscore.Lipo>
87.1857

> <Gold.Chemscore.Internal_Hbond>
0.0000

> <Gold.Chemscore.DEClash>
0.3571

> <Gold.Chemscore.DEInternal>
0.4300

> <Gold.Chemscore.Rot>
1.6399

> <Gold.Chemscore.Internal.Correction>
   9.000000E+99

> <Gold.Chemscore.Hbonds>
donor molecule, donor type, donor heavy atom, donor atom, acceptor molecule, acceptor atom, score
      L1  H    10    31       P1  7948  0.64
      L1  H    13    50       P1  7948  0.81

> <Gold.Chemscore.Hbond.Weighted>
-5.1805

> <Gold.Chemscore.Metal.Weighted>
-0.0000

> <Gold.Chemscore.Lipo.Weighted>
-10.2007

> <Gold.Chemscore.Internal_Hbond.Weighted>
0.0000

> <Gold.Chemscore.DEClash.Weighted>
0.3571

> <Gold.Chemscore.DEInternal.Weighted>
0.4300

> <Gold.Chemscore.Rot.Weighted>
4.1982

> <Gold.Chemscore.Internal.Correction.Weighted>
   9.000000E+99

> <Gold.Protein.RotatedTorsions>
[ 6907 6896 6895 6894 ] final  131.92 input  -60.11 | X-H torsion
[ 7974 7965 7964 7962 ] final  -53.67 input  175.53 | X-H torsion
[ 8008 7997 7996 7995 ] final  145.75 input   59.86 | X-H torsion
[ 10167 10162 10161 10158 ] final  -55.41 input  -65.29 | X-H torsion
[ 10718 10713 10712 10709 ] final -178.37 input   66.30 | X-H torsion
[ 10763 10752 10751 10750 ] final   50.00 input  -60.55 | X-H torsion
[ 11005 11000 10999 10996 ] final  131.03 input  -57.11 | X-H torsion

> <Gold.Protein.ActiveResidues>
 VAL166  LYS551  ARG553  GLY616  TRP617  ASP618  TYR619  PRO620  LYS621  CYS622 
 ASP623  PHE694  ASN695  SER759  ASP760  ASP761  ALA762  ILE779  LEU786  VAL792 
 PHE793  MET794  SER795  GLU796  ALA797  LYS798  CYS799  TRP800  GLU811  SER814 

> <Gold.Protein.RotatedAtoms>
  152.3377  133.6031  159.5854 H   0  0  0  0  0  0  0  0  0  0  0  0  # atno 6907 bound_to 6896
  150.7460  133.9770  159.3573 H   0  0  0  0  0  0  0  0  0  0  0  0  # atno 6908 bound_to 6896
  151.7637  135.0804  160.0400 H   0  0  0  0  0  0  0  0  0  0  0  0  # atno 6909 bound_to 6896
  145.8943  140.8046  142.9776 H   0  0  0  0  0  0  0  0  0  0  0  0  # atno 7974 bound_to 7965
  156.2874  140.2201  156.5266 H   0  0  0  0  0  0  0  0  0  0  0  0  # atno 8008 bound_to 7997
  154.7484  140.0482  157.0894 H   0  0  0  0  0  0  0  0  0  0  0  0  # atno 8009 bound_to 7997
  155.0141  140.3116  155.4821 H   0  0  0  0  0  0  0  0  0  0  0  0  # atno 8010 bound_to 7997
  140.6376  143.2490  151.5075 H   0  0  0  0  0  0  0  0  0  0  0  0  # atno 10167 bound_to 10162
  156.8433  130.9694  151.3098 H   0  0  0  0  0  0  0  0  0  0  0  0  # atno 10718 bound_to 10713
  152.9785  135.5893  154.4180 H   0  0  0  0  0  0  0  0  0  0  0  0  # atno 10763 bound_to 10752
  154.3808  135.2767  155.2214 H   0  0  0  0  0  0  0  0  0  0  0  0  # atno 10764 bound_to 10752
  154.4129  135.6077  153.6018 H   0  0  0  0  0  0  0  0  0  0  0  0  # atno 10765 bound_to 10752
  139.9706  134.9578  156.9379 H   0  0  0  0  0  0  0  0  0  0  0  0  # atno 11005 bound_to 11000
  144.6732  140.1577  143.7425 LP  0  0  0  0  0  0  0  0  0  0  0  0  # atno 17320 bound_to 7965
  145.8870  139.2354  143.1572 LP  0  0  0  0  0  0  0  0  0  0  0  0  # atno 17321 bound_to 7965
  139.5586  144.2213  152.1654 LP  0  0  0  0  0  0  0  0  0  0  0  0  # atno 17342 bound_to 10162
  140.1474  144.5146  150.6708 LP  0  0  0  0  0  0  0  0  0  0  0  0  # atno 17343 bound_to 10162
  157.6344  130.8755  149.9332 LP  0  0  0  0  0  0  0  0  0  0  0  0  # atno 17370 bound_to 10713
  156.0869  130.3667  150.0471 LP  0  0  0  0  0  0  0  0  0  0  0  0  # atno 17371 bound_to 10713
  140.5301  134.0821  155.7313 LP  0  0  0  0  0  0  0  0  0  0  0  0  # atno 17394 bound_to 11000
  141.1386  133.9178  157.2378 LP  0  0  0  0  0  0  0  0  0  0  0  0  # atno 17395 bound_to 11000

$$$$
