AV-unprocessed.smi:2822|AV-procd|sdf|10876|dock4
  -GOLD-   2272015313D 1   1.00000     0.00000
 Structure written by MMmdl.
 40 42  0  0  0  0  0  0  0  0  2 V2000
  155.2610  138.4038  165.5036 Cl  0  0  0  0  0  0  0  0  0  0  0  0
  154.9023  137.4165  164.1302 C   0  0  0  0  0  0  0  0  0  0  0  0
  154.6694  136.0380  164.3154 C   0  0  0  0  0  0  0  0  0  0  0  0
  154.3886  135.2514  163.2550 N   0  3  0  0  0  0  0  0  0  0  0  0
  154.3163  135.7267  161.9939 C   0  0  0  0  0  0  0  0  0  0  0  0
  154.5389  137.0962  161.7448 C   0  0  0  0  0  0  0  0  0  0  0  0
  154.8387  137.9641  162.8248 C   0  0  0  0  0  0  0  0  0  0  0  0
  155.0687  139.3362  162.6423 N   0  0  0  0  0  0  0  0  0  0  0  0
  154.9409  139.9538  161.3311 C   0  0  0  0  0  0  0  0  0  0  0  0
  153.7678  140.9419  161.2874 C   0  0  2  0  0  0  0  0  0  0  0  0
  153.5965  141.5633  159.8890 C   0  0  0  0  0  0  0  0  0  0  0  0
  152.5277  142.5534  159.8628 N   0  0  0  0  0  0  0  0  0  0  0  0
  152.3759  143.1376  158.5314 C   0  0  0  0  0  0  0  0  0  0  0  0
  151.2307  144.1605  158.4676 C   0  0  0  0  0  0  0  0  0  0  0  0
  151.4422  145.2647  159.5135 C   0  0  0  0  0  0  0  0  0  0  0  0
  151.6570  144.6434  160.9024 C   0  0  0  0  0  0  0  0  0  0  0  0
  152.7832  143.5897  160.8682 C   0  0  1  0  0  0  0  0  0  0  0  0
  152.9858  142.9632  162.2632 C   0  0  0  0  0  0  0  0  0  0  0  0
  154.0273  141.9932  162.2142 O   0  0  0  0  0  0  0  0  0  0  0  0
  154.6992  135.5442  165.2759 H   0  0  0  0  0  0  0  0  0  0  0  0
  154.0831  135.0032  161.2263 H   0  0  0  0  0  0  0  0  0  0  0  0
  154.4740  137.4585  160.7298 H   0  0  0  0  0  0  0  0  0  0  0  0
  155.5228  139.8631  163.3757 H   0  0  0  0  0  0  0  0  0  0  0  0
  155.8696  140.4609  161.0661 H   0  0  0  0  0  0  0  0  0  0  0  0
  154.7769  139.1669  160.5939 H   0  0  0  0  0  0  0  0  0  0  0  0
  152.8474  140.4260  161.5683 H   0  0  0  0  0  0  0  0  0  0  0  0
  154.5353  142.0258  159.5797 H   0  0  0  0  0  0  0  0  0  0  0  0
  153.3840  140.7758  159.1649 H   0  0  0  0  0  0  0  0  0  0  0  0
  153.3079  143.6178  158.2290 H   0  0  0  0  0  0  0  0  0  0  0  0
  152.1865  142.3467  157.8047 H   0  0  0  0  0  0  0  0  0  0  0  0
  151.1697  144.5950  157.4695 H   0  0  0  0  0  0  0  0  0  0  0  0
  150.2797  143.6577  158.6486 H   0  0  0  0  0  0  0  0  0  0  0  0
  152.3129  145.8630  159.2423 H   0  0  0  0  0  0  0  0  0  0  0  0
  150.5882  145.9424  159.5283 H   0  0  0  0  0  0  0  0  0  0  0  0
  151.8946  145.4268  161.6228 H   0  0  0  0  0  0  0  0  0  0  0  0
  150.7290  144.1806  161.2412 H   0  0  0  0  0  0  0  0  0  0  0  0
  153.7092  144.1043  160.6047 H   0  0  0  0  0  0  0  0  0  0  0  0
  153.2553  143.7297  162.9902 H   0  0  0  0  0  0  0  0  0  0  0  0
  152.0660  142.4953  162.6182 H   0  0  0  0  0  0  0  0  0  0  0  0
  154.2238  134.2569  163.4139 H   0  0  0  0  0  0  0  0  0  0  0  0
  1  2  1  0  0  0  0
  2  7  1  0  0  0  0
  2  3  2  0  0  0  0
  3  4  1  0  0  0  0
  3 20  1  0  0  0  0
  4  5  2  0  0  0  0
  4 40  1  0  0  0  0
  5  6  1  0  0  0  0
  5 21  1  0  0  0  0
  6  7  2  0  0  0  0
  6 22  1  0  0  0  0
  7  8  1  0  0  0  0
  8  9  1  0  0  0  0
  8 23  1  0  0  0  0
  9 10  1  0  0  0  0
  9 24  1  0  0  0  0
  9 25  1  0  0  0  0
 10 19  1  0  0  0  0
 10 11  1  0  0  0  0
 10 26  1  0  0  0  0
 11 12  1  0  0  0  0
 11 27  1  0  0  0  0
 11 28  1  0  0  0  0
 12 17  1  0  0  0  0
 12 13  1  0  0  0  0
 13 14  1  0  0  0  0
 13 29  1  0  0  0  0
 13 30  1  0  0  0  0
 14 15  1  0  0  0  0
 14 31  1  0  0  0  0
 14 32  1  0  0  0  0
 15 16  1  0  0  0  0
 15 33  1  0  0  0  0
 15 34  1  0  0  0  0
 16 17  1  0  0  0  0
 16 35  1  0  0  0  0
 16 36  1  0  0  0  0
 17 18  1  0  0  0  0
 17 37  1  0  0  0  0
 18 19  1  0  0  0  0
 18 38  1  0  0  0  0
 18 39  1  0  0  0  0
M  CHG  1   4   1
M  END
> <s_m_source_file>
AV-unprocessed.smi

> <i_m_source_file_index>
2822

> <i_lp_mmshare_version>
43012

> <i_f3d_flags>
0

> <s_epik_input>
Q2xjMVtjSF1uW2NIXVtjSF1jMVtOSF1bQ0gyXVtDQEhdKFtDSDJdMilPW0NIMl1bQ0BASF0oTjIzKVtDSDJdW0NIMl1bQ0gyXVtDSDJdMw==

> <s_epik_cmdline>
J2VwaWtfcHl0aG9uJywgJy1waCcsICc3LjAnLCAnLXRuJywgJzgnLCAnLW1hJywgJzIwMCcsICctbWV0YWxfYmluZGluZycsICctaW1hZScsICc8aW5maWxlLm1hZT4nLCAnLW9tYWUnLCAnPG91dGZpbGUubWFlPic=

> <r_epik_Ionization_Penalty>
1.37653

> <r_epik_Ionization_Penalty_Charging>
0.152973

> <r_epik_Ionization_Penalty_Neutral>
1.22356

> <r_epik_State_Penalty>
1.42693

> <r_epik_Charging_Adjusted_Penalty>
1.5799

> <i_epik_Tot_Q>
1

> <i_epik_Tot_abs_Q>
1

> <r_epik_Metal_State_Penalty>
4.59822

> <b_epik_Metal_Only>
0

> <s_lp_Force_Field>
OPLS_2005

> <r_lp_Energy>
43.1836

> <b_lp_Chiralities_Consistent>
1

> <s_lp_Variant>
AV-unprocessed.smi:2822-17

> <Gold.Version>
5.8.1

> <Gold.Id.Protein>
6NUR|6NUR_protein|mol2

> <Gold.PLP.Fitness>
45.2604

> <Gold.PLP.PLP>
-45.3109

> <Gold.PLP.part.hbond>
-1.0000

> <Gold.PLP.part.metal>
0.0000

> <Gold.PLP.part.buried>
-5.9350

> <Gold.PLP.part.nonpolar>
-38.5064

> <Gold.PLP.part.repulsive>
0.0405

> <Gold.PLP.ligand.clash>
0.0000

> <Gold.PLP.ligand.torsion>
0.0258

> <Gold.PLP.Chemscore.Hbond>
0.0000

> <Gold.PLP.Chemscore.CHOScore>
0.0000

> <Gold.PLP.Chemscore.Metal>
0.0000

> <Gold.PLP.Chemscore.Internal.Correction>
0.0011

> <Gold.Rescore>
     Score         DG    S(hbond)    S(metal)    S(lipo)     H(rot)  DE(clash)    DE(int)     intcor
     19.07     -19.17       0.00        0.00     142.81       1.18       0.08       0.02       ----

> <Gold.Chemscore.Fitness>
19.0710

> <Gold.Chemscore.DG>
-19.1716

> <Gold.Chemscore.ZeroCoef>
-5.4800

> <Gold.Chemscore.Hbond>
0.0000

> <Gold.Chemscore.Metal>
0.0000

> <Gold.Chemscore.Lipo>
142.8146

> <Gold.Chemscore.Internal_Hbond>
0.0000

> <Gold.Chemscore.DEClash>
0.0777

> <Gold.Chemscore.DEInternal>
0.0230

> <Gold.Chemscore.Rot>
1.1788

> <Gold.Chemscore.Internal.Correction>
   9.000000E+99

> <Gold.Chemscore.Hbond.Weighted>
-0.0000

> <Gold.Chemscore.Metal.Weighted>
-0.0000

> <Gold.Chemscore.Lipo.Weighted>
-16.7093

> <Gold.Chemscore.Internal_Hbond.Weighted>
0.0000

> <Gold.Chemscore.DEClash.Weighted>
0.0777

> <Gold.Chemscore.DEInternal.Weighted>
0.0230

> <Gold.Chemscore.Rot.Weighted>
3.0177

> <Gold.Chemscore.Internal.Correction.Weighted>
   9.000000E+99

> <Gold.Protein.RotatedTorsions>
[ 6907 6896 6895 6894 ] final  100.51 input  -60.11 | X-H torsion
[ 7974 7965 7964 7962 ] final  -33.66 input  175.53 | X-H torsion
[ 8008 7997 7996 7995 ] final  169.72 input   59.86 | X-H torsion
[ 10167 10162 10161 10158 ] final  129.73 input  -65.29 | X-H torsion
[ 10718 10713 10712 10709 ] final   25.22 input   66.30 | X-H torsion
[ 10763 10752 10751 10750 ] final -178.84 input  -60.55 | X-H torsion
[ 11005 11000 10999 10996 ] final -123.88 input  -57.11 | X-H torsion

> <Gold.Protein.ActiveResidues>
 VAL166  LYS551  ARG553  GLY616  TRP617  ASP618  TYR619  PRO620  LYS621  CYS622 
 ASP623  PHE694  ASN695  SER759  ASP760  ASP761  ALA762  ILE779  LEU786  VAL792 
 PHE793  MET794  SER795  GLU796  ALA797  LYS798  CYS799  TRP800  GLU811  SER814 

> <Gold.Protein.RotatedAtoms>
  152.5370  134.0266  159.8005 H   0  0  0  0  0  0  0  0  0  0  0  0  # atno 6907 bound_to 6896
  151.0444  133.5670  159.2655 H   0  0  0  0  0  0  0  0  0  0  0  0  # atno 6908 bound_to 6896
  151.2628  135.0667  159.9158 H   0  0  0  0  0  0  0  0  0  0  0  0  # atno 6909 bound_to 6896
  146.0893  140.5943  142.8872 H   0  0  0  0  0  0  0  0  0  0  0  0  # atno 7974 bound_to 7965
  156.1431  140.1556  156.8889 H   0  0  0  0  0  0  0  0  0  0  0  0  # atno 8008 bound_to 7997
  154.5005  140.0826  156.7825 H   0  0  0  0  0  0  0  0  0  0  0  0  # atno 8009 bound_to 7997
  155.4040  140.3416  155.4261 H   0  0  0  0  0  0  0  0  0  0  0  0  # atno 8010 bound_to 7997
  139.5463  144.6776  151.4462 H   0  0  0  0  0  0  0  0  0  0  0  0  # atno 10167 bound_to 10162
  157.1905  130.6844  149.6148 H   0  0  0  0  0  0  0  0  0  0  0  0  # atno 10718 bound_to 10713
  154.5426  135.2807  155.1082 H   0  0  0  0  0  0  0  0  0  0  0  0  # atno 10763 bound_to 10752
  154.2559  135.6331  153.5260 H   0  0  0  0  0  0  0  0  0  0  0  0  # atno 10764 bound_to 10752
  152.9982  135.5594  154.5969 H   0  0  0  0  0  0  0  0  0  0  0  0  # atno 10765 bound_to 10752
  140.9885  134.0573  157.3683 H   0  0  0  0  0  0  0  0  0  0  0  0  # atno 11005 bound_to 11000
  144.7348  140.4777  143.6911 LP  0  0  0  0  0  0  0  0  0  0  0  0  # atno 17320 bound_to 7965
  145.6070  139.1509  143.3097 LP  0  0  0  0  0  0  0  0  0  0  0  0  # atno 17321 bound_to 7965
  140.6712  143.8288  150.7002 LP  0  0  0  0  0  0  0  0  0  0  0  0  # atno 17342 bound_to 10162
  140.1713  143.4192  152.1998 LP  0  0  0  0  0  0  0  0  0  0  0  0  # atno 17343 bound_to 10162
  155.9712  130.4616  150.6116 LP  0  0  0  0  0  0  0  0  0  0  0  0  # atno 17370 bound_to 10713
  157.3865  131.0789  151.1431 LP  0  0  0  0  0  0  0  0  0  0  0  0  # atno 17371 bound_to 10713
  139.8981  135.0153  156.7133 LP  0  0  0  0  0  0  0  0  0  0  0  0  # atno 17394 bound_to 11000
  140.7077  133.9250  155.8064 LP  0  0  0  0  0  0  0  0  0  0  0  0  # atno 17395 bound_to 11000

$$$$
