AV-unprocessed.smi:1795|AV-procd|sdf|7240|dock5
  -GOLD-   22720 8493D 1   1.00000     0.00000
 Structure written by MMmdl.
 47 48  0  0  0  0  0  0  0  0  1 V2000
  151.1384  137.7701  154.7387 C   0  0  0  0  0  0  0  0  0  0  0  0
  150.6400  139.2029  154.5216 C   0  0  1  0  0  0  0  0  0  0  0  0
  149.1558  139.2427  154.1113 C   0  0  0  0  0  0  0  0  0  0  0  0
  148.6307  140.6065  153.9782 N   0  0  0  0  0  0  0  0  0  0  0  0
  147.1923  140.6288  153.6227 C   0  0  1  0  0  0  0  0  0  0  0  0
  146.8661  139.7621  152.3800 C   0  0  0  0  0  0  0  0  0  0  0  0
  146.2578  140.1933  154.7890 C   0  0  0  0  0  0  0  0  0  0  0  0
  145.0420  140.9966  154.8851 N   0  0  0  0  0  0  0  0  0  0  0  0
  144.7489  141.8283  155.8963 C   0  0  0  0  0  0  0  0  0  0  0  0
  145.4999  142.0125  156.8554 O   0  0  0  0  0  0  0  0  0  0  0  0
  143.4118  142.5754  155.7891 C   0  0  0  0  0  0  0  0  0  0  0  0
  143.5540  144.0384  155.8801 N   0  0  0  0  0  0  0  0  0  0  0  0
  143.1556  144.7933  154.7587 C   0  0  0  0  0  0  0  0  0  0  0  0
  143.2450  146.1325  154.7364 C   0  0  0  0  0  0  0  0  0  0  0  0
  143.7666  146.8015  155.9047 C   0  0  0  0  0  0  0  0  0  0  0  0
  144.1547  146.0888  156.9811 C   0  0  0  0  0  0  0  0  0  0  0  0
  144.0613  144.6244  157.0086 C   0  0  0  0  0  0  0  0  0  0  0  0
  144.4169  143.9652  157.9861 O   0  0  0  0  0  0  0  0  0  0  0  0
  148.9071  141.3183  155.2311 C   0  0  0  0  0  0  0  0  0  0  0  0
  150.3936  141.2769  155.6333 C   0  0  1  0  0  0  0  0  0  0  0  0
  150.6481  141.9600  156.9812 C   0  0  0  0  0  0  0  0  0  0  0  0
  150.8096  139.9215  155.7366 O   0  0  0  0  0  0  0  0  0  0  0  0
  151.0429  137.1790  153.8276 H   0  0  0  0  0  0  0  0  0  0  0  0
  150.5699  137.2701  155.5235 H   0  0  0  0  0  0  0  0  0  0  0  0
  152.1885  137.7626  155.0314 H   0  0  0  0  0  0  0  0  0  0  0  0
  151.2472  139.6710  153.7447 H   0  0  0  0  0  0  0  0  0  0  0  0
  149.0801  138.7075  153.1676 H   0  0  0  0  0  0  0  0  0  0  0  0
  148.5608  138.6893  154.8397 H   0  0  0  0  0  0  0  0  0  0  0  0
  146.9316  141.6572  153.3680 H   0  0  0  0  0  0  0  0  0  0  0  0
  145.7992  139.7330  152.1620 H   0  0  0  0  0  0  0  0  0  0  0  0
  147.1996  138.7332  152.5183 H   0  0  0  0  0  0  0  0  0  0  0  0
  147.3306  140.1493  151.4743 H   0  0  0  0  0  0  0  0  0  0  0  0
  145.9685  139.1495  154.6621 H   0  0  0  0  0  0  0  0  0  0  0  0
  146.7470  140.2576  155.7595 H   0  0  0  0  0  0  0  0  0  0  0  0
  144.3745  140.9074  154.1326 H   0  0  0  0  0  0  0  0  0  0  0  0
  142.9418  142.2938  154.8458 H   0  0  0  0  0  0  0  0  0  0  0  0
  142.7315  142.2176  156.5645 H   0  0  0  0  0  0  0  0  0  0  0  0
  142.7839  144.2175  153.9237 H   0  0  0  0  0  0  0  0  0  0  0  0
  142.9391  146.6944  153.8661 H   0  0  0  0  0  0  0  0  0  0  0  0
  143.8471  147.8784  155.9152 H   0  0  0  0  0  0  0  0  0  0  0  0
  144.5438  146.6066  157.8454 H   0  0  0  0  0  0  0  0  0  0  0  0
  148.6305  142.3676  155.1420 H   0  0  0  0  0  0  0  0  0  0  0  0
  148.3005  140.8977  156.0349 H   0  0  0  0  0  0  0  0  0  0  0  0
  150.9933  141.7762  154.8700 H   0  0  0  0  0  0  0  0  0  0  0  0
  150.3554  143.0096  156.9509 H   0  0  0  0  0  0  0  0  0  0  0  0
  151.7050  141.9176  157.2451 H   0  0  0  0  0  0  0  0  0  0  0  0
  150.0852  141.4776  157.7808 H   0  0  0  0  0  0  0  0  0  0  0  0
  1  2  1  0  0  0  0
  1 23  1  0  0  0  0
  1 24  1  0  0  0  0
  1 25  1  0  0  0  0
  2 22  1  0  0  0  0
  2  3  1  0  0  0  0
  2 26  1  0  0  0  0
  3  4  1  0  0  0  0
  3 27  1  0  0  0  0
  3 28  1  0  0  0  0
  4  5  1  0  0  0  0
  4 19  1  0  0  0  0
  5  6  1  0  0  0  0
  5  7  1  0  0  0  0
  5 29  1  0  0  0  0
  6 30  1  0  0  0  0
  6 31  1  0  0  0  0
  6 32  1  0  0  0  0
  7  8  1  0  0  0  0
  7 33  1  0  0  0  0
  7 34  1  0  0  0  0
  8  9  1  0  0  0  0
  8 35  1  0  0  0  0
  9 10  2  0  0  0  0
  9 11  1  0  0  0  0
 11 12  1  0  0  0  0
 11 36  1  0  0  0  0
 11 37  1  0  0  0  0
 12 17  1  0  0  0  0
 12 13  1  0  0  0  0
 13 14  2  0  0  0  0
 13 38  1  0  0  0  0
 14 15  1  0  0  0  0
 14 39  1  0  0  0  0
 15 16  2  0  0  0  0
 15 40  1  0  0  0  0
 16 17  1  0  0  0  0
 16 41  1  0  0  0  0
 17 18  2  0  0  0  0
 19 20  1  0  0  0  0
 19 42  1  0  0  0  0
 19 43  1  0  0  0  0
 20 21  1  0  0  0  0
 20 22  1  0  0  0  0
 20 44  1  0  0  0  0
 21 45  1  0  0  0  0
 21 46  1  0  0  0  0
 21 47  1  0  0  0  0
M  END
> <s_m_source_file>
AV-unprocessed.smi

> <i_m_source_file_index>
1795

> <i_lp_mmshare_version>
43012

> <i_f3d_flags>
0

> <s_epik_input>
W0NIM11bQ0BASF0xW0NIMl1OKFtDSDJdW0NASF0oTzEpW0NIM10pW0NASF0oW0NIM10pW0NIMl1bTkhdQyg9TylbQ0gyXW4yW2NIXVtjSF1bY0hdW2NIXWMyPU8=

> <s_epik_cmdline>
J2VwaWtfcHl0aG9uJywgJy1waCcsICc3LjAnLCAnLXRuJywgJzgnLCAnLW1hJywgJzIwMCcsICctbWV0YWxfYmluZGluZycsICctaW1hZScsICc8aW5maWxlLm1hZT4nLCAnLW9tYWUnLCAnPG91dGZpbGUubWFlPic=

> <r_lp_tautomer_probability>
1

> <r_epik_Ionization_Penalty>
0.237383

> <r_epik_Ionization_Penalty_Charging>
3.58805e-07

> <r_epik_Ionization_Penalty_Neutral>
0.237382

> <r_epik_State_Penalty>
0.228245

> <r_epik_Charging_Adjusted_Penalty>
0.228245

> <i_epik_Tot_Q>
0

> <i_epik_Tot_abs_Q>
0

> <r_epik_Metal_State_Penalty>
0.228221

> <b_epik_Metal_Only>
0

> <s_lp_Force_Field>
OPLS_2005

> <r_lp_Energy>
36.5227

> <b_lp_Chiralities_Consistent>
1

> <s_lp_Variant>
AV-unprocessed.smi:1795-4

> <Gold.Version>
5.8.1

> <Gold.Id.Protein>
6NUR|6NUR_protein|mol2

> <Gold.PLP.Fitness>
39.0370

> <Gold.PLP.PLP>
-34.2698

> <Gold.PLP.part.hbond>
-1.0000

> <Gold.PLP.part.metal>
0.0000

> <Gold.PLP.part.buried>
-1.9567

> <Gold.PLP.part.nonpolar>
-31.8157

> <Gold.PLP.part.repulsive>
0.6282

> <Gold.PLP.ligand.clash>
0.0000

> <Gold.PLP.ligand.torsion>
0.6442

> <Gold.PLP.Chemscore.Hbond>
1.0000

> <Gold.PLP.Chemscore.CHOScore>
1.0000

> <Gold.PLP.Chemscore.Metal>
0.0000

> <Gold.Chemscore.Hbonds>
donor molecule, donor type, donor heavy atom, donor atom, acceptor molecule, acceptor atom, score
      L1  H     8    35       P1 10175  1.00
      L1  C    13    38       P1 10174  1.00

> <Gold.PLP.Chemscore.Internal.Correction>
0.0557

> <Gold.Rescore>
     Score         DG    S(hbond)    S(metal)    S(lipo)     H(rot)  DE(clash)    DE(int)     intcor
     12.20     -14.23       0.98        0.00      86.90       1.83       0.04       1.99       ----

> <Gold.Chemscore.Fitness>
12.2011

> <Gold.Chemscore.DG>
-14.2318

> <Gold.Chemscore.ZeroCoef>
-5.4800

> <Gold.Chemscore.Hbond>
0.9751

> <Gold.Chemscore.Metal>
0.0000

> <Gold.Chemscore.Lipo>
86.9000

> <Gold.Chemscore.Internal_Hbond>
0.0000

> <Gold.Chemscore.DEClash>
0.0384

> <Gold.Chemscore.DEInternal>
1.9923

> <Gold.Chemscore.Rot>
1.8251

> <Gold.Chemscore.Internal.Correction>
   9.000000E+99

> <Gold.Chemscore.Hbonds>
donor molecule, donor type, donor heavy atom, donor atom, acceptor molecule, acceptor atom, score
      L1  H     8    35       P1 10175  0.92

> <Gold.Chemscore.Hbond.Weighted>
-3.2569

> <Gold.Chemscore.Metal.Weighted>
-0.0000

> <Gold.Chemscore.Lipo.Weighted>
-10.1673

> <Gold.Chemscore.Internal_Hbond.Weighted>
0.0000

> <Gold.Chemscore.DEClash.Weighted>
0.0384

> <Gold.Chemscore.DEInternal.Weighted>
1.9923

> <Gold.Chemscore.Rot.Weighted>
4.6724

> <Gold.Chemscore.Internal.Correction.Weighted>
   9.000000E+99

> <Gold.Protein.RotatedTorsions>
[ 6907 6896 6895 6894 ] final  155.18 input  -60.11 | X-H torsion
[ 7974 7965 7964 7962 ] final  129.67 input  175.53 | X-H torsion
[ 8008 7997 7996 7995 ] final  -71.82 input   59.86 | X-H torsion
[ 10167 10162 10161 10158 ] final   63.30 input  -65.29 | X-H torsion
[ 10718 10713 10712 10709 ] final  -89.81 input   66.30 | X-H torsion
[ 10763 10752 10751 10750 ] final   13.12 input  -60.55 | X-H torsion
[ 11005 11000 10999 10996 ] final  130.01 input  -57.11 | X-H torsion

> <Gold.Protein.ActiveResidues>
 VAL166  LYS551  ARG553  GLY616  TRP617  ASP618  TYR619  PRO620  LYS621  CYS622 
 ASP623  PHE694  ASN695  SER759  ASP760  ASP761  ALA762  ILE779  LEU786  VAL792 
 PHE793  MET794  SER795  GLU796  ALA797  LYS798  CYS799  TRP800  GLU811  SER814 

> <Gold.Protein.RotatedAtoms>
  152.0478  133.4005  159.4363 H   0  0  0  0  0  0  0  0  0  0  0  0  # atno 6907 bound_to 6896
  150.6872  134.3342  159.4849 H   0  0  0  0  0  0  0  0  0  0  0  0  # atno 6908 bound_to 6896
  152.1148  134.9248  160.0616 H   0  0  0  0  0  0  0  0  0  0  0  0  # atno 6909 bound_to 6896
  145.0261  139.4088  143.5173 H   0  0  0  0  0  0  0  0  0  0  0  0  # atno 7974 bound_to 7965
  154.5118  140.0808  156.8004 H   0  0  0  0  0  0  0  0  0  0  0  0  # atno 8008 bound_to 7997
  155.3769  140.3426  155.4227 H   0  0  0  0  0  0  0  0  0  0  0  0  # atno 8009 bound_to 7997
  156.1581  140.1580  156.8645 H   0  0  0  0  0  0  0  0  0  0  0  0  # atno 8010 bound_to 7997
  140.1345  144.4612  150.6846 H   0  0  0  0  0  0  0  0  0  0  0  0  # atno 10167 bound_to 10162
  155.9985  130.4886  150.5228 H   0  0  0  0  0  0  0  0  0  0  0  0  # atno 10718 bound_to 10713
  153.1753  135.6819  153.8552 H   0  0  0  0  0  0  0  0  0  0  0  0  # atno 10763 bound_to 10752
  153.7902  135.3170  155.3378 H   0  0  0  0  0  0  0  0  0  0  0  0  # atno 10764 bound_to 10752
  154.8025  135.4769  154.0403 H   0  0  0  0  0  0  0  0  0  0  0  0  # atno 10765 bound_to 10752
  139.9648  134.9593  156.9231 H   0  0  0  0  0  0  0  0  0  0  0  0  # atno 11005 bound_to 11000
  146.3492  139.9786  142.8698 LP  0  0  0  0  0  0  0  0  0  0  0  0  # atno 17320 bound_to 7965
  145.1831  140.9777  143.4254 LP  0  0  0  0  0  0  0  0  0  0  0  0  # atno 17321 bound_to 7965
  140.6797  143.2321  151.5416 LP  0  0  0  0  0  0  0  0  0  0  0  0  # atno 17342 bound_to 10162
  139.5503  144.2414  152.1517 LP  0  0  0  0  0  0  0  0  0  0  0  0  # atno 17343 bound_to 10162
  157.3187  131.0678  151.1947 LP  0  0  0  0  0  0  0  0  0  0  0  0  # atno 17370 bound_to 10713
  157.2868  130.6777  149.6094 LP  0  0  0  0  0  0  0  0  0  0  0  0  # atno 17371 bound_to 10713
  140.5421  134.0709  155.7344 LP  0  0  0  0  0  0  0  0  0  0  0  0  # atno 17394 bound_to 11000
  141.1327  133.9275  157.2501 LP  0  0  0  0  0  0  0  0  0  0  0  0  # atno 17395 bound_to 11000

$$$$
