AV-unprocessed.smi:247|AV-procd|sdf|1890|dock7
  -GOLD-   2262020553D 1   1.00000     0.00000
 Structure written by MMmdl.
 61 65  0  0  0  0  0  0  0  0  1 V2000
  148.7577  131.1519  153.2454 O   0  0  0  0  0  0  0  0  0  0  0  0
  147.8112  131.9586  153.9190 C   0  0  0  0  0  0  0  0  0  0  0  0
  146.7109  132.5340  152.9841 C   0  0  0  0  0  0  0  0  0  0  0  0
  145.8191  133.5121  153.8124 C   0  0  0  0  0  0  0  0  0  0  0  0
  146.4445  134.7824  154.1530 N   0  0  0  0  0  0  0  0  0  0  0  0
  147.5404  134.9694  154.9666 C   0  0  0  0  0  0  0  0  0  0  0  0
  147.9256  136.2080  155.1102 N   0  0  0  0  0  0  0  0  0  0  0  0
  147.0384  136.9278  154.3211 C   0  0  0  0  0  0  0  0  0  0  0  0
  146.8934  138.3055  154.0102 C   0  0  0  0  0  0  0  0  0  0  0  0
  147.7208  139.2391  154.5390 N   0  0  0  0  0  0  0  0  0  0  0  0
  147.2023  140.5692  154.2684 C   0  0  0  0  0  0  0  0  0  0  0  0
  148.3237  141.5225  154.6485 C   0  0  0  0  0  0  0  0  0  0  0  0
  149.5967  140.6982  154.4552 C   0  0  0  0  0  0  0  0  0  0  0  0
  149.1465  139.2439  154.1844 C   0  0  1  0  0  0  0  0  0  0  0  0
  150.0177  138.1831  154.9480 C   0  0  1  0  0  0  0  0  0  0  0  0
  151.5303  138.2232  154.6172 C   0  0  0  0  0  0  0  0  0  0  0  0
  152.1130  139.4389  155.0788 O   0  0  0  0  0  0  0  0  0  0  0  0
  152.0864  139.5713  156.4960 C   0  0  0  0  0  0  0  0  0  0  0  0
  150.6398  139.5285  157.0145 C   0  0  0  0  0  0  0  0  0  0  0  0
  149.9330  138.2673  156.4970 C   0  0  1  0  0  0  0  0  0  0  0  0
  148.6196  138.1954  157.0115 O   0  0  0  0  0  0  0  0  0  0  0  0
  145.8758  138.6628  153.1828 N   0  0  0  0  0  0  0  0  0  0  0  0
  145.0712  137.7279  152.6684 C   0  0  0  0  0  0  0  0  0  0  0  0
  145.0980  136.4068  152.8582 N   0  0  0  0  0  0  0  0  0  0  0  0
  146.1052  136.0484  153.7055 C   0  0  0  0  0  0  0  0  0  0  0  0
  147.3693  133.2354  151.7679 C   0  0  0  0  0  0  0  0  0  0  0  0
  146.3424  133.6233  150.6891 C   0  0  0  0  0  0  0  0  0  0  0  0
  145.6314  132.4680  150.2613 O   0  0  0  0  0  0  0  0  0  0  0  0
  144.8825  131.8547  151.3040 C   0  0  0  0  0  0  0  0  0  0  0  0
  145.8232  131.3884  152.4320 C   0  0  0  0  0  0  0  0  0  0  0  0
  148.5340  131.1304  152.3274 H   0  0  0  0  0  0  0  0  0  0  0  0
  147.3607  131.3587  154.7104 H   0  0  0  0  0  0  0  0  0  0  0  0
  148.3637  132.7616  154.4068 H   0  0  0  0  0  0  0  0  0  0  0  0
  144.8920  133.7436  153.2906 H   0  0  0  0  0  0  0  0  0  0  0  0
  145.5114  133.0320  154.7425 H   0  0  0  0  0  0  0  0  0  0  0  0
  148.0480  134.1523  155.4584 H   0  0  0  0  0  0  0  0  0  0  0  0
  146.9652  140.6727  153.2078 H   0  0  0  0  0  0  0  0  0  0  0  0
  146.2957  140.7707  154.8403 H   0  0  0  0  0  0  0  0  0  0  0  0
  148.3131  142.4344  154.0506 H   0  0  0  0  0  0  0  0  0  0  0  0
  148.2260  141.8080  155.6966 H   0  0  0  0  0  0  0  0  0  0  0  0
  150.1905  141.0776  153.6229 H   0  0  0  0  0  0  0  0  0  0  0  0
  150.2061  140.7780  155.3560 H   0  0  0  0  0  0  0  0  0  0  0  0
  149.2307  139.0719  153.1117 H   0  0  0  0  0  0  0  0  0  0  0  0
  149.6590  137.1986  154.6444 H   0  0  0  0  0  0  0  0  0  0  0  0
  152.0432  137.3815  155.0855 H   0  0  0  0  0  0  0  0  0  0  0  0
  151.7158  138.1049  153.5518 H   0  0  0  0  0  0  0  0  0  0  0  0
  152.6814  138.7770  156.9494 H   0  0  0  0  0  0  0  0  0  0  0  0
  152.5567  140.5152  156.7717 H   0  0  0  0  0  0  0  0  0  0  0  0
  150.6399  139.5438  158.1050 H   0  0  0  0  0  0  0  0  0  0  0  0
  150.1058  140.4232  156.6944 H   0  0  0  0  0  0  0  0  0  0  0  0
  150.4527  137.4014  156.9103 H   0  0  0  0  0  0  0  0  0  0  0  0
  148.6513  137.7766  157.8581 H   0  0  0  0  0  0  0  0  0  0  0  0
  144.2960  138.0905  152.0096 H   0  0  0  0  0  0  0  0  0  0  0  0
  147.9426  134.1084  152.0780 H   0  0  0  0  0  0  0  0  0  0  0  0
  148.0926  132.5653  151.3023 H   0  0  0  0  0  0  0  0  0  0  0  0
  145.6477  134.3830  151.0475 H   0  0  0  0  0  0  0  0  0  0  0  0
  146.8556  134.0523  149.8285 H   0  0  0  0  0  0  0  0  0  0  0  0
  144.1173  132.5390  151.6703 H   0  0  0  0  0  0  0  0  0  0  0  0
  144.3528  130.9971  150.8890 H   0  0  0  0  0  0  0  0  0  0  0  0
  146.4462  130.5923  152.0233 H   0  0  0  0  0  0  0  0  0  0  0  0
  145.2448  130.9322  153.2360 H   0  0  0  0  0  0  0  0  0  0  0  0
  1  2  1  0  0  0  0
  1 31  1  0  0  0  0
  2  3  1  0  0  0  0
  2 32  1  0  0  0  0
  2 33  1  0  0  0  0
  3 30  1  0  0  0  0
  3  4  1  0  0  0  0
  3 26  1  0  0  0  0
  4  5  1  0  0  0  0
  4 34  1  0  0  0  0
  4 35  1  0  0  0  0
  5 25  1  0  0  0  0
  5  6  1  0  0  0  0
  6  7  2  0  0  0  0
  6 36  1  0  0  0  0
  7  8  1  0  0  0  0
  8 25  2  0  0  0  0
  8  9  1  0  0  0  0
  9 10  1  0  0  0  0
  9 22  2  0  0  0  0
 10 14  1  0  0  0  0
 10 11  1  0  0  0  0
 11 12  1  0  0  0  0
 11 37  1  0  0  0  0
 11 38  1  0  0  0  0
 12 13  1  0  0  0  0
 12 39  1  0  0  0  0
 12 40  1  0  0  0  0
 13 14  1  0  0  0  0
 13 41  1  0  0  0  0
 13 42  1  0  0  0  0
 14 15  1  0  0  0  0
 14 43  1  0  0  0  0
 15 20  1  0  0  0  0
 15 16  1  0  0  0  0
 15 44  1  0  0  0  0
 16 17  1  0  0  0  0
 16 45  1  0  0  0  0
 16 46  1  0  0  0  0
 17 18  1  0  0  0  0
 18 19  1  0  0  0  0
 18 47  1  0  0  0  0
 18 48  1  0  0  0  0
 19 20  1  0  0  0  0
 19 49  1  0  0  0  0
 19 50  1  0  0  0  0
 20 21  1  0  0  0  0
 20 51  1  0  0  0  0
 21 52  1  0  0  0  0
 22 23  1  0  0  0  0
 23 24  2  0  0  0  0
 23 53  1  0  0  0  0
 24 25  1  0  0  0  0
 26 27  1  0  0  0  0
 26 54  1  0  0  0  0
 26 55  1  0  0  0  0
 27 28  1  0  0  0  0
 27 56  1  0  0  0  0
 27 57  1  0  0  0  0
 28 29  1  0  0  0  0
 29 30  1  0  0  0  0
 29 58  1  0  0  0  0
 29 59  1  0  0  0  0
 30 60  1  0  0  0  0
 30 61  1  0  0  0  0
M  END
> <s_m_source_file>
AV-unprocessed.smi

> <i_m_source_file_index>
247

> <i_lp_mmshare_version>
43012

> <i_f3d_flags>
0

> <s_epik_input>
W0NIMl0xW0NIMl1PW0NIMl1bQ0gyXUMxKFtDSDJdW09IXSlbQ0gyXW4oW2NIXW4yKWMoYzIzKW5bY0hdbmMzTjRbQ0gyXVtDSDJdW0NIMl1bQ0BIXTRbQ0BASF01W0NIMl1PW0NIMl1bQ0gyXVtDQEhdNVtPSF0=

> <s_epik_cmdline>
J2VwaWtfcHl0aG9uJywgJy1waCcsICc3LjAnLCAnLXRuJywgJzgnLCAnLW1hJywgJzIwMCcsICctbWV0YWxfYmluZGluZycsICctaW1hZScsICc8aW5maWxlLm1hZT4nLCAnLW9tYWUnLCAnPG91dGZpbGUubWFlPic=

> <r_lp_tautomer_probability>
1

> <r_epik_Ionization_Penalty>
0.00362597

> <r_epik_Ionization_Penalty_Charging>
0

> <r_epik_Ionization_Penalty_Neutral>
0.00362597

> <r_epik_State_Penalty>
0.00241433

> <r_epik_Charging_Adjusted_Penalty>
0.00241433

> <i_epik_Tot_Q>
0

> <i_epik_Tot_abs_Q>
0

> <r_epik_Metal_State_Penalty>
-0

> <b_epik_Metal_Only>
0

> <s_lp_Force_Field>
OPLS_2005

> <r_lp_Energy>
64.2344

> <b_lp_Chiralities_Consistent>
1

> <s_lp_Variant>
AV-unprocessed.smi:247-3

> <Gold.Version>
5.8.1

> <Gold.Id.Protein>
6NUR|6NUR_protein|mol2

> <Gold.PLP.Fitness>
44.4923

> <Gold.PLP.PLP>
-34.3630

> <Gold.PLP.part.hbond>
-2.0000

> <Gold.PLP.part.metal>
0.0000

> <Gold.PLP.part.buried>
-1.2054

> <Gold.PLP.part.nonpolar>
-31.2181

> <Gold.PLP.part.repulsive>
1.6915

> <Gold.PLP.ligand.clash>
0.0000

> <Gold.PLP.ligand.torsion>
0.3127

> <Gold.PLP.Chemscore.Hbond>
1.8553

> <Gold.PLP.Chemscore.CHOScore>
1.7039

> <Gold.PLP.Chemscore.Metal>
0.0000

> <Gold.Chemscore.Hbonds>
donor molecule, donor type, donor heavy atom, donor atom, acceptor molecule, acceptor atom, score
      L1  H     1    31       P1 10747  0.83
      P1  H  7989  7998       L1    17  0.57
      L1  C    23    53       P1 10171  1.00
      L1  C    23    53       P1 10175  0.68

> <Gold.PLP.Chemscore.Internal.Correction>
0.0774

> <Gold.Rescore>
     Score         DG    S(hbond)    S(metal)    S(lipo)     H(rot)  DE(clash)    DE(int)     intcor
      9.02     -13.29       1.52        0.00      94.05       3.23       0.17       4.11       ----

> <Gold.Chemscore.Fitness>
9.0160

> <Gold.Chemscore.DG>
-13.2918

> <Gold.Chemscore.ZeroCoef>
-5.4800

> <Gold.Chemscore.Hbond>
1.5183

> <Gold.Chemscore.Metal>
0.0000

> <Gold.Chemscore.Lipo>
94.0511

> <Gold.Chemscore.Internal_Hbond>
0.0000

> <Gold.Chemscore.DEClash>
0.1690

> <Gold.Chemscore.DEInternal>
4.1068

> <Gold.Chemscore.Rot>
3.2278

> <Gold.Chemscore.Internal.Correction>
   9.000000E+99

> <Gold.Chemscore.Hbonds>
donor molecule, donor type, donor heavy atom, donor atom, acceptor molecule, acceptor atom, score
      L1  H     1    31       P1 10747  0.75
      P1  H  7989  7998       L1    17  0.25

> <Gold.Chemscore.Hbond.Weighted>
-5.0711

> <Gold.Chemscore.Metal.Weighted>
-0.0000

> <Gold.Chemscore.Lipo.Weighted>
-11.0040

> <Gold.Chemscore.Internal_Hbond.Weighted>
0.0000

> <Gold.Chemscore.DEClash.Weighted>
0.1690

> <Gold.Chemscore.DEInternal.Weighted>
4.1068

> <Gold.Chemscore.Rot.Weighted>
8.2633

> <Gold.Chemscore.Internal.Correction.Weighted>
   9.000000E+99

> <Gold.Protein.RotatedTorsions>
[ 6907 6896 6895 6894 ] final  -28.30 input  -60.11 | X-H torsion
[ 7974 7965 7964 7962 ] final   51.40 input  175.53 | X-H torsion
[ 8008 7997 7996 7995 ] final  -39.43 input   59.86 | X-H torsion
[ 10167 10162 10161 10158 ] final   18.12 input  -65.29 | X-H torsion
[ 10718 10713 10712 10709 ] final   17.76 input   66.30 | X-H torsion
[ 10763 10752 10751 10750 ] final  -82.70 input  -60.55 | X-H torsion
[ 11005 11000 10999 10996 ] final   98.05 input  -57.11 | X-H torsion

> <Gold.Protein.ActiveResidues>
 VAL166  LYS551  ARG553  GLY616  TRP617  ASP618  TYR619  PRO620  LYS621  CYS622 
 ASP623  PHE694  ASN695  SER759  ASP760  ASP761  ALA762  ILE779  LEU786  VAL792 
 PHE793  MET794  SER795  GLU796  ALA797  LYS798  CYS799  TRP800  GLU811  SER814 

> <Gold.Protein.RotatedAtoms>
  151.1349  135.0149  159.8599 H   0  0  0  0  0  0  0  0  0  0  0  0  # atno 6907 bound_to 6896
  152.5451  134.1567  159.8551 H   0  0  0  0  0  0  0  0  0  0  0  0  # atno 6908 bound_to 6896
  151.1637  133.4783  159.2627 H   0  0  0  0  0  0  0  0  0  0  0  0  # atno 6909 bound_to 6896
  145.9917  139.4346  143.0069 H   0  0  0  0  0  0  0  0  0  0  0  0  # atno 7974 bound_to 7965
  154.4023  140.1551  156.2863 H   0  0  0  0  0  0  0  0  0  0  0  0  # atno 8008 bound_to 7997
  155.8825  140.3443  155.5876 H   0  0  0  0  0  0  0  0  0  0  0  0  # atno 8009 bound_to 7997
  155.7650  140.0822  157.2127 H   0  0  0  0  0  0  0  0  0  0  0  0  # atno 8010 bound_to 7997
  140.5676  143.9221  150.6688 H   0  0  0  0  0  0  0  0  0  0  0  0  # atno 10167 bound_to 10162
  157.0867  130.6410  149.5839 H   0  0  0  0  0  0  0  0  0  0  0  0  # atno 10718 bound_to 10713
  154.5788  135.5582  153.7166 H   0  0  0  0  0  0  0  0  0  0  0  0  # atno 10763 bound_to 10752
  153.0074  135.6315  154.2011 H   0  0  0  0  0  0  0  0  0  0  0  0  # atno 10764 bound_to 10752
  154.1951  135.2880  155.2989 H   0  0  0  0  0  0  0  0  0  0  0  0  # atno 10765 bound_to 10752
  139.8773  134.9030  156.4398 H   0  0  0  0  0  0  0  0  0  0  0  0  # atno 11005 bound_to 11000
  145.7619  140.9931  143.1195 LP  0  0  0  0  0  0  0  0  0  0  0  0  # atno 17320 bound_to 7965
  144.6891  139.9341  143.7473 LP  0  0  0  0  0  0  0  0  0  0  0  0  # atno 17321 bound_to 7965
  140.2688  143.3471  152.1257 LP  0  0  0  0  0  0  0  0  0  0  0  0  # atno 17342 bound_to 10162
  139.5101  144.6878  151.5840 LP  0  0  0  0  0  0  0  0  0  0  0  0  # atno 17343 bound_to 10162
  155.9909  130.4961  150.7275 LP  0  0  0  0  0  0  0  0  0  0  0  0  # atno 17370 bound_to 10713
  157.4755  131.0897  151.0595 LP  0  0  0  0  0  0  0  0  0  0  0  0  # atno 17371 bound_to 10713
  140.9007  133.7781  155.9677 LP  0  0  0  0  0  0  0  0  0  0  0  0  # atno 17394 bound_to 11000
  140.8653  134.2791  157.5216 LP  0  0  0  0  0  0  0  0  0  0  0  0  # atno 17395 bound_to 11000

$$$$
