#       Name:                AV-unprocessed.smi:2751
#       Creating user name   scv26
#       Creation time:       Fri Mar 27 15:04:58 2020


#       File generated by GOLD software.
#

@<TRIPOS>MOLECULE
AV-unprocessed.smi:2751
    41    42     1
SMALL
NO_CHARGES


@<TRIPOS>ATOM
      1 ****        -1.5742   1.8222   0.7609 O.2            1 S1                 0.0000
      2 ****        -2.0458   0.6993   0.9427 C.2            1 S1                 0.0000
      3 ****        -1.3002  -0.4062   1.0877 N.am           1 S1                 0.0000
      4 ****         0.1578  -0.4388   1.0629 C.3            1 S1                 0.0000
      5 ****         0.7018  -0.4425  -0.3761 C.3            1 S1                 0.0000
      6 ****         2.2370  -0.4888  -0.4321 C.3            1 S1                 0.0000
      7 ****         2.7654  -0.3645  -1.8744 C.3            1 S1                 0.0000
      8 ****         4.2928  -0.4898  -1.9004 C.3            1 S1                 0.0000
      9 ****         4.7179  -1.7772  -1.1866 C.3            1 S1                 0.0000
     10 ****         4.0900  -1.8424   0.2146 C.3            1 S1                 0.0000
     11 ****         2.6732  -1.7313   0.1170 O.3            1 S1                 0.0000
     12 ****        -3.3573   0.4267   1.0213 N.am           1 S1                 0.0000
     13 ****        -4.4026   1.3745   0.9322 C.2            1 S1                 0.0000
     14 ****        -5.6953   1.0703   1.0353 N.pl3          1 S1                 1.0000
     15 ****        -6.4306   2.2230   0.9108 C.2            1 S1                 0.0000
     16 ****        -5.5155   3.2316   0.7265 C.2            1 S1                 0.0000
     17 ****        -4.2358   2.7137   0.7376 O.3            1 S1                 0.0000
     18 ****        -1.7696  -1.2883   1.2336 H              1 S1                 0.0000
     19 ****         0.5620   0.4059   1.6237 H              1 S1                 0.0000
     20 ****         0.4808  -1.3393   1.5860 H              1 S1                 0.0000
     21 ****         0.2904  -1.2911  -0.9244 H              1 S1                 0.0000
     22 ****         0.3557   0.4537  -0.8927 H              1 S1                 0.0000
     23 ****         2.6350   0.3305   0.1697 H              1 S1                 0.0000
     24 ****         2.3253  -1.1449  -2.4967 H              1 S1                 0.0000
     25 ****         2.4633   0.5890  -2.3087 H              1 S1                 0.0000
     26 ****         4.6587  -0.4850  -2.9274 H              1 S1                 0.0000
     27 ****         4.7406   0.3715  -1.4029 H              1 S1                 0.0000
     28 ****         4.3988  -2.6422  -1.7693 H              1 S1                 0.0000
     29 ****         5.8048  -1.8290  -1.1170 H              1 S1                 0.0000
     30 ****         4.3365  -2.7914   0.6911 H              1 S1                 0.0000
     31 ****         4.4845  -1.0524   0.8556 H              1 S1                 0.0000
     32 ****        -6.1081   0.1577   1.1822 H              1 S1                 0.0000
     33 ****        -7.5098   2.2118   0.9657 H              1 S1                 0.0000
     34 ****        -5.5996   4.2990   0.5833 H              1 S1                 0.0000
     35 ****        -3.6293  -0.5341   1.1690 H              1 S1                 0.0000
     36 ****        -2.1823   2.6096   0.6604 LP             1 S1                 0.0000
     37 ****        -0.5831   1.9466   0.7137 LP             1 S1                 0.0000
     38 ****         2.3371  -2.4708  -0.4663 LP             1 S1                 0.0000
     39 ****         2.2843  -1.8266   1.0333 LP             1 S1                 0.0000
     40 ****        -3.7776   2.8884  -0.1339 LP             1 S1                 0.0000
     41 ****        -3.7005   3.1136   1.4816 LP             1 S1                 0.0000
@<TRIPOS>BOND
    1    1    2 2     
    2    2   12 am    
    3    2    3 am    
    4    3    4 1     
    5    3   18 1     
    6    4    5 1     
    7    4   19 1     
    8    4   20 1     
    9    5    6 1     
   10    5   21 1     
   11    5   22 1     
   12    6   11 1     
   13    6    7 1     
   14    6   23 1     
   15    7    8 1     
   16    7   24 1     
   17    7   25 1     
   18    8    9 1     
   19    8   26 1     
   20    8   27 1     
   21    9   10 1     
   22    9   28 1     
   23    9   29 1     
   24   10   11 1     
   25   10   30 1     
   26   10   31 1     
   27   12   13 1     
   28   12   35 1     
   29   13   17 1     
   30   13   14 2     
   31   14   32 1     
   32   14   15 1     
   33   15   33 1     
   34   15   16 2     
   35   16   34 1     
   36   16   17 1     
   37    1   36 1     
   38    1   37 1     
   39   11   38 1     
   40   11   39 1     
   41   17   40 1     
   42   17   41 1     
@<TRIPOS>SUBSTRUCTURE
      1 S1             1
@<TRIPOS>SET
LONE_PAIRS      STATIC     ATOMS    <user>   **** ""
6 36 37 38 39 40 41
DONOR_HYDROGENS      STATIC     ATOMS    <user>   **** ""
3 18 35 32
ATOM$BLUE        STATIC     ATOMS    COLORGROUP SYSTEM
6 36 37 38 39 40 41
ATOM$RED        STATIC     ATOMS    COLORGROUP SYSTEM
3 18 35 32
