AV-unprocessed.smi:1675|AV-procd|sdf|6717|dock1
  -GOLD-   22720 7463D 1   1.00000     0.00000
 Structure written by MMmdl.
 40 42  0  0  0  0  0  0  0  0  1 V2000
  148.1337  133.4660  155.9498 N   0  0  0  0  0  0  0  0  0  0  0  0
  149.2930  133.9343  156.4189 C   0  0  0  0  0  0  0  0  0  0  0  0
  149.5463  133.9669  157.6216 O   0  0  0  0  0  0  0  0  0  0  0  0
  150.3097  134.4383  155.3900 C   0  0  0  0  0  0  0  0  0  0  0  0
  150.6240  135.8421  155.5936 N   0  0  0  0  0  0  0  0  0  0  0  0
  150.0394  136.7272  156.4788 C   0  0  0  0  0  0  0  0  0  0  0  0
  150.6740  137.9209  156.2820 C   0  0  0  0  0  0  0  0  0  0  0  0
  150.4559  139.1710  156.9140 N   0  0  0  0  0  0  0  0  0  0  0  0
  151.3270  140.1872  157.0428 C   0  0  0  0  0  0  0  0  0  0  0  0
  152.4756  140.1757  156.6007 O   0  0  0  0  0  0  0  0  0  0  0  0
  150.8129  141.4146  157.8039 C   0  0  0  0  0  0  0  0  0  0  0  0
  151.8760  142.5252  157.9611 C   0  0  2  0  0  0  0  0  0  0  0  0
  152.6930  142.4965  159.2735 C   0  0  0  0  0  0  0  0  0  0  0  0
  152.5759  143.9451  159.7841 C   0  0  2  0  0  0  0  0  0  0  0  0
  151.1585  144.1667  160.3423 C   0  0  0  0  0  0  0  0  0  0  0  0
  150.2967  144.2057  159.0671 C   0  0  0  0  0  0  0  0  0  0  0  0
  151.3311  143.9727  157.9459 C   0  0  1  0  0  0  0  0  0  0  0  0
  152.5313  144.7442  158.4862 C   0  0  0  0  0  0  0  0  0  0  0  0
  151.6304  137.6872  155.2601 C   0  0  0  0  0  0  0  0  0  0  0  0
  151.5993  136.4273  154.8538 N   0  0  0  0  0  0  0  0  0  0  0  0
  147.4351  133.1260  156.5948 H   0  0  0  0  0  0  0  0  0  0  0  0
  147.9568  133.4542  154.9558 H   0  0  0  0  0  0  0  0  0  0  0  0
  151.2360  133.8647  155.4496 H   0  0  0  0  0  0  0  0  0  0  0  0
  149.9080  134.2964  154.3855 H   0  0  0  0  0  0  0  0  0  0  0  0
  149.2414  136.4303  157.1432 H   0  0  0  0  0  0  0  0  0  0  0  0
  149.5344  139.3136  157.3014 H   0  0  0  0  0  0  0  0  0  0  0  0
  149.9427  141.8214  157.2864 H   0  0  0  0  0  0  0  0  0  0  0  0
  150.4608  141.0776  158.7789 H   0  0  0  0  0  0  0  0  0  0  0  0
  152.5743  142.4373  157.1263 H   0  0  0  0  0  0  0  0  0  0  0  0
  152.3081  141.7815  160.0019 H   0  0  0  0  0  0  0  0  0  0  0  0
  153.7321  142.2347  159.0710 H   0  0  0  0  0  0  0  0  0  0  0  0
  153.3683  144.2309  160.4766 H   0  0  0  0  0  0  0  0  0  0  0  0
  150.8543  143.3740  161.0268 H   0  0  0  0  0  0  0  0  0  0  0  0
  151.0937  145.1145  160.8778 H   0  0  0  0  0  0  0  0  0  0  0  0
  149.4942  143.4690  159.0774 H   0  0  0  0  0  0  0  0  0  0  0  0
  149.8326  145.1866  158.9577 H   0  0  0  0  0  0  0  0  0  0  0  0
  150.9883  144.2980  156.9632 H   0  0  0  0  0  0  0  0  0  0  0  0
  152.3321  145.8064  158.6385 H   0  0  0  0  0  0  0  0  0  0  0  0
  153.4314  144.6334  157.8785 H   0  0  0  0  0  0  0  0  0  0  0  0
  152.3319  138.3740  154.8100 H   0  0  0  0  0  0  0  0  0  0  0  0
  1  2  1  0  0  0  0
  1 21  1  0  0  0  0
  1 22  1  0  0  0  0
  2  3  2  0  0  0  0
  2  4  1  0  0  0  0
  4  5  1  0  0  0  0
  4 23  1  0  0  0  0
  4 24  1  0  0  0  0
  5 20  1  0  0  0  0
  5  6  1  0  0  0  0
  6  7  2  0  0  0  0
  6 25  1  0  0  0  0
  7  8  1  0  0  0  0
  7 19  1  0  0  0  0
  8  9  1  0  0  0  0
  8 26  1  0  0  0  0
  9 10  2  0  0  0  0
  9 11  1  0  0  0  0
 11 12  1  0  0  0  0
 11 27  1  0  0  0  0
 11 28  1  0  0  0  0
 12 17  1  0  0  0  0
 12 13  1  0  0  0  0
 12 29  1  0  0  0  0
 13 14  1  0  0  0  0
 13 30  1  0  0  0  0
 13 31  1  0  0  0  0
 14 18  1  0  0  0  0
 14 15  1  0  0  0  0
 14 32  1  0  0  0  0
 15 16  1  0  0  0  0
 15 33  1  0  0  0  0
 15 34  1  0  0  0  0
 16 17  1  0  0  0  0
 16 35  1  0  0  0  0
 16 36  1  0  0  0  0
 17 18  1  0  0  0  0
 17 37  1  0  0  0  0
 18 38  1  0  0  0  0
 18 39  1  0  0  0  0
 19 20  2  0  0  0  0
 19 40  1  0  0  0  0
M  END
> <s_m_source_file>
AV-unprocessed.smi

> <i_m_source_file_index>
1675

> <i_lp_mmshare_version>
43012

> <i_f3d_flags>
0

> <s_epik_input>
W05IMl1DKD1PKVtDSDJdbjFbY0hdYyhbY0hdbjEpW05IXUMoPU8pW0NIMl1bQ0BIXShbQ0gyXVtDQEBIXTIzKVtDQEBIXShbQ0gyXTMpW0NIMl1bQ0gyXTI=

> <s_epik_cmdline>
J2VwaWtfcHl0aG9uJywgJy1waCcsICc3LjAnLCAnLXRuJywgJzgnLCAnLW1hJywgJzIwMCcsICctbWV0YWxfYmluZGluZycsICctaW1hZScsICc8aW5maWxlLm1hZT4nLCAnLW9tYWUnLCAnPG91dGZpbGUubWFlPic=

> <r_lp_tautomer_probability>
1

> <r_epik_Ionization_Penalty>
2.17494e-05

> <r_epik_Ionization_Penalty_Charging>
0

> <r_epik_Ionization_Penalty_Neutral>
2.17494e-05

> <r_epik_State_Penalty>
-0

> <r_epik_Charging_Adjusted_Penalty>
0

> <i_epik_Tot_Q>
0

> <i_epik_Tot_abs_Q>
0

> <r_epik_Metal_State_Penalty>
-0

> <b_epik_Metal_Only>
0

> <s_lp_Force_Field>
OPLS_2005

> <r_lp_Energy>
53.8438

> <b_lp_Chiralities_Consistent>
1

> <s_lp_Variant>
AV-unprocessed.smi:1675-3

> <Gold.Version>
5.8.1

> <Gold.Id.Protein>
6NUR|6NUR_protein|mol2

> <Gold.PLP.Fitness>
43.1512

> <Gold.PLP.PLP>
-35.3062

> <Gold.PLP.part.hbond>
-3.0000

> <Gold.PLP.part.metal>
0.0000

> <Gold.PLP.part.buried>
-3.9906

> <Gold.PLP.part.nonpolar>
-28.4122

> <Gold.PLP.part.repulsive>
0.1464

> <Gold.PLP.ligand.clash>
0.0000

> <Gold.PLP.ligand.torsion>
0.6175

> <Gold.PLP.Chemscore.Hbond>
3.0000

> <Gold.PLP.Chemscore.CHOScore>
0.0000

> <Gold.PLP.Chemscore.Metal>
0.0000

> <Gold.Chemscore.Hbonds>
donor molecule, donor type, donor heavy atom, donor atom, acceptor molecule, acceptor atom, score
      P1  H  6896  6909       L1     3  0.86
      P1  H  7997  8008       L1    10  1.00
      P1  H 10752 10764       L1    20  1.00

> <Gold.PLP.Chemscore.Internal.Correction>
0.0801

> <Gold.Rescore>
     Score         DG    S(hbond)    S(metal)    S(lipo)     H(rot)  DE(clash)    DE(int)     intcor
     19.74     -21.73       2.90        0.00     103.12       2.15       0.24       1.75       ----

> <Gold.Chemscore.Fitness>
19.7399

> <Gold.Chemscore.DG>
-21.7259

> <Gold.Chemscore.ZeroCoef>
-5.4800

> <Gold.Chemscore.Hbond>
2.8985

> <Gold.Chemscore.Metal>
0.0000

> <Gold.Chemscore.Lipo>
103.1222

> <Gold.Chemscore.Internal_Hbond>
0.0000

> <Gold.Chemscore.DEClash>
0.2407

> <Gold.Chemscore.DEInternal>
1.7452

> <Gold.Chemscore.Rot>
2.1486

> <Gold.Chemscore.Internal.Correction>
   9.000000E+99

> <Gold.Chemscore.Hbonds>
donor molecule, donor type, donor heavy atom, donor atom, acceptor molecule, acceptor atom, score
      P1  H  6896  6909       L1     3  0.81
      P1  H  7997  8008       L1    10  0.98
      P1  H 10752 10764       L1    20  0.97

> <Gold.Chemscore.Hbond.Weighted>
-9.6809

> <Gold.Chemscore.Metal.Weighted>
-0.0000

> <Gold.Chemscore.Lipo.Weighted>
-12.0653

> <Gold.Chemscore.Internal_Hbond.Weighted>
0.0000

> <Gold.Chemscore.DEClash.Weighted>
0.2407

> <Gold.Chemscore.DEInternal.Weighted>
1.7452

> <Gold.Chemscore.Rot.Weighted>
5.5004

> <Gold.Chemscore.Internal.Correction.Weighted>
   9.000000E+99

> <Gold.Protein.RotatedTorsions>
[ 6907 6896 6895 6894 ] final   -5.62 input  -60.11 | X-H torsion
[ 7974 7965 7964 7962 ] final   92.10 input  175.53 | X-H torsion
[ 8008 7997 7996 7995 ] final  -50.95 input   59.86 | X-H torsion
[ 10167 10162 10161 10158 ] final -162.84 input  -65.29 | X-H torsion
[ 10718 10713 10712 10709 ] final  -82.39 input   66.30 | X-H torsion
[ 10763 10752 10751 10750 ] final  -75.19 input  -60.55 | X-H torsion
[ 11005 11000 10999 10996 ] final   65.06 input  -57.11 | X-H torsion

> <Gold.Protein.ActiveResidues>
 VAL166  LYS551  ARG553  GLY616  TRP617  ASP618  TYR619  PRO620  LYS621  CYS622 
 ASP623  PHE694  ASN695  SER759  ASP760  ASP761  ALA762  ILE779  LEU786  VAL792 
 PHE793  MET794  SER795  GLU796  ALA797  LYS798  CYS799  TRP800  GLU811  SER814 

> <Gold.Protein.RotatedAtoms>
  151.4786  135.1050  159.9771 H   0  0  0  0  0  0  0  0  0  0  0  0  # atno 6907 bound_to 6896
  152.4788  133.8199  159.7058 H   0  0  0  0  0  0  0  0  0  0  0  0  # atno 6908 bound_to 6896
  150.8845  133.7266  159.2949 H   0  0  0  0  0  0  0  0  0  0  0  0  # atno 6909 bound_to 6896
  145.4968  139.2276  143.2799 H   0  0  0  0  0  0  0  0  0  0  0  0  # atno 7974 bound_to 7965
  154.4072  140.1260  156.4749 H   0  0  0  0  0  0  0  0  0  0  0  0  # atno 8008 bound_to 7997
  155.7142  140.3493  155.4967 H   0  0  0  0  0  0  0  0  0  0  0  0  # atno 8009 bound_to 7997
  155.9273  140.1063  157.1150 H   0  0  0  0  0  0  0  0  0  0  0  0  # atno 8010 bound_to 7997
  139.6363  144.0344  152.2057 H   0  0  0  0  0  0  0  0  0  0  0  0  # atno 10167 bound_to 10162
  156.0034  130.4633  150.4097 H   0  0  0  0  0  0  0  0  0  0  0  0  # atno 10718 bound_to 10713
  154.4832  135.5839  153.6405 H   0  0  0  0  0  0  0  0  0  0  0  0  # atno 10763 bound_to 10752
  152.9851  135.6095  154.3219 H   0  0  0  0  0  0  0  0  0  0  0  0  # atno 10764 bound_to 10752
  154.3112  135.2845  155.2544 H   0  0  0  0  0  0  0  0  0  0  0  0  # atno 10765 bound_to 10752
  139.9919  134.6578  156.0077 H   0  0  0  0  0  0  0  0  0  0  0  0  # atno 11005 bound_to 11000
  146.2250  140.5766  142.9000 LP  0  0  0  0  0  0  0  0  0  0  0  0  # atno 17320 bound_to 7965
  144.7802  140.5825  143.6610 LP  0  0  0  0  0  0  0  0  0  0  0  0  # atno 17321 bound_to 7965
  140.0022  144.6285  150.7720 LP  0  0  0  0  0  0  0  0  0  0  0  0  # atno 17342 bound_to 10162
  140.7467  143.2895  151.3371 LP  0  0  0  0  0  0  0  0  0  0  0  0  # atno 17343 bound_to 10162
  157.2161  131.0471  151.2572 LP  0  0  0  0  0  0  0  0  0  0  0  0  # atno 17370 bound_to 10713
  157.3844  130.7248  149.6653 LP  0  0  0  0  0  0  0  0  0  0  0  0  # atno 17371 bound_to 10713
  141.1572  133.6541  156.4201 LP  0  0  0  0  0  0  0  0  0  0  0  0  # atno 17394 bound_to 11000
  140.4893  134.6591  157.5204 LP  0  0  0  0  0  0  0  0  0  0  0  0  # atno 17395 bound_to 11000

$$$$
