#       Name:                AV-unprocessed.smi:1534
#       Creating user name   scv26
#       Creation time:       Fri Mar 27 06:31:35 2020


#       File generated by GOLD software.
#

@<TRIPOS>MOLECULE
AV-unprocessed.smi:1534
    39    40     1
SMALL
NO_CHARGES


@<TRIPOS>ATOM
      1 ****         0.7074   3.2527   0.6680 O.2            1 S1                 0.0000
      2 ****         0.2965   2.1290   0.9503 C.2            1 S1                 0.0000
      3 ****         1.1032   1.1088   1.2850 N.am           1 S1                 0.0000
      4 ****         2.5617   1.1518   1.2782 C.3            1 S1                 0.0000
      5 ****         3.1528   1.0855  -0.1451 C.3            1 S1                 0.0000
      6 ****         2.5670  -0.0299  -0.9958 C.ar           1 S1                 0.0000
      7 ****         1.6401   0.2559  -2.0217 C.ar           1 S1                 0.0000
      8 ****         1.1125  -0.8155  -2.7677 C.ar           1 S1                 0.0000
      9 ****         1.5298  -2.1249  -2.4612 C.ar           1 S1                 0.0000
     10 ****         2.4624  -2.3048  -1.4202 C.ar           1 S1                 0.0000
     11 ****         2.9742  -1.2843  -0.6985 N.ar           1 S1                 0.0000
     12 ****        -1.0140   1.8269   0.9368 N.am           1 S1                 0.0000
     13 ****        -2.1404   2.7058   0.6171 C.3            1 S1                 0.0000
     14 ****        -2.4390   3.7140   1.7482 C.3            1 S1                 0.0000
     15 ****        -3.8328   4.3114   1.5252 C.3            1 S1                 0.0000
     16 ****        -4.8173   3.0105   0.6912 S.o2           1 S1                 0.0000
     17 ****        -5.7299   2.3850   1.6600 O.2            1 S1                 0.0000
     18 ****        -5.3160   3.5374  -0.5880 O.2            1 S1                 0.0000
     19 ****        -3.4111   1.8783   0.3779 C.3            1 S1                 0.0000
     20 ****         0.6774   0.2228   1.5141 H              1 S1                 0.0000
     21 ****         2.9205   2.0394   1.8012 H              1 S1                 0.0000
     22 ****         2.9102   0.2937   1.8534 H              1 S1                 0.0000
     23 ****         2.9894   2.0373  -0.6521 H              1 S1                 0.0000
     24 ****         4.2348   0.9599  -0.0884 H              1 S1                 0.0000
     25 ****         1.3332   1.2710  -2.2275 H              1 S1                 0.0000
     26 ****         0.3981  -0.6366  -3.5575 H              1 S1                 0.0000
     27 ****         1.1461  -2.9710  -3.0117 H              1 S1                 0.0000
     28 ****         2.8049  -3.2950  -1.1586 H              1 S1                 0.0000
     29 ****        -1.2575   0.8871   1.2142 H              1 S1                 0.0000
     30 ****        -1.9298   3.2602  -0.2994 H              1 S1                 0.0000
     31 ****        -2.4321   3.1914   2.7059 H              1 S1                 0.0000
     32 ****        -1.6837   4.4975   1.8098 H              1 S1                 0.0000
     33 ****        -4.3178   4.6176   2.4522 H              1 S1                 0.0000
     34 ****        -3.7816   5.1726   0.8585 H              1 S1                 0.0000
     35 ****        -3.4726   1.4729  -0.6323 H              1 S1                 0.0000
     36 ****        -3.4878   1.0543   1.0882 H              1 S1                 0.0000
     37 ****         1.6889   3.4440   0.6805 LP             1 S1                 0.0000
     38 ****         0.0602   3.9756   0.4258 LP             1 S1                 0.0000
     39 ****         3.6345  -1.4515   0.0337 LP             1 S1                 0.0000
@<TRIPOS>BOND
    1    1    2 2     
    2    2    3 am    
    3    2   12 am    
    4    3    4 1     
    5    3   20 1     
    6    4    5 1     
    7    4   21 1     
    8    4   22 1     
    9    5    6 1     
   10    5   23 1     
   11    5   24 1     
   12    6   11 ar    
   13    6    7 ar    
   14    7    8 ar    
   15    7   25 1     
   16    8    9 ar    
   17    8   26 1     
   18    9   10 ar    
   19    9   27 1     
   20   10   11 ar    
   21   10   28 1     
   22   12   13 1     
   23   12   29 1     
   24   13   19 1     
   25   13   14 1     
   26   13   30 1     
   27   14   15 1     
   28   14   31 1     
   29   14   32 1     
   30   15   16 1     
   31   15   33 1     
   32   15   34 1     
   33   16   17 2     
   34   16   18 2     
   35   16   19 1     
   36   19   35 1     
   37   19   36 1     
   38    1   37 1     
   39    1   38 1     
   40   11   39 1     
@<TRIPOS>SUBSTRUCTURE
      1 S1             1
@<TRIPOS>SET
LONE_PAIRS      STATIC     ATOMS    <user>   **** ""
5 37 38 39 17 18
DONOR_HYDROGENS      STATIC     ATOMS    <user>   **** ""
2 20 29
ATOM$BLUE        STATIC     ATOMS    COLORGROUP SYSTEM
5 37 38 39 17 18
ATOM$RED        STATIC     ATOMS    COLORGROUP SYSTEM
2 20 29
