AV-unprocessed.smi:1998|AV-procd|sdf|8090|dock2
  -GOLD-   2272010303D 1   1.00000     0.00000
 Structure written by MMmdl.
 47 48  0  0  0  0  0  0  0  0  1 V2000
  153.7744  142.1248  162.3430 C   0  0  0  0  0  0  0  0  0  0  0  0
  152.9639  142.9456  161.3838 C   0  0  0  0  0  0  0  0  0  0  0  0
  152.2037  144.1174  161.6544 C   0  0  0  0  0  0  0  0  0  0  0  0
  151.6566  144.4516  160.4480 C   0  0  0  0  0  0  0  0  0  0  0  0
  150.7559  145.5854  160.0813 C   0  0  0  0  0  0  0  0  0  0  0  0
  152.0946  143.5096  159.5333 N   0  0  0  0  0  0  0  0  0  0  0  0
  151.8196  143.4191  158.1053 C   0  0  0  0  0  0  0  0  0  0  0  0
  151.0407  142.1441  157.7783 C   0  0  0  0  0  0  0  0  0  0  0  0
  151.3973  141.0638  158.2477 O   0  0  0  0  0  0  0  0  0  0  0  0
  149.9576  142.2981  157.0028 N   0  0  0  0  0  0  0  0  0  0  0  0
  148.9370  141.2879  156.7344 C   0  0  0  0  0  0  0  0  0  0  0  0
  149.2693  140.4440  155.4667 C   0  0  0  0  0  0  0  0  0  0  0  0
  148.1355  139.4061  155.2910 C   0  0  0  0  0  0  0  0  0  0  0  0
  149.1923  141.4101  154.2568 C   0  0  0  0  0  0  0  0  0  0  0  0
  150.6198  139.8223  155.5672 N   0  0  0  0  0  0  0  0  0  0  0  0
  150.7826  138.8776  156.6779 C   0  0  0  0  0  0  0  0  0  0  0  0
  152.2346  138.3912  156.8110 C   0  0  0  0  0  0  0  0  0  0  0  0
  152.6584  137.8033  155.5866 O   0  0  0  0  0  0  0  0  0  0  0  0
  152.5625  138.7016  154.4877 C   0  0  0  0  0  0  0  0  0  0  0  0
  151.1115  139.1907  154.3387 C   0  0  0  0  0  0  0  0  0  0  0  0
  152.8974  142.5883  160.1116 N   0  0  0  0  0  0  0  0  0  0  0  0
  153.8213  142.5985  163.3236 H   0  0  0  0  0  0  0  0  0  0  0  0
  154.7971  141.9966  161.9902 H   0  0  0  0  0  0  0  0  0  0  0  0
  153.3401  141.1332  162.4738 H   0  0  0  0  0  0  0  0  0  0  0  0
  152.0758  144.6326  162.5948 H   0  0  0  0  0  0  0  0  0  0  0  0
  150.5343  146.2034  160.9516 H   0  0  0  0  0  0  0  0  0  0  0  0
  149.8106  145.2177  159.6821 H   0  0  0  0  0  0  0  0  0  0  0  0
  151.2173  146.2240  159.3280 H   0  0  0  0  0  0  0  0  0  0  0  0
  151.2492  144.2919  157.7839 H   0  0  0  0  0  0  0  0  0  0  0  0
  152.7645  143.4350  157.5611 H   0  0  0  0  0  0  0  0  0  0  0  0
  149.7585  143.2303  156.6689 H   0  0  0  0  0  0  0  0  0  0  0  0
  148.8613  140.6524  157.6166 H   0  0  0  0  0  0  0  0  0  0  0  0
  147.9518  141.7490  156.6433 H   0  0  0  0  0  0  0  0  0  0  0  0
  147.1666  139.8986  155.2016 H   0  0  0  0  0  0  0  0  0  0  0  0
  148.0645  138.7265  156.1399 H   0  0  0  0  0  0  0  0  0  0  0  0
  148.2660  138.8022  154.3933 H   0  0  0  0  0  0  0  0  0  0  0  0
  148.2869  142.0173  154.2844 H   0  0  0  0  0  0  0  0  0  0  0  0
  149.1724  140.8783  153.3055 H   0  0  0  0  0  0  0  0  0  0  0  0
  150.0420  142.0928  154.2314 H   0  0  0  0  0  0  0  0  0  0  0  0
  150.4970  139.3331  157.6243 H   0  0  0  0  0  0  0  0  0  0  0  0
  150.1345  138.0129  156.5345 H   0  0  0  0  0  0  0  0  0  0  0  0
  152.8921  139.2194  157.0762 H   0  0  0  0  0  0  0  0  0  0  0  0
  152.3147  137.6516  157.6077 H   0  0  0  0  0  0  0  0  0  0  0  0
  153.2388  139.5446  154.6363 H   0  0  0  0  0  0  0  0  0  0  0  0
  152.8844  138.1896  153.5808 H   0  0  0  0  0  0  0  0  0  0  0  0
  150.4774  138.3462  154.0685 H   0  0  0  0  0  0  0  0  0  0  0  0
  151.0842  139.8885  153.5039 H   0  0  0  0  0  0  0  0  0  0  0  0
  1  2  1  0  0  0  0
  1 22  1  0  0  0  0
  1 23  1  0  0  0  0
  1 24  1  0  0  0  0
  2 21  2  0  0  0  0
  2  3  1  0  0  0  0
  3  4  2  0  0  0  0
  3 25  1  0  0  0  0
  4  5  1  0  0  0  0
  4  6  1  0  0  0  0
  5 26  1  0  0  0  0
  5 27  1  0  0  0  0
  5 28  1  0  0  0  0
  6  7  1  0  0  0  0
  6 21  1  0  0  0  0
  7  8  1  0  0  0  0
  7 29  1  0  0  0  0
  7 30  1  0  0  0  0
  8  9  2  0  0  0  0
  8 10  1  0  0  0  0
 10 11  1  0  0  0  0
 10 31  1  0  0  0  0
 11 12  1  0  0  0  0
 11 32  1  0  0  0  0
 11 33  1  0  0  0  0
 12 13  1  0  0  0  0
 12 14  1  0  0  0  0
 12 15  1  0  0  0  0
 13 34  1  0  0  0  0
 13 35  1  0  0  0  0
 13 36  1  0  0  0  0
 14 37  1  0  0  0  0
 14 38  1  0  0  0  0
 14 39  1  0  0  0  0
 15 20  1  0  0  0  0
 15 16  1  0  0  0  0
 16 17  1  0  0  0  0
 16 40  1  0  0  0  0
 16 41  1  0  0  0  0
 17 18  1  0  0  0  0
 17 42  1  0  0  0  0
 17 43  1  0  0  0  0
 18 19  1  0  0  0  0
 19 20  1  0  0  0  0
 19 44  1  0  0  0  0
 19 45  1  0  0  0  0
 20 46  1  0  0  0  0
 20 47  1  0  0  0  0
M  END
> <s_m_source_file>
AV-unprocessed.smi

> <i_m_source_file_index>
1998

> <i_lp_mmshare_version>
43012

> <i_f3d_flags>
0

> <s_epik_input>
W0NIM11jMVtjSF1jKFtDSDNdKW4objEpW0NIMl1DKD1PKVtOSF1bQ0gyXUMoW0NIM10pKFtDSDNdKU4yW0NIMl1bQ0gyXU9bQ0gyXVtDSDJdMg==

> <s_epik_cmdline>
J2VwaWtfcHl0aG9uJywgJy1waCcsICc3LjAnLCAnLXRuJywgJzgnLCAnLW1hJywgJzIwMCcsICctbWV0YWxfYmluZGluZycsICctaW1hZScsICc8aW5maWxlLm1hZT4nLCAnLW9tYWUnLCAnPG91dGZpbGUubWFlPic=

> <r_lp_tautomer_probability>
1

> <r_epik_Ionization_Penalty>
0.197271

> <r_epik_Ionization_Penalty_Charging>
0

> <r_epik_Ionization_Penalty_Neutral>
0.197271

> <r_epik_State_Penalty>
0.186684

> <r_epik_Charging_Adjusted_Penalty>
0.186684

> <i_epik_Tot_Q>
0

> <i_epik_Tot_abs_Q>
0

> <r_epik_Metal_State_Penalty>
0.186642

> <b_epik_Metal_Only>
0

> <s_lp_Force_Field>
OPLS_2005

> <r_lp_Energy>
37.8286

> <b_lp_Chiralities_Consistent>
1

> <s_lp_Variant>
AV-unprocessed.smi:1998-1

> <Gold.Version>
5.8.1

> <Gold.Id.Protein>
6NUR|6NUR_protein|mol2

> <Gold.PLP.Fitness>
45.0412

> <Gold.PLP.PLP>
-42.7208

> <Gold.PLP.part.hbond>
-1.6829

> <Gold.PLP.part.metal>
0.0000

> <Gold.PLP.part.buried>
-4.0875

> <Gold.PLP.part.nonpolar>
-35.8947

> <Gold.PLP.part.repulsive>
0.0525

> <Gold.PLP.ligand.clash>
0.0000

> <Gold.PLP.ligand.torsion>
0.4168

> <Gold.PLP.Chemscore.Hbond>
1.0000

> <Gold.PLP.Chemscore.CHOScore>
0.0000

> <Gold.PLP.Chemscore.Metal>
0.0000

> <Gold.Chemscore.Hbonds>
donor molecule, donor type, donor heavy atom, donor atom, acceptor molecule, acceptor atom, score
      L1  H    10    31       P1  8028  1.00

> <Gold.PLP.Chemscore.Internal.Correction>
0.1540

> <Gold.Rescore>
     Score         DG    S(hbond)    S(metal)    S(lipo)     H(rot)  DE(clash)    DE(int)     intcor
     15.87     -16.64       0.99        0.00     103.76       1.67       0.01       0.76       ----

> <Gold.Chemscore.Fitness>
15.8663

> <Gold.Chemscore.DG>
-16.6437

> <Gold.Chemscore.ZeroCoef>
-5.4800

> <Gold.Chemscore.Hbond>
0.9850

> <Gold.Chemscore.Metal>
0.0000

> <Gold.Chemscore.Lipo>
103.7627

> <Gold.Chemscore.Internal_Hbond>
0.0000

> <Gold.Chemscore.DEClash>
0.0128

> <Gold.Chemscore.DEInternal>
0.7647

> <Gold.Chemscore.Rot>
1.6666

> <Gold.Chemscore.Internal.Correction>
   9.000000E+99

> <Gold.Chemscore.Hbonds>
donor molecule, donor type, donor heavy atom, donor atom, acceptor molecule, acceptor atom, score
      L1  H    10    31       P1  8028  0.96

> <Gold.Chemscore.Hbond.Weighted>
-3.2901

> <Gold.Chemscore.Metal.Weighted>
-0.0000

> <Gold.Chemscore.Lipo.Weighted>
-12.1402

> <Gold.Chemscore.Internal_Hbond.Weighted>
0.0000

> <Gold.Chemscore.DEClash.Weighted>
0.0128

> <Gold.Chemscore.DEInternal.Weighted>
0.7647

> <Gold.Chemscore.Rot.Weighted>
4.2666

> <Gold.Chemscore.Internal.Correction.Weighted>
   9.000000E+99

> <Gold.Protein.RotatedTorsions>
[ 6907 6896 6895 6894 ] final -114.46 input  -60.11 | X-H torsion
[ 7974 7965 7964 7962 ] final   84.99 input  175.53 | X-H torsion
[ 8008 7997 7996 7995 ] final   -0.39 input   59.86 | X-H torsion
[ 10167 10162 10161 10158 ] final   61.67 input  -65.29 | X-H torsion
[ 10718 10713 10712 10709 ] final  135.57 input   66.30 | X-H torsion
[ 10763 10752 10751 10750 ] final    4.20 input  -60.55 | X-H torsion
[ 11005 11000 10999 10996 ] final  143.17 input  -57.11 | X-H torsion

> <Gold.Protein.ActiveResidues>
 VAL166  LYS551  ARG553  GLY616  TRP617  ASP618  TYR619  PRO620  LYS621  CYS622 
 ASP623  PHE694  ASN695  SER759  ASP760  ASP761  ALA762  ILE779  LEU786  VAL792 
 PHE793  MET794  SER795  GLU796  ALA797  LYS798  CYS799  TRP800  GLU811  SER814 

> <Gold.Protein.RotatedAtoms>
  150.7904  133.8798  159.3282 H   0  0  0  0  0  0  0  0  0  0  0  0  # atno 6907 bound_to 6896
  151.6637  135.0984  160.0194 H   0  0  0  0  0  0  0  0  0  0  0  0  # atno 6908 bound_to 6896
  152.3977  133.6732  159.6325 H   0  0  0  0  0  0  0  0  0  0  0  0  # atno 6909 bound_to 6896
  145.5914  139.2338  143.2297 H   0  0  0  0  0  0  0  0  0  0  0  0  # atno 7974 bound_to 7965
  154.6586  140.2585  155.7134 H   0  0  0  0  0  0  0  0  0  0  0  0  # atno 8008 bound_to 7997
  156.2608  140.2853  156.0970 H   0  0  0  0  0  0  0  0  0  0  0  0  # atno 8009 bound_to 7997
  155.1343  140.0379  157.2773 H   0  0  0  0  0  0  0  0  0  0  0  0  # atno 8010 bound_to 7997
  140.1523  144.4451  150.6753 H   0  0  0  0  0  0  0  0  0  0  0  0  # atno 10167 bound_to 10162
  157.4557  131.1069  150.9980 H   0  0  0  0  0  0  0  0  0  0  0  0  # atno 10718 bound_to 10713
  153.2742  135.6935  153.7450 H   0  0  0  0  0  0  0  0  0  0  0  0  # atno 10763 bound_to 10752
  153.6462  135.3384  155.3087 H   0  0  0  0  0  0  0  0  0  0  0  0  # atno 10764 bound_to 10752
  154.8474  135.4443  154.1774 H   0  0  0  0  0  0  0  0  0  0  0  0  # atno 10765 bound_to 10752
  140.0533  134.9244  157.1056 H   0  0  0  0  0  0  0  0  0  0  0  0  # atno 11005 bound_to 11000
  146.1644  140.6740  142.9262 LP  0  0  0  0  0  0  0  0  0  0  0  0  # atno 17320 bound_to 7965
  144.7350  140.4781  143.6910 LP  0  0  0  0  0  0  0  0  0  0  0  0  # atno 17321 bound_to 7965
  140.6695  143.2280  151.5661 LP  0  0  0  0  0  0  0  0  0  0  0  0  # atno 17342 bound_to 10162
  139.5420  144.2622  152.1369 LP  0  0  0  0  0  0  0  0  0  0  0  0  # atno 17343 bound_to 10162
  157.0795  130.5897  149.5417 LP  0  0  0  0  0  0  0  0  0  0  0  0  # atno 17370 bound_to 10713
  156.0006  130.5084  150.7649 LP  0  0  0  0  0  0  0  0  0  0  0  0  # atno 17371 bound_to 10713
  140.3883  134.2212  155.7167 LP  0  0  0  0  0  0  0  0  0  0  0  0  # atno 17394 bound_to 11000
  141.1940  133.8137  157.0773 LP  0  0  0  0  0  0  0  0  0  0  0  0  # atno 17395 bound_to 11000

$$$$
