AV-unprocessed.smi:342|AV-procd|sdf|2385|dock2
  -GOLD-   2262022313D 1   1.00000     0.00000
 Structure written by MMmdl.
 41 43  0  0  0  0  0  0  0  0  1 V2000
  152.8658  139.9215  155.6480 O   0  0  0  0  0  0  0  0  0  0  0  0
  151.4720  140.1516  155.7120 C   0  0  1  0  0  0  0  0  0  0  0  0
  150.7774  139.2755  154.6495 C   0  0  0  0  0  0  0  0  0  0  0  0
  149.6237  139.8818  153.9826 N   0  0  0  0  0  0  0  0  0  0  0  0
  148.6037  138.8785  153.6954 C   0  0  0  0  0  0  0  0  0  0  0  0
  147.3776  139.4866  152.9932 C   0  0  0  0  0  0  0  0  0  0  0  0
  146.8388  140.5298  153.7979 O   0  0  0  0  0  0  0  0  0  0  0  0
  147.7860  141.5578  154.0666 C   0  0  0  0  0  0  0  0  0  0  0  0
  149.0189  140.9586  154.7660 C   0  0  0  0  0  0  0  0  0  0  0  0
  150.9606  139.8273  157.1306 C   0  0  0  0  0  0  0  0  0  0  0  0
  151.5643  140.6694  158.1563 N   0  0  0  0  0  0  0  0  0  0  0  0
  152.3755  140.3064  159.1850 C   0  0  0  0  0  0  0  0  0  0  0  0
  152.7771  138.8781  159.4312 C   0  0  0  0  0  0  0  0  0  0  0  0
  153.4256  138.7577  160.5907 F   0  0  0  0  0  0  0  0  0  0  0  0
  151.7011  138.0927  159.4834 F   0  0  0  0  0  0  0  0  0  0  0  0
  153.5854  138.4360  158.4680 F   0  0  0  0  0  0  0  0  0  0  0  0
  152.7765  141.3025  159.9787 N   0  0  0  0  0  0  0  0  0  0  0  0
  152.1674  142.4075  159.4196 C   0  0  0  0  0  0  0  0  0  0  0  0
  152.2014  143.7669  159.8039 C   0  0  0  0  0  0  0  0  0  0  0  0
  151.4805  144.7337  159.0727 C   0  0  0  0  0  0  0  0  0  0  0  0
  150.7156  144.3550  157.9507 C   0  0  0  0  0  0  0  0  0  0  0  0
  150.6689  143.0057  157.5508 C   0  0  0  0  0  0  0  0  0  0  0  0
  151.3942  142.0450  158.2816 C   0  0  0  0  0  0  0  0  0  0  0  0
  153.0379  139.3080  154.9503 H   0  0  0  0  0  0  0  0  0  0  0  0
  151.2964  141.2077  155.5167 H   0  0  0  0  0  0  0  0  0  0  0  0
  151.5230  138.9990  153.9023 H   0  0  0  0  0  0  0  0  0  0  0  0
  150.4635  138.3375  155.1103 H   0  0  0  0  0  0  0  0  0  0  0  0
  149.0235  138.0934  153.0654 H   0  0  0  0  0  0  0  0  0  0  0  0
  148.2856  138.3978  154.6218 H   0  0  0  0  0  0  0  0  0  0  0  0
  147.6479  139.8769  152.0106 H   0  0  0  0  0  0  0  0  0  0  0  0
  146.6135  138.7252  152.8369 H   0  0  0  0  0  0  0  0  0  0  0  0
  148.0719  142.0507  153.1359 H   0  0  0  0  0  0  0  0  0  0  0  0
  147.3213  142.3139  154.6997 H   0  0  0  0  0  0  0  0  0  0  0  0
  148.7280  140.5834  155.7483 H   0  0  0  0  0  0  0  0  0  0  0  0
  149.7375  141.7585  154.9371 H   0  0  0  0  0  0  0  0  0  0  0  0
  149.8806  139.9724  157.1749 H   0  0  0  0  0  0  0  0  0  0  0  0
  151.1319  138.7774  157.3633 H   0  0  0  0  0  0  0  0  0  0  0  0
  152.7821  144.0661  160.6638 H   0  0  0  0  0  0  0  0  0  0  0  0
  151.5134  145.7700  159.3754 H   0  0  0  0  0  0  0  0  0  0  0  0
  150.1645  145.1009  157.3967 H   0  0  0  0  0  0  0  0  0  0  0  0
  150.0832  142.7138  156.6920 H   0  0  0  0  0  0  0  0  0  0  0  0
  1  2  1  0  0  0  0
  1 24  1  0  0  0  0
  2  3  1  0  0  0  0
  2 10  1  0  0  0  0
  2 25  1  0  0  0  0
  3  4  1  0  0  0  0
  3 26  1  0  0  0  0
  3 27  1  0  0  0  0
  4  9  1  0  0  0  0
  4  5  1  0  0  0  0
  5  6  1  0  0  0  0
  5 28  1  0  0  0  0
  5 29  1  0  0  0  0
  6  7  1  0  0  0  0
  6 30  1  0  0  0  0
  6 31  1  0  0  0  0
  7  8  1  0  0  0  0
  8  9  1  0  0  0  0
  8 32  1  0  0  0  0
  8 33  1  0  0  0  0
  9 34  1  0  0  0  0
  9 35  1  0  0  0  0
 10 11  1  0  0  0  0
 10 36  1  0  0  0  0
 10 37  1  0  0  0  0
 11 23  1  0  0  0  0
 11 12  1  0  0  0  0
 12 13  1  0  0  0  0
 12 17  2  0  0  0  0
 13 14  1  0  0  0  0
 13 15  1  0  0  0  0
 13 16  1  0  0  0  0
 17 18  1  0  0  0  0
 18 23  2  0  0  0  0
 18 19  1  0  0  0  0
 19 20  2  0  0  0  0
 19 38  1  0  0  0  0
 20 21  1  0  0  0  0
 20 39  1  0  0  0  0
 21 22  2  0  0  0  0
 21 40  1  0  0  0  0
 22 23  1  0  0  0  0
 22 41  1  0  0  0  0
M  END
> <s_m_source_file>
AV-unprocessed.smi

> <i_m_source_file_index>
342

> <i_lp_mmshare_version>
43012

> <i_f3d_flags>
0

> <s_epik_input>
W2NIXTFbY0hdW2NIXVtjSF1jKGMxMiluKGMobjIpQyhGKShGKUYpW0NIMl1bQ0BIXShbT0hdKVtDSDJdTjNbQ0gyXVtDSDJdT1tDSDJdW0NIMl0z

> <s_epik_cmdline>
J2VwaWtfcHl0aG9uJywgJy1waCcsICc3LjAnLCAnLXRuJywgJzgnLCAnLW1hJywgJzIwMCcsICctbWV0YWxfYmluZGluZycsICctaW1hZScsICc8aW5maWxlLm1hZT4nLCAnLW9tYWUnLCAnPG91dGZpbGUubWFlPic=

> <r_epik_Ionization_Penalty>
0.263195

> <r_epik_Ionization_Penalty_Charging>
0

> <r_epik_Ionization_Penalty_Neutral>
0.263195

> <r_epik_State_Penalty>
0.254683

> <r_epik_Charging_Adjusted_Penalty>
0.254683

> <i_epik_Tot_Q>
0

> <i_epik_Tot_abs_Q>
0

> <r_epik_Metal_State_Penalty>
0.254691

> <b_epik_Metal_Only>
0

> <s_lp_Force_Field>
OPLS_2005

> <r_lp_Energy>
34.5572

> <b_lp_Chiralities_Consistent>
1

> <s_lp_Variant>
AV-unprocessed.smi:342-2

> <Gold.Version>
5.8.1

> <Gold.Id.Protein>
6NUR|6NUR_protein|mol2

> <Gold.PLP.Fitness>
49.7757

> <Gold.PLP.PLP>
-48.9437

> <Gold.PLP.part.hbond>
-1.5452

> <Gold.PLP.part.metal>
0.0000

> <Gold.PLP.part.buried>
-4.8536

> <Gold.PLP.part.nonpolar>
-43.7590

> <Gold.PLP.part.repulsive>
1.4188

> <Gold.PLP.ligand.clash>
0.0000

> <Gold.PLP.ligand.torsion>
1.1845

> <Gold.PLP.Chemscore.Hbond>
1.0000

> <Gold.PLP.Chemscore.CHOScore>
0.0000

> <Gold.PLP.Chemscore.Metal>
0.0000

> <Gold.Chemscore.Hbonds>
donor molecule, donor type, donor heavy atom, donor atom, acceptor molecule, acceptor atom, score
      P1  H  7997  8008       L1     1  1.00

> <Gold.PLP.Chemscore.Internal.Correction>
0.2010

> <Gold.Rescore>
     Score         DG    S(hbond)    S(metal)    S(lipo)     H(rot)  DE(clash)    DE(int)     intcor
     15.64     -16.70       0.98        0.00     116.88       2.24       0.08       0.98       ----

> <Gold.Chemscore.Fitness>
15.6387

> <Gold.Chemscore.DG>
-16.6976

> <Gold.Chemscore.ZeroCoef>
-5.4800

> <Gold.Chemscore.Hbond>
0.9828

> <Gold.Chemscore.Metal>
0.0000

> <Gold.Chemscore.Lipo>
116.8807

> <Gold.Chemscore.Internal_Hbond>
0.0000

> <Gold.Chemscore.DEClash>
0.0776

> <Gold.Chemscore.DEInternal>
0.9812

> <Gold.Chemscore.Rot>
2.2421

> <Gold.Chemscore.Internal.Correction>
   9.000000E+99

> <Gold.Chemscore.Hbonds>
donor molecule, donor type, donor heavy atom, donor atom, acceptor molecule, acceptor atom, score
      P1  H  7997  8008       L1     1  0.39

> <Gold.Chemscore.Hbond.Weighted>
-3.2824

> <Gold.Chemscore.Metal.Weighted>
-0.0000

> <Gold.Chemscore.Lipo.Weighted>
-13.6750

> <Gold.Chemscore.Internal_Hbond.Weighted>
0.0000

> <Gold.Chemscore.DEClash.Weighted>
0.0776

> <Gold.Chemscore.DEInternal.Weighted>
0.9812

> <Gold.Chemscore.Rot.Weighted>
5.7399

> <Gold.Chemscore.Internal.Correction.Weighted>
   9.000000E+99

> <Gold.Protein.RotatedTorsions>
[ 6907 6896 6895 6894 ] final  102.99 input  -60.11 | X-H torsion
[ 7974 7965 7964 7962 ] final  -43.01 input  175.53 | X-H torsion
[ 8008 7997 7996 7995 ] final  -41.99 input   59.86 | X-H torsion
[ 10167 10162 10161 10158 ] final  113.00 input  -65.29 | X-H torsion
[ 10718 10713 10712 10709 ] final   92.62 input   66.30 | X-H torsion
[ 10763 10752 10751 10750 ] final  126.48 input  -60.55 | X-H torsion
[ 11005 11000 10999 10996 ] final -139.88 input  -57.11 | X-H torsion

> <Gold.Protein.ActiveResidues>
 VAL166  LYS551  ARG553  GLY616  TRP617  ASP618  TYR619  PRO620  LYS621  CYS622 
 ASP623  PHE694  ASN695  SER759  ASP760  ASP761  ALA762  ILE779  LEU786  VAL792 
 PHE793  MET794  SER795  GLU796  ALA797  LYS798  CYS799  TRP800  GLU811  SER814 

> <Gold.Protein.RotatedAtoms>
  152.5308  133.9892  159.7842 H   0  0  0  0  0  0  0  0  0  0  0  0  # atno 6907 bound_to 6896
  151.0131  133.5938  159.2687 H   0  0  0  0  0  0  0  0  0  0  0  0  # atno 6908 bound_to 6896
  151.3005  135.0774  159.9290 H   0  0  0  0  0  0  0  0  0  0  0  0  # atno 6909 bound_to 6896
  146.0060  140.7019  142.9247 H   0  0  0  0  0  0  0  0  0  0  0  0  # atno 7974 bound_to 7965
  154.4001  140.1485  156.3281 H   0  0  0  0  0  0  0  0  0  0  0  0  # atno 8008 bound_to 7997
  155.8469  140.3459  155.5646 H   0  0  0  0  0  0  0  0  0  0  0  0  # atno 8009 bound_to 7997
  155.8027  140.0872  157.1939 H   0  0  0  0  0  0  0  0  0  0  0  0  # atno 8010 bound_to 7997
  139.6493  144.7128  151.2079 H   0  0  0  0  0  0  0  0  0  0  0  0  # atno 10167 bound_to 10162
  157.6958  131.0449  150.3909 H   0  0  0  0  0  0  0  0  0  0  0  0  # atno 10718 bound_to 10713
  153.6941  135.3294  155.3209 H   0  0  0  0  0  0  0  0  0  0  0  0  # atno 10763 bound_to 10752
  154.8432  135.4438  154.1478 H   0  0  0  0  0  0  0  0  0  0  0  0  # atno 10764 bound_to 10752
  153.2528  135.6983  153.7739 H   0  0  0  0  0  0  0  0  0  0  0  0  # atno 10765 bound_to 10752
  140.8477  134.2324  157.4777 H   0  0  0  0  0  0  0  0  0  0  0  0  # atno 11005 bound_to 11000
  144.6936  140.3316  143.7215 LP  0  0  0  0  0  0  0  0  0  0  0  0  # atno 17320 bound_to 7965
  145.7415  139.1765  143.2373 LP  0  0  0  0  0  0  0  0  0  0  0  0  # atno 17321 bound_to 7965
  140.7530  143.6176  150.8544 LP  0  0  0  0  0  0  0  0  0  0  0  0  # atno 17342 bound_to 10162
  139.9823  143.5938  152.2939 LP  0  0  0  0  0  0  0  0  0  0  0  0  # atno 17343 bound_to 10162
  156.4313  130.3972  149.6759 LP  0  0  0  0  0  0  0  0  0  0  0  0  # atno 17370 bound_to 10713
  156.3975  130.7658  151.2663 LP  0  0  0  0  0  0  0  0  0  0  0  0  # atno 17371 bound_to 10713
  139.8703  134.9667  156.4573 LP  0  0  0  0  0  0  0  0  0  0  0  0  # atno 17394 bound_to 11000
  140.8825  133.7907  155.9482 LP  0  0  0  0  0  0  0  0  0  0  0  0  # atno 17395 bound_to 11000

$$$$
