AV-unprocessed.smi:21|AV-procd|sdf|138|dock4
  -GOLD-   2262015333D 1   1.00000     0.00000
 Structure written by MMmdl.
 62 65  0  0  0  0  0  0  0  0  2 V2000
  145.4023  132.7987  150.2688 C   0  0  0  0  0  0  0  0  0  0  0  0
  145.7882  134.0768  150.7496 O   0  0  0  0  0  0  0  0  0  0  0  0
  144.6939  134.9023  151.1274 C   0  0  2  0  0  0  0  0  0  0  0  0
  145.2347  136.1856  151.7441 C   0  0  0  0  0  0  0  0  0  0  0  0
  145.5624  135.7993  153.1931 C   0  0  1  0  0  0  0  0  0  0  0  0
  145.5743  136.9973  154.1755 C   0  0  0  0  0  0  0  0  0  0  0  0
  146.4029  138.1064  153.6993 N   0  0  0  0  0  0  0  0  0  0  0  0
  145.7891  139.1153  152.8454 C   0  0  0  0  0  0  0  0  0  0  0  0
  147.5699  138.3900  154.3397 C   0  0  0  0  0  0  0  0  0  0  0  0
  148.3217  137.3491  154.7853 N   0  0  0  0  0  0  0  0  0  0  0  0
  149.4768  137.5640  155.4203 C   0  0  0  0  0  0  0  0  0  0  0  0
  150.0586  138.7252  155.7199 N   0  0  0  0  0  0  0  0  0  0  0  0
  149.3099  139.7785  155.2862 C   0  0  0  0  0  0  0  0  0  0  0  0
  148.0665  139.7048  154.5927 C   0  0  0  0  0  0  0  0  0  0  0  0
  147.6047  140.9917  154.3340 N   0  0  0  0  0  0  0  0  0  0  0  0
  148.5235  141.7745  154.8284 C   0  0  0  0  0  0  0  0  0  0  0  0
  149.5850  141.1284  155.4165 N   0  0  0  0  0  0  0  0  0  0  0  0
  150.7367  141.7524  156.0430 C   0  0  0  0  0  0  0  0  0  0  0  0
  150.7041  141.7166  157.5938 C   0  0  2  0  0  0  0  0  0  0  0  0
  149.2679  141.8706  158.1571 C   0  0  0  0  0  0  0  0  0  0  0  0
  148.5882  140.6332  158.2142 O   0  0  0  0  0  0  0  0  0  0  0  0
  151.6477  142.7985  158.1810 C   0  0  2  0  0  0  0  0  0  0  0  0
  151.6413  142.9056  159.6975 C   0  0  0  0  0  0  0  0  0  0  0  0
  152.2402  144.2874  159.9213 C   0  0  0  0  0  0  0  0  0  0  0  0
  151.7362  145.0813  158.8562 O   0  0  0  0  0  0  0  0  0  0  0  0
  151.2914  144.2418  157.7942 C   0  0  0  0  0  0  0  0  0  0  0  0
  144.6271  134.6869  153.5324 N   0  3  1  0  0  0  0  0  0  0  0  0
  143.7208  134.8742  154.6899 C   0  0  0  0  0  0  0  0  0  0  0  0
  143.9162  134.2874  152.2951 C   0  0  0  0  0  0  0  0  0  0  0  0
  144.0579  135.1203  150.2674 H   0  0  0  0  0  0  0  0  0  0  0  0
  146.5533  135.3430  153.1987 H   0  0  0  0  0  0  0  0  0  0  0  0
  146.2912  132.2260  150.0047 H   0  0  0  0  0  0  0  0  0  0  0  0
  144.7840  132.8854  149.3744 H   0  0  0  0  0  0  0  0  0  0  0  0
  144.8517  132.2311  151.0190 H   0  0  0  0  0  0  0  0  0  0  0  0
  146.0951  136.5840  151.2050 H   0  0  0  0  0  0  0  0  0  0  0  0
  144.4537  136.9473  151.7302 H   0  0  0  0  0  0  0  0  0  0  0  0
  144.5575  137.3258  154.3907 H   0  0  0  0  0  0  0  0  0  0  0  0
  145.9914  136.6819  155.1321 H   0  0  0  0  0  0  0  0  0  0  0  0
  146.5368  139.6048  152.2204 H   0  0  0  0  0  0  0  0  0  0  0  0
  145.2808  139.8717  153.4438 H   0  0  0  0  0  0  0  0  0  0  0  0
  145.0527  138.6603  152.1827 H   0  0  0  0  0  0  0  0  0  0  0  0
  150.0114  136.6789  155.7324 H   0  0  0  0  0  0  0  0  0  0  0  0
  148.4542  142.8514  154.7759 H   0  0  0  0  0  0  0  0  0  0  0  0
  151.6217  141.2407  155.6654 H   0  0  0  0  0  0  0  0  0  0  0  0
  150.8074  142.7832  155.6937 H   0  0  0  0  0  0  0  0  0  0  0  0
  151.0887  140.7472  157.9156 H   0  0  0  0  0  0  0  0  0  0  0  0
  149.2795  142.2588  159.1744 H   0  0  0  0  0  0  0  0  0  0  0  0
  148.6916  142.5784  157.5606 H   0  0  0  0  0  0  0  0  0  0  0  0
  147.8822  140.6492  157.5860 H   0  0  0  0  0  0  0  0  0  0  0  0
  152.6710  142.5971  157.8596 H   0  0  0  0  0  0  0  0  0  0  0  0
  150.6203  142.8734  160.0805 H   0  0  0  0  0  0  0  0  0  0  0  0
  152.2182  142.1219  160.1895 H   0  0  0  0  0  0  0  0  0  0  0  0
  151.9805  144.7077  160.8932 H   0  0  0  0  0  0  0  0  0  0  0  0
  153.3278  144.2479  159.8459 H   0  0  0  0  0  0  0  0  0  0  0  0
  151.7512  144.5414  156.8521 H   0  0  0  0  0  0  0  0  0  0  0  0
  150.2123  144.3654  157.6949 H   0  0  0  0  0  0  0  0  0  0  0  0
  143.0554  135.7260  154.5434 H   0  0  0  0  0  0  0  0  0  0  0  0
  144.2827  135.0191  155.6124 H   0  0  0  0  0  0  0  0  0  0  0  0
  143.1033  133.9857  154.8262 H   0  0  0  0  0  0  0  0  0  0  0  0
  142.9103  134.7109  152.3027 H   0  0  0  0  0  0  0  0  0  0  0  0
  143.8107  133.2048  152.2301 H   0  0  0  0  0  0  0  0  0  0  0  0
  145.2242  133.9080  153.7723 H   0  0  0  0  0  0  0  0  0  0  0  0
  1  2  1  0  0  0  0
  1 32  1  0  0  0  0
  1 33  1  0  0  0  0
  1 34  1  0  0  0  0
  2  3  1  0  0  0  0
  3 30  1  0  0  0  0
  3 29  1  0  0  0  0
  3  4  1  0  0  0  0
  4  5  1  0  0  0  0
  4 35  1  0  0  0  0
  4 36  1  0  0  0  0
  5 31  1  0  0  0  0
  5  6  1  0  0  0  0
  5 27  1  0  0  0  0
  6  7  1  0  0  0  0
  6 37  1  0  0  0  0
  6 38  1  0  0  0  0
  7  8  1  0  0  0  0
  7  9  1  0  0  0  0
  8 39  1  0  0  0  0
  8 40  1  0  0  0  0
  8 41  1  0  0  0  0
  9 14  1  0  0  0  0
  9 10  2  0  0  0  0
 10 11  1  0  0  0  0
 11 12  2  0  0  0  0
 11 42  1  0  0  0  0
 12 13  1  0  0  0  0
 13 17  1  0  0  0  0
 13 14  2  0  0  0  0
 14 15  1  0  0  0  0
 15 16  2  0  0  0  0
 16 17  1  0  0  0  0
 16 43  1  0  0  0  0
 17 18  1  0  0  0  0
 18 19  1  0  0  0  0
 18 44  1  0  0  0  0
 18 45  1  0  0  0  0
 19 20  1  0  0  0  0
 19 22  1  0  0  0  0
 19 46  1  0  0  0  0
 20 21  1  0  0  0  0
 20 47  1  0  0  0  0
 20 48  1  0  0  0  0
 21 49  1  0  0  0  0
 22 26  1  0  0  0  0
 22 23  1  0  0  0  0
 22 50  1  0  0  0  0
 23 24  1  0  0  0  0
 23 51  1  0  0  0  0
 23 52  1  0  0  0  0
 24 25  1  0  0  0  0
 24 53  1  0  0  0  0
 24 54  1  0  0  0  0
 25 26  1  0  0  0  0
 26 55  1  0  0  0  0
 26 56  1  0  0  0  0
 27 28  1  0  0  0  0
 27 29  1  0  0  0  0
 27 62  1  0  0  0  0
 28 57  1  0  0  0  0
 28 58  1  0  0  0  0
 28 59  1  0  0  0  0
 29 60  1  0  0  0  0
 29 61  1  0  0  0  0
M  CHG  1  27   1
M  END
> <s_m_source_file>
AV-unprocessed.smi

> <i_m_source_file_index>
21

> <i_lp_mmshare_version>
43012

> <i_f3d_flags>
0

> <s_epik_input>
W0NIM11PW0NASF0xW0NIMl1bQ0BIXShOKFtDSDNdKVtDSDJdMSlbQ0gyXU4oW0NIM10pYyhuW2NIXW4yKWMoYzIzKW5bY0hdbjNbQ0gyXVtDQEhdKFtDSDJdW09IXSlbQ0BASF00W0NIMl1bQ0gyXU9bQ0gyXTQ=

> <s_epik_cmdline>
J2VwaWtfcHl0aG9uJywgJy1waCcsICc3LjAnLCAnLXRuJywgJzgnLCAnLW1hJywgJzIwMCcsICctbWV0YWxfYmluZGluZycsICctaW1hZScsICc8aW5maWxlLm1hZT4nLCAnLW9tYWUnLCAnPG91dGZpbGUubWFlPic=

> <r_lp_tautomer_probability>
1

> <r_epik_Ionization_Penalty>
0.0157465

> <r_epik_Ionization_Penalty_Charging>
0.015354

> <r_epik_Ionization_Penalty_Neutral>
0.000392529

> <r_epik_State_Penalty>
0.0120612

> <r_epik_Charging_Adjusted_Penalty>
0.0274152

> <i_epik_Tot_Q>
1

> <i_epik_Tot_abs_Q>
1

> <r_epik_Metal_State_Penalty>
0.0121253

> <b_epik_Metal_Only>
0

> <s_lp_Force_Field>
OPLS_2005

> <r_lp_Energy>
61.8504

> <b_lp_Chiralities_Consistent>
1

> <s_lp_Variant>
AV-unprocessed.smi:21-18

> <Gold.Version>
5.8.1

> <Gold.Id.Protein>
6NUR|6NUR_protein|mol2

> <Gold.PLP.Fitness>
44.9354

> <Gold.PLP.PLP>
-44.1449

> <Gold.PLP.part.hbond>
0.0000

> <Gold.PLP.part.metal>
0.0000

> <Gold.PLP.part.buried>
-5.3133

> <Gold.PLP.part.nonpolar>
-40.4419

> <Gold.PLP.part.repulsive>
0.5066

> <Gold.PLP.ligand.clash>
0.0000

> <Gold.PLP.ligand.torsion>
1.4269

> <Gold.PLP.Chemscore.Hbond>
0.0000

> <Gold.PLP.Chemscore.CHOScore>
1.0000

> <Gold.PLP.Chemscore.Metal>
0.0000

> <Gold.Chemscore.Hbonds>
donor molecule, donor type, donor heavy atom, donor atom, acceptor molecule, acceptor atom, score
      L1  C    16    43       P1  8028  1.00

> <Gold.PLP.Chemscore.Internal.Correction>
0.6443

> <Gold.Rescore>
     Score         DG    S(hbond)    S(metal)    S(lipo)     H(rot)  DE(clash)    DE(int)     intcor
      6.77      -9.89       0.00        0.00     104.96       3.08       0.03       3.09       ----

> <Gold.Chemscore.Fitness>
6.7704

> <Gold.Chemscore.DG>
-9.8864

> <Gold.Chemscore.ZeroCoef>
-5.4800

> <Gold.Chemscore.Hbond>
0.0000

> <Gold.Chemscore.Metal>
0.0000

> <Gold.Chemscore.Lipo>
104.9620

> <Gold.Chemscore.Internal_Hbond>
0.0000

> <Gold.Chemscore.DEClash>
0.0291

> <Gold.Chemscore.DEInternal>
3.0869

> <Gold.Chemscore.Rot>
3.0758

> <Gold.Chemscore.Internal.Correction>
   9.000000E+99

> <Gold.Chemscore.Hbond.Weighted>
-0.0000

> <Gold.Chemscore.Metal.Weighted>
-0.0000

> <Gold.Chemscore.Lipo.Weighted>
-12.2806

> <Gold.Chemscore.Internal_Hbond.Weighted>
0.0000

> <Gold.Chemscore.DEClash.Weighted>
0.0291

> <Gold.Chemscore.DEInternal.Weighted>
3.0869

> <Gold.Chemscore.Rot.Weighted>
7.8741

> <Gold.Chemscore.Internal.Correction.Weighted>
   9.000000E+99

> <Gold.Protein.RotatedTorsions>
[ 6907 6896 6895 6894 ] final   15.55 input  -60.11 | X-H torsion
[ 7974 7965 7964 7962 ] final -122.01 input  175.53 | X-H torsion
[ 8008 7997 7996 7995 ] final  101.01 input   59.86 | X-H torsion
[ 10167 10162 10161 10158 ] final  -72.82 input  -65.29 | X-H torsion
[ 10718 10713 10712 10709 ] final  -13.33 input   66.30 | X-H torsion
[ 10763 10752 10751 10750 ] final  -20.25 input  -60.55 | X-H torsion
[ 11005 11000 10999 10996 ] final   70.52 input  -57.11 | X-H torsion

> <Gold.Protein.ActiveResidues>
 VAL166  LYS551  ARG553  GLY616  TRP617  ASP618  TYR619  PRO620  LYS621  CYS622 
 ASP623  PHE694  ASN695  SER759  ASP760  ASP761  ALA762  ILE779  LEU786  VAL792 
 PHE793  MET794  SER795  GLU796  ALA797  LYS798  CYS799  TRP800  GLU811  SER814 

> <Gold.Protein.RotatedAtoms>
  151.8198  135.0655  160.0423 H   0  0  0  0  0  0  0  0  0  0  0  0  # atno 6907 bound_to 6896
  152.2959  133.5603  159.5595 H   0  0  0  0  0  0  0  0  0  0  0  0  # atno 6908 bound_to 6896
  150.7251  134.0277  159.3765 H   0  0  0  0  0  0  0  0  0  0  0  0  # atno 6909 bound_to 6896
  145.0341  140.8092  143.4306 H   0  0  0  0  0  0  0  0  0  0  0  0  # atno 7974 bound_to 7965
  156.1258  140.3204  155.8276 H   0  0  0  0  0  0  0  0  0  0  0  0  # atno 8008 bound_to 7997
  155.4421  140.0526  157.3026 H   0  0  0  0  0  0  0  0  0  0  0  0  # atno 8009 bound_to 7997
  154.4862  140.2073  155.9664 H   0  0  0  0  0  0  0  0  0  0  0  0  # atno 8010 bound_to 7997
  140.5161  143.2338  151.7510 H   0  0  0  0  0  0  0  0  0  0  0  0  # atno 10167 bound_to 10162
  156.6318  130.4903  149.6126 H   0  0  0  0  0  0  0  0  0  0  0  0  # atno 10718 bound_to 10713
  153.6176  135.6994  153.5323 H   0  0  0  0  0  0  0  0  0  0  0  0  # atno 10763 bound_to 10752
  153.2965  135.4141  155.1213 H   0  0  0  0  0  0  0  0  0  0  0  0  # atno 10764 bound_to 10752
  154.8550  135.3638  154.5716 H   0  0  0  0  0  0  0  0  0  0  0  0  # atno 10765 bound_to 10752
  139.9593  134.7089  156.0682 H   0  0  0  0  0  0  0  0  0  0  0  0  # atno 11005 bound_to 11000
  145.1732  139.2392  143.5331 LP  0  0  0  0  0  0  0  0  0  0  0  0  # atno 17320 bound_to 7965
  146.3502  140.1488  142.8593 LP  0  0  0  0  0  0  0  0  0  0  0  0  # atno 17321 bound_to 7965
  139.4909  144.4322  151.9860 LP  0  0  0  0  0  0  0  0  0  0  0  0  # atno 17342 bound_to 10162
  140.3416  144.3196  150.5966 LP  0  0  0  0  0  0  0  0  0  0  0  0  # atno 17343 bound_to 10162
  156.2229  130.6748  151.1386 LP  0  0  0  0  0  0  0  0  0  0  0  0  # atno 17370 bound_to 10713
  157.7198  131.0688  150.6183 LP  0  0  0  0  0  0  0  0  0  0  0  0  # atno 17371 bound_to 10713
  141.1268  133.6597  156.3359 LP  0  0  0  0  0  0  0  0  0  0  0  0  # atno 17394 bound_to 11000
  140.5537  134.6002  157.5415 LP  0  0  0  0  0  0  0  0  0  0  0  0  # atno 17395 bound_to 11000

$$$$
