#       Name:                AV-unprocessed.smi:1744
#       Creating user name   scv26
#       Creation time:       Fri Mar 27 08:24:32 2020


#       File generated by GOLD software.
#

@<TRIPOS>MOLECULE
AV-unprocessed.smi:1744
    49    50     1
SMALL
NO_CHARGES


@<TRIPOS>ATOM
      1 ****        -7.2025  -2.7405  -0.3289 C.3            1 S1                 0.0000
      2 ****        -6.5319  -2.4778   1.0250 C.3            1 S1                 0.0000
      3 ****        -5.3466  -1.6535   0.8885 N.pl3          1 S1                 0.0000
      4 ****        -4.0238  -2.0436   0.9527 C.2            1 S1                 0.0000
      5 ****        -3.2923  -0.9107   0.7598 C.2            1 S1                 0.0000
      6 ****        -1.8764  -0.8540   0.7500 N.am           1 S1                 0.0000
      7 ****        -1.1081   0.2152   0.4871 C.2            1 S1                 0.0000
      8 ****        -1.5279   1.3346   0.1942 O.2            1 S1                 0.0000
      9 ****         0.1948  -0.0890   0.5727 N.am           1 S1                 0.0000
     10 ****         1.2936   0.8403   0.3264 C.3            1 S1                 0.0000
     11 ****         1.6039   0.9294  -1.1790 C.3            1 S1                 0.0000
     12 ****         2.8331   1.8139  -1.4443 C.3            1 S1                 0.0000
     13 ****         4.0164   1.3258  -0.6927 N.4            1 S1                 1.0000
     14 ****         5.2554   2.0651  -1.0448 C.3            1 S1                 0.0000
     15 ****         6.4964   1.2158  -0.7497 C.2            1 S1                 0.0000
     16 ****         6.5710   0.1226  -1.5356 N.pl3          1 S1                -1.0000
     17 ****         7.2798   1.5699   0.1282 O.2            1 S1                 0.0000
     18 ****         3.7535   1.2775   0.7706 C.3            1 S1                 0.0000
     19 ****         2.5477   0.3770   1.0852 C.3            1 S1                 0.0000
     20 ****        -4.2387   0.1392   0.5902 C.2            1 S1                 0.0000
     21 ****        -5.4781  -0.3214   0.6707 N.2            1 S1                 0.0000
     22 ****        -8.0747  -3.3839  -0.2115 H              1 S1                 0.0000
     23 ****        -6.5161  -3.2319  -1.0188 H              1 S1                 0.0000
     24 ****        -7.5360  -1.8113  -0.7919 H              1 S1                 0.0000
     25 ****        -7.2274  -1.9835   1.7046 H              1 S1                 0.0000
     26 ****        -6.2483  -3.4213   1.4923 H              1 S1                 0.0000
     27 ****        -3.7277  -3.0683   1.1221 H              1 S1                 0.0000
     28 ****        -1.3997  -1.7200   0.9545 H              1 S1                 0.0000
     29 ****         0.4455  -1.0356   0.8186 H              1 S1                 0.0000
     30 ****         1.0179   1.8311   0.6933 H              1 S1                 0.0000
     31 ****         1.7853  -0.0689  -1.5801 H              1 S1                 0.0000
     32 ****         0.7438   1.3271  -1.7192 H              1 S1                 0.0000
     33 ****         3.0493   1.8118  -2.5132 H              1 S1                 0.0000
     34 ****         2.6231   2.8472  -1.1638 H              1 S1                 0.0000
     35 ****         5.2622   2.3137  -2.1076 H              1 S1                 0.0000
     36 ****         5.2994   3.0118  -0.5040 H              1 S1                 0.0000
     37 ****         5.8432  -0.0350  -2.2426 H              1 S1                 0.0000
     38 ****         4.6274   0.8968   1.3000 H              1 S1                 0.0000
     39 ****         3.5756   2.2874   1.1433 H              1 S1                 0.0000
     40 ****         2.3572   0.3788   2.1592 H              1 S1                 0.0000
     41 ****         2.7880  -0.6526   0.8153 H              1 S1                 0.0000
     42 ****        -4.0836   1.1939   0.4181 H              1 S1                 0.0000
     43 ****         4.1776   0.3752  -0.9954 H              1 S1                 0.0000
     44 ****        -2.5125   1.5004   0.1375 LP             1 S1                 0.0000
     45 ****        -0.8844   2.0783   0.0129 LP             1 S1                 0.0000
     46 ****         7.3250  -0.5259  -1.4313 LP             1 S1                 0.0000
     47 ****         7.1057   2.4080   0.6453 LP             1 S1                 0.0000
     48 ****         8.0914   1.0201   0.3256 LP             1 S1                 0.0000
     49 ****        -6.3272   0.2004   0.5886 LP             1 S1                 0.0000
@<TRIPOS>BOND
    1    1    2 1     
    2    1   22 1     
    3    1   23 1     
    4    1   24 1     
    5    2    3 1     
    6    2   25 1     
    7    2   26 1     
    8    3   21 1     
    9    3    4 1     
   10    4    5 2     
   11    4   27 1     
   12    5    6 1     
   13    5   20 1     
   14    6    7 am    
   15    6   28 1     
   16    7    8 2     
   17    7    9 am    
   18    9   10 1     
   19    9   29 1     
   20   10   19 1     
   21   10   11 1     
   22   10   30 1     
   23   11   12 1     
   24   11   31 1     
   25   11   32 1     
   26   12   13 1     
   27   12   33 1     
   28   12   34 1     
   29   13   14 1     
   30   13   18 1     
   31   13   43 1     
   32   14   15 1     
   33   14   35 1     
   34   14   36 1     
   35   15   16 1     
   36   15   17 2     
   37   16   37 1     
   38   18   19 1     
   39   18   38 1     
   40   18   39 1     
   41   19   40 1     
   42   19   41 1     
   43   20   21 2     
   44   20   42 1     
   45    8   44 1     
   46    8   45 1     
   47   16   46 1     
   48   17   47 1     
   49   17   48 1     
   50   21   49 1     
@<TRIPOS>SUBSTRUCTURE
      1 S1             1
@<TRIPOS>SET
LONE_PAIRS      STATIC     ATOMS    <user>   **** ""
6 44 45 46 47 48 49
DONOR_HYDROGENS      STATIC     ATOMS    <user>   **** ""
4 28 29 43 37
ATOM$BLUE        STATIC     ATOMS    COLORGROUP SYSTEM
6 44 45 46 47 48 49
ATOM$RED        STATIC     ATOMS    COLORGROUP SYSTEM
4 28 29 43 37
