AV-unprocessed.smi:610|AV-procd|sdf|3057|dock6
  -GOLD-   2262023583D 1   1.00000     0.00000
 Structure written by MMmdl.
 38 39  0  0  0  0  0  0  0  0  2 V2000
  146.4685  139.2430  151.3369 C   0  0  0  0  0  0  0  0  0  0  0  0
  146.5534  138.4765  152.6634 C   0  0  2  0  0  0  0  0  0  0  0  0
  147.7345  138.9761  153.5239 C   0  0  0  0  0  0  0  0  0  0  0  0
  147.5956  140.3780  153.9325 N   0  0  0  0  0  0  0  0  0  0  0  0
  146.5687  141.2355  153.6297 C   0  0  0  0  0  0  0  0  0  0  0  0
  146.8811  142.4387  154.2077 C   0  0  0  0  0  0  0  0  0  0  0  0
  148.0802  142.2628  154.8448 N   0  3  0  0  0  0  0  0  0  0  0  0
  148.5105  141.0078  154.6808 C   0  0  0  0  0  0  0  0  0  0  0  0
  146.6806  137.0482  152.3774 N   0  0  0  0  0  0  0  0  0  0  0  0
  145.8074  136.0885  152.7339 C   0  0  0  0  0  0  0  0  0  0  0  0
  144.7686  136.3410  153.3465 O   0  0  0  0  0  0  0  0  0  0  0  0
  146.1469  134.6190  152.3774 C   0  0  0  0  0  0  0  0  0  0  0  0
  147.3982  134.1838  152.9852 N   0  0  0  0  0  0  0  0  0  0  0  0
  145.0093  133.6595  152.8216 C   0  0  0  0  0  0  0  0  0  0  0  0
  144.4874  132.9654  151.5577 C   0  0  0  0  0  0  0  0  0  0  0  0
  144.8964  133.8743  150.4041 C   0  0  0  0  0  0  0  0  0  0  0  0
  146.2480  134.4347  150.8445 C   0  0  0  0  0  0  0  0  0  0  0  0
  146.3408  140.3121  151.5092 H   0  0  0  0  0  0  0  0  0  0  0  0
  145.6206  138.9036  150.7407 H   0  0  0  0  0  0  0  0  0  0  0  0
  147.3712  139.1078  150.7400 H   0  0  0  0  0  0  0  0  0  0  0  0
  145.6213  138.6623  153.2000 H   0  0  0  0  0  0  0  0  0  0  0  0
  147.8415  138.3696  154.4244 H   0  0  0  0  0  0  0  0  0  0  0  0
  148.6714  138.8892  152.9718 H   0  0  0  0  0  0  0  0  0  0  0  0
  145.7191  140.9364  153.0329 H   0  0  0  0  0  0  0  0  0  0  0  0
  146.3544  143.3817  154.2128 H   0  0  0  0  0  0  0  0  0  0  0  0
  149.4236  140.5896  155.0657 H   0  0  0  0  0  0  0  0  0  0  0  0
  147.5020  136.7572  151.8662 H   0  0  0  0  0  0  0  0  0  0  0  0
  148.1090  134.8827  152.8238 H   0  0  0  0  0  0  0  0  0  0  0  0
  147.2792  134.1295  153.9866 H   0  0  0  0  0  0  0  0  0  0  0  0
  145.3375  132.9198  153.5536 H   0  0  0  0  0  0  0  0  0  0  0  0
  144.1884  134.2024  153.2939 H   0  0  0  0  0  0  0  0  0  0  0  0
  144.9772  131.9970  151.4460 H   0  0  0  0  0  0  0  0  0  0  0  0
  143.4120  132.7888  151.5904 H   0  0  0  0  0  0  0  0  0  0  0  0
  144.9513  133.3458  149.4521 H   0  0  0  0  0  0  0  0  0  0  0  0
  144.1737  134.6838  150.2952 H   0  0  0  0  0  0  0  0  0  0  0  0
  146.4915  135.3557  150.3120 H   0  0  0  0  0  0  0  0  0  0  0  0
  147.0262  133.7131  150.5887 H   0  0  0  0  0  0  0  0  0  0  0  0
  148.5735  142.9784  155.3641 H   0  0  0  0  0  0  0  0  0  0  0  0
  1  2  1  0  0  0  0
  1 18  1  0  0  0  0
  1 19  1  0  0  0  0
  1 20  1  0  0  0  0
  2  3  1  0  0  0  0
  2  9  1  0  0  0  0
  2 21  1  0  0  0  0
  3  4  1  0  0  0  0
  3 22  1  0  0  0  0
  3 23  1  0  0  0  0
  4  8  1  0  0  0  0
  4  5  1  0  0  0  0
  5  6  2  0  0  0  0
  5 24  1  0  0  0  0
  6  7  1  0  0  0  0
  6 25  1  0  0  0  0
  7  8  2  0  0  0  0
  7 38  1  0  0  0  0
  8 26  1  0  0  0  0
  9 10  1  0  0  0  0
  9 27  1  0  0  0  0
 10 11  2  0  0  0  0
 10 12  1  0  0  0  0
 12 17  1  0  0  0  0
 12 13  1  0  0  0  0
 12 14  1  0  0  0  0
 13 28  1  0  0  0  0
 13 29  1  0  0  0  0
 14 15  1  0  0  0  0
 14 30  1  0  0  0  0
 14 31  1  0  0  0  0
 15 16  1  0  0  0  0
 15 32  1  0  0  0  0
 15 33  1  0  0  0  0
 16 17  1  0  0  0  0
 16 34  1  0  0  0  0
 16 35  1  0  0  0  0
 17 36  1  0  0  0  0
 17 37  1  0  0  0  0
M  CHG  1   7   1
M  END
> <s_m_source_file>
AV-unprocessed.smi

> <i_m_source_file_index>
610

> <i_lp_mmshare_version>
43012

> <i_f3d_flags>
0

> <s_epik_input>
W2NIXTFuW2NIXVtjSF1uMVtDSDJdW0NAQEhdKFtDSDNdKVtOSF1DKD1PKUMyKFtOSDJdKVtDSDJdW0NIMl1bQ0gyXVtDSDJdMg==

> <s_epik_cmdline>
J2VwaWtfcHl0aG9uJywgJy1waCcsICc3LjAnLCAnLXRuJywgJzgnLCAnLW1hJywgJzIwMCcsICctbWV0YWxfYmluZGluZycsICctaW1hZScsICc8aW5maWxlLm1hZT4nLCAnLW9tYWUnLCAnPG91dGZpbGUubWFlPic=

> <r_epik_Ionization_Penalty>
1.50287

> <r_epik_Ionization_Penalty_Charging>
0

> <r_epik_Ionization_Penalty_Neutral>
1.50287

> <r_epik_State_Penalty>
1.57152

> <r_epik_Charging_Adjusted_Penalty>
1.57152

> <i_epik_Tot_Q>
1

> <i_epik_Tot_abs_Q>
1

> <r_epik_Metal_State_Penalty>
1.8522

> <b_epik_Metal_Only>
0

> <s_lp_Force_Field>
OPLS_2005

> <r_lp_Energy>
22.5232

> <b_lp_Chiralities_Consistent>
1

> <s_lp_Variant>
AV-unprocessed.smi:610-5

> <Gold.Version>
5.8.1

> <Gold.Id.Protein>
6NUR|6NUR_protein|mol2

> <Gold.PLP.Fitness>
43.8979

> <Gold.PLP.PLP>
-28.9842

> <Gold.PLP.part.hbond>
-2.7823

> <Gold.PLP.part.metal>
0.0000

> <Gold.PLP.part.buried>
-0.9745

> <Gold.PLP.part.nonpolar>
-26.2146

> <Gold.PLP.part.repulsive>
0.3463

> <Gold.PLP.ligand.clash>
0.0000

> <Gold.PLP.ligand.torsion>
0.0201

> <Gold.PLP.Chemscore.Hbond>
3.9753

> <Gold.PLP.Chemscore.CHOScore>
1.0000

> <Gold.PLP.Chemscore.Metal>
0.0000

> <Gold.Chemscore.Hbonds>
donor molecule, donor type, donor heavy atom, donor atom, acceptor molecule, acceptor atom, score
      L1  H     7    38       P1  8028  1.89
      L1  H     9    27       P1  7948  0.98
      L1  H    13    28       P1  7948  1.00
      L1  C     5    24       P1 10175  1.00

> <Gold.PLP.Chemscore.Internal.Correction>
0.0282

> <Gold.Rescore>
     Score         DG    S(hbond)    S(metal)    S(lipo)     H(rot)  DE(clash)    DE(int)     intcor
     16.02     -16.79       2.78        0.00      61.28       2.02       0.70       0.07       ----

> <Gold.Chemscore.Fitness>
16.0211

> <Gold.Chemscore.DG>
-16.7863

> <Gold.Chemscore.ZeroCoef>
-5.4800

> <Gold.Chemscore.Hbond>
2.7832

> <Gold.Chemscore.Metal>
0.0000

> <Gold.Chemscore.Lipo>
61.2754

> <Gold.Chemscore.Internal_Hbond>
0.0000

> <Gold.Chemscore.DEClash>
0.7000

> <Gold.Chemscore.DEInternal>
0.0652

> <Gold.Chemscore.Rot>
2.0152

> <Gold.Chemscore.Internal.Correction>
   9.000000E+99

> <Gold.Chemscore.Hbonds>
donor molecule, donor type, donor heavy atom, donor atom, acceptor molecule, acceptor atom, score
      L1  H     7    38       P1  8028  0.92
      L1  H     9    27       P1  7948  0.88
      L1  H    13    28       P1  7948  0.83

> <Gold.Chemscore.Hbond.Weighted>
-9.2960

> <Gold.Chemscore.Metal.Weighted>
-0.0000

> <Gold.Chemscore.Lipo.Weighted>
-7.1692

> <Gold.Chemscore.Internal_Hbond.Weighted>
0.0000

> <Gold.Chemscore.DEClash.Weighted>
0.7000

> <Gold.Chemscore.DEInternal.Weighted>
0.0652

> <Gold.Chemscore.Rot.Weighted>
5.1589

> <Gold.Chemscore.Internal.Correction.Weighted>
   9.000000E+99

> <Gold.Protein.RotatedTorsions>
[ 6907 6896 6895 6894 ] final  149.01 input  -60.11 | X-H torsion
[ 7974 7965 7964 7962 ] final  -73.31 input  175.53 | X-H torsion
[ 8008 7997 7996 7995 ] final  179.73 input   59.86 | X-H torsion
[ 10167 10162 10161 10158 ] final   72.08 input  -65.29 | X-H torsion
[ 10718 10713 10712 10709 ] final  -82.13 input   66.30 | X-H torsion
[ 10763 10752 10751 10750 ] final   82.00 input  -60.55 | X-H torsion
[ 11005 11000 10999 10996 ] final   39.68 input  -57.11 | X-H torsion

> <Gold.Protein.ActiveResidues>
 VAL166  LYS551  ARG553  GLY616  TRP617  ASP618  TYR619  PRO620  LYS621  CYS622 
 ASP623  PHE694  ASN695  SER759  ASP760  ASP761  ALA762  ILE779  LEU786  VAL792 
 PHE793  MET794  SER795  GLU796  ALA797  LYS798  CYS799  TRP800  GLU811  SER814 

> <Gold.Protein.RotatedAtoms>
  152.1337  133.4423  159.4733 H   0  0  0  0  0  0  0  0  0  0  0  0  # atno 6907 bound_to 6896
  150.6880  134.2389  159.4473 H   0  0  0  0  0  0  0  0  0  0  0  0  # atno 6908 bound_to 6896
  152.0275  134.9787  160.0622 H   0  0  0  0  0  0  0  0  0  0  0  0  # atno 6909 bound_to 6896
  145.6539  140.9274  143.0970 H   0  0  0  0  0  0  0  0  0  0  0  0  # atno 7974 bound_to 7965
  156.0401  140.1301  157.0165 H   0  0  0  0  0  0  0  0  0  0  0  0  # atno 8008 bound_to 7997
  154.4387  140.1032  156.6295 H   0  0  0  0  0  0  0  0  0  0  0  0  # atno 8009 bound_to 7997
  155.5679  140.3466  155.4510 H   0  0  0  0  0  0  0  0  0  0  0  0  # atno 8010 bound_to 7997
  140.0391  144.5404  150.7448 H   0  0  0  0  0  0  0  0  0  0  0  0  # atno 10167 bound_to 10162
  156.0038  130.4625  150.4058 H   0  0  0  0  0  0  0  0  0  0  0  0  # atno 10718 bound_to 10713
  153.1165  135.4744  154.9124 H   0  0  0  0  0  0  0  0  0  0  0  0  # atno 10763 bound_to 10752
  154.7533  135.3112  154.8519 H   0  0  0  0  0  0  0  0  0  0  0  0  # atno 10764 bound_to 10752
  153.9094  135.6867  153.4805 H   0  0  0  0  0  0  0  0  0  0  0  0  # atno 10765 bound_to 10752
  140.2004  134.3877  155.8099 H   0  0  0  0  0  0  0  0  0  0  0  0  # atno 11005 bound_to 11000
  144.7113  139.8361  143.7413 LP  0  0  0  0  0  0  0  0  0  0  0  0  # atno 17320 bound_to 7965
  146.1181  139.4195  143.0245 LP  0  0  0  0  0  0  0  0  0  0  0  0  # atno 17321 bound_to 7965
  140.7268  143.2645  151.4092 LP  0  0  0  0  0  0  0  0  0  0  0  0  # atno 17342 bound_to 10162
  139.6025  144.1265  152.2214 LP  0  0  0  0  0  0  0  0  0  0  0  0  # atno 17343 bound_to 10162
  157.2124  131.0463  151.2592 LP  0  0  0  0  0  0  0  0  0  0  0  0  # atno 17370 bound_to 10713
  157.3876  130.7265  149.6674 LP  0  0  0  0  0  0  0  0  0  0  0  0  # atno 17371 bound_to 10713
  141.2227  133.7091  156.8248 LP  0  0  0  0  0  0  0  0  0  0  0  0  # atno 17394 bound_to 11000
  140.2060  134.8862  157.3222 LP  0  0  0  0  0  0  0  0  0  0  0  0  # atno 17395 bound_to 11000

$$$$
