#       Name:                AV-unprocessed.smi:915
#       Creating user name   scv26
#       Creation time:       Fri Mar 27 02:06:06 2020


#       File generated by GOLD software.
#

@<TRIPOS>MOLECULE
AV-unprocessed.smi:915
    37    38     1
SMALL
NO_CHARGES


@<TRIPOS>ATOM
      1 ****        -5.5160   0.7641   1.6205 C.3            1 S1                 0.0000
      2 ****        -5.2108   0.2560   0.2073 C.3            1 S1                 0.0000
      3 ****        -4.2175  -0.8662   0.2072 C.2            1 S1                 0.0000
      4 ****        -4.4865  -2.2062   0.0670 C.2            1 S1                 0.0000
      5 ****        -3.0374  -3.1738   0.1247 S.3            1 S1                 0.0000
      6 ****        -2.1081  -1.6992   0.3428 C.2            1 S1                 0.0000
      7 ****        -0.6946  -1.7130   0.4723 N.am           1 S1                 0.0000
      8 ****         0.1308  -0.6698   0.6670 C.2            1 S1                 0.0000
      9 ****        -0.2216   0.5019   0.8071 O.2            1 S1                 0.0000
     10 ****         1.4122  -1.0626   0.6931 N.am           1 S1                 0.0000
     11 ****         2.5563  -0.1743   0.8714 C.3            1 S1                 0.0000
     12 ****         2.9034   0.5945  -0.4177 C.3            1 S1                 0.0000
     13 ****         4.0477   1.5971  -0.2217 C.3            1 S1                 0.0000
     14 ****         4.6254   1.8859  -1.6076 C.3            1 S1                 0.0000
     15 ****         4.7848   0.5316  -2.2993 C.3            1 S1                 0.0000
     16 ****         3.3990  -0.5097  -1.7737 S.3            1 S1                 0.0000
     17 ****        -2.8559  -0.5902   0.3651 N.2            1 S1                 0.0000
     18 ****        -6.2382   1.5800   1.5919 H              1 S1                 0.0000
     19 ****        -4.6147   1.1345   2.1101 H              1 S1                 0.0000
     20 ****        -5.9336  -0.0293   2.2410 H              1 S1                 0.0000
     21 ****        -6.1394  -0.0666  -0.2648 H              1 S1                 0.0000
     22 ****        -4.8392   1.0826  -0.3995 H              1 S1                 0.0000
     23 ****        -5.4473  -2.6809  -0.0669 H              1 S1                 0.0000
     24 ****        -0.2606  -2.6209   0.3963 H              1 S1                 0.0000
     25 ****         1.6143  -2.0433   0.5647 H              1 S1                 0.0000
     26 ****         2.3522   0.5253   1.6838 H              1 S1                 0.0000
     27 ****         3.4087  -0.7747   1.1904 H              1 S1                 0.0000
     28 ****         2.0300   1.1481  -0.7652 H              1 S1                 0.0000
     29 ****         3.7052   2.5068   0.2723 H              1 S1                 0.0000
     30 ****         4.8248   1.1605   0.4073 H              1 S1                 0.0000
     31 ****         3.9276   2.5066  -2.1714 H              1 S1                 0.0000
     32 ****         5.5706   2.4262  -1.5524 H              1 S1                 0.0000
     33 ****         4.8184   0.6245  -3.3850 H              1 S1                 0.0000
     34 ****         5.7100   0.0533  -1.9765 H              1 S1                 0.0000
     35 ****        -1.1928   0.7386   0.7801 LP             1 S1                 0.0000
     36 ****         0.4635   1.2167   0.9478 LP             1 S1                 0.0000
     37 ****        -2.4837   0.3307   0.4813 LP             1 S1                 0.0000
@<TRIPOS>BOND
    1    1    2 1     
    2    1   18 1     
    3    1   19 1     
    4    1   20 1     
    5    2    3 1     
    6    2   21 1     
    7    2   22 1     
    8    3   17 1     
    9    3    4 2     
   10    4    5 1     
   11    4   23 1     
   12    5    6 1     
   13    6    7 1     
   14    6   17 2     
   15    7    8 am    
   16    7   24 1     
   17    8    9 2     
   18    8   10 am    
   19   10   11 1     
   20   10   25 1     
   21   11   12 1     
   22   11   26 1     
   23   11   27 1     
   24   12   16 1     
   25   12   13 1     
   26   12   28 1     
   27   13   14 1     
   28   13   29 1     
   29   13   30 1     
   30   14   15 1     
   31   14   31 1     
   32   14   32 1     
   33   15   16 1     
   34   15   33 1     
   35   15   34 1     
   36    9   35 1     
   37    9   36 1     
   38   17   37 1     
@<TRIPOS>SUBSTRUCTURE
      1 S1             1
@<TRIPOS>SET
LONE_PAIRS      STATIC     ATOMS    <user>   **** ""
3 35 36 37
DONOR_HYDROGENS      STATIC     ATOMS    <user>   **** ""
2 24 25
ATOM$BLUE        STATIC     ATOMS    COLORGROUP SYSTEM
3 35 36 37
ATOM$RED        STATIC     ATOMS    COLORGROUP SYSTEM
2 24 25
