AV-unprocessed.smi:1483|AV-procd|sdf|5990|dock1
  -GOLD-   22720 6 83D 1   1.00000     0.00000
 Structure written by MMmdl.
 49 50  0  0  0  0  0  0  0  0  2 V2000
  153.1763  138.7691  159.4375 C   0  0  0  0  0  0  0  0  0  0  0  0
  152.5147  138.5362  158.0955 C   0  0  0  0  0  0  0  0  0  0  0  0
  151.1520  138.1806  158.0142 C   0  0  0  0  0  0  0  0  0  0  0  0
  150.5810  137.9959  156.7402 C   0  0  0  0  0  0  0  0  0  0  0  0
  151.3910  138.1759  155.5996 C   0  0  0  0  0  0  0  0  0  0  0  0
  150.8029  138.0702  154.2003 C   0  0  0  0  0  0  0  0  0  0  0  0
  149.7291  139.1456  154.0157 C   0  0  0  0  0  0  0  0  0  0  0  0
  149.8836  140.2701  154.4899 O   0  0  0  0  0  0  0  0  0  0  0  0
  148.6699  138.7903  153.2726 N   0  0  0  0  0  0  0  0  0  0  0  0
  147.6655  139.6827  152.7004 C   0  0  2  0  0  0  0  0  0  0  0  0
  146.7167  140.1607  153.8114 C   0  0  0  0  0  0  0  0  0  0  0  0
  145.8867  138.9964  154.3907 C   0  0  0  0  0  0  0  0  0  0  0  0
  145.1241  138.2744  153.3371 N   0  3  2  0  0  0  0  0  0  0  0  0
  144.2944  137.1836  153.9138 C   0  0  0  0  0  0  0  0  0  0  0  0
  143.1005  136.7805  153.0215 C   0  0  0  0  0  0  0  0  0  0  0  0
  141.9749  137.8270  153.0647 C   0  0  0  0  0  0  0  0  0  0  0  0
  142.5663  135.3999  153.4306 C   0  0  0  0  0  0  0  0  0  0  0  0
  145.9991  137.8114  152.2252 C   0  0  0  0  0  0  0  0  0  0  0  0
  146.8195  138.9694  151.6265 C   0  0  0  0  0  0  0  0  0  0  0  0
  152.7483  138.5138  155.7924 C   0  0  0  0  0  0  0  0  0  0  0  0
  153.3009  138.7032  157.0093 N   0  0  0  0  0  0  0  0  0  0  0  0
  152.6018  138.3097  160.2425 H   0  0  0  0  0  0  0  0  0  0  0  0
  153.2528  139.8380  159.6376 H   0  0  0  0  0  0  0  0  0  0  0  0
  154.1801  138.3428  159.4533 H   0  0  0  0  0  0  0  0  0  0  0  0
  150.5538  138.0596  158.9056 H   0  0  0  0  0  0  0  0  0  0  0  0
  149.5356  137.7421  156.6413 H   0  0  0  0  0  0  0  0  0  0  0  0
  151.5842  138.1973  153.4501 H   0  0  0  0  0  0  0  0  0  0  0  0
  150.3721  137.0789  154.0530 H   0  0  0  0  0  0  0  0  0  0  0  0
  148.6314  137.8280  152.9696 H   0  0  0  0  0  0  0  0  0  0  0  0
  148.1735  140.5427  152.2611 H   0  0  0  0  0  0  0  0  0  0  0  0
  147.2832  140.6452  154.6077 H   0  0  0  0  0  0  0  0  0  0  0  0
  146.0439  140.9210  153.4123 H   0  0  0  0  0  0  0  0  0  0  0  0
  146.5344  138.2916  154.9148 H   0  0  0  0  0  0  0  0  0  0  0  0
  145.1927  139.3920  155.1333 H   0  0  0  0  0  0  0  0  0  0  0  0
  144.9319  136.3206  154.1144 H   0  0  0  0  0  0  0  0  0  0  0  0
  143.9024  137.4983  154.8822 H   0  0  0  0  0  0  0  0  0  0  0  0
  143.4346  136.6891  151.9887 H   0  0  0  0  0  0  0  0  0  0  0  0
  141.5938  137.9583  154.0777 H   0  0  0  0  0  0  0  0  0  0  0  0
  141.1379  137.5285  152.4325 H   0  0  0  0  0  0  0  0  0  0  0  0
  142.3181  138.7987  152.7090 H   0  0  0  0  0  0  0  0  0  0  0  0
  142.2014  135.4026  154.4581 H   0  0  0  0  0  0  0  0  0  0  0  0
  143.3441  134.6395  153.3559 H   0  0  0  0  0  0  0  0  0  0  0  0
  141.7434  135.0889  152.7865 H   0  0  0  0  0  0  0  0  0  0  0  0
  146.6627  137.0247  152.5866 H   0  0  0  0  0  0  0  0  0  0  0  0
  145.3987  137.3686  151.4319 H   0  0  0  0  0  0  0  0  0  0  0  0
  146.1420  139.6887  151.1641 H   0  0  0  0  0  0  0  0  0  0  0  0
  147.4515  138.5971  150.8197 H   0  0  0  0  0  0  0  0  0  0  0  0
  153.3998  138.6730  154.9456 H   0  0  0  0  0  0  0  0  0  0  0  0
  144.4826  138.9489  152.9448 H   0  0  0  0  0  0  0  0  0  0  0  0
  1  2  1  0  0  0  0
  1 22  1  0  0  0  0
  1 23  1  0  0  0  0
  1 24  1  0  0  0  0
  2 21  1  0  0  0  0
  2  3  2  0  0  0  0
  3  4  1  0  0  0  0
  3 25  1  0  0  0  0
  4  5  2  0  0  0  0
  4 26  1  0  0  0  0
  5  6  1  0  0  0  0
  5 20  1  0  0  0  0
  6  7  1  0  0  0  0
  6 27  1  0  0  0  0
  6 28  1  0  0  0  0
  7  8  2  0  0  0  0
  7  9  1  0  0  0  0
  9 10  1  0  0  0  0
  9 29  1  0  0  0  0
 10 19  1  0  0  0  0
 10 11  1  0  0  0  0
 10 30  1  0  0  0  0
 11 12  1  0  0  0  0
 11 31  1  0  0  0  0
 11 32  1  0  0  0  0
 12 13  1  0  0  0  0
 12 33  1  0  0  0  0
 12 34  1  0  0  0  0
 13 14  1  0  0  0  0
 13 18  1  0  0  0  0
 13 49  1  0  0  0  0
 14 15  1  0  0  0  0
 14 35  1  0  0  0  0
 14 36  1  0  0  0  0
 15 16  1  0  0  0  0
 15 17  1  0  0  0  0
 15 37  1  0  0  0  0
 16 38  1  0  0  0  0
 16 39  1  0  0  0  0
 16 40  1  0  0  0  0
 17 41  1  0  0  0  0
 17 42  1  0  0  0  0
 17 43  1  0  0  0  0
 18 19  1  0  0  0  0
 18 44  1  0  0  0  0
 18 45  1  0  0  0  0
 19 46  1  0  0  0  0
 19 47  1  0  0  0  0
 20 21  2  0  0  0  0
 20 48  1  0  0  0  0
M  CHG  1  13   1
M  END
> <s_m_source_file>
AV-unprocessed.smi

> <i_m_source_file_index>
1483

> <i_lp_mmshare_version>
43012

> <i_f3d_flags>
0

> <s_epik_input>
W0NIM11jMVtjSF1bY0hdYyhbY0hdbjEpW0NIMl1DKD1PKVtOSF1bQ0hdMltDSDJdW0NIMl1OKFtDSDJdW0NIMl0yKVtDSDJdW0NIXShbQ0gzXSlbQ0gzXQ==

> <s_epik_cmdline>
J2VwaWtfcHl0aG9uJywgJy1waCcsICc3LjAnLCAnLXRuJywgJzgnLCAnLW1hJywgJzIwMCcsICctbWV0YWxfYmluZGluZycsICctaW1hZScsICc8aW5maWxlLm1hZT4nLCAnLW9tYWUnLCAnPG91dGZpbGUubWFlPic=

> <r_epik_Ionization_Penalty>
0.0186701

> <r_epik_Ionization_Penalty_Charging>
0.00405837

> <r_epik_Ionization_Penalty_Neutral>
0.0146117

> <r_epik_State_Penalty>
0.0114383

> <r_epik_Charging_Adjusted_Penalty>
0.0154967

> <i_epik_Tot_Q>
1

> <i_epik_Tot_abs_Q>
1

> <r_epik_Metal_State_Penalty>
0.0111573

> <b_epik_Metal_Only>
0

> <s_lp_Force_Field>
OPLS_2005

> <r_lp_Energy>
15.6664

> <b_lp_Chiralities_Consistent>
1

> <s_lp_Variant>
AV-unprocessed.smi:1483-2

> <Gold.Version>
5.8.1

> <Gold.Id.Protein>
6NUR|6NUR_protein|mol2

> <Gold.PLP.Fitness>
46.2804

> <Gold.PLP.PLP>
-33.0003

> <Gold.PLP.part.hbond>
-5.0000

> <Gold.PLP.part.metal>
0.0000

> <Gold.PLP.part.buried>
3.5760

> <Gold.PLP.part.nonpolar>
-31.1210

> <Gold.PLP.part.repulsive>
0.1860

> <Gold.PLP.ligand.clash>
0.0000

> <Gold.PLP.ligand.torsion>
0.8208

> <Gold.PLP.Chemscore.Hbond>
4.8960

> <Gold.PLP.Chemscore.CHOScore>
0.0000

> <Gold.PLP.Chemscore.Metal>
0.0000

> <Gold.Chemscore.Hbonds>
donor molecule, donor type, donor heavy atom, donor atom, acceptor molecule, acceptor atom, score
      L1  H     9    29       P1  7948  1.00
      L1  H    13    49       P1 10175  2.00
      P1  H  7989  7998       L1     8  0.80
      P1  H  7997  8008       L1    21  0.79

> <Gold.PLP.Chemscore.Internal.Correction>
0.2337

> <Gold.Rescore>
     Score         DG    S(hbond)    S(metal)    S(lipo)     H(rot)  DE(clash)    DE(int)     intcor
     19.59     -23.74       3.43        0.00      90.48       1.47       3.26       0.89       ----

> <Gold.Chemscore.Fitness>
19.5871

> <Gold.Chemscore.DG>
-23.7386

> <Gold.Chemscore.ZeroCoef>
-5.4800

> <Gold.Chemscore.Hbond>
3.4255

> <Gold.Chemscore.Metal>
0.0000

> <Gold.Chemscore.Lipo>
90.4838

> <Gold.Chemscore.Internal_Hbond>
0.0000

> <Gold.Chemscore.DEClash>
3.2610

> <Gold.Chemscore.DEInternal>
0.8904

> <Gold.Chemscore.Rot>
1.4723

> <Gold.Chemscore.Internal.Correction>
   9.000000E+99

> <Gold.Chemscore.Hbonds>
donor molecule, donor type, donor heavy atom, donor atom, acceptor molecule, acceptor atom, score
      L1  H     9    29       P1  7948  0.98
      L1  H    13    49       P1 10175  1.00
      P1  H  7989  7998       L1     8  0.23
      P1  H  7997  8008       L1    21  0.11

> <Gold.Chemscore.Hbond.Weighted>
-11.4411

> <Gold.Chemscore.Metal.Weighted>
-0.0000

> <Gold.Chemscore.Lipo.Weighted>
-10.5866

> <Gold.Chemscore.Internal_Hbond.Weighted>
0.0000

> <Gold.Chemscore.DEClash.Weighted>
3.2610

> <Gold.Chemscore.DEInternal.Weighted>
0.8904

> <Gold.Chemscore.Rot.Weighted>
3.7691

> <Gold.Chemscore.Internal.Correction.Weighted>
   9.000000E+99

> <Gold.Protein.RotatedTorsions>
[ 6907 6896 6895 6894 ] final   11.77 input  -60.11 | X-H torsion
[ 7974 7965 7964 7962 ] final   72.21 input  175.53 | X-H torsion
[ 8008 7997 7996 7995 ] final  -52.18 input   59.86 | X-H torsion
[ 10167 10162 10161 10158 ] final   29.08 input  -65.29 | X-H torsion
[ 10718 10713 10712 10709 ] final  -77.28 input   66.30 | X-H torsion
[ 10763 10752 10751 10750 ] final -119.65 input  -60.55 | X-H torsion
[ 11005 11000 10999 10996 ] final  -26.50 input  -57.11 | X-H torsion

> <Gold.Protein.ActiveResidues>
 VAL166  LYS551  ARG553  GLY616  TRP617  ASP618  TYR619  PRO620  LYS621  CYS622 
 ASP623  PHE694  ASN695  SER759  ASP760  ASP761  ALA762  ILE779  LEU786  VAL792 
 PHE793  MET794  SER795  GLU796  ALA797  LYS798  CYS799  TRP800  GLU811  SER814 

> <Gold.Protein.RotatedAtoms>
  151.7596  135.0813  160.0343 H   0  0  0  0  0  0  0  0  0  0  0  0  # atno 6907 bound_to 6896
  152.3362  133.6010  159.5853 H   0  0  0  0  0  0  0  0  0  0  0  0  # atno 6908 bound_to 6896
  150.7452  133.9708  159.3587 H   0  0  0  0  0  0  0  0  0  0  0  0  # atno 6909 bound_to 6896
  145.7563  139.2781  143.1402 H   0  0  0  0  0  0  0  0  0  0  0  0  # atno 7974 bound_to 7965
  154.4100  140.1230  156.4949 H   0  0  0  0  0  0  0  0  0  0  0  0  # atno 8008 bound_to 7997
  155.6953  140.3495  155.4891 H   0  0  0  0  0  0  0  0  0  0  0  0  # atno 8009 bound_to 7997
  155.9433  140.1091  157.1027 H   0  0  0  0  0  0  0  0  0  0  0  0  # atno 8010 bound_to 7997
  140.4797  144.0635  150.6261 H   0  0  0  0  0  0  0  0  0  0  0  0  # atno 10167 bound_to 10162
  156.0149  130.4487  150.3321 H   0  0  0  0  0  0  0  0  0  0  0  0  # atno 10718 bound_to 10713
  154.8623  135.4231  154.2333 H   0  0  0  0  0  0  0  0  0  0  0  0  # atno 10763 bound_to 10752
  153.3313  135.6988  153.6951 H   0  0  0  0  0  0  0  0  0  0  0  0  # atno 10764 bound_to 10752
  153.5966  135.3545  155.2903 H   0  0  0  0  0  0  0  0  0  0  0  0  # atno 10765 bound_to 10752
  140.9035  133.7508  156.0575 H   0  0  0  0  0  0  0  0  0  0  0  0  # atno 11005 bound_to 11000
  146.0308  140.8260  142.9877 LP  0  0  0  0  0  0  0  0  0  0  0  0  # atno 17320 bound_to 7965
  144.6839  140.2766  143.7298 LP  0  0  0  0  0  0  0  0  0  0  0  0  # atno 17321 bound_to 7965
  140.3873  143.2771  152.0101 LP  0  0  0  0  0  0  0  0  0  0  0  0  # atno 17342 bound_to 10162
  139.4831  144.6106  151.7441 LP  0  0  0  0  0  0  0  0  0  0  0  0  # atno 17343 bound_to 10162
  157.1419  131.0298  151.2924 LP  0  0  0  0  0  0  0  0  0  0  0  0  # atno 17370 bound_to 10713
  157.4465  130.7574  149.7114 LP  0  0  0  0  0  0  0  0  0  0  0  0  # atno 17371 bound_to 10713
  140.8200  134.3300  157.5384 LP  0  0  0  0  0  0  0  0  0  0  0  0  # atno 17394 bound_to 11000
  139.8746  134.9304  156.3500 LP  0  0  0  0  0  0  0  0  0  0  0  0  # atno 17395 bound_to 11000

$$$$
