AV-unprocessed.smi:1196|AV-procd|sdf|5006|dock4
  -GOLD-   22720 4 23D 1   1.00000     0.00000
 Structure written by MMmdl.
 36 37  0  0  0  0  0  0  0  0  2 V2000
  153.0337  142.5305  162.1673 C   0  0  0  0  0  0  0  0  0  0  0  0
  153.5708  141.8114  160.9227 C   0  0  2  0  0  0  0  0  0  0  0  0
  152.5191  141.7827  159.7929 C   0  0  0  0  0  0  0  0  0  0  0  0
  152.4130  143.0515  159.0933 N   0  0  0  0  0  0  0  0  0  0  0  0
  152.7421  144.3110  159.5482 C   0  0  0  0  0  0  0  0  0  0  0  0
  152.4905  145.1883  158.5326 C   0  0  0  0  0  0  0  0  0  0  0  0
  152.0023  144.3599  157.4836 C   0  0  0  0  0  0  0  0  0  0  0  0
  151.9504  143.0826  157.8246 N   0  0  0  0  0  0  0  0  0  0  0  0
  153.9745  140.4560  161.2953 N   0  0  0  0  0  0  0  0  0  0  0  0
  154.7160  140.1252  162.3648 C   0  0  0  0  0  0  0  0  0  0  0  0
  155.1200  140.9436  163.1912 O   0  0  0  0  0  0  0  0  0  0  0  0
  155.0602  138.6438  162.5222 C   0  0  0  0  0  0  0  0  0  0  0  0
  153.8679  137.7351  162.1712 C   0  0  0  0  0  0  0  0  0  0  0  0
  153.8982  136.3889  162.9215 C   0  0  1  0  0  0  0  0  0  0  0  0
  155.1386  135.6824  162.6833 N   0  0  0  0  0  0  0  0  0  0  0  0
  155.7741  135.4195  163.8234 C   0  0  0  0  0  0  0  0  0  0  0  0
  156.8365  134.8017  163.8434 O   0  0  0  0  0  0  0  0  0  0  0  0
  155.0859  135.9243  164.8656 N   0  5  0  0  0  0  0  0  0  0  0  0
  153.9576  136.5339  164.4420 C   0  0  0  0  0  0  0  0  0  0  0  0
  153.0790  137.1130  165.0790 O   0  0  0  0  0  0  0  0  0  0  0  0
  152.7537  143.5585  161.9358 H   0  0  0  0  0  0  0  0  0  0  0  0
  153.7852  142.5650  162.9567 H   0  0  0  0  0  0  0  0  0  0  0  0
  152.1523  142.0280  162.5676 H   0  0  0  0  0  0  0  0  0  0  0  0
  154.4388  142.3748  160.5754 H   0  0  0  0  0  0  0  0  0  0  0  0
  152.7492  140.9945  159.0738 H   0  0  0  0  0  0  0  0  0  0  0  0
  151.5367  141.5484  160.2048 H   0  0  0  0  0  0  0  0  0  0  0  0
  153.1302  144.4747  160.5428 H   0  0  0  0  0  0  0  0  0  0  0  0
  152.6368  146.2581  158.5364 H   0  0  0  0  0  0  0  0  0  0  0  0
  151.6841  144.6466  156.4922 H   0  0  0  0  0  0  0  0  0  0  0  0
  153.6950  139.7129  160.6716 H   0  0  0  0  0  0  0  0  0  0  0  0
  155.9045  138.4171  161.8704 H   0  0  0  0  0  0  0  0  0  0  0  0
  155.3934  138.4496  163.5426 H   0  0  0  0  0  0  0  0  0  0  0  0
  152.9310  138.2562  162.3778 H   0  0  0  0  0  0  0  0  0  0  0  0
  153.8730  137.5381  161.0980 H   0  0  0  0  0  0  0  0  0  0  0  0
  153.0495  135.7614  162.6459 H   0  0  0  0  0  0  0  0  0  0  0  0
  155.4563  135.4049  161.7665 H   0  0  0  0  0  0  0  0  0  0  0  0
  1  2  1  0  0  0  0
  1 21  1  0  0  0  0
  1 22  1  0  0  0  0
  1 23  1  0  0  0  0
  2  3  1  0  0  0  0
  2  9  1  0  0  0  0
  2 24  1  0  0  0  0
  3  4  1  0  0  0  0
  3 25  1  0  0  0  0
  3 26  1  0  0  0  0
  4  8  1  0  0  0  0
  4  5  1  0  0  0  0
  5  6  2  0  0  0  0
  5 27  1  0  0  0  0
  6  7  1  0  0  0  0
  6 28  1  0  0  0  0
  7  8  2  0  0  0  0
  7 29  1  0  0  0  0
  9 10  1  0  0  0  0
  9 30  1  0  0  0  0
 10 11  2  0  0  0  0
 10 12  1  0  0  0  0
 12 13  1  0  0  0  0
 12 31  1  0  0  0  0
 12 32  1  0  0  0  0
 13 14  1  0  0  0  0
 13 33  1  0  0  0  0
 13 34  1  0  0  0  0
 14 19  1  0  0  0  0
 14 15  1  0  0  0  0
 14 35  1  0  0  0  0
 15 16  1  0  0  0  0
 15 36  1  0  0  0  0
 16 17  2  0  0  0  0
 16 18  1  0  0  0  0
 18 19  1  0  0  0  0
 19 20  2  0  0  0  0
M  CHG  1  18  -1
M  END
> <s_m_source_file>
AV-unprocessed.smi

> <i_m_source_file_index>
1196

> <i_lp_mmshare_version>
43012

> <i_f3d_flags>
0

> <s_epik_input>
bjFbY0hdW2NIXVtjSF1uMVtDSDJdW0NAQEhdKFtDSDNdKVtOSF1DKD1PKVtDSDJdW0NIMl1bQ0BASF0yW05IXUMoPU8pW05IXUMyPU8=

> <s_epik_cmdline>
J2VwaWtfcHl0aG9uJywgJy1waCcsICc3LjAnLCAnLXRuJywgJzgnLCAnLW1hJywgJzIwMCcsICctbWV0YWxfYmluZGluZycsICctaW1hZScsICc8aW5maWxlLm1hZT4nLCAnLW9tYWUnLCAnPG91dGZpbGUubWFlPic=

> <r_lp_tautomer_probability>
1

> <r_epik_Ionization_Penalty>
2.57056

> <r_epik_Ionization_Penalty_Charging>
2.57023

> <r_epik_Ionization_Penalty_Neutral>
0.000331301

> <r_epik_State_Penalty>
2.56828

> <r_epik_Charging_Adjusted_Penalty>
5.13851

> <i_epik_Tot_Q>
-1

> <i_epik_Tot_abs_Q>
1

> <r_epik_Metal_State_Penalty>
0.444883

> <b_epik_Metal_Only>
1

> <s_lp_Force_Field>
OPLS_2005

> <r_lp_Energy>
7.37265

> <b_lp_Chiralities_Consistent>
1

> <s_lp_Variant>
AV-unprocessed.smi:1196-11

> <Gold.Version>
5.8.1

> <Gold.Id.Protein>
6NUR|6NUR_protein|mol2

> <Gold.PLP.Fitness>
44.8295

> <Gold.PLP.PLP>
-43.8648

> <Gold.PLP.part.hbond>
-1.7522

> <Gold.PLP.part.metal>
0.0000

> <Gold.PLP.part.buried>
-5.2419

> <Gold.PLP.part.nonpolar>
-36.3186

> <Gold.PLP.part.repulsive>
0.2623

> <Gold.PLP.ligand.clash>
0.0000

> <Gold.PLP.ligand.torsion>
1.0759

> <Gold.PLP.Chemscore.Hbond>
0.0000

> <Gold.PLP.Chemscore.CHOScore>
1.0000

> <Gold.PLP.Chemscore.Metal>
0.0000

> <Gold.Chemscore.Hbonds>
donor molecule, donor type, donor heavy atom, donor atom, acceptor molecule, acceptor atom, score
      P1  H  6924  6935       L1    20  0.31
      L1  C     7    29       P1  8028  0.11

> <Gold.PLP.Chemscore.Internal.Correction>
0.1165

> <Gold.Rescore>
     Score         DG    S(hbond)    S(metal)    S(lipo)     H(rot)  DE(clash)    DE(int)     intcor
      5.18      -8.74       0.00        0.00      91.23       2.89       1.38       2.19       ----

> <Gold.Chemscore.Fitness>
5.1769

> <Gold.Chemscore.DG>
-8.7434

> <Gold.Chemscore.ZeroCoef>
-5.4800

> <Gold.Chemscore.Hbond>
0.0000

> <Gold.Chemscore.Metal>
0.0000

> <Gold.Chemscore.Lipo>
91.2264

> <Gold.Chemscore.Internal_Hbond>
0.0000

> <Gold.Chemscore.DEClash>
1.3795

> <Gold.Chemscore.DEInternal>
2.1870

> <Gold.Chemscore.Rot>
2.8946

> <Gold.Chemscore.Internal.Correction>
   9.000000E+99

> <Gold.Chemscore.Hbonds>
donor molecule, donor type, donor heavy atom, donor atom, acceptor molecule, acceptor atom, score
      P1  H  6924  6935       L1    20  0.29

> <Gold.Chemscore.Hbond.Weighted>
-0.0000

> <Gold.Chemscore.Metal.Weighted>
-0.0000

> <Gold.Chemscore.Lipo.Weighted>
-10.6735

> <Gold.Chemscore.Internal_Hbond.Weighted>
0.0000

> <Gold.Chemscore.DEClash.Weighted>
1.3795

> <Gold.Chemscore.DEInternal.Weighted>
2.1870

> <Gold.Chemscore.Rot.Weighted>
7.4101

> <Gold.Chemscore.Internal.Correction.Weighted>
   9.000000E+99

> <Gold.Protein.RotatedTorsions>
[ 6907 6896 6895 6894 ] final -104.86 input  -60.11 | X-H torsion
[ 7974 7965 7964 7962 ] final  140.61 input  175.53 | X-H torsion
[ 8008 7997 7996 7995 ] final -153.25 input   59.86 | X-H torsion
[ 10167 10162 10161 10158 ] final  -59.67 input  -65.29 | X-H torsion
[ 10718 10713 10712 10709 ] final  179.89 input   66.30 | X-H torsion
[ 10763 10752 10751 10750 ] final -117.22 input  -60.55 | X-H torsion
[ 11005 11000 10999 10996 ] final  -91.11 input  -57.11 | X-H torsion

> <Gold.Protein.ActiveResidues>
 VAL166  LYS551  ARG553  GLY616  TRP617  ASP618  TYR619  PRO620  LYS621  CYS622 
 ASP623  PHE694  ASN695  SER759  ASP760  ASP761  ALA762  ILE779  LEU786  VAL792 
 PHE793  MET794  SER795  GLU796  ALA797  LYS798  CYS799  TRP800  GLU811  SER814 

> <Gold.Protein.RotatedAtoms>
  150.7308  134.0213  159.3702 H   0  0  0  0  0  0  0  0  0  0  0  0  # atno 6907 bound_to 6896
  151.8178  135.0659  160.0430 H   0  0  0  0  0  0  0  0  0  0  0  0  # atno 6908 bound_to 6896
  152.3026  133.5634  159.5664 H   0  0  0  0  0  0  0  0  0  0  0  0  # atno 6909 bound_to 6896
  144.9171  139.5216  143.5681 H   0  0  0  0  0  0  0  0  0  0  0  0  # atno 7974 bound_to 7965
  155.6678  140.0730  157.2531 H   0  0  0  0  0  0  0  0  0  0  0  0  # atno 8008 bound_to 7997
  154.4129  140.1704  156.1898 H   0  0  0  0  0  0  0  0  0  0  0  0  # atno 8009 bound_to 7997
  155.9642  140.3367  155.6521 H   0  0  0  0  0  0  0  0  0  0  0  0  # atno 8010 bound_to 7997
  140.6120  143.2390  151.5686 H   0  0  0  0  0  0  0  0  0  0  0  0  # atno 10167 bound_to 10162
  156.8691  130.9777  151.3075 H   0  0  0  0  0  0  0  0  0  0  0  0  # atno 10718 bound_to 10713
  154.8547  135.4317  154.1945 H   0  0  0  0  0  0  0  0  0  0  0  0  # atno 10763 bound_to 10752
  153.3006  135.6968  153.7212 H   0  0  0  0  0  0  0  0  0  0  0  0  # atno 10764 bound_to 10752
  153.6344  135.3479  155.3026 H   0  0  0  0  0  0  0  0  0  0  0  0  # atno 10765 bound_to 10752
  141.1552  133.7734  156.9833 H   0  0  0  0  0  0  0  0  0  0  0  0  # atno 11005 bound_to 11000
  146.3187  139.8022  142.8963 LP  0  0  0  0  0  0  0  0  0  0  0  0  # atno 17320 bound_to 7965
  145.3358  141.0277  143.3420 LP  0  0  0  0  0  0  0  0  0  0  0  0  # atno 17321 bound_to 7965
  139.5369  144.2756  152.1269 LP  0  0  0  0  0  0  0  0  0  0  0  0  # atno 17342 bound_to 10162
  140.1958  144.4707  150.6456 LP  0  0  0  0  0  0  0  0  0  0  0  0  # atno 17343 bound_to 10162
  157.6206  130.8652  149.9102 LP  0  0  0  0  0  0  0  0  0  0  0  0  # atno 17370 bound_to 10713
  156.0736  130.3682  150.0724 LP  0  0  0  0  0  0  0  0  0  0  0  0  # atno 17371 bound_to 10713
  140.1051  134.9511  157.1982 LP  0  0  0  0  0  0  0  0  0  0  0  0  # atno 17394 bound_to 11000
  140.3266  134.2856  155.7236 LP  0  0  0  0  0  0  0  0  0  0  0  0  # atno 17395 bound_to 11000

$$$$
