AV-unprocessed.smi:3334|AV-procd|sdf|12835|dock10
  -GOLD-   2272019213D 1   1.00000     0.00000
 Structure written by MMmdl.
 41 42  0  0  0  0  0  0  0  0  1 V2000
  149.1054  137.7976  164.6121 C   0  0  0  0  0  0  0  0  0  0  0  0
  148.2550  136.7889  163.8273 C   0  0  0  0  0  0  0  0  0  0  0  0
  148.1558  135.4193  164.5143 C   0  0  0  0  0  0  0  0  0  0  0  0
  148.6958  136.6750  162.4020 C   0  0  0  0  0  0  0  0  0  0  0  0
  149.7664  137.3016  161.9056 N   0  0  0  0  0  0  0  0  0  0  0  0
  149.9550  137.0573  160.5413 C   0  0  0  0  0  0  0  0  0  0  0  0
  151.1036  137.6933  159.8107 C   0  0  0  0  0  0  0  0  0  0  0  0
  150.7464  138.1523  158.3861 C   0  0  0  0  0  0  0  0  0  0  0  0
  150.5680  139.5975  158.3178 N   0  0  0  0  0  0  0  0  0  0  0  0
  151.3879  140.4453  157.6824 C   0  0  0  0  0  0  0  0  0  0  0  0
  152.4168  140.0889  157.1082 O   0  0  0  0  0  0  0  0  0  0  0  0
  150.9797  141.9217  157.6985 C   0  0  0  0  0  0  0  0  0  0  0  0
  152.1801  142.8808  157.8306 C   0  0  2  0  0  0  0  0  0  0  0  0
  152.6304  143.0363  159.2602 C   0  0  0  0  0  0  0  0  0  0  0  0
  152.7429  144.3103  159.6294 C   0  0  0  0  0  0  0  0  0  0  0  0
  152.3910  145.2629  158.5211 C   0  0  0  0  0  0  0  0  0  0  0  0
  151.8894  144.3401  157.3881 C   0  0  0  0  0  0  0  0  0  0  0  0
  149.0064  136.2207  160.0084 C   0  0  0  0  0  0  0  0  0  0  0  0
  147.8403  135.7154  161.1999 S   0  0  0  0  0  0  0  0  0  0  0  0
  149.0679  138.7822  164.1450 H   0  0  0  0  0  0  0  0  0  0  0  0
  150.1504  137.4891  164.6575 H   0  0  0  0  0  0  0  0  0  0  0  0
  148.7454  137.9046  165.6357 H   0  0  0  0  0  0  0  0  0  0  0  0
  147.2422  137.1931  163.8035 H   0  0  0  0  0  0  0  0  0  0  0  0
  147.4817  134.7559  163.9717 H   0  0  0  0  0  0  0  0  0  0  0  0
  147.7756  135.5170  165.5313 H   0  0  0  0  0  0  0  0  0  0  0  0
  149.1300  134.9325  164.5698 H   0  0  0  0  0  0  0  0  0  0  0  0
  151.4766  138.5463  160.3792 H   0  0  0  0  0  0  0  0  0  0  0  0
  151.9378  136.9932  159.7553 H   0  0  0  0  0  0  0  0  0  0  0  0
  151.5352  137.8605  157.6918 H   0  0  0  0  0  0  0  0  0  0  0  0
  149.8334  137.6509  158.0606 H   0  0  0  0  0  0  0  0  0  0  0  0
  149.7409  139.9756  158.7573 H   0  0  0  0  0  0  0  0  0  0  0  0
  150.4158  142.1587  156.7944 H   0  0  0  0  0  0  0  0  0  0  0  0
  150.2960  142.0698  158.5350 H   0  0  0  0  0  0  0  0  0  0  0  0
  153.0314  142.4892  157.2719 H   0  0  0  0  0  0  0  0  0  0  0  0
  152.8480  142.1861  159.8898 H   0  0  0  0  0  0  0  0  0  0  0  0
  153.0649  144.6511  160.6025 H   0  0  0  0  0  0  0  0  0  0  0  0
  151.6253  145.9687  158.8436 H   0  0  0  0  0  0  0  0  0  0  0  0
  153.2779  145.8221  158.2217 H   0  0  0  0  0  0  0  0  0  0  0  0
  152.3713  144.5726  156.4378 H   0  0  0  0  0  0  0  0  0  0  0  0
  150.8188  144.4936  157.2468 H   0  0  0  0  0  0  0  0  0  0  0  0
  148.9210  135.8746  158.9891 H   0  0  0  0  0  0  0  0  0  0  0  0
  1  2  1  0  0  0  0
  1 20  1  0  0  0  0
  1 21  1  0  0  0  0
  1 22  1  0  0  0  0
  2  3  1  0  0  0  0
  2  4  1  0  0  0  0
  2 23  1  0  0  0  0
  3 24  1  0  0  0  0
  3 25  1  0  0  0  0
  3 26  1  0  0  0  0
  4 19  1  0  0  0  0
  4  5  2  0  0  0  0
  5  6  1  0  0  0  0
  6  7  1  0  0  0  0
  6 18  2  0  0  0  0
  7  8  1  0  0  0  0
  7 27  1  0  0  0  0
  7 28  1  0  0  0  0
  8  9  1  0  0  0  0
  8 29  1  0  0  0  0
  8 30  1  0  0  0  0
  9 10  1  0  0  0  0
  9 31  1  0  0  0  0
 10 11  2  0  0  0  0
 10 12  1  0  0  0  0
 12 13  1  0  0  0  0
 12 32  1  0  0  0  0
 12 33  1  0  0  0  0
 13 17  1  0  0  0  0
 13 14  1  0  0  0  0
 13 34  1  0  0  0  0
 14 15  2  0  0  0  0
 14 35  1  0  0  0  0
 15 16  1  0  0  0  0
 15 36  1  0  0  0  0
 16 17  1  0  0  0  0
 16 37  1  0  0  0  0
 16 38  1  0  0  0  0
 17 39  1  0  0  0  0
 17 40  1  0  0  0  0
 18 19  1  0  0  0  0
 18 41  1  0  0  0  0
M  END
> <s_m_source_file>
AV-unprocessed.smi

> <i_m_source_file_index>
3334

> <i_lp_mmshare_version>
43012

> <i_f3d_flags>
0

> <s_epik_input>
W0NIM11bQ0hdKFtDSDNdKWMxbmMoW2NIXXMxKVtDSDJdW0NIMl1bTkhdQyg9TylbQ0gyXVtDQEBIXTJbQ0hdPVtDSF1bQ0gyXVtDSDJdMg==

> <s_epik_cmdline>
J2VwaWtfcHl0aG9uJywgJy1waCcsICc3LjAnLCAnLXRuJywgJzgnLCAnLW1hJywgJzIwMCcsICctbWV0YWxfYmluZGluZycsICctaW1hZScsICc8aW5maWxlLm1hZT4nLCAnLW9tYWUnLCAnPG91dGZpbGUubWFlPic=

> <r_epik_Ionization_Penalty>
0.000771592

> <r_epik_Ionization_Penalty_Charging>
0

> <r_epik_Ionization_Penalty_Neutral>
0.000771592

> <r_epik_State_Penalty>
0.000494253

> <r_epik_Charging_Adjusted_Penalty>
0.000494253

> <i_epik_Tot_Q>
0

> <i_epik_Tot_abs_Q>
0

> <r_epik_Metal_State_Penalty>
-0

> <b_epik_Metal_Only>
0

> <s_lp_Force_Field>
OPLS_2005

> <r_lp_Energy>
4.8696

> <b_lp_Chiralities_Consistent>
1

> <s_lp_Variant>
AV-unprocessed.smi:3334-1

> <Gold.Version>
5.8.1

> <Gold.Id.Protein>
6NUR|6NUR_protein|mol2

> <Gold.PLP.Fitness>
48.7815

> <Gold.PLP.PLP>
-45.3558

> <Gold.PLP.part.hbond>
-2.0000

> <Gold.PLP.part.metal>
0.0000

> <Gold.PLP.part.buried>
-3.5070

> <Gold.PLP.part.nonpolar>
-39.2711

> <Gold.PLP.part.repulsive>
0.0967

> <Gold.PLP.ligand.clash>
0.0000

> <Gold.PLP.ligand.torsion>
1.2122

> <Gold.PLP.Chemscore.Hbond>
1.9120

> <Gold.PLP.Chemscore.CHOScore>
0.0000

> <Gold.PLP.Chemscore.Metal>
0.0000

> <Gold.Chemscore.Hbonds>
donor molecule, donor type, donor heavy atom, donor atom, acceptor molecule, acceptor atom, score
      P1  H  7997  8010       L1    11  1.00

> <Gold.PLP.Chemscore.Internal.Correction>
0.1141

> <Gold.Rescore>
     Score         DG    S(hbond)    S(metal)    S(lipo)     H(rot)  DE(clash)    DE(int)     intcor
     20.84     -22.05       1.85        0.00     122.12       1.52       0.05       1.17       ----

> <Gold.Chemscore.Fitness>
20.8370

> <Gold.Chemscore.DG>
-22.0526

> <Gold.Chemscore.ZeroCoef>
-5.4800

> <Gold.Chemscore.Hbond>
1.8462

> <Gold.Chemscore.Metal>
0.0000

> <Gold.Chemscore.Lipo>
122.1172

> <Gold.Chemscore.Internal_Hbond>
0.0000

> <Gold.Chemscore.DEClash>
0.0485

> <Gold.Chemscore.DEInternal>
1.1671

> <Gold.Chemscore.Rot>
1.5162

> <Gold.Chemscore.Internal.Correction>
   9.000000E+99

> <Gold.Chemscore.Hbonds>
donor molecule, donor type, donor heavy atom, donor atom, acceptor molecule, acceptor atom, score
      P1  H  7997  8010       L1    11  0.93

> <Gold.Chemscore.Hbond.Weighted>
-6.1664

> <Gold.Chemscore.Metal.Weighted>
-0.0000

> <Gold.Chemscore.Lipo.Weighted>
-14.2877

> <Gold.Chemscore.Internal_Hbond.Weighted>
0.0000

> <Gold.Chemscore.DEClash.Weighted>
0.0485

> <Gold.Chemscore.DEInternal.Weighted>
1.1671

> <Gold.Chemscore.Rot.Weighted>
3.8815

> <Gold.Chemscore.Internal.Correction.Weighted>
   9.000000E+99

> <Gold.Protein.RotatedTorsions>
[ 6907 6896 6895 6894 ] final   87.79 input  -60.11 | X-H torsion
[ 7974 7965 7964 7962 ] final -110.65 input  175.53 | X-H torsion
[ 8008 7997 7996 7995 ] final   66.13 input   59.86 | X-H torsion
[ 10167 10162 10161 10158 ] final   -0.22 input  -65.29 | X-H torsion
[ 10718 10713 10712 10709 ] final  -69.20 input   66.30 | X-H torsion
[ 10763 10752 10751 10750 ] final -140.76 input  -60.55 | X-H torsion
[ 11005 11000 10999 10996 ] final -162.74 input  -57.11 | X-H torsion

> <Gold.Protein.ActiveResidues>
 VAL166  LYS551  ARG553  GLY616  TRP617  ASP618  TYR619  PRO620  LYS621  CYS622 
 ASP623  PHE694  ASN695  SER759  ASP760  ASP761  ALA762  ILE779  LEU786  VAL792 
 PHE793  MET794  SER795  GLU796  ALA797  LYS798  CYS799  TRP800  GLU811  SER814 

> <Gold.Protein.RotatedAtoms>
  152.5416  134.2222  159.8791 H   0  0  0  0  0  0  0  0  0  0  0  0  # atno 6907 bound_to 6896
  151.2198  133.4502  159.2608 H   0  0  0  0  0  0  0  0  0  0  0  0  # atno 6908 bound_to 6896
  151.0816  134.9875  159.8415 H   0  0  0  0  0  0  0  0  0  0  0  0  # atno 6909 bound_to 6896
  145.1657  140.8901  143.3565 H   0  0  0  0  0  0  0  0  0  0  0  0  # atno 7974 bound_to 7965
  155.6725  140.3497  155.4824 H   0  0  0  0  0  0  0  0  0  0  0  0  # atno 8008 bound_to 7997
  155.9676  140.1149  157.0863 H   0  0  0  0  0  0  0  0  0  0  0  0  # atno 8009 bound_to 7997
  154.4158  140.1163  156.5249 H   0  0  0  0  0  0  0  0  0  0  0  0  # atno 8010 bound_to 7997
  140.6758  143.6921  150.8019 H   0  0  0  0  0  0  0  0  0  0  0  0  # atno 10167 bound_to 10162
  156.0467  130.4308  150.2113 H   0  0  0  0  0  0  0  0  0  0  0  0  # atno 10718 bound_to 10713
  154.8568  135.3544  154.5759 H   0  0  0  0  0  0  0  0  0  0  0  0  # atno 10763 bound_to 10752
  153.6370  135.7000  153.5259 H   0  0  0  0  0  0  0  0  0  0  0  0  # atno 10764 bound_to 10752
  153.3002  135.4208  155.1205 H   0  0  0  0  0  0  0  0  0  0  0  0  # atno 10765 bound_to 10752
  140.6058  134.4900  157.5210 H   0  0  0  0  0  0  0  0  0  0  0  0  # atno 11005 bound_to 11000
  145.0285  139.3362  143.6037 LP  0  0  0  0  0  0  0  0  0  0  0  0  # atno 17320 bound_to 7965
  146.3476  139.9613  142.8717 LP  0  0  0  0  0  0  0  0  0  0  0  0  # atno 17321 bound_to 7965
  140.0614  143.5151  152.2626 LP  0  0  0  0  0  0  0  0  0  0  0  0  # atno 17342 bound_to 10162
  139.6049  144.7593  151.3085 LP  0  0  0  0  0  0  0  0  0  0  0  0  # atno 17343 bound_to 10162
  157.0202  130.9977  151.3342 LP  0  0  0  0  0  0  0  0  0  0  0  0  # atno 17370 bound_to 10713
  157.5349  130.8082  149.7960 LP  0  0  0  0  0  0  0  0  0  0  0  0  # atno 17371 bound_to 10713
  139.9213  134.8144  156.1204 LP  0  0  0  0  0  0  0  0  0  0  0  0  # atno 17394 bound_to 11000
  141.0841  133.6741  156.2399 LP  0  0  0  0  0  0  0  0  0  0  0  0  # atno 17395 bound_to 11000

$$$$
