AV-unprocessed.smi:1947|AV-procd|sdf|7870|dock1
  -GOLD-   2272010 23D 1   1.00000     0.00000
 Structure written by MMmdl.
 38 39  0  0  0  0  0  0  0  0  2 V2000
  151.7269  144.6717  158.1517 C   0  0  0  0  0  0  0  0  0  0  0  0
  152.4657  144.0683  159.3557 C   0  0  1  0  0  0  0  0  0  0  0  0
  151.7290  144.3643  160.6777 C   0  0  0  0  0  0  0  0  0  0  0  0
  152.5010  143.8172  161.8885 C   0  0  0  0  0  0  0  0  0  0  0  0
  152.7818  142.3146  161.7386 C   0  0  0  0  0  0  0  0  0  0  0  0
  153.5149  142.0109  160.4205 C   0  0  0  0  0  0  0  0  0  0  0  0
  152.7486  142.5531  159.1996 C   0  0  1  0  0  0  0  0  0  0  0  0
  151.5293  141.8272  159.1116 O   0  0  0  0  0  0  0  0  0  0  0  0
  151.1960  141.3593  157.8137 C   0  0  0  0  0  0  0  0  0  0  0  0
  152.1472  140.2144  157.4334 C   0  0  0  0  0  0  0  0  0  0  0  0
  151.5432  139.3422  156.4303 N   0  0  0  0  0  0  0  0  0  0  0  0
  152.0705  139.0372  155.2356 C   0  0  0  0  0  0  0  0  0  0  0  0
  153.1094  139.5863  154.8612 O   0  0  0  0  0  0  0  0  0  0  0  0
  151.3734  138.0992  154.5553 N   0  5  0  0  0  0  0  0  0  0  0  0
  151.0317  136.9521  155.1647 C   0  0  0  0  0  0  0  0  0  0  0  0
  151.9336  136.1777  155.7899 N   0  0  0  0  0  0  0  0  0  0  0  0
  151.3781  135.0349  156.3489 N   0  0  0  0  0  0  0  0  0  0  0  0
  150.0631  134.9819  156.1386 C   0  0  0  0  0  0  0  0  0  0  0  0
  149.3838  136.3237  155.2416 S   0  0  0  0  0  0  0  0  0  0  0  0
  150.7186  144.2681  158.0586 H   0  0  0  0  0  0  0  0  0  0  0  0
  152.2580  144.4699  157.2212 H   0  0  0  0  0  0  0  0  0  0  0  0
  151.6363  145.7534  158.2512 H   0  0  0  0  0  0  0  0  0  0  0  0
  153.4336  144.5694  159.4065 H   0  0  0  0  0  0  0  0  0  0  0  0
  151.5847  145.4390  160.7932 H   0  0  0  0  0  0  0  0  0  0  0  0
  150.7311  143.9256  160.6534 H   0  0  0  0  0  0  0  0  0  0  0  0
  153.4429  144.3569  161.9951 H   0  0  0  0  0  0  0  0  0  0  0  0
  151.9345  143.9999  162.8019 H   0  0  0  0  0  0  0  0  0  0  0  0
  153.3737  141.9612  162.5831 H   0  0  0  0  0  0  0  0  0  0  0  0
  151.8408  141.7638  161.7707 H   0  0  0  0  0  0  0  0  0  0  0  0
  154.5096  142.4571  160.4505 H   0  0  0  0  0  0  0  0  0  0  0  0
  153.6644  140.9356  160.3179 H   0  0  0  0  0  0  0  0  0  0  0  0
  153.3627  142.3830  158.3132 H   0  0  0  0  0  0  0  0  0  0  0  0
  150.1626  141.0135  157.7687 H   0  0  0  0  0  0  0  0  0  0  0  0
  151.2927  142.1823  157.1046 H   0  0  0  0  0  0  0  0  0  0  0  0
  153.0594  140.6287  157.0040 H   0  0  0  0  0  0  0  0  0  0  0  0
  152.4495  139.6505  158.3171 H   0  0  0  0  0  0  0  0  0  0  0  0
  150.6866  138.8754  156.6891 H   0  0  0  0  0  0  0  0  0  0  0  0
  149.4892  134.1489  156.5159 H   0  0  0  0  0  0  0  0  0  0  0  0
  1  2  1  0  0  0  0
  1 20  1  0  0  0  0
  1 21  1  0  0  0  0
  1 22  1  0  0  0  0
  2  7  1  0  0  0  0
  2  3  1  0  0  0  0
  2 23  1  0  0  0  0
  3  4  1  0  0  0  0
  3 24  1  0  0  0  0
  3 25  1  0  0  0  0
  4  5  1  0  0  0  0
  4 26  1  0  0  0  0
  4 27  1  0  0  0  0
  5  6  1  0  0  0  0
  5 28  1  0  0  0  0
  5 29  1  0  0  0  0
  6  7  1  0  0  0  0
  6 30  1  0  0  0  0
  6 31  1  0  0  0  0
  7  8  1  0  0  0  0
  7 32  1  0  0  0  0
  8  9  1  0  0  0  0
  9 10  1  0  0  0  0
  9 33  1  0  0  0  0
  9 34  1  0  0  0  0
 10 11  1  0  0  0  0
 10 35  1  0  0  0  0
 10 36  1  0  0  0  0
 11 12  1  0  0  0  0
 11 37  1  0  0  0  0
 12 13  2  0  0  0  0
 12 14  1  0  0  0  0
 14 15  1  0  0  0  0
 15 19  1  0  0  0  0
 15 16  2  0  0  0  0
 16 17  1  0  0  0  0
 17 18  2  0  0  0  0
 18 19  1  0  0  0  0
 18 38  1  0  0  0  0
M  CHG  1  14  -1
M  END
> <s_m_source_file>
AV-unprocessed.smi

> <i_m_source_file_index>
1947

> <i_lp_mmshare_version>
43012

> <i_f3d_flags>
0

> <s_epik_input>
W0NIM11bQ0BASF0xW0NIMl1bQ0gyXVtDSDJdW0NIMl1bQ0BIXTFPW0NIMl1bQ0gyXVtOSF1DKD1PKVtOSF1jMm5uW2NIXXMy

> <s_epik_cmdline>
J2VwaWtfcHl0aG9uJywgJy1waCcsICc3LjAnLCAnLXRuJywgJzgnLCAnLW1hJywgJzIwMCcsICctbWV0YWxfYmluZGluZycsICctaW1hZScsICc8aW5maWxlLm1hZT4nLCAnLW9tYWUnLCAnPG91dGZpbGUubWFlPic=

> <r_lp_tautomer_probability>
1

> <r_epik_Ionization_Penalty>
3.35961

> <r_epik_Ionization_Penalty_Charging>
3.31977

> <r_epik_Ionization_Penalty_Neutral>
0.0398394

> <r_epik_State_Penalty>
3.31759

> <r_epik_Charging_Adjusted_Penalty>
6.63736

> <i_epik_Tot_Q>
-1

> <i_epik_Tot_abs_Q>
1

> <r_epik_Metal_State_Penalty>
0.484557

> <b_epik_Metal_Only>
1

> <s_lp_Force_Field>
OPLS_2005

> <r_lp_Energy>
8.55413

> <b_lp_Chiralities_Consistent>
1

> <s_lp_Variant>
AV-unprocessed.smi:1947-6

> <Gold.Version>
5.8.1

> <Gold.Id.Protein>
6NUR|6NUR_protein|mol2

> <Gold.PLP.Fitness>
47.5548

> <Gold.PLP.PLP>
-44.7333

> <Gold.PLP.part.hbond>
-3.6523

> <Gold.PLP.part.metal>
0.0000

> <Gold.PLP.part.buried>
-6.5636

> <Gold.PLP.part.nonpolar>
-35.1496

> <Gold.PLP.part.repulsive>
0.3113

> <Gold.PLP.ligand.clash>
0.0000

> <Gold.PLP.ligand.torsion>
1.7502

> <Gold.PLP.Chemscore.Hbond>
2.0265

> <Gold.PLP.Chemscore.CHOScore>
0.0000

> <Gold.PLP.Chemscore.Metal>
0.0000

> <Gold.Chemscore.Hbonds>
donor molecule, donor type, donor heavy atom, donor atom, acceptor molecule, acceptor atom, score
      P1  H  7989  7998       L1    13  0.02
      P1  H  7997  8008       L1    13  1.00
      P1  H 10752 10765       L1    16  1.00

> <Gold.PLP.Chemscore.Internal.Correction>
0.2424

> <Gold.Rescore>
     Score         DG    S(hbond)    S(metal)    S(lipo)     H(rot)  DE(clash)    DE(int)     intcor
     17.14     -18.81       1.79        0.00     104.37       1.90       0.05       1.61       ----

> <Gold.Chemscore.Fitness>
17.1448

> <Gold.Chemscore.DG>
-18.8050

> <Gold.Chemscore.ZeroCoef>
-5.4800

> <Gold.Chemscore.Hbond>
1.7886

> <Gold.Chemscore.Metal>
0.0000

> <Gold.Chemscore.Lipo>
104.3659

> <Gold.Chemscore.Internal_Hbond>
0.0000

> <Gold.Chemscore.DEClash>
0.0456

> <Gold.Chemscore.DEInternal>
1.6146

> <Gold.Chemscore.Rot>
1.8984

> <Gold.Chemscore.Internal.Correction>
   9.000000E+99

> <Gold.Chemscore.Hbonds>
donor molecule, donor type, donor heavy atom, donor atom, acceptor molecule, acceptor atom, score
      P1  H  7997  8008       L1    13  1.00
      P1  H 10752 10765       L1    16  0.22

> <Gold.Chemscore.Hbond.Weighted>
-5.9740

> <Gold.Chemscore.Metal.Weighted>
-0.0000

> <Gold.Chemscore.Lipo.Weighted>
-12.2108

> <Gold.Chemscore.Internal_Hbond.Weighted>
0.0000

> <Gold.Chemscore.DEClash.Weighted>
0.0456

> <Gold.Chemscore.DEInternal.Weighted>
1.6146

> <Gold.Chemscore.Rot.Weighted>
4.8598

> <Gold.Chemscore.Internal.Correction.Weighted>
   9.000000E+99

> <Gold.Protein.RotatedTorsions>
[ 6907 6896 6895 6894 ] final  -89.77 input  -60.11 | X-H torsion
[ 7974 7965 7964 7962 ] final  -80.79 input  175.53 | X-H torsion
[ 8008 7997 7996 7995 ] final  -11.35 input   59.86 | X-H torsion
[ 10167 10162 10161 10158 ] final -122.03 input  -65.29 | X-H torsion
[ 10718 10713 10712 10709 ] final  -26.33 input   66.30 | X-H torsion
[ 10763 10752 10751 10750 ] final -165.06 input  -60.55 | X-H torsion
[ 11005 11000 10999 10996 ] final  129.84 input  -57.11 | X-H torsion

> <Gold.Protein.ActiveResidues>
 VAL166  LYS551  ARG553  GLY616  TRP617  ASP618  TYR619  PRO620  LYS621  CYS622 
 ASP623  PHE694  ASN695  SER759  ASP760  ASP761  ALA762  ILE779  LEU786  VAL792 
 PHE793  MET794  SER795  GLU796  ALA797  LYS798  CYS799  TRP800  GLU811  SER814 

> <Gold.Protein.RotatedAtoms>
  150.6876  134.2536  159.4520 H   0  0  0  0  0  0  0  0  0  0  0  0  # atno 6907 bound_to 6896
  152.0471  134.9674  160.0583 H   0  0  0  0  0  0  0  0  0  0  0  0  # atno 6908 bound_to 6896
  152.1152  133.4288  159.4687 H   0  0  0  0  0  0  0  0  0  0  0  0  # atno 6909 bound_to 6896
  145.5552  140.9490  143.1477 H   0  0  0  0  0  0  0  0  0  0  0  0  # atno 7974 bound_to 7965
  154.5472  140.2305  155.8543 H   0  0  0  0  0  0  0  0  0  0  0  0  # atno 8008 bound_to 7997
  156.1914  140.3076  155.9301 H   0  0  0  0  0  0  0  0  0  0  0  0  # atno 8009 bound_to 7997
  155.3141  140.0437  157.3027 H   0  0  0  0  0  0  0  0  0  0  0  0  # atno 8010 bound_to 7997
  140.0186  143.5367  152.2231 H   0  0  0  0  0  0  0  0  0  0  0  0  # atno 10167 bound_to 10162
  156.4526  130.4487  149.6980 H   0  0  0  0  0  0  0  0  0  0  0  0  # atno 10718 bound_to 10713
  154.6968  135.2980  154.9399 H   0  0  0  0  0  0  0  0  0  0  0  0  # atno 10763 bound_to 10752
  154.0344  135.6666  153.4788 H   0  0  0  0  0  0  0  0  0  0  0  0  # atno 10764 bound_to 10752
  153.0652  135.5092  154.8090 H   0  0  0  0  0  0  0  0  0  0  0  0  # atno 10765 bound_to 10752
  139.9638  134.9596  156.9207 H   0  0  0  0  0  0  0  0  0  0  0  0  # atno 11005 bound_to 11000
  144.7510  139.7195  143.7273 LP  0  0  0  0  0  0  0  0  0  0  0  0  # atno 17320 bound_to 7965
  146.1889  139.5119  142.9818 LP  0  0  0  0  0  0  0  0  0  0  0  0  # atno 17321 bound_to 7965
  139.6155  144.7618  151.2856 LP  0  0  0  0  0  0  0  0  0  0  0  0  # atno 17342 bound_to 10162
  140.7352  143.6744  150.8054 LP  0  0  0  0  0  0  0  0  0  0  0  0  # atno 17343 bound_to 10162
  156.3800  130.7574  151.2566 LP  0  0  0  0  0  0  0  0  0  0  0  0  # atno 17370 bound_to 10713
  157.7502  131.0298  150.4110 LP  0  0  0  0  0  0  0  0  0  0  0  0  # atno 17371 bound_to 10713
  140.5441  134.0691  155.7350 LP  0  0  0  0  0  0  0  0  0  0  0  0  # atno 17394 bound_to 11000
  141.1317  133.9291  157.2521 LP  0  0  0  0  0  0  0  0  0  0  0  0  # atno 17395 bound_to 11000

$$$$
