AV-unprocessed.smi:1023|AV-procd|sdf|4463|dock4
  -GOLD-   22720 2433D 1   1.00000     0.00000
 Structure written by MMmdl.
 31 32  0  0  0  0  0  0  0  0  2 V2000
  153.0232  143.6473  159.3888 C   0  0  0  0  0  0  0  0  0  0  0  0
  152.5716  142.6993  160.5092 C   0  0  0  0  0  0  0  0  0  0  0  0
  152.6323  143.4037  161.8768 C   0  0  0  0  0  0  0  0  0  0  0  0
  153.3890  141.3931  160.4821 C   0  0  0  0  0  0  0  0  0  0  0  0
  153.3810  140.7934  159.1545 N   0  0  0  0  0  0  0  0  0  0  0  0
  152.3029  140.6382  158.3640 C   0  0  0  0  0  0  0  0  0  0  0  0
  151.2028  140.9960  158.7828 O   0  0  0  0  0  0  0  0  0  0  0  0
  152.4943  140.0913  157.1342 N   0  5  0  0  0  0  0  0  0  0  0  0
  151.5681  140.1671  156.1601 C   0  0  0  0  0  0  0  0  0  0  0  0
  151.6610  139.4670  155.0208 N   0  0  0  0  0  0  0  0  0  0  0  0
  150.6153  139.7137  154.1436 N   0  0  0  0  0  0  0  0  0  0  0  0
  149.7381  140.5899  154.6388 C   0  0  0  0  0  0  0  0  0  0  0  0
  148.5300  141.0268  153.8800 C   0  0  0  0  0  0  0  0  0  0  0  0
  147.6342  142.1182  154.4190 C   0  0  0  0  0  0  0  0  0  0  0  0
  147.1315  140.6984  154.3557 C   0  0  0  0  0  0  0  0  0  0  0  0
  150.1271  141.1795  156.2469 S   0  0  0  0  0  0  0  0  0  0  0  0
  154.0618  143.9512  159.5220 H   0  0  0  0  0  0  0  0  0  0  0  0
  152.4121  144.5501  159.3673 H   0  0  0  0  0  0  0  0  0  0  0  0
  152.9385  143.1702  158.4122 H   0  0  0  0  0  0  0  0  0  0  0  0
  151.5286  142.4427  160.3180 H   0  0  0  0  0  0  0  0  0  0  0  0
  153.6578  143.6621  162.1422 H   0  0  0  0  0  0  0  0  0  0  0  0
  152.2307  142.7760  162.6729 H   0  0  0  0  0  0  0  0  0  0  0  0
  152.0490  144.3246  161.8690 H   0  0  0  0  0  0  0  0  0  0  0  0
  154.4210  141.5923  160.7753 H   0  0  0  0  0  0  0  0  0  0  0  0
  152.9835  140.6790  161.2006 H   0  0  0  0  0  0  0  0  0  0  0  0
  154.2703  140.4814  158.7934 H   0  0  0  0  0  0  0  0  0  0  0  0
  148.7219  141.0076  152.8090 H   0  0  0  0  0  0  0  0  0  0  0  0
  147.8667  142.5239  155.4019 H   0  0  0  0  0  0  0  0  0  0  0  0
  147.2256  142.8299  153.7046 H   0  0  0  0  0  0  0  0  0  0  0  0
  146.3874  140.4620  153.5980 H   0  0  0  0  0  0  0  0  0  0  0  0
  147.0179  140.1699  155.3001 H   0  0  0  0  0  0  0  0  0  0  0  0
  1  2  1  0  0  0  0
  1 17  1  0  0  0  0
  1 18  1  0  0  0  0
  1 19  1  0  0  0  0
  2  3  1  0  0  0  0
  2  4  1  0  0  0  0
  2 20  1  0  0  0  0
  3 21  1  0  0  0  0
  3 22  1  0  0  0  0
  3 23  1  0  0  0  0
  4  5  1  0  0  0  0
  4 24  1  0  0  0  0
  4 25  1  0  0  0  0
  5  6  1  0  0  0  0
  5 26  1  0  0  0  0
  6  7  2  0  0  0  0
  6  8  1  0  0  0  0
  8  9  1  0  0  0  0
  9 16  1  0  0  0  0
  9 10  2  0  0  0  0
 10 11  1  0  0  0  0
 11 12  2  0  0  0  0
 12 13  1  0  0  0  0
 12 16  1  0  0  0  0
 13 15  1  0  0  0  0
 13 14  1  0  0  0  0
 13 27  1  0  0  0  0
 14 15  1  0  0  0  0
 14 28  1  0  0  0  0
 14 29  1  0  0  0  0
 15 30  1  0  0  0  0
 15 31  1  0  0  0  0
M  CHG  1   8  -1
M  END
> <s_m_source_file>
AV-unprocessed.smi

> <i_m_source_file_index>
1023

> <i_lp_mmshare_version>
43012

> <i_f3d_flags>
0

> <s_epik_input>
W0NIM11bQ0hdKFtDSDNdKVtDSDJdW05IXUMoPU8pW05IXWMxbm5jKHMxKVtDSF0yW0NIMl1bQ0gyXTI=

> <s_epik_cmdline>
J2VwaWtfcHl0aG9uJywgJy1waCcsICc3LjAnLCAnLXRuJywgJzgnLCAnLW1hJywgJzIwMCcsICctbWV0YWxfYmluZGluZycsICctaW1hZScsICc8aW5maWxlLm1hZT4nLCAnLW9tYWUnLCAnPG91dGZpbGUubWFlPic=

> <r_lp_tautomer_probability>
1

> <r_epik_Ionization_Penalty>
3.99087

> <r_epik_Ionization_Penalty_Charging>
3.83446

> <r_epik_Ionization_Penalty_Neutral>
0.156418

> <r_epik_State_Penalty>
3.83354

> <r_epik_Charging_Adjusted_Penalty>
7.668

> <i_epik_Tot_Q>
-1

> <i_epik_Tot_abs_Q>
1

> <r_epik_Metal_State_Penalty>
0.575872

> <b_epik_Metal_Only>
1

> <s_lp_Force_Field>
OPLS_2005

> <r_lp_Energy>
2.18617

> <b_lp_Chiralities_Consistent>
1

> <s_lp_Variant>
AV-unprocessed.smi:1023-2

> <Gold.Version>
5.8.1

> <Gold.Id.Protein>
6NUR|6NUR_protein|mol2

> <Gold.PLP.Fitness>
42.3144

> <Gold.PLP.PLP>
-35.9849

> <Gold.PLP.part.hbond>
-3.0000

> <Gold.PLP.part.metal>
0.0000

> <Gold.PLP.part.buried>
-1.1166

> <Gold.PLP.part.nonpolar>
-31.2741

> <Gold.PLP.part.repulsive>
0.2874

> <Gold.PLP.ligand.clash>
0.0000

> <Gold.PLP.ligand.torsion>
0.2479

> <Gold.PLP.Chemscore.Hbond>
2.2125

> <Gold.PLP.Chemscore.CHOScore>
0.0000

> <Gold.PLP.Chemscore.Metal>
0.0000

> <Gold.Chemscore.Hbonds>
donor molecule, donor type, donor heavy atom, donor atom, acceptor molecule, acceptor atom, score
      P1  H  7989  7998       L1    11  0.20
      P1  H  7997  8010       L1     8  2.00

> <Gold.PLP.Chemscore.Internal.Correction>
0.1877

> <Gold.Rescore>
     Score         DG    S(hbond)    S(metal)    S(lipo)     H(rot)  DE(clash)    DE(int)     intcor
     11.10     -14.26       0.84        0.00      81.58       1.39       0.22       2.94       ----

> <Gold.Chemscore.Fitness>
11.1021

> <Gold.Chemscore.DG>
-14.2577

> <Gold.Chemscore.ZeroCoef>
-5.4800

> <Gold.Chemscore.Hbond>
0.8364

> <Gold.Chemscore.Metal>
0.0000

> <Gold.Chemscore.Lipo>
81.5845

> <Gold.Chemscore.Internal_Hbond>
0.0000

> <Gold.Chemscore.DEClash>
0.2155

> <Gold.Chemscore.DEInternal>
2.9402

> <Gold.Chemscore.Rot>
1.3911

> <Gold.Chemscore.Internal.Correction>
   9.000000E+99

> <Gold.Chemscore.Hbonds>
donor molecule, donor type, donor heavy atom, donor atom, acceptor molecule, acceptor atom, score
      P1  H  7997  8010       L1     8  0.71

> <Gold.Chemscore.Hbond.Weighted>
-2.7935

> <Gold.Chemscore.Metal.Weighted>
-0.0000

> <Gold.Chemscore.Lipo.Weighted>
-9.5454

> <Gold.Chemscore.Internal_Hbond.Weighted>
0.0000

> <Gold.Chemscore.DEClash.Weighted>
0.2155

> <Gold.Chemscore.DEInternal.Weighted>
2.9402

> <Gold.Chemscore.Rot.Weighted>
3.5612

> <Gold.Chemscore.Internal.Correction.Weighted>
   9.000000E+99

> <Gold.Protein.RotatedTorsions>
[ 6907 6896 6895 6894 ] final  124.97 input  -60.11 | X-H torsion
[ 7974 7965 7964 7962 ] final   41.34 input  175.53 | X-H torsion
[ 8008 7997 7996 7995 ] final   56.87 input   59.86 | X-H torsion
[ 10167 10162 10161 10158 ] final   81.27 input  -65.29 | X-H torsion
[ 10718 10713 10712 10709 ] final -176.48 input   66.30 | X-H torsion
[ 10763 10752 10751 10750 ] final  -92.01 input  -60.55 | X-H torsion
[ 11005 11000 10999 10996 ] final -122.18 input  -57.11 | X-H torsion

> <Gold.Protein.ActiveResidues>
 VAL166  LYS551  ARG553  GLY616  TRP617  ASP618  TYR619  PRO620  LYS621  CYS622 
 ASP623  PHE694  ASN695  SER759  ASP760  ASP761  ALA762  ILE779  LEU786  VAL792 
 PHE793  MET794  SER795  GLU796  ALA797  LYS798  CYS799  TRP800  GLU811  SER814 

> <Gold.Protein.RotatedAtoms>
  152.4032  133.6849  159.6333 H   0  0  0  0  0  0  0  0  0  0  0  0  # atno 6907 bound_to 6896
  150.7920  133.8754  159.3279 H   0  0  0  0  0  0  0  0  0  0  0  0  # atno 6908 bound_to 6896
  151.6515  135.1002  160.0213 H   0  0  0  0  0  0  0  0  0  0  0  0  # atno 6909 bound_to 6896
  146.0832  139.5428  142.9524 H   0  0  0  0  0  0  0  0  0  0  0  0  # atno 7974 bound_to 7965
  155.5245  140.3480  155.4413 H   0  0  0  0  0  0  0  0  0  0  0  0  # atno 8008 bound_to 7997
  156.0761  140.1375  156.9796 H   0  0  0  0  0  0  0  0  0  0  0  0  # atno 8009 bound_to 7997
  154.4554  140.0955  156.6718 H   0  0  0  0  0  0  0  0  0  0  0  0  # atno 8010 bound_to 7997
  139.9410  144.6090  150.8252 H   0  0  0  0  0  0  0  0  0  0  0  0  # atno 10167 bound_to 10162
  156.8152  130.9600  151.3114 H   0  0  0  0  0  0  0  0  0  0  0  0  # atno 10718 bound_to 10713
  154.6818  135.5247  153.8273 H   0  0  0  0  0  0  0  0  0  0  0  0  # atno 10763 bound_to 10752
  153.0570  135.6554  154.0564 H   0  0  0  0  0  0  0  0  0  0  0  0  # atno 10764 bound_to 10752
  154.0450  135.2974  155.3329 H   0  0  0  0  0  0  0  0  0  0  0  0  # atno 10765 bound_to 10752
  141.0014  134.0397  157.3532 H   0  0  0  0  0  0  0  0  0  0  0  0  # atno 11005 bound_to 11000
  145.6179  141.0328  143.1931 LP  0  0  0  0  0  0  0  0  0  0  0  0  # atno 17320 bound_to 7965
  144.7307  139.7734  143.7348 LP  0  0  0  0  0  0  0  0  0  0  0  0  # atno 17321 bound_to 7965
  140.7611  143.3166  151.2719 LP  0  0  0  0  0  0  0  0  0  0  0  0  # atno 17342 bound_to 10162
  139.6705  144.0029  152.2750 LP  0  0  0  0  0  0  0  0  0  0  0  0  # atno 17343 bound_to 10162
  157.6485  130.8864  149.9586 LP  0  0  0  0  0  0  0  0  0  0  0  0  # atno 17370 bound_to 10713
  156.1021  130.3655  150.0200 LP  0  0  0  0  0  0  0  0  0  0  0  0  # atno 17371 bound_to 10713
  139.9041  135.0174  156.7404 LP  0  0  0  0  0  0  0  0  0  0  0  0  # atno 17394 bound_to 11000
  140.6882  133.9413  155.7951 LP  0  0  0  0  0  0  0  0  0  0  0  0  # atno 17395 bound_to 11000

$$$$
