AV-unprocessed.smi:2442|AV-procd|sdf|9626|dock1
  -GOLD-   2272013253D 1   1.00000     0.00000
 Structure written by MMmdl.
 46 47  0  0  0  0  0  0  0  0  1 V2000
  148.5175  133.2863  153.4847 C   0  0  0  0  0  0  0  0  0  0  0  0
  147.1454  132.9271  153.4569 O   0  0  0  0  0  0  0  0  0  0  0  0
  146.5876  132.8339  152.1508 C   0  0  1  0  0  0  0  0  0  0  0  0
  145.8604  131.4816  151.9891 C   0  0  0  0  0  0  0  0  0  0  0  0
  145.1110  131.3944  150.6513 C   0  0  0  0  0  0  0  0  0  0  0  0
  144.1235  132.5590  150.4974 C   0  0  0  0  0  0  0  0  0  0  0  0
  144.8432  133.9083  150.6326 C   0  0  0  0  0  0  0  0  0  0  0  0
  145.6084  134.0161  151.9660 C   0  0  2  0  0  0  0  0  0  0  0  0
  146.3363  135.2830  151.9852 N   0  0  0  0  0  0  0  0  0  0  0  0
  145.7871  136.4978  151.8506 C   0  0  0  0  0  0  0  0  0  0  0  0
  144.5810  136.7014  151.7092 O   0  0  0  0  0  0  0  0  0  0  0  0
  146.7160  137.4647  151.8687 N   0  0  0  0  0  0  0  0  0  0  0  0
  146.4546  138.8896  151.6804 C   0  0  0  0  0  0  0  0  0  0  0  0
  146.3874  139.6616  153.0150 C   0  0  0  0  0  0  0  0  0  0  0  0
  147.7433  140.0936  153.5622 C   0  0  0  0  0  0  0  0  0  0  0  0
  148.7229  139.1147  153.8361 C   0  0  0  0  0  0  0  0  0  0  0  0
  149.9801  139.5271  154.3171 C   0  0  0  0  0  0  0  0  0  0  0  0
  150.3012  140.8182  154.5377 N   0  0  0  0  0  0  0  0  0  0  0  0
  149.3623  141.7527  154.2801 C   0  0  0  0  0  0  0  0  0  0  0  0
  148.0702  141.4528  153.7959 C   0  0  0  0  0  0  0  0  0  0  0  0
  147.0872  142.5794  153.5339 C   0  0  0  0  0  0  0  0  0  0  0  0
  148.8487  133.3650  154.5201 H   0  0  0  0  0  0  0  0  0  0  0  0
  148.6814  134.2536  153.0084 H   0  0  0  0  0  0  0  0  0  0  0  0
  149.1432  132.5418  152.9928 H   0  0  0  0  0  0  0  0  0  0  0  0
  147.3746  132.9157  151.3982 H   0  0  0  0  0  0  0  0  0  0  0  0
  146.5672  130.6552  152.0558 H   0  0  0  0  0  0  0  0  0  0  0  0
  145.1530  131.3490  152.8089 H   0  0  0  0  0  0  0  0  0  0  0  0
  145.8266  131.4088  149.8283 H   0  0  0  0  0  0  0  0  0  0  0  0
  144.5795  130.4449  150.5843 H   0  0  0  0  0  0  0  0  0  0  0  0
  143.6238  132.4993  149.5301 H   0  0  0  0  0  0  0  0  0  0  0  0
  143.3428  132.4817  151.2554 H   0  0  0  0  0  0  0  0  0  0  0  0
  145.5351  134.0297  149.7976 H   0  0  0  0  0  0  0  0  0  0  0  0
  144.1180  134.7194  150.5530 H   0  0  0  0  0  0  0  0  0  0  0  0
  144.8734  133.9933  152.7733 H   0  0  0  0  0  0  0  0  0  0  0  0
  147.3377  135.2265  152.0970 H   0  0  0  0  0  0  0  0  0  0  0  0
  147.6799  137.1928  151.9943 H   0  0  0  0  0  0  0  0  0  0  0  0
  147.2065  139.3285  151.0240 H   0  0  0  0  0  0  0  0  0  0  0  0
  145.5056  138.9936  151.1545 H   0  0  0  0  0  0  0  0  0  0  0  0
  145.7416  140.5327  152.9059 H   0  0  0  0  0  0  0  0  0  0  0  0
  145.8992  139.0345  153.7620 H   0  0  0  0  0  0  0  0  0  0  0  0
  148.5223  138.0666  153.6697 H   0  0  0  0  0  0  0  0  0  0  0  0
  150.7498  138.7995  154.5279 H   0  0  0  0  0  0  0  0  0  0  0  0
  149.6553  142.7752  154.4674 H   0  0  0  0  0  0  0  0  0  0  0  0
  147.4915  143.5366  153.8642 H   0  0  0  0  0  0  0  0  0  0  0  0
  146.1533  142.4130  154.0701 H   0  0  0  0  0  0  0  0  0  0  0  0
  146.8717  142.6610  152.4692 H   0  0  0  0  0  0  0  0  0  0  0  0
  1  2  1  0  0  0  0
  1 22  1  0  0  0  0
  1 23  1  0  0  0  0
  1 24  1  0  0  0  0
  2  3  1  0  0  0  0
  3  8  1  0  0  0  0
  3  4  1  0  0  0  0
  3 25  1  0  0  0  0
  4  5  1  0  0  0  0
  4 26  1  0  0  0  0
  4 27  1  0  0  0  0
  5  6  1  0  0  0  0
  5 28  1  0  0  0  0
  5 29  1  0  0  0  0
  6  7  1  0  0  0  0
  6 30  1  0  0  0  0
  6 31  1  0  0  0  0
  7  8  1  0  0  0  0
  7 32  1  0  0  0  0
  7 33  1  0  0  0  0
  8  9  1  0  0  0  0
  8 34  1  0  0  0  0
  9 10  1  0  0  0  0
  9 35  1  0  0  0  0
 10 11  2  0  0  0  0
 10 12  1  0  0  0  0
 12 13  1  0  0  0  0
 12 36  1  0  0  0  0
 13 14  1  0  0  0  0
 13 37  1  0  0  0  0
 13 38  1  0  0  0  0
 14 15  1  0  0  0  0
 14 39  1  0  0  0  0
 14 40  1  0  0  0  0
 15 20  1  0  0  0  0
 15 16  2  0  0  0  0
 16 17  1  0  0  0  0
 16 41  1  0  0  0  0
 17 18  2  0  0  0  0
 17 42  1  0  0  0  0
 18 19  1  0  0  0  0
 19 20  2  0  0  0  0
 19 43  1  0  0  0  0
 20 21  1  0  0  0  0
 21 44  1  0  0  0  0
 21 45  1  0  0  0  0
 21 46  1  0  0  0  0
M  END
> <s_m_source_file>
AV-unprocessed.smi

> <i_m_source_file_index>
2442

> <i_lp_mmshare_version>
43012

> <i_f3d_flags>
0

> <s_epik_input>
W0NIM11PW0NAQEhdMVtDSDJdW0NIMl1bQ0gyXVtDSDJdW0NASF0xW05IXUMoPU8pW05IXVtDSDJdW0NIMl1jMltjSF1bY0hdbltjSF1jMltDSDNd

> <s_epik_cmdline>
J2VwaWtfcHl0aG9uJywgJy1waCcsICc3LjAnLCAnLXRuJywgJzgnLCAnLW1hJywgJzIwMCcsICctbWV0YWxfYmluZGluZycsICctaW1hZScsICc8aW5maWxlLm1hZT4nLCAnLW9tYWUnLCAnPG91dGZpbGUubWFlPic=

> <r_epik_Ionization_Penalty>
0.106136

> <r_epik_Ionization_Penalty_Charging>
0

> <r_epik_Ionization_Penalty_Neutral>
0.106136

> <r_epik_State_Penalty>
0.0959393

> <r_epik_Charging_Adjusted_Penalty>
0.0959393

> <i_epik_Tot_Q>
0

> <i_epik_Tot_abs_Q>
0

> <r_epik_Metal_State_Penalty>
0.0812517

> <b_epik_Metal_Only>
0

> <s_lp_Force_Field>
OPLS_2005

> <r_lp_Energy>
10.54

> <b_lp_Chiralities_Consistent>
1

> <s_lp_Variant>
AV-unprocessed.smi:2442-4

> <Gold.Version>
5.8.1

> <Gold.Id.Protein>
6NUR|6NUR_protein|mol2

> <Gold.PLP.Fitness>
50.8861

> <Gold.PLP.PLP>
-41.1562

> <Gold.PLP.part.hbond>
-3.0000

> <Gold.PLP.part.metal>
0.0000

> <Gold.PLP.part.buried>
-3.5363

> <Gold.PLP.part.nonpolar>
-36.5893

> <Gold.PLP.part.repulsive>
0.6455

> <Gold.PLP.ligand.clash>
0.0000

> <Gold.PLP.ligand.torsion>
0.9840

> <Gold.PLP.Chemscore.Hbond>
2.8800

> <Gold.PLP.Chemscore.CHOScore>
1.0000

> <Gold.PLP.Chemscore.Metal>
0.0000

> <Gold.Chemscore.Hbonds>
donor molecule, donor type, donor heavy atom, donor atom, acceptor molecule, acceptor atom, score
      L1  H     9    35       P1  7948  0.86
      L1  H    12    36       P1  7948  1.00
      P1  H  7989  7998       L1    18  0.69
      L1  C    19    43       P1  8028  1.00

> <Gold.PLP.Chemscore.Internal.Correction>
0.0580

> <Gold.Rescore>
     Score         DG    S(hbond)    S(metal)    S(lipo)     H(rot)  DE(clash)    DE(int)     intcor
     19.43     -21.30       2.28        0.00     106.14       1.64       0.70       1.17       ----

> <Gold.Chemscore.Fitness>
19.4311

> <Gold.Chemscore.DG>
-21.3042

> <Gold.Chemscore.ZeroCoef>
-5.4800

> <Gold.Chemscore.Hbond>
2.2751

> <Gold.Chemscore.Metal>
0.0000

> <Gold.Chemscore.Lipo>
106.1428

> <Gold.Chemscore.Internal_Hbond>
0.0000

> <Gold.Chemscore.DEClash>
0.7047

> <Gold.Chemscore.DEInternal>
1.1685

> <Gold.Chemscore.Rot>
1.6380

> <Gold.Chemscore.Internal.Correction>
   9.000000E+99

> <Gold.Chemscore.Hbonds>
donor molecule, donor type, donor heavy atom, donor atom, acceptor molecule, acceptor atom, score
      L1  H     9    35       P1  7948  0.84
      L1  H    12    36       P1  7948  0.95
      P1  H  7989  7998       L1    18  0.12

> <Gold.Chemscore.Hbond.Weighted>
-7.5989

> <Gold.Chemscore.Metal.Weighted>
-0.0000

> <Gold.Chemscore.Lipo.Weighted>
-12.4187

> <Gold.Chemscore.Internal_Hbond.Weighted>
0.0000

> <Gold.Chemscore.DEClash.Weighted>
0.7047

> <Gold.Chemscore.DEInternal.Weighted>
1.1685

> <Gold.Chemscore.Rot.Weighted>
4.1934

> <Gold.Chemscore.Internal.Correction.Weighted>
   9.000000E+99

> <Gold.Protein.RotatedTorsions>
[ 6907 6896 6895 6894 ] final -115.78 input  -60.11 | X-H torsion
[ 7974 7965 7964 7962 ] final   66.42 input  175.53 | X-H torsion
[ 8008 7997 7996 7995 ] final  165.77 input   59.86 | X-H torsion
[ 10167 10162 10161 10158 ] final  118.83 input  -65.29 | X-H torsion
[ 10718 10713 10712 10709 ] final  -35.06 input   66.30 | X-H torsion
[ 10763 10752 10751 10750 ] final   75.61 input  -60.55 | X-H torsion
[ 11005 11000 10999 10996 ] final  170.10 input  -57.11 | X-H torsion

> <Gold.Protein.ActiveResidues>
 VAL166  LYS551  ARG553  GLY616  TRP617  ASP618  TYR619  PRO620  LYS621  CYS622 
 ASP623  PHE694  ASN695  SER759  ASP760  ASP761  ALA762  ILE779  LEU786  VAL792 
 PHE793  MET794  SER795  GLU796  ALA797  LYS798  CYS799  TRP800  GLU811  SER814 

> <Gold.Protein.RotatedAtoms>
  150.8004  133.8610  159.3231 H   0  0  0  0  0  0  0  0  0  0  0  0  # atno 6907 bound_to 6896
  151.6423  135.1009  160.0153 H   0  0  0  0  0  0  0  0  0  0  0  0  # atno 6908 bound_to 6896
  152.4091  133.6895  159.6417 H   0  0  0  0  0  0  0  0  0  0  0  0  # atno 6909 bound_to 6896
  145.8268  139.3116  143.1011 H   0  0  0  0  0  0  0  0  0  0  0  0  # atno 7974 bound_to 7965
  156.1773  140.1661  156.8339 H   0  0  0  0  0  0  0  0  0  0  0  0  # atno 8008 bound_to 7997
  154.5321  140.0754  156.8397 H   0  0  0  0  0  0  0  0  0  0  0  0  # atno 8009 bound_to 7997
  155.3386  140.3383  155.4241 H   0  0  0  0  0  0  0  0  0  0  0  0  # atno 8010 bound_to 7997
  139.6085  144.7076  151.2897 H   0  0  0  0  0  0  0  0  0  0  0  0  # atno 10167 bound_to 10162
  156.3431  130.4296  149.7770 H   0  0  0  0  0  0  0  0  0  0  0  0  # atno 10718 bound_to 10713
  153.0667  135.4982  154.8215 H   0  0  0  0  0  0  0  0  0  0  0  0  # atno 10763 bound_to 10752
  154.6963  135.2993  154.9408 H   0  0  0  0  0  0  0  0  0  0  0  0  # atno 10764 bound_to 10752
  154.0146  135.6750  153.4820 H   0  0  0  0  0  0  0  0  0  0  0  0  # atno 10765 bound_to 10752
  140.3048  134.7565  157.3945 H   0  0  0  0  0  0  0  0  0  0  0  0  # atno 11005 bound_to 11000
  145.9614  140.8832  143.0208 LP  0  0  0  0  0  0  0  0  0  0  0  0  # atno 17320 bound_to 7965
  144.6743  140.1818  143.7405 LP  0  0  0  0  0  0  0  0  0  0  0  0  # atno 17321 bound_to 7965
  140.7302  143.6885  150.7942 LP  0  0  0  0  0  0  0  0  0  0  0  0  # atno 17342 bound_to 10162
  140.0475  143.5283  152.2689 LP  0  0  0  0  0  0  0  0  0  0  0  0  # atno 17343 bound_to 10162
  156.4999  130.8124  151.3128 LP  0  0  0  0  0  0  0  0  0  0  0  0  # atno 17370 bound_to 10713
  157.7450  130.9948  150.2721 LP  0  0  0  0  0  0  0  0  0  0  0  0  # atno 17371 bound_to 10713
  140.1077  134.5387  155.8294 LP  0  0  0  0  0  0  0  0  0  0  0  0  # atno 17394 bound_to 11000
  141.2120  133.6714  156.6630 LP  0  0  0  0  0  0  0  0  0  0  0  0  # atno 17395 bound_to 11000

$$$$
