#       Name:                AV-unprocessed.smi:702
#       Creating user name   scv26
#       Creation time:       Fri Mar 27 00:40:47 2020


#       File generated by GOLD software.
#

@<TRIPOS>MOLECULE
AV-unprocessed.smi:702
    55    57     1
SMALL
NO_CHARGES


@<TRIPOS>ATOM
      1 ****        -1.2787  -0.7555  -1.9661 C.3            1 S1                 0.0000
      2 ****        -0.6430  -0.0671  -0.7422 C.3            1 S1                 0.0000
      3 ****         0.8123  -0.0067  -0.9452 N.pl3          1 S1                -1.0000
      4 ****         1.4978   1.0754  -1.4022 C.2            1 S1                 0.0000
      5 ****         1.0365   2.1704  -1.7428 O.2            1 S1                 0.0000
      6 ****         2.8243   0.8569  -1.4358 N.am           1 S1                 0.0000
      7 ****         3.8606   1.7296  -1.8629 C.ar           1 S1                 0.0000
      8 ****         5.1334   1.5802  -1.2696 C.ar           1 S1                 0.0000
      9 ****         6.1928   2.4143  -1.6804 C.ar           1 S1                 0.0000
     10 ****         5.9872   3.3375  -2.6444 N.pl3          1 S1                 1.0000
     11 ****         4.7936   3.5037  -3.2537 C.ar           1 S1                 0.0000
     12 ****         3.6969   2.6989  -2.8846 C.ar           1 S1                 0.0000
     13 ****        -1.0097  -0.7769   0.6356 C.3            1 S1                 0.0000
     14 ****        -2.5253  -0.8681   0.8169 N.4            1 S1                 1.0000
     15 ****        -3.0065  -1.6654   1.9869 C.3            1 S1                 0.0000
     16 ****        -4.5114  -1.9479   1.8630 C.3            1 S1                 0.0000
     17 ****        -5.2188  -0.7174   1.8343 O.3            1 S1                 0.0000
     18 ****        -4.8354   0.0814   0.7251 C.3            1 S1                 0.0000
     19 ****        -3.3319   0.4010   0.7981 C.3            1 S1                 0.0000
     20 ****        -0.3664  -2.2165   0.6810 C.3            1 S1                 0.0000
     21 ****         0.4615  -2.3344   1.9695 C.3            1 S1                 0.0000
     22 ****         0.0818  -1.1475   2.8473 C.3            1 S1                 0.0000
     23 ****        -0.3699  -0.0574   1.8715 C.3            1 S1                 0.0000
     24 ****        -2.3654  -0.7842  -1.8909 H              1 S1                 0.0000
     25 ****        -0.9280  -1.7808  -2.0859 H              1 S1                 0.0000
     26 ****        -1.0384  -0.2183  -2.8843 H              1 S1                 0.0000
     27 ****        -1.0518   0.9416  -0.7006 H              1 S1                 0.0000
     28 ****         3.1271  -0.0205  -1.0383 H              1 S1                 0.0000
     29 ****         5.2962   0.8394  -0.5001 H              1 S1                 0.0000
     30 ****         7.1913   2.3700  -1.2709 H              1 S1                 0.0000
     31 ****         4.7528   4.2658  -4.0181 H              1 S1                 0.0000
     32 ****         2.7546   2.8278  -3.3954 H              1 S1                 0.0000
     33 ****        -2.5004  -2.6192   2.1068 H              1 S1                 0.0000
     34 ****        -2.8338  -1.1066   2.9067 H              1 S1                 0.0000
     35 ****        -4.7289  -2.5355   0.9696 H              1 S1                 0.0000
     36 ****        -4.8560  -2.5277   2.7194 H              1 S1                 0.0000
     37 ****        -5.0781  -0.4300  -0.2079 H              1 S1                 0.0000
     38 ****        -5.4161   1.0039   0.7416 H              1 S1                 0.0000
     39 ****        -3.1293   0.9938   1.6901 H              1 S1                 0.0000
     40 ****        -3.1225   1.0456  -0.0524 H              1 S1                 0.0000
     41 ****        -1.1094  -3.0088   0.6090 H              1 S1                 0.0000
     42 ****         0.3093  -2.4625  -0.1419 H              1 S1                 0.0000
     43 ****         0.3051  -3.2867   2.4766 H              1 S1                 0.0000
     44 ****         1.5217  -2.2697   1.7206 H              1 S1                 0.0000
     45 ****        -0.7254  -1.4271   3.5216 H              1 S1                 0.0000
     46 ****         0.9133  -0.8192   3.4716 H              1 S1                 0.0000
     47 ****         0.5262   0.5146   1.6222 H              1 S1                 0.0000
     48 ****        -1.0343   0.6561   2.3568 H              1 S1                 0.0000
     49 ****        -2.8283  -1.3824   0.0025 H              1 S1                 0.0000
     50 ****         6.7676   3.9302  -2.9281 H              1 S1                 0.0000
     51 ****         1.3407  -0.8279  -0.7297 LP             1 S1                 0.0000
     52 ****         0.0510   2.3339  -1.6970 LP             1 S1                 0.0000
     53 ****         1.6488   2.8928  -2.0642 LP             1 S1                 0.0000
     54 ****        -5.0288  -0.2143   2.6774 LP             1 S1                 0.0000
     55 ****        -6.1986  -0.9079   1.7735 LP             1 S1                 0.0000
@<TRIPOS>BOND
    1    1    2 1     
    2    1   24 1     
    3    1   25 1     
    4    1   26 1     
    5    2    3 1     
    6    2   13 1     
    7    2   27 1     
    8    3    4 1     
    9    4    5 2     
   10    4    6 am    
   11    6    7 1     
   12    6   28 1     
   13    7   12 ar    
   14    7    8 ar    
   15    8    9 ar    
   16    8   29 1     
   17    9   10 ar    
   18    9   30 1     
   19   10   11 ar    
   20   10   50 1     
   21   11   12 ar    
   22   11   31 1     
   23   12   32 1     
   24   13   23 1     
   25   13   14 1     
   26   13   20 1     
   27   14   19 1     
   28   14   15 1     
   29   14   49 1     
   30   15   16 1     
   31   15   33 1     
   32   15   34 1     
   33   16   17 1     
   34   16   35 1     
   35   16   36 1     
   36   17   18 1     
   37   18   19 1     
   38   18   37 1     
   39   18   38 1     
   40   19   39 1     
   41   19   40 1     
   42   20   21 1     
   43   20   41 1     
   44   20   42 1     
   45   21   22 1     
   46   21   43 1     
   47   21   44 1     
   48   22   23 1     
   49   22   45 1     
   50   22   46 1     
   51   23   47 1     
   52   23   48 1     
   53    3   51 1     
   54    5   52 1     
   55    5   53 1     
   56   17   54 1     
   57   17   55 1     
@<TRIPOS>SUBSTRUCTURE
      1 S1             1
@<TRIPOS>SET
LONE_PAIRS      STATIC     ATOMS    <user>   **** ""
5 51 52 53 54 55
DONOR_HYDROGENS      STATIC     ATOMS    <user>   **** ""
3 28 50 49
ATOM$BLUE        STATIC     ATOMS    COLORGROUP SYSTEM
5 51 52 53 54 55
ATOM$RED        STATIC     ATOMS    COLORGROUP SYSTEM
3 28 50 49
