AV-unprocessed.smi:2639|AV-procd|sdf|10267|dock4
  -GOLD-   2272014283D 1   1.00000     0.00000
 Structure written by MMmdl.
 44 45  0  0  0  0  0  0  0  0  2 V2000
  143.6564  136.5220  152.3229 C   0  0  0  0  0  0  0  0  0  0  0  0
  144.9266  135.6808  152.6132 C   0  0  2  0  0  0  0  0  0  0  0  0
  144.7797  134.9902  153.9966 C   0  0  0  0  0  0  0  0  0  0  0  0
  143.4817  134.4629  154.1953 O   0  0  0  0  0  0  0  0  0  0  0  0
  146.0921  136.5743  152.7209 N   0  0  0  0  0  0  0  0  0  0  0  0
  146.2128  137.7244  153.4058 C   0  0  0  0  0  0  0  0  0  0  0  0
  145.3096  138.2294  154.0713 O   0  0  0  0  0  0  0  0  0  0  0  0
  147.4515  138.2300  153.2771 N   0  0  0  0  0  0  0  0  0  0  0  0
  147.9765  139.4377  153.8123 C   0  0  0  0  0  0  0  0  0  0  0  0
  147.1134  140.5544  153.8748 C   0  0  0  0  0  0  0  0  0  0  0  0
  147.5845  141.7686  154.4146 C   0  0  0  0  0  0  0  0  0  0  0  0
  148.8504  141.8530  154.8766 N   0  3  0  0  0  0  0  0  0  0  0  0
  149.7074  140.8097  154.8517 C   0  0  0  0  0  0  0  0  0  0  0  0
  149.2931  139.5701  154.3231 C   0  0  0  0  0  0  0  0  0  0  0  0
  145.1615  134.6224  151.4748 C   0  0  0  0  0  0  0  0  0  0  0  0
  144.0322  133.5696  151.3338 C   0  0  0  0  0  0  0  0  0  0  0  0
  144.2608  132.6456  150.1263 C   0  0  0  0  0  0  0  0  0  0  0  0
  145.6239  131.9451  150.2111 C   0  0  0  0  0  0  0  0  0  0  0  0
  146.7580  132.9699  150.3478 C   0  0  0  0  0  0  0  0  0  0  0  0
  146.5312  133.8963  151.5532 C   0  0  0  0  0  0  0  0  0  0  0  0
  142.7462  135.9432  152.4788 H   0  0  0  0  0  0  0  0  0  0  0  0
  143.6338  136.8884  151.2965 H   0  0  0  0  0  0  0  0  0  0  0  0
  143.5922  137.3920  152.9776 H   0  0  0  0  0  0  0  0  0  0  0  0
  145.4794  134.1616  154.0989 H   0  0  0  0  0  0  0  0  0  0  0  0
  144.9866  135.6832  154.8119 H   0  0  0  0  0  0  0  0  0  0  0  0
  143.5577  133.5373  154.3706 H   0  0  0  0  0  0  0  0  0  0  0  0
  146.9116  136.2589  152.2227 H   0  0  0  0  0  0  0  0  0  0  0  0
  148.1120  137.6553  152.7745 H   0  0  0  0  0  0  0  0  0  0  0  0
  146.0993  140.4867  153.5079 H   0  0  0  0  0  0  0  0  0  0  0  0
  146.9899  142.6672  154.4922 H   0  0  0  0  0  0  0  0  0  0  0  0
  150.6908  140.9937  155.2593 H   0  0  0  0  0  0  0  0  0  0  0  0
  149.9880  138.7447  154.3320 H   0  0  0  0  0  0  0  0  0  0  0  0
  145.1638  135.1706  150.5323 H   0  0  0  0  0  0  0  0  0  0  0  0
  143.9665  132.9569  152.2326 H   0  0  0  0  0  0  0  0  0  0  0  0
  143.0632  134.0526  151.2158 H   0  0  0  0  0  0  0  0  0  0  0  0
  143.4647  131.9025  150.0722 H   0  0  0  0  0  0  0  0  0  0  0  0
  144.2038  133.2260  149.2044 H   0  0  0  0  0  0  0  0  0  0  0  0
  145.6360  131.2676  151.0659 H   0  0  0  0  0  0  0  0  0  0  0  0
  145.7829  131.3294  149.3254 H   0  0  0  0  0  0  0  0  0  0  0  0
  147.7129  132.4539  150.4512 H   0  0  0  0  0  0  0  0  0  0  0  0
  146.8255  133.5653  149.4365 H   0  0  0  0  0  0  0  0  0  0  0  0
  147.3524  134.6114  151.5946 H   0  0  0  0  0  0  0  0  0  0  0  0
  146.5930  133.3044  152.4661 H   0  0  0  0  0  0  0  0  0  0  0  0
  149.1715  142.7402  155.2655 H   0  0  0  0  0  0  0  0  0  0  0  0
  1  2  1  0  0  0  0
  1 21  1  0  0  0  0
  1 22  1  0  0  0  0
  1 23  1  0  0  0  0
  2  3  1  0  0  0  0
  2  5  1  0  0  0  0
  2 15  1  0  0  0  0
  3  4  1  0  0  0  0
  3 24  1  0  0  0  0
  3 25  1  0  0  0  0
  4 26  1  0  0  0  0
  5  6  1  0  0  0  0
  5 27  1  0  0  0  0
  6  7  2  0  0  0  0
  6  8  1  0  0  0  0
  8  9  1  0  0  0  0
  8 28  1  0  0  0  0
  9 14  1  0  0  0  0
  9 10  2  0  0  0  0
 10 11  1  0  0  0  0
 10 29  1  0  0  0  0
 11 12  2  0  0  0  0
 11 30  1  0  0  0  0
 12 13  1  0  0  0  0
 12 44  1  0  0  0  0
 13 14  2  0  0  0  0
 13 31  1  0  0  0  0
 14 32  1  0  0  0  0
 15 20  1  0  0  0  0
 15 16  1  0  0  0  0
 15 33  1  0  0  0  0
 16 17  1  0  0  0  0
 16 34  1  0  0  0  0
 16 35  1  0  0  0  0
 17 18  1  0  0  0  0
 17 36  1  0  0  0  0
 17 37  1  0  0  0  0
 18 19  1  0  0  0  0
 18 38  1  0  0  0  0
 18 39  1  0  0  0  0
 19 20  1  0  0  0  0
 19 40  1  0  0  0  0
 19 41  1  0  0  0  0
 20 42  1  0  0  0  0
 20 43  1  0  0  0  0
M  CHG  1  12   1
M  END
> <s_m_source_file>
AV-unprocessed.smi

> <i_m_source_file_index>
2639

> <i_lp_mmshare_version>
43012

> <i_f3d_flags>
0

> <s_epik_input>
W0NIMl0xW0NIMl1bQ0gyXVtDSDJdW0NIMl1bQ0hdMVtDQF0oW0NIM10pKFtDSDJdW09IXSlbTkhdQyg9TylbTkhdYzJbY0hdW2NIXW5bY0hdW2NIXTI=

> <s_epik_cmdline>
J2VwaWtfcHl0aG9uJywgJy1waCcsICc3LjAnLCAnLXRuJywgJzgnLCAnLW1hJywgJzIwMCcsICctbWV0YWxfYmluZGluZycsICctaW1hZScsICc8aW5maWxlLm1hZT4nLCAnLW9tYWUnLCAnPG91dGZpbGUubWFlPic=

> <r_epik_Ionization_Penalty>
1.0096

> <r_epik_Ionization_Penalty_Charging>
1.00958

> <r_epik_Ionization_Penalty_Neutral>
2.00022e-05

> <r_epik_State_Penalty>
1.05889

> <r_epik_Charging_Adjusted_Penalty>
2.06847

> <i_epik_Tot_Q>
1

> <i_epik_Tot_abs_Q>
1

> <r_epik_Metal_State_Penalty>
1.15945

> <b_epik_Metal_Only>
0

> <s_lp_Force_Field>
OPLS_2005

> <r_lp_Energy>
31.9269

> <b_lp_Chiralities_Consistent>
1

> <s_lp_Variant>
AV-unprocessed.smi:2639-4

> <Gold.Version>
5.8.1

> <Gold.Id.Protein>
6NUR|6NUR_protein|mol2

> <Gold.PLP.Fitness>
47.9702

> <Gold.PLP.PLP>
-34.7316

> <Gold.PLP.part.hbond>
-4.0000

> <Gold.PLP.part.metal>
0.0000

> <Gold.PLP.part.buried>
-2.7709

> <Gold.PLP.part.nonpolar>
-28.2721

> <Gold.PLP.part.repulsive>
0.3739

> <Gold.PLP.ligand.clash>
0.0000

> <Gold.PLP.ligand.torsion>
0.8133

> <Gold.PLP.Chemscore.Hbond>
4.9338

> <Gold.PLP.Chemscore.CHOScore>
0.0000

> <Gold.PLP.Chemscore.Metal>
0.0000

> <Gold.Chemscore.Hbonds>
donor molecule, donor type, donor heavy atom, donor atom, acceptor molecule, acceptor atom, score
      L1  H     4    26       P1 10957  0.98
      L1  H     5    27       P1  7948  0.94
      L1  H     8    28       P1  7948  1.00
      L1  H    12    44       P1  8028  1.98

> <Gold.PLP.Chemscore.Internal.Correction>
0.0640

> <Gold.Rescore>
     Score         DG    S(hbond)    S(metal)    S(lipo)     H(rot)  DE(clash)    DE(int)     intcor
     19.31     -22.94       3.75        0.00      86.38       2.02       0.45       3.19       ----

> <Gold.Chemscore.Fitness>
19.3074

> <Gold.Chemscore.DG>
-22.9380

> <Gold.Chemscore.ZeroCoef>
-5.4800

> <Gold.Chemscore.Hbond>
3.7466

> <Gold.Chemscore.Metal>
0.0000

> <Gold.Chemscore.Lipo>
86.3821

> <Gold.Chemscore.Internal_Hbond>
0.0000

> <Gold.Chemscore.DEClash>
0.4453

> <Gold.Chemscore.DEInternal>
3.1853

> <Gold.Chemscore.Rot>
2.0165

> <Gold.Chemscore.Internal.Correction>
   9.000000E+99

> <Gold.Chemscore.Hbonds>
donor molecule, donor type, donor heavy atom, donor atom, acceptor molecule, acceptor atom, score
      L1  H     4    26       P1 10957  0.87
      L1  H     5    27       P1  7948  0.88
      L1  H     8    28       P1  7948  1.00
      L1  H    12    44       P1  8028  0.87

> <Gold.Chemscore.Hbond.Weighted>
-12.5135

> <Gold.Chemscore.Metal.Weighted>
-0.0000

> <Gold.Chemscore.Lipo.Weighted>
-10.1067

> <Gold.Chemscore.Internal_Hbond.Weighted>
0.0000

> <Gold.Chemscore.DEClash.Weighted>
0.4453

> <Gold.Chemscore.DEInternal.Weighted>
3.1853

> <Gold.Chemscore.Rot.Weighted>
5.1622

> <Gold.Chemscore.Internal.Correction.Weighted>
   9.000000E+99

> <Gold.Protein.RotatedTorsions>
[ 6907 6896 6895 6894 ] final -135.94 input  -60.11 | X-H torsion
[ 7974 7965 7964 7962 ] final  177.88 input  175.53 | X-H torsion
[ 8008 7997 7996 7995 ] final -166.37 input   59.86 | X-H torsion
[ 10167 10162 10161 10158 ] final -162.33 input  -65.29 | X-H torsion
[ 10718 10713 10712 10709 ] final  -74.64 input   66.30 | X-H torsion
[ 10763 10752 10751 10750 ] final   79.37 input  -60.55 | X-H torsion
[ 11005 11000 10999 10996 ] final -156.20 input  -57.11 | X-H torsion

> <Gold.Protein.ActiveResidues>
 VAL166  LYS551  ARG553  GLY616  TRP617  ASP618  TYR619  PRO620  LYS621  CYS622 
 ASP623  PHE694  ASN695  SER759  ASP760  ASP761  ALA762  ILE779  LEU786  VAL792 
 PHE793  MET794  SER795  GLU796  ALA797  LYS798  CYS799  TRP800  GLU811  SER814 

> <Gold.Protein.RotatedAtoms>
  151.0040  133.6028  159.2690 H   0  0  0  0  0  0  0  0  0  0  0  0  # atno 6907 bound_to 6896
  151.3204  135.0816  159.9313 H   0  0  0  0  0  0  0  0  0  0  0  0  # atno 6908 bound_to 6896
  152.5282  133.9689  159.7806 H   0  0  0  0  0  0  0  0  0  0  0  0  # atno 6909 bound_to 6896
  144.7163  140.0313  143.6439 H   0  0  0  0  0  0  0  0  0  0  0  0  # atno 7974 bound_to 7965
  155.8629  140.0981  157.1601 H   0  0  0  0  0  0  0  0  0  0  0  0  # atno 8008 bound_to 7997
  154.3991  140.1361  156.4045 H   0  0  0  0  0  0  0  0  0  0  0  0  # atno 8009 bound_to 7997
  155.7836  140.3457  155.5313 H   0  0  0  0  0  0  0  0  0  0  0  0  # atno 8010 bound_to 7997
  139.6400  144.0277  152.2084 H   0  0  0  0  0  0  0  0  0  0  0  0  # atno 10167 bound_to 10162
  156.0235  130.4422  150.2923 H   0  0  0  0  0  0  0  0  0  0  0  0  # atno 10718 bound_to 10713
  153.0948  135.4842  154.8757 H   0  0  0  0  0  0  0  0  0  0  0  0  # atno 10763 bound_to 10752
  154.7311  135.3060  154.8892 H   0  0  0  0  0  0  0  0  0  0  0  0  # atno 10764 bound_to 10752
  153.9527  135.6821  153.4797 H   0  0  0  0  0  0  0  0  0  0  0  0  # atno 10765 bound_to 10752
  140.6781  134.4174  157.5228 H   0  0  0  0  0  0  0  0  0  0  0  0  # atno 11005 bound_to 11000
  146.0100  139.3162  143.0876 LP  0  0  0  0  0  0  0  0  0  0  0  0  # atno 17320 bound_to 7965
  145.8693  140.9429  143.0659 LP  0  0  0  0  0  0  0  0  0  0  0  0  # atno 17321 bound_to 7965
  139.9965  144.6324  150.7768 LP  0  0  0  0  0  0  0  0  0  0  0  0  # atno 17342 bound_to 10162
  140.7486  143.2924  151.3294 LP  0  0  0  0  0  0  0  0  0  0  0  0  # atno 17343 bound_to 10162
  157.1027  131.0200  151.3079 LP  0  0  0  0  0  0  0  0  0  0  0  0  # atno 17370 bound_to 10713
  157.4767  130.7741  149.7375 LP  0  0  0  0  0  0  0  0  0  0  0  0  # atno 17371 bound_to 10713
  139.8960  134.8669  156.2106 LP  0  0  0  0  0  0  0  0  0  0  0  0  # atno 17394 bound_to 11000
  141.0339  133.6974  156.1478 LP  0  0  0  0  0  0  0  0  0  0  0  0  # atno 17395 bound_to 11000

$$$$
