AV-unprocessed.smi:1269|AV-procd|sdf|5329|dock8
  -GOLD-   22720 4463D 1   1.00000     0.00000
 Structure written by MMmdl.
 44 45  0  0  0  0  0  0  0  0  2 V2000
  153.3842  139.1981  159.0472 C   0  0  0  0  0  0  0  0  0  0  0  0
  153.3142  139.5138  157.6610 O   0  0  0  0  0  0  0  0  0  0  0  0
  152.5388  138.7153  156.8457 C   0  0  0  0  0  0  0  0  0  0  0  0
  152.4436  139.0392  155.4779 C   0  0  0  0  0  0  0  0  0  0  0  0
  151.6568  138.2284  154.6378 C   0  0  0  0  0  0  0  0  0  0  0  0
  150.9799  137.1166  155.1959 C   0  0  0  0  0  0  0  0  0  0  0  0
  150.1669  136.2077  154.4633 N   0  0  0  0  0  0  0  0  0  0  0  0
  149.7822  134.9610  154.7862 C   0  0  0  0  0  0  0  0  0  0  0  0
  150.1104  134.3510  155.8028 O   0  0  0  0  0  0  0  0  0  0  0  0
  148.9728  134.4471  153.8479 N   0  0  0  0  0  0  0  0  0  0  0  0
  148.3757  133.1101  153.8635 C   0  0  2  0  0  0  0  0  0  0  0  0
  149.4943  132.0634  153.9578 C   0  0  0  0  0  0  0  0  0  0  0  0
  147.4898  132.8745  152.6180 C   0  0  0  0  0  0  0  0  0  0  0  0
  146.7570  134.0918  152.1864 N   0  3  0  0  0  0  0  0  0  0  0  0
  145.8537  133.8526  151.0369 C   0  0  0  0  0  0  0  0  0  0  0  0
  145.1991  135.1723  150.5934 C   0  0  0  0  0  0  0  0  0  0  0  0
  144.5041  135.7553  151.6895 O   0  0  0  0  0  0  0  0  0  0  0  0
  145.3739  136.0593  152.7737 C   0  0  0  0  0  0  0  0  0  0  0  0
  146.0261  134.7653  153.2870 C   0  0  0  0  0  0  0  0  0  0  0  0
  151.1465  136.8765  156.5760 C   0  0  0  0  0  0  0  0  0  0  0  0
  151.9007  137.6481  157.3862 N   0  0  0  0  0  0  0  0  0  0  0  0
  154.0307  139.9183  159.5482 H   0  0  0  0  0  0  0  0  0  0  0  0
  153.8066  138.2053  159.2094 H   0  0  0  0  0  0  0  0  0  0  0  0
  152.4019  139.2509  159.5192 H   0  0  0  0  0  0  0  0  0  0  0  0
  152.9692  139.8940  155.0785 H   0  0  0  0  0  0  0  0  0  0  0  0
  151.6033  138.4751  153.5899 H   0  0  0  0  0  0  0  0  0  0  0  0
  149.8550  136.5457  153.5645 H   0  0  0  0  0  0  0  0  0  0  0  0
  148.7619  135.0230  153.0455 H   0  0  0  0  0  0  0  0  0  0  0  0
  147.7674  133.0004  154.7623 H   0  0  0  0  0  0  0  0  0  0  0  0
  149.0841  131.0544  154.0074 H   0  0  0  0  0  0  0  0  0  0  0  0
  150.1000  132.2144  154.8522 H   0  0  0  0  0  0  0  0  0  0  0  0
  150.1583  132.1099  153.0939 H   0  0  0  0  0  0  0  0  0  0  0  0
  148.1346  132.5395  151.8037 H   0  0  0  0  0  0  0  0  0  0  0  0
  146.7806  132.0641  152.7944 H   0  0  0  0  0  0  0  0  0  0  0  0
  146.4153  133.4266  150.2046 H   0  0  0  0  0  0  0  0  0  0  0  0
  145.0884  133.1266  151.3156 H   0  0  0  0  0  0  0  0  0  0  0  0
  145.9474  135.8685  150.2109 H   0  0  0  0  0  0  0  0  0  0  0  0
  144.4922  134.9884  149.7841 H   0  0  0  0  0  0  0  0  0  0  0  0
  146.1320  136.7788  152.4593 H   0  0  0  0  0  0  0  0  0  0  0  0
  144.7969  136.5307  153.5695 H   0  0  0  0  0  0  0  0  0  0  0  0
  145.2632  134.0955  153.6870 H   0  0  0  0  0  0  0  0  0  0  0  0
  146.7037  135.0021  154.1066 H   0  0  0  0  0  0  0  0  0  0  0  0
  150.6577  136.0366  157.0484 H   0  0  0  0  0  0  0  0  0  0  0  0
  147.4583  134.7425  151.8613 H   0  0  0  0  0  0  0  0  0  0  0  0
  1  2  1  0  0  0  0
  1 22  1  0  0  0  0
  1 23  1  0  0  0  0
  1 24  1  0  0  0  0
  2  3  1  0  0  0  0
  3 21  1  0  0  0  0
  3  4  2  0  0  0  0
  4  5  1  0  0  0  0
  4 25  1  0  0  0  0
  5  6  2  0  0  0  0
  5 26  1  0  0  0  0
  6  7  1  0  0  0  0
  6 20  1  0  0  0  0
  7  8  1  0  0  0  0
  7 27  1  0  0  0  0
  8  9  2  0  0  0  0
  8 10  1  0  0  0  0
 10 11  1  0  0  0  0
 10 28  1  0  0  0  0
 11 12  1  0  0  0  0
 11 13  1  0  0  0  0
 11 29  1  0  0  0  0
 12 30  1  0  0  0  0
 12 31  1  0  0  0  0
 12 32  1  0  0  0  0
 13 14  1  0  0  0  0
 13 33  1  0  0  0  0
 13 34  1  0  0  0  0
 14 19  1  0  0  0  0
 14 15  1  0  0  0  0
 14 44  1  0  0  0  0
 15 16  1  0  0  0  0
 15 35  1  0  0  0  0
 15 36  1  0  0  0  0
 16 17  1  0  0  0  0
 16 37  1  0  0  0  0
 16 38  1  0  0  0  0
 17 18  1  0  0  0  0
 18 19  1  0  0  0  0
 18 39  1  0  0  0  0
 18 40  1  0  0  0  0
 19 41  1  0  0  0  0
 19 42  1  0  0  0  0
 20 21  2  0  0  0  0
 20 43  1  0  0  0  0
M  CHG  1  14   1
M  END
> <s_m_source_file>
AV-unprocessed.smi

> <i_m_source_file_index>
1269

> <i_lp_mmshare_version>
43012

> <i_f3d_flags>
0

> <s_epik_input>
W0NIM11PYzFbY0hdW2NIXWMoW2NIXW4xKVtOSF1DKD1PKVtOSF1bQ0BIXShbQ0gzXSlbQ0gyXU4yW0NIMl1bQ0gyXU9bQ0gyXVtDSDJdMg==

> <s_epik_cmdline>
J2VwaWtfcHl0aG9uJywgJy1waCcsICc3LjAnLCAnLXRuJywgJzgnLCAnLW1hJywgJzIwMCcsICctbWV0YWxfYmluZGluZycsICctaW1hZScsICc8aW5maWxlLm1hZT4nLCAnLW9tYWUnLCAnPG91dGZpbGUubWFlPic=

> <r_lp_tautomer_probability>
1

> <r_epik_Ionization_Penalty>
0.602604

> <r_epik_Ionization_Penalty_Charging>
0.602531

> <r_epik_Ionization_Penalty_Neutral>
7.37831e-05

> <r_epik_State_Penalty>
0.617039

> <r_epik_Charging_Adjusted_Penalty>
1.21957

> <i_epik_Tot_Q>
1

> <i_epik_Tot_abs_Q>
1

> <r_epik_Metal_State_Penalty>
0.617045

> <b_epik_Metal_Only>
0

> <s_lp_Force_Field>
OPLS_2005

> <r_lp_Energy>
25.4267

> <b_lp_Chiralities_Consistent>
1

> <s_lp_Variant>
AV-unprocessed.smi:1269-3

> <Gold.Version>
5.8.1

> <Gold.Id.Protein>
6NUR|6NUR_protein|mol2

> <Gold.PLP.Fitness>
45.7517

> <Gold.PLP.PLP>
-31.4509

> <Gold.PLP.part.hbond>
-4.6285

> <Gold.PLP.part.metal>
0.0000

> <Gold.PLP.part.buried>
-1.7675

> <Gold.PLP.part.nonpolar>
-25.2238

> <Gold.PLP.part.repulsive>
0.3118

> <Gold.PLP.ligand.clash>
0.0000

> <Gold.PLP.ligand.torsion>
0.3526

> <Gold.PLP.Chemscore.Hbond>
4.9920

> <Gold.PLP.Chemscore.CHOScore>
0.0000

> <Gold.PLP.Chemscore.Metal>
0.0000

> <Gold.Chemscore.Hbonds>
donor molecule, donor type, donor heavy atom, donor atom, acceptor molecule, acceptor atom, score
      L1  H     7    27       P1  7948  1.00
      L1  H    10    28       P1  7948  1.00
      L1  H    14    44       P1  7948  1.85
      P1  H  7997  8008       L1     2  0.96

> <Gold.PLP.Chemscore.Internal.Correction>
0.0300

> <Gold.Rescore>
     Score         DG    S(hbond)    S(metal)    S(lipo)     H(rot)  DE(clash)    DE(int)     intcor
     15.56     -18.39       2.99        0.00      63.87       1.78       0.07       2.76       ----

> <Gold.Chemscore.Fitness>
15.5598

> <Gold.Chemscore.DG>
-18.3904

> <Gold.Chemscore.ZeroCoef>
-5.4800

> <Gold.Chemscore.Hbond>
2.9924

> <Gold.Chemscore.Metal>
0.0000

> <Gold.Chemscore.Lipo>
63.8693

> <Gold.Chemscore.Internal_Hbond>
0.0000

> <Gold.Chemscore.DEClash>
0.0680

> <Gold.Chemscore.DEInternal>
2.7626

> <Gold.Chemscore.Rot>
1.7801

> <Gold.Chemscore.Internal.Correction>
   9.000000E+99

> <Gold.Chemscore.Hbonds>
donor molecule, donor type, donor heavy atom, donor atom, acceptor molecule, acceptor atom, score
      L1  H     7    27       P1  7948  0.28
      L1  H    10    28       P1  7948  0.39
      L1  H    14    44       P1  7948  0.62
      P1  H  7997  8008       L1     2  0.59

> <Gold.Chemscore.Hbond.Weighted>
-9.9947

> <Gold.Chemscore.Metal.Weighted>
-0.0000

> <Gold.Chemscore.Lipo.Weighted>
-7.4727

> <Gold.Chemscore.Internal_Hbond.Weighted>
0.0000

> <Gold.Chemscore.DEClash.Weighted>
0.0680

> <Gold.Chemscore.DEInternal.Weighted>
2.7626

> <Gold.Chemscore.Rot.Weighted>
4.5570

> <Gold.Chemscore.Internal.Correction.Weighted>
   9.000000E+99

> <Gold.Protein.RotatedTorsions>
[ 6907 6896 6895 6894 ] final   46.20 input  -60.11 | X-H torsion
[ 7974 7965 7964 7962 ] final -120.61 input  175.53 | X-H torsion
[ 8008 7997 7996 7995 ] final  -71.51 input   59.86 | X-H torsion
[ 10167 10162 10161 10158 ] final  -56.05 input  -65.29 | X-H torsion
[ 10718 10713 10712 10709 ] final  -42.40 input   66.30 | X-H torsion
[ 10763 10752 10751 10750 ] final  -76.38 input  -60.55 | X-H torsion
[ 11005 11000 10999 10996 ] final   20.50 input  -57.11 | X-H torsion

> <Gold.Protein.ActiveResidues>
 VAL166  LYS551  ARG553  GLY616  TRP617  ASP618  TYR619  PRO620  LYS621  CYS622 
 ASP623  PHE694  ASN695  SER759  ASP760  ASP761  ALA762  ILE779  LEU786  VAL792 
 PHE793  MET794  SER795  GLU796  ALA797  LYS798  CYS799  TRP800  GLU811  SER814 

> <Gold.Protein.RotatedAtoms>
  152.2536  134.8107  160.0441 H   0  0  0  0  0  0  0  0  0  0  0  0  # atno 6907 bound_to 6896
  151.8778  133.3484  159.3764 H   0  0  0  0  0  0  0  0  0  0  0  0  # atno 6908 bound_to 6896
  150.7092  134.4975  159.5590 H   0  0  0  0  0  0  0  0  0  0  0  0  # atno 6909 bound_to 6896
  145.0495  140.8207  143.4218 H   0  0  0  0  0  0  0  0  0  0  0  0  # atno 7974 bound_to 7965
  154.5094  140.0814  156.7959 H   0  0  0  0  0  0  0  0  0  0  0  0  # atno 8008 bound_to 7997
  155.3820  140.3428  155.4229 H   0  0  0  0  0  0  0  0  0  0  0  0  # atno 8009 bound_to 7997
  156.1555  140.1571  156.8688 H   0  0  0  0  0  0  0  0  0  0  0  0  # atno 8010 bound_to 7997
  140.6340  143.2473  151.5167 H   0  0  0  0  0  0  0  0  0  0  0  0  # atno 10167 bound_to 10162
  156.2600  130.4196  149.8553 H   0  0  0  0  0  0  0  0  0  0  0  0  # atno 10718 bound_to 10713
  154.4991  135.5799  153.6517 H   0  0  0  0  0  0  0  0  0  0  0  0  # atno 10763 bound_to 10752
  152.9875  135.6131  154.3025 H   0  0  0  0  0  0  0  0  0  0  0  0  # atno 10764 bound_to 10752
  154.2931  135.2848  155.2625 H   0  0  0  0  0  0  0  0  0  0  0  0  # atno 10765 bound_to 10752
  140.4019  134.1709  155.7664 H   0  0  0  0  0  0  0  0  0  0  0  0  # atno 11005 bound_to 11000
  145.1546  139.2494  143.5423 LP  0  0  0  0  0  0  0  0  0  0  0  0  # atno 17320 bound_to 7965
  146.3516  140.1257  142.8599 LP  0  0  0  0  0  0  0  0  0  0  0  0  # atno 17321 bound_to 7965
  139.5551  144.2295  152.1599 LP  0  0  0  0  0  0  0  0  0  0  0  0  # atno 17342 bound_to 10162
  140.1546  144.5082  150.6667 LP  0  0  0  0  0  0  0  0  0  0  0  0  # atno 17343 bound_to 10162
  156.6071  130.8571  151.3446 LP  0  0  0  0  0  0  0  0  0  0  0  0  # atno 17370 bound_to 10713
  157.7247  130.9606  150.1584 LP  0  0  0  0  0  0  0  0  0  0  0  0  # atno 17371 bound_to 10713
  141.1853  133.8325  157.1108 LP  0  0  0  0  0  0  0  0  0  0  0  0  # atno 17394 bound_to 11000
  140.0330  134.9892  157.0817 LP  0  0  0  0  0  0  0  0  0  0  0  0  # atno 17395 bound_to 11000

$$$$
