AV-unprocessed.smi:282|AV-procd|sdf|2122|dock6
  -GOLD-   2262021423D 1   1.00000     0.00000
 Structure written by MMmdl.
 65 69  0  0  0  0  0  0  0  0  2 V2000
  147.3788  129.0417  154.5785 C   0  0  0  0  0  0  0  0  0  0  0  0
  147.4003  130.5721  154.6992 C   0  0  0  0  0  0  0  0  0  0  0  0
  147.5913  131.3132  153.3484 C   0  0  1  0  0  0  0  0  0  0  0  0
  146.4836  130.9025  152.3493 C   0  0  0  0  0  0  0  0  0  0  0  0
  146.5538  131.6652  151.0766 N   0  3  1  0  0  0  0  0  0  0  0  0
  145.5397  131.2425  150.0747 C   0  0  0  0  0  0  0  0  0  0  0  0
  144.1303  131.7652  150.4165 C   0  0  0  0  0  0  0  0  0  0  0  0
  144.1359  133.2880  150.6100 C   0  0  0  0  0  0  0  0  0  0  0  0
  145.1911  133.6932  151.6492 C   0  0  0  0  0  0  0  0  0  0  0  0
  146.5816  133.1414  151.2661 C   0  0  1  0  0  0  0  0  0  0  0  0
  147.6779  133.5413  152.2660 C   0  0  0  0  0  0  0  0  0  0  0  0
  147.5988  132.7755  153.5069 N   0  0  0  0  0  0  0  0  0  0  0  0
  148.4506  133.3048  154.4167 C   0  0  0  0  0  0  0  0  0  0  0  0
  149.4224  132.5352  154.9745 N   0  0  0  0  0  0  0  0  0  0  0  0
  150.2715  133.0708  155.8570 C   0  0  0  0  0  0  0  0  0  0  0  0
  150.3264  134.3268  156.3056 N   0  0  0  0  0  0  0  0  0  0  0  0
  149.3580  135.1023  155.7393 C   0  0  0  0  0  0  0  0  0  0  0  0
  148.3933  134.6741  154.7859 C   0  0  0  0  0  0  0  0  0  0  0  0
  147.5804  135.7368  154.4157 N   0  0  0  0  0  0  0  0  0  0  0  0
  148.0400  136.7402  155.1127 C   0  0  0  0  0  0  0  0  0  0  0  0
  149.0930  136.4450  155.9516 N   0  0  0  0  0  0  0  0  0  0  0  0
  149.7906  137.3719  156.8331 C   0  0  0  0  0  0  0  0  0  0  0  0
  151.2769  137.6662  156.4518 C   0  0  0  0  0  0  0  0  0  0  0  0
  152.1895  136.6193  157.1511 C   0  0  0  0  0  0  0  0  0  0  0  0
  153.5449  136.6985  156.7559 O   0  0  0  0  0  0  0  0  0  0  0  0
  151.4996  137.6135  154.9180 C   0  0  0  0  0  0  0  0  0  0  0  0
  150.8309  138.7898  154.1827 C   0  0  0  0  0  0  0  0  0  0  0  0
  151.3006  140.0235  154.7113 O   0  0  0  0  0  0  0  0  0  0  0  0
  150.9728  140.1964  156.0843 C   0  0  0  0  0  0  0  0  0  0  0  0
  151.6443  139.0963  156.9277 C   0  0  0  0  0  0  0  0  0  0  0  0
  147.3566  128.5798  155.5658 H   0  0  0  0  0  0  0  0  0  0  0  0
  148.2666  128.6747  154.0627 H   0  0  0  0  0  0  0  0  0  0  0  0
  146.5012  128.6877  154.0382 H   0  0  0  0  0  0  0  0  0  0  0  0
  146.4831  130.9118  155.1820 H   0  0  0  0  0  0  0  0  0  0  0  0
  148.2057  130.8189  155.3898 H   0  0  0  0  0  0  0  0  0  0  0  0
  148.5542  131.0237  152.9245 H   0  0  0  0  0  0  0  0  0  0  0  0
  146.5684  129.8422  152.1117 H   0  0  0  0  0  0  0  0  0  0  0  0
  145.5064  131.0423  152.8118 H   0  0  0  0  0  0  0  0  0  0  0  0
  145.8414  131.6273  149.0996 H   0  0  0  0  0  0  0  0  0  0  0  0
  145.5328  130.1554  149.9848 H   0  0  0  0  0  0  0  0  0  0  0  0
  143.4349  131.4974  149.6207 H   0  0  0  0  0  0  0  0  0  0  0  0
  143.7568  131.2810  151.3193 H   0  0  0  0  0  0  0  0  0  0  0  0
  144.3518  133.7771  149.6592 H   0  0  0  0  0  0  0  0  0  0  0  0
  143.1490  133.6328  150.9205 H   0  0  0  0  0  0  0  0  0  0  0  0
  145.2308  134.7806  151.7227 H   0  0  0  0  0  0  0  0  0  0  0  0
  144.8954  133.3336  152.6353 H   0  0  0  0  0  0  0  0  0  0  0  0
  146.8501  133.5822  150.3048 H   0  0  0  0  0  0  0  0  0  0  0  0
  148.6568  133.3684  151.8156 H   0  0  0  0  0  0  0  0  0  0  0  0
  147.6151  134.6116  152.4705 H   0  0  0  0  0  0  0  0  0  0  0  0
  151.0137  132.3979  156.2608 H   0  0  0  0  0  0  0  0  0  0  0  0
  147.6134  137.7304  155.0410 H   0  0  0  0  0  0  0  0  0  0  0  0
  149.2014  138.2865  156.8777 H   0  0  0  0  0  0  0  0  0  0  0  0
  149.7497  136.9555  157.8407 H   0  0  0  0  0  0  0  0  0  0  0  0
  152.1474  136.7424  158.2338 H   0  0  0  0  0  0  0  0  0  0  0  0
  151.8554  135.6052  156.9335 H   0  0  0  0  0  0  0  0  0  0  0  0
  153.8691  137.5608  156.9670 H   0  0  0  0  0  0  0  0  0  0  0  0
  152.5664  137.6592  154.6974 H   0  0  0  0  0  0  0  0  0  0  0  0
  151.1578  136.6652  154.5046 H   0  0  0  0  0  0  0  0  0  0  0  0
  151.0783  138.7500  153.1219 H   0  0  0  0  0  0  0  0  0  0  0  0
  149.7442  138.7455  154.2493 H   0  0  0  0  0  0  0  0  0  0  0  0
  151.3312  141.1750  156.4039 H   0  0  0  0  0  0  0  0  0  0  0  0
  149.8908  140.2064  156.2168 H   0  0  0  0  0  0  0  0  0  0  0  0
  151.3894  139.2254  157.9801 H   0  0  0  0  0  0  0  0  0  0  0  0
  152.7210  139.2530  156.8608 H   0  0  0  0  0  0  0  0  0  0  0  0
  147.4508  131.4244  150.6796 H   0  0  0  0  0  0  0  0  0  0  0  0
  1  2  1  0  0  0  0
  1 31  1  0  0  0  0
  1 32  1  0  0  0  0
  1 33  1  0  0  0  0
  2  3  1  0  0  0  0
  2 34  1  0  0  0  0
  2 35  1  0  0  0  0
  3 12  1  0  0  0  0
  3  4  1  0  0  0  0
  3 36  1  0  0  0  0
  4  5  1  0  0  0  0
  4 37  1  0  0  0  0
  4 38  1  0  0  0  0
  5 10  1  0  0  0  0
  5  6  1  0  0  0  0
  5 65  1  0  0  0  0
  6  7  1  0  0  0  0
  6 39  1  0  0  0  0
  6 40  1  0  0  0  0
  7  8  1  0  0  0  0
  7 41  1  0  0  0  0
  7 42  1  0  0  0  0
  8  9  1  0  0  0  0
  8 43  1  0  0  0  0
  8 44  1  0  0  0  0
  9 10  1  0  0  0  0
  9 45  1  0  0  0  0
  9 46  1  0  0  0  0
 10 11  1  0  0  0  0
 10 47  1  0  0  0  0
 11 12  1  0  0  0  0
 11 48  1  0  0  0  0
 11 49  1  0  0  0  0
 12 13  1  0  0  0  0
 13 18  1  0  0  0  0
 13 14  2  0  0  0  0
 14 15  1  0  0  0  0
 15 16  2  0  0  0  0
 15 50  1  0  0  0  0
 16 17  1  0  0  0  0
 17 21  1  0  0  0  0
 17 18  2  0  0  0  0
 18 19  1  0  0  0  0
 19 20  2  0  0  0  0
 20 21  1  0  0  0  0
 20 51  1  0  0  0  0
 21 22  1  0  0  0  0
 22 23  1  0  0  0  0
 22 52  1  0  0  0  0
 22 53  1  0  0  0  0
 23 30  1  0  0  0  0
 23 24  1  0  0  0  0
 23 26  1  0  0  0  0
 24 25  1  0  0  0  0
 24 54  1  0  0  0  0
 24 55  1  0  0  0  0
 25 56  1  0  0  0  0
 26 27  1  0  0  0  0
 26 57  1  0  0  0  0
 26 58  1  0  0  0  0
 27 28  1  0  0  0  0
 27 59  1  0  0  0  0
 27 60  1  0  0  0  0
 28 29  1  0  0  0  0
 29 30  1  0  0  0  0
 29 61  1  0  0  0  0
 29 62  1  0  0  0  0
 30 63  1  0  0  0  0
 30 64  1  0  0  0  0
M  CHG  1   5   1
M  END
> <s_m_source_file>
AV-unprocessed.smi

> <i_m_source_file_index>
282

> <i_lp_mmshare_version>
43012

> <i_f3d_flags>
0

> <s_epik_input>
W0NIMl0xW0NIMl1bQ0gyXVtDSDJdW0NAQEhdKE4xMilbQ0gyXU4oW0NAQEhdKFtDSDJdMilbQ0gyXVtDSDNdKWMobltjSF1uMyljKGMzNCluW2NIXW40W0NIMl1DNShbQ0gyXVtPSF0pW0NIMl1bQ0gyXU9bQ0gyXVtDSDJdNQ==

> <s_epik_cmdline>
J2VwaWtfcHl0aG9uJywgJy1waCcsICc3LjAnLCAnLXRuJywgJzgnLCAnLW1hJywgJzIwMCcsICctbWV0YWxfYmluZGluZycsICctaW1hZScsICc8aW5maWxlLm1hZT4nLCAnLW9tYWUnLCAnPG91dGZpbGUubWFlPic=

> <r_lp_tautomer_probability>
1

> <r_epik_Ionization_Penalty>
0.00308583

> <r_epik_Ionization_Penalty_Charging>
0.00300384

> <r_epik_Ionization_Penalty_Neutral>
8.19894e-05

> <r_epik_State_Penalty>
-0

> <r_epik_Charging_Adjusted_Penalty>
0.00300384

> <i_epik_Tot_Q>
1

> <i_epik_Tot_abs_Q>
1

> <r_epik_Metal_State_Penalty>
-0

> <b_epik_Metal_Only>
0

> <s_lp_Force_Field>
OPLS_2005

> <r_lp_Energy>
60.0912

> <b_lp_Chiralities_Consistent>
1

> <s_lp_Variant>
AV-unprocessed.smi:282-6

> <Gold.Version>
5.8.1

> <Gold.Id.Protein>
6NUR|6NUR_protein|mol2

> <Gold.PLP.Fitness>
46.4213

> <Gold.PLP.PLP>
-38.7963

> <Gold.PLP.part.hbond>
-3.0000

> <Gold.PLP.part.metal>
0.0000

> <Gold.PLP.part.buried>
-6.1602

> <Gold.PLP.part.nonpolar>
-30.6311

> <Gold.PLP.part.repulsive>
0.9750

> <Gold.PLP.ligand.clash>
0.0000

> <Gold.PLP.ligand.torsion>
0.7348

> <Gold.PLP.Chemscore.Hbond>
2.9440

> <Gold.PLP.Chemscore.CHOScore>
0.0000

> <Gold.PLP.Chemscore.Metal>
0.0000

> <Gold.Chemscore.Hbonds>
donor molecule, donor type, donor heavy atom, donor atom, acceptor molecule, acceptor atom, score
      L1  H     5    65       P1 10747  1.00
      P1  H  7989  7998       L1    28  0.96
      P1  H 10752 10765       L1    25  0.93

> <Gold.PLP.Chemscore.Internal.Correction>
0.2626

> <Gold.Rescore>
     Score         DG    S(hbond)    S(metal)    S(lipo)     H(rot)  DE(clash)    DE(int)     intcor
     17.64     -21.04       2.84        0.00     105.68       2.46       0.86       2.54       ----

> <Gold.Chemscore.Fitness>
17.6386

> <Gold.Chemscore.DG>
-21.0441

> <Gold.Chemscore.ZeroCoef>
-5.4800

> <Gold.Chemscore.Hbond>
2.8417

> <Gold.Chemscore.Metal>
0.0000

> <Gold.Chemscore.Lipo>
105.6773

> <Gold.Chemscore.Internal_Hbond>
0.0000

> <Gold.Chemscore.DEClash>
0.8615

> <Gold.Chemscore.DEInternal>
2.5439

> <Gold.Chemscore.Rot>
2.4576

> <Gold.Chemscore.Internal.Correction>
   9.000000E+99

> <Gold.Chemscore.Hbonds>
donor molecule, donor type, donor heavy atom, donor atom, acceptor molecule, acceptor atom, score
      L1  H     5    65       P1 10747  1.00
      P1  H  7989  7998       L1    28  0.46
      P1  H 10752 10765       L1    25  0.35

> <Gold.Chemscore.Hbond.Weighted>
-9.4913

> <Gold.Chemscore.Metal.Weighted>
-0.0000

> <Gold.Chemscore.Lipo.Weighted>
-12.3642

> <Gold.Chemscore.Internal_Hbond.Weighted>
0.0000

> <Gold.Chemscore.DEClash.Weighted>
0.8615

> <Gold.Chemscore.DEInternal.Weighted>
2.5439

> <Gold.Chemscore.Rot.Weighted>
6.2915

> <Gold.Chemscore.Internal.Correction.Weighted>
   9.000000E+99

> <Gold.Protein.RotatedTorsions>
[ 6907 6896 6895 6894 ] final -119.67 input  -60.11 | X-H torsion
[ 7974 7965 7964 7962 ] final  -12.99 input  175.53 | X-H torsion
[ 8008 7997 7996 7995 ] final  -60.42 input   59.86 | X-H torsion
[ 10167 10162 10161 10158 ] final   40.37 input  -65.29 | X-H torsion
[ 10718 10713 10712 10709 ] final  120.36 input   66.30 | X-H torsion
[ 10763 10752 10751 10750 ] final -114.32 input  -60.55 | X-H torsion
[ 11005 11000 10999 10996 ] final -105.50 input  -57.11 | X-H torsion

> <Gold.Protein.ActiveResidues>
 VAL166  LYS551  ARG553  GLY616  TRP617  ASP618  TYR619  PRO620  LYS621  CYS622 
 ASP623  PHE694  ASN695  SER759  ASP760  ASP761  ALA762  ILE779  LEU786  VAL792 
 PHE793  MET794  SER795  GLU796  ALA797  LYS798  CYS799  TRP800  GLU811  SER814 

> <Gold.Protein.RotatedAtoms>
  150.8326  133.8066  159.3092 H   0  0  0  0  0  0  0  0  0  0  0  0  # atno 6907 bound_to 6896
  151.5792  135.1057  160.0023 H   0  0  0  0  0  0  0  0  0  0  0  0  # atno 6908 bound_to 6896
  152.4403  133.7394  159.6689 H   0  0  0  0  0  0  0  0  0  0  0  0  # atno 6909 bound_to 6896
  146.2131  140.3138  142.8384 H   0  0  0  0  0  0  0  0  0  0  0  0  # atno 7974 bound_to 7965
  154.4398  140.1040  156.6271 H   0  0  0  0  0  0  0  0  0  0  0  0  # atno 8008 bound_to 7997
  155.5645  140.3488  155.4481 H   0  0  0  0  0  0  0  0  0  0  0  0  # atno 8009 bound_to 7997
  156.0435  140.1287  157.0118 H   0  0  0  0  0  0  0  0  0  0  0  0  # atno 8010 bound_to 7997
  140.3748  144.2057  150.6132 H   0  0  0  0  0  0  0  0  0  0  0  0  # atno 10167 bound_to 10162
  157.5896  131.1066  150.8024 H   0  0  0  0  0  0  0  0  0  0  0  0  # atno 10718 bound_to 10713
  154.8435  135.4422  154.1488 H   0  0  0  0  0  0  0  0  0  0  0  0  # atno 10763 bound_to 10752
  153.2654  135.6940  153.7541 H   0  0  0  0  0  0  0  0  0  0  0  0  # atno 10764 bound_to 10752
  153.6802  135.3404  155.3151 H   0  0  0  0  0  0  0  0  0  0  0  0  # atno 10765 bound_to 10752
  141.1050  133.8813  157.1742 H   0  0  0  0  0  0  0  0  0  0  0  0  # atno 11005 bound_to 11000
  144.8969  140.7594  143.5891 LP  0  0  0  0  0  0  0  0  0  0  0  0  # atno 17320 bound_to 7965
  145.3062  139.1834  143.4663 LP  0  0  0  0  0  0  0  0  0  0  0  0  # atno 17321 bound_to 7965
  140.4997  143.2322  151.8697 LP  0  0  0  0  0  0  0  0  0  0  0  0  # atno 17342 bound_to 10162
  139.4800  144.5074  151.8979 LP  0  0  0  0  0  0  0  0  0  0  0  0  # atno 17343 bound_to 10162
  156.8450  130.5061  149.5317 LP  0  0  0  0  0  0  0  0  0  0  0  0  # atno 17370 bound_to 10713
  156.0949  130.5925  150.9797 LP  0  0  0  0  0  0  0  0  0  0  0  0  # atno 17371 bound_to 10713
  139.9917  135.0062  156.9989 LP  0  0  0  0  0  0  0  0  0  0  0  0  # atno 17394 bound_to 11000
  140.4925  134.1179  155.7235 LP  0  0  0  0  0  0  0  0  0  0  0  0  # atno 17395 bound_to 11000

$$$$
