AV-unprocessed.smi:2226|AV-procd|sdf|9017|dock3
  -GOLD-   2272012223D 1   1.00000     0.00000
 Structure written by MMmdl.
 39 41  0  0  0  0  0  0  0  0  3 V2000
  147.3471  133.2586  152.6866 C   0  0  0  0  0  0  0  0  0  0  0  0
  148.0016  134.1777  153.6481 N   0  3  2  0  0  0  0  0  0  0  0  0
  149.2281  133.6427  154.2856 C   0  0  2  0  0  0  0  0  0  0  0  0
  148.8969  132.5050  155.2843 C   0  0  0  0  0  0  0  0  0  0  0  0
  147.8087  132.8641  156.3125 C   0  0  0  0  0  0  0  0  0  0  0  0
  146.6513  133.6702  155.6968 C   0  0  0  0  0  0  0  0  0  0  0  0
  147.0998  134.7470  154.6773 C   0  0  1  0  0  0  0  0  0  0  0  0
  147.7642  136.0005  155.2909 C   0  0  0  0  0  0  0  0  0  0  0  0
  149.2481  135.8355  155.7227 C   0  0  1  0  0  0  0  0  0  0  0  0
  149.4023  135.5703  157.1509 N   0  0  0  0  0  0  0  0  0  0  0  0
  149.0296  136.3725  158.1590 C   0  0  0  0  0  0  0  0  0  0  0  0
  148.5113  137.4650  157.9174 O   0  0  0  0  0  0  0  0  0  0  0  0
  149.2739  135.8525  159.3821 N   0  5  0  0  0  0  0  0  0  0  0  0
  148.3723  136.0082  160.3650 C   0  0  0  0  0  0  0  0  0  0  0  0
  148.5760  136.6107  161.5378 N   0  0  0  0  0  0  0  0  0  0  0  0
  147.3726  136.5259  162.2210 C   0  0  0  0  0  0  0  0  0  0  0  0
  146.4831  135.8597  161.4234 C   0  0  0  0  0  0  0  0  0  0  0  0
  147.1027  135.5253  160.2512 O   0  0  0  0  0  0  0  0  0  0  0  0
  150.0468  134.8186  154.8682 C   0  0  0  0  0  0  0  0  0  0  0  0
  146.9714  132.3556  153.1671 H   0  0  0  0  0  0  0  0  0  0  0  0
  148.0509  132.9598  151.9094 H   0  0  0  0  0  0  0  0  0  0  0  0
  146.5082  133.7544  152.1976 H   0  0  0  0  0  0  0  0  0  0  0  0
  149.8452  133.2043  153.5001 H   0  0  0  0  0  0  0  0  0  0  0  0
  148.5605  131.6337  154.7221 H   0  0  0  0  0  0  0  0  0  0  0  0
  149.8011  132.1829  155.8017 H   0  0  0  0  0  0  0  0  0  0  0  0
  147.4164  131.9502  156.7595 H   0  0  0  0  0  0  0  0  0  0  0  0
  148.2405  133.4048  157.1477 H   0  0  0  0  0  0  0  0  0  0  0  0
  145.9778  132.9741  155.1965 H   0  0  0  0  0  0  0  0  0  0  0  0
  146.0576  134.1270  156.4892 H   0  0  0  0  0  0  0  0  0  0  0  0
  146.1995  135.0982  154.1710 H   0  0  0  0  0  0  0  0  0  0  0  0
  147.7413  136.7780  154.5261 H   0  0  0  0  0  0  0  0  0  0  0  0
  147.1527  136.3919  156.1046 H   0  0  0  0  0  0  0  0  0  0  0  0
  149.7332  136.8014  155.5682 H   0  0  0  0  0  0  0  0  0  0  0  0
  149.8274  134.6904  157.4047 H   0  0  0  0  0  0  0  0  0  0  0  0
  147.2461  136.9406  163.2101 H   0  0  0  0  0  0  0  0  0  0  0  0
  145.4505  135.5635  161.5303 H   0  0  0  0  0  0  0  0  0  0  0  0
  150.9156  134.4481  155.4144 H   0  0  0  0  0  0  0  0  0  0  0  0
  150.4601  135.3680  154.0209 H   0  0  0  0  0  0  0  0  0  0  0  0
  148.3047  134.9617  153.0881 H   0  0  0  0  0  0  0  0  0  0  0  0
  1  2  1  0  0  0  0
  1 20  1  0  0  0  0
  1 21  1  0  0  0  0
  1 22  1  0  0  0  0
  2  7  1  0  0  0  0
  2  3  1  0  0  0  0
  2 39  1  0  0  0  0
  3 19  1  0  0  0  0
  3  4  1  0  0  0  0
  3 23  1  0  0  0  0
  4  5  1  0  0  0  0
  4 24  1  0  0  0  0
  4 25  1  0  0  0  0
  5  6  1  0  0  0  0
  5 26  1  0  0  0  0
  5 27  1  0  0  0  0
  6  7  1  0  0  0  0
  6 28  1  0  0  0  0
  6 29  1  0  0  0  0
  7  8  1  0  0  0  0
  7 30  1  0  0  0  0
  8  9  1  0  0  0  0
  8 31  1  0  0  0  0
  8 32  1  0  0  0  0
  9 10  1  0  0  0  0
  9 19  1  0  0  0  0
  9 33  1  0  0  0  0
 10 34  1  0  0  0  0
 10 11  1  0  0  0  0
 11 13  1  0  0  0  0
 11 12  2  0  0  0  0
 13 14  1  0  0  0  0
 14 18  1  0  0  0  0
 14 15  2  0  0  0  0
 15 16  1  0  0  0  0
 16 35  1  0  0  0  0
 16 17  2  0  0  0  0
 17 36  1  0  0  0  0
 17 18  1  0  0  0  0
 19 37  1  0  0  0  0
 19 38  1  0  0  0  0
M  CHG  1   2   1
M  CHG  1  13  -1
M  END
> <s_m_source_file>
AV-unprocessed.smi

> <i_m_source_file_index>
2226

> <i_lp_mmshare_version>
43012

> <i_f3d_flags>
0

> <s_epik_input>
W0NIMl0xW0NIMl1bQ0gyXVtDQEhdKE4oW0NIM10pW0NIXTEyKVtDSDJdW0NASF0oW0NIMl0yKVtOSF1DKD1PKVtOSF1jM25bY0hdW2NIXW8z

> <s_epik_cmdline>
J2VwaWtfcHl0aG9uJywgJy1waCcsICc3LjAnLCAnLXRuJywgJzgnLCAnLW1hJywgJzIwMCcsICctbWV0YWxfYmluZGluZycsICctaW1hZScsICc8aW5maWxlLm1hZT4nLCAnLW9tYWUnLCAnPG91dGZpbGUubWFlPic=

> <r_lp_tautomer_probability>
0.107061

> <r_epik_Ionization_Penalty>
10.5612

> <r_epik_Ionization_Penalty_Charging>
7.48913

> <r_epik_Ionization_Penalty_Neutral>
3.07202

> <r_epik_State_Penalty>
5.6431

> <r_epik_Charging_Adjusted_Penalty>
13.1322

> <i_epik_Tot_Q>
0

> <i_epik_Tot_abs_Q>
2

> <r_epik_Metal_State_Penalty>
1.58163

> <b_epik_Metal_Only>
1

> <s_lp_Force_Field>
OPLS_2005

> <r_lp_Energy>
26.2411

> <b_lp_Chiralities_Consistent>
1

> <s_lp_Variant>
AV-unprocessed.smi:2226-17

> <Gold.Version>
5.8.1

> <Gold.Id.Protein>
6NUR|6NUR_protein|mol2

> <Gold.PLP.Fitness>
37.4644

> <Gold.PLP.PLP>
-24.2984

> <Gold.PLP.part.hbond>
-3.0665

> <Gold.PLP.part.metal>
0.0000

> <Gold.PLP.part.buried>
-4.7299

> <Gold.PLP.part.nonpolar>
-17.5889

> <Gold.PLP.part.repulsive>
0.0664

> <Gold.PLP.ligand.clash>
0.0000

> <Gold.PLP.ligand.torsion>
0.9312

> <Gold.PLP.Chemscore.Hbond>
4.9913

> <Gold.PLP.Chemscore.CHOScore>
0.0000

> <Gold.PLP.Chemscore.Metal>
0.0000

> <Gold.Chemscore.Hbonds>
donor molecule, donor type, donor heavy atom, donor atom, acceptor molecule, acceptor atom, score
      L1  H     2    39       P1  7948  2.00
      P1  H  6896  6909       L1    13  2.00
      P1  H  6931  6943       L1    15  1.00

> <Gold.PLP.Chemscore.Internal.Correction>
0.0546

> <Gold.Rescore>
     Score         DG    S(hbond)    S(metal)    S(lipo)     H(rot)  DE(clash)    DE(int)     intcor
     16.92     -17.97       2.77        0.00      49.44       1.00       0.00       1.05       ----

> <Gold.Chemscore.Fitness>
16.9213

> <Gold.Chemscore.DG>
-17.9685

> <Gold.Chemscore.ZeroCoef>
-5.4800

> <Gold.Chemscore.Hbond>
2.7735

> <Gold.Chemscore.Metal>
0.0000

> <Gold.Chemscore.Lipo>
49.4440

> <Gold.Chemscore.Internal_Hbond>
0.0000

> <Gold.Chemscore.DEClash>
0.0000

> <Gold.Chemscore.DEInternal>
1.0471

> <Gold.Chemscore.Rot>
1.0000

> <Gold.Chemscore.Internal.Correction>
   9.000000E+99

> <Gold.Chemscore.Hbonds>
donor molecule, donor type, donor heavy atom, donor atom, acceptor molecule, acceptor atom, score
      L1  H     2    39       P1  7948  0.85
      P1  H  6896  6909       L1    13  0.96
      P1  H  6931  6943       L1    15  0.30

> <Gold.Chemscore.Hbond.Weighted>
-9.2635

> <Gold.Chemscore.Metal.Weighted>
-0.0000

> <Gold.Chemscore.Lipo.Weighted>
-5.7849

> <Gold.Chemscore.Internal_Hbond.Weighted>
0.0000

> <Gold.Chemscore.DEClash.Weighted>
0.0000

> <Gold.Chemscore.DEInternal.Weighted>
1.0471

> <Gold.Chemscore.Rot.Weighted>
2.5600

> <Gold.Chemscore.Internal.Correction.Weighted>
   9.000000E+99

> <Gold.Protein.RotatedTorsions>
[ 6907 6896 6895 6894 ] final   60.40 input  -60.11 | X-H torsion
[ 7974 7965 7964 7962 ] final  -99.77 input  175.53 | X-H torsion
[ 8008 7997 7996 7995 ] final  102.60 input   59.86 | X-H torsion
[ 10167 10162 10161 10158 ] final  169.51 input  -65.29 | X-H torsion
[ 10718 10713 10712 10709 ] final  153.57 input   66.30 | X-H torsion
[ 10763 10752 10751 10750 ] final -146.86 input  -60.55 | X-H torsion
[ 11005 11000 10999 10996 ] final  -28.33 input  -57.11 | X-H torsion

> <Gold.Protein.ActiveResidues>
 VAL166  LYS551  ARG553  GLY616  TRP617  ASP618  TYR619  PRO620  LYS621  CYS622 
 ASP623  PHE694  ASN695  SER759  ASP760  ASP761  ALA762  ILE779  LEU786  VAL792 
 PHE793  MET794  SER795  GLU796  ALA797  LYS798  CYS799  TRP800  GLU811  SER814 

> <Gold.Protein.RotatedAtoms>
  152.4000  134.6302  160.0073 H   0  0  0  0  0  0  0  0  0  0  0  0  # atno 6907 bound_to 6896
  151.6510  133.3315  159.3160 H   0  0  0  0  0  0  0  0  0  0  0  0  # atno 6908 bound_to 6896
  150.7902  134.6961  159.6569 H   0  0  0  0  0  0  0  0  0  0  0  0  # atno 6909 bound_to 6896
  145.3032  140.9382  143.2812 H   0  0  0  0  0  0  0  0  0  0  0  0  # atno 7974 bound_to 7965
  156.1408  140.3178  155.8492 H   0  0  0  0  0  0  0  0  0  0  0  0  # atno 8008 bound_to 7997
  155.4158  140.0509  157.3046 H   0  0  0  0  0  0  0  0  0  0  0  0  # atno 8009 bound_to 7997
  154.4974  140.2116  155.9430 H   0  0  0  0  0  0  0  0  0  0  0  0  # atno 8010 bound_to 7997
  139.4994  144.3698  151.9737 H   0  0  0  0  0  0  0  0  0  0  0  0  # atno 10167 bound_to 10162
  157.2430  131.0763  151.1780 H   0  0  0  0  0  0  0  0  0  0  0  0  # atno 10718 bound_to 10713
  154.8315  135.3375  154.6728 H   0  0  0  0  0  0  0  0  0  0  0  0  # atno 10763 bound_to 10752
  153.7348  135.6949  153.4985 H   0  0  0  0  0  0  0  0  0  0  0  0  # atno 10764 bound_to 10752
  153.2286  135.4424  155.0522 H   0  0  0  0  0  0  0  0  0  0  0  0  # atno 10765 bound_to 10752
  140.9199  133.7406  156.0786 H   0  0  0  0  0  0  0  0  0  0  0  0  # atno 11005 bound_to 11000
  144.9076  139.4569  143.6602 LP  0  0  0  0  0  0  0  0  0  0  0  0  # atno 17320 bound_to 7965
  146.3144  139.7866  142.8994 LP  0  0  0  0  0  0  0  0  0  0  0  0  # atno 17321 bound_to 7965
  140.3134  144.3512  150.6028 LP  0  0  0  0  0  0  0  0  0  0  0  0  # atno 17342 bound_to 10162
  140.5781  143.2175  151.7479 LP  0  0  0  0  0  0  0  0  0  0  0  0  # atno 17343 bound_to 10162
  157.3358  130.7008  149.6352 LP  0  0  0  0  0  0  0  0  0  0  0  0  # atno 17370 bound_to 10713
  155.9669  130.4294  150.4831 LP  0  0  0  0  0  0  0  0  0  0  0  0  # atno 17371 bound_to 10713
  140.8002  134.3518  157.5441 LP  0  0  0  0  0  0  0  0  0  0  0  0  # atno 17394 bound_to 11000
  139.8773  134.9193  156.3223 LP  0  0  0  0  0  0  0  0  0  0  0  0  # atno 17395 bound_to 11000

$$$$
