AV-unprocessed.smi:1031|AV-procd|sdf|4481|dock5
  -GOLD-   22720 2463D 1   1.00000     0.00000
 Structure written by MMmdl.
 35 36  0  0  0  0  0  0  0  0  1 V2000
  149.4176  140.1478  157.3943 C   0  0  0  0  0  0  0  0  0  0  0  0
  150.5209  140.7188  156.4933 C   0  0  1  0  0  0  0  0  0  0  0  0
  149.9373  141.6637  155.4210 C   0  0  0  0  0  0  0  0  0  0  0  0
  148.7548  141.1215  154.7756 N   0  0  0  0  0  0  0  0  0  0  0  0
  147.6273  141.7918  154.3492 C   0  0  0  0  0  0  0  0  0  0  0  0
  146.7931  140.8678  153.7887 C   0  0  0  0  0  0  0  0  0  0  0  0
  147.5055  139.6435  153.9246 C   0  0  0  0  0  0  0  0  0  0  0  0
  148.6774  139.7977  154.5195 N   0  0  0  0  0  0  0  0  0  0  0  0
  151.4973  141.4181  157.3279 N   0  0  0  0  0  0  0  0  0  0  0  0
  151.2333  142.4414  158.1563 C   0  0  0  0  0  0  0  0  0  0  0  0
  150.1093  142.9244  158.2986 O   0  0  0  0  0  0  0  0  0  0  0  0
  152.4238  142.9957  158.9550 C   0  0  0  0  0  0  0  0  0  0  0  0
  152.2552  142.7645  160.4754 C   0  0  0  0  0  0  0  0  0  0  0  0
  152.2451  144.1475  161.1396 C   0  0  0  0  0  0  0  0  0  0  0  0
  151.8990  145.1290  160.0238 C   0  0  0  0  0  0  0  0  0  0  0  0
  152.5593  144.5214  158.7875 C   0  0  0  0  0  0  0  0  0  0  0  0
  148.6850  139.5892  156.8112 H   0  0  0  0  0  0  0  0  0  0  0  0
  148.8870  140.9394  157.9246 H   0  0  0  0  0  0  0  0  0  0  0  0
  149.8318  139.4670  158.1390 H   0  0  0  0  0  0  0  0  0  0  0  0
  150.9968  139.8725  155.9945 H   0  0  0  0  0  0  0  0  0  0  0  0
  149.6658  142.6195  155.8718 H   0  0  0  0  0  0  0  0  0  0  0  0
  150.6834  141.8836  154.6560 H   0  0  0  0  0  0  0  0  0  0  0  0
  147.5178  142.8594  154.4717 H   0  0  0  0  0  0  0  0  0  0  0  0
  145.8230  141.0402  153.3469 H   0  0  0  0  0  0  0  0  0  0  0  0
  147.2075  138.6537  153.6113 H   0  0  0  0  0  0  0  0  0  0  0  0
  152.4511  141.0902  157.2776 H   0  0  0  0  0  0  0  0  0  0  0  0
  153.3390  142.5144  158.6052 H   0  0  0  0  0  0  0  0  0  0  0  0
  151.3265  142.2396  160.7068 H   0  0  0  0  0  0  0  0  0  0  0  0
  153.0643  142.1518  160.8744 H   0  0  0  0  0  0  0  0  0  0  0  0
  151.5474  144.2054  161.9757 H   0  0  0  0  0  0  0  0  0  0  0  0
  153.2404  144.3732  161.5244 H   0  0  0  0  0  0  0  0  0  0  0  0
  150.8174  145.1683  159.8869 H   0  0  0  0  0  0  0  0  0  0  0  0
  152.2467  146.1413  160.2315 H   0  0  0  0  0  0  0  0  0  0  0  0
  153.6158  144.7914  158.7676 H   0  0  0  0  0  0  0  0  0  0  0  0
  152.1170  144.9001  157.8645 H   0  0  0  0  0  0  0  0  0  0  0  0
  1  2  1  0  0  0  0
  1 17  1  0  0  0  0
  1 18  1  0  0  0  0
  1 19  1  0  0  0  0
  2  3  1  0  0  0  0
  2  9  1  0  0  0  0
  2 20  1  0  0  0  0
  3  4  1  0  0  0  0
  3 21  1  0  0  0  0
  3 22  1  0  0  0  0
  4  8  1  0  0  0  0
  4  5  1  0  0  0  0
  5  6  2  0  0  0  0
  5 23  1  0  0  0  0
  6  7  1  0  0  0  0
  6 24  1  0  0  0  0
  7  8  2  0  0  0  0
  7 25  1  0  0  0  0
  9 10  1  0  0  0  0
  9 26  1  0  0  0  0
 10 11  2  0  0  0  0
 10 12  1  0  0  0  0
 12 16  1  0  0  0  0
 12 13  1  0  0  0  0
 12 27  1  0  0  0  0
 13 14  1  0  0  0  0
 13 28  1  0  0  0  0
 13 29  1  0  0  0  0
 14 15  1  0  0  0  0
 14 30  1  0  0  0  0
 14 31  1  0  0  0  0
 15 16  1  0  0  0  0
 15 32  1  0  0  0  0
 15 33  1  0  0  0  0
 16 34  1  0  0  0  0
 16 35  1  0  0  0  0
M  END
> <s_m_source_file>
AV-unprocessed.smi

> <i_m_source_file_index>
1031

> <i_lp_mmshare_version>
43012

> <i_f3d_flags>
0

> <s_epik_input>
bjFbY0hdW2NIXVtjSF1uMVtDSDJdW0NAQEhdKFtDSDNdKVtOSF1DKD1PKVtDSF0yW0NIMl1bQ0gyXVtDSDJdW0NIMl0y

> <s_epik_cmdline>
J2VwaWtfcHl0aG9uJywgJy1waCcsICc3LjAnLCAnLXRuJywgJzgnLCAnLW1hJywgJzIwMCcsICctbWV0YWxfYmluZGluZycsICctaW1hZScsICc8aW5maWxlLm1hZT4nLCAnLW9tYWUnLCAnPG91dGZpbGUubWFlPic=

> <r_lp_tautomer_probability>
1

> <r_epik_Ionization_Penalty>
0.000326659

> <r_epik_Ionization_Penalty_Charging>
0

> <r_epik_Ionization_Penalty_Neutral>
0.000326659

> <r_epik_State_Penalty>
-0

> <r_epik_Charging_Adjusted_Penalty>
0

> <i_epik_Tot_Q>
0

> <i_epik_Tot_abs_Q>
0

> <r_epik_Metal_State_Penalty>
-0

> <b_epik_Metal_Only>
0

> <s_lp_Force_Field>
OPLS_2005

> <r_lp_Energy>
19.4397

> <b_lp_Chiralities_Consistent>
1

> <s_lp_Variant>
AV-unprocessed.smi:1031-2

> <Gold.Version>
5.8.1

> <Gold.Id.Protein>
6NUR|6NUR_protein|mol2

> <Gold.PLP.Fitness>
39.8083

> <Gold.PLP.PLP>
-37.8195

> <Gold.PLP.part.hbond>
0.0000

> <Gold.PLP.part.metal>
0.0000

> <Gold.PLP.part.buried>
-3.3443

> <Gold.PLP.part.nonpolar>
-34.2445

> <Gold.PLP.part.repulsive>
0.3586

> <Gold.PLP.ligand.clash>
0.0000

> <Gold.PLP.ligand.torsion>
0.5158

> <Gold.PLP.Chemscore.Hbond>
0.0000

> <Gold.PLP.Chemscore.CHOScore>
1.0000

> <Gold.PLP.Chemscore.Metal>
0.0000

> <Gold.Chemscore.Hbonds>
donor molecule, donor type, donor heavy atom, donor atom, acceptor molecule, acceptor atom, score
      L1  C     5    23       P1  8028  0.94

> <Gold.PLP.Chemscore.Internal.Correction>
0.0204

> <Gold.Rescore>
     Score         DG    S(hbond)    S(metal)    S(lipo)     H(rot)  DE(clash)    DE(int)     intcor
     11.93     -13.33       0.00        0.00     100.27       1.51       0.25       1.15       ----

> <Gold.Chemscore.Fitness>
11.9302

> <Gold.Chemscore.DG>
-13.3347

> <Gold.Chemscore.ZeroCoef>
-5.4800

> <Gold.Chemscore.Hbond>
0.0000

> <Gold.Chemscore.Metal>
0.0000

> <Gold.Chemscore.Lipo>
100.2739

> <Gold.Chemscore.Internal_Hbond>
0.0000

> <Gold.Chemscore.DEClash>
0.2546

> <Gold.Chemscore.DEInternal>
1.1499

> <Gold.Chemscore.Rot>
1.5146

> <Gold.Chemscore.Internal.Correction>
   9.000000E+99

> <Gold.Chemscore.Hbond.Weighted>
-0.0000

> <Gold.Chemscore.Metal.Weighted>
-0.0000

> <Gold.Chemscore.Lipo.Weighted>
-11.7320

> <Gold.Chemscore.Internal_Hbond.Weighted>
0.0000

> <Gold.Chemscore.DEClash.Weighted>
0.2546

> <Gold.Chemscore.DEInternal.Weighted>
1.1499

> <Gold.Chemscore.Rot.Weighted>
3.8773

> <Gold.Chemscore.Internal.Correction.Weighted>
   9.000000E+99

> <Gold.Protein.RotatedTorsions>
[ 6907 6896 6895 6894 ] final  176.23 input  -60.11 | X-H torsion
[ 7974 7965 7964 7962 ] final  158.74 input  175.53 | X-H torsion
[ 8008 7997 7996 7995 ] final  -70.77 input   59.86 | X-H torsion
[ 10167 10162 10161 10158 ] final -127.00 input  -65.29 | X-H torsion
[ 10718 10713 10712 10709 ] final   84.46 input   66.30 | X-H torsion
[ 10763 10752 10751 10750 ] final  152.94 input  -60.55 | X-H torsion
[ 11005 11000 10999 10996 ] final  128.57 input  -57.11 | X-H torsion

> <Gold.Protein.ActiveResidues>
 VAL166  LYS551  ARG553  GLY616  TRP617  ASP618  TYR619  PRO620  LYS621  CYS622 
 ASP623  PHE694  ASN695  SER759  ASP760  ASP761  ALA762  ILE779  LEU786  VAL792 
 PHE793  MET794  SER795  GLU796  ALA797  LYS798  CYS799  TRP800  GLU811  SER814 

> <Gold.Protein.RotatedAtoms>
  151.7234  133.3315  159.3321 H   0  0  0  0  0  0  0  0  0  0  0  0  # atno 6907 bound_to 6896
  150.7643  134.6427  159.6255 H   0  0  0  0  0  0  0  0  0  0  0  0  # atno 6908 bound_to 6896
  152.3637  134.6837  160.0250 H   0  0  0  0  0  0  0  0  0  0  0  0  # atno 6909 bound_to 6896
  144.7829  139.7521  143.6253 H   0  0  0  0  0  0  0  0  0  0  0  0  # atno 7974 bound_to 7965
  154.5037  140.0828  156.7850 H   0  0  0  0  0  0  0  0  0  0  0  0  # atno 8008 bound_to 7997
  155.3944  140.3434  155.4235 H   0  0  0  0  0  0  0  0  0  0  0  0  # atno 8009 bound_to 7997
  156.1488  140.1552  156.8790 H   0  0  0  0  0  0  0  0  0  0  0  0  # atno 8010 bound_to 7997
  139.9655  143.5903  152.2431 H   0  0  0  0  0  0  0  0  0  0  0  0  # atno 10167 bound_to 10162
  157.6898  131.0134  150.2676 H   0  0  0  0  0  0  0  0  0  0  0  0  # atno 10718 bound_to 10713
  154.1282  135.2828  155.3192 H   0  0  0  0  0  0  0  0  0  0  0  0  # atno 10763 bound_to 10752
  154.6374  135.5414  153.7753 H   0  0  0  0  0  0  0  0  0  0  0  0  # atno 10764 bound_to 10752
  153.0290  135.6478  154.1434 H   0  0  0  0  0  0  0  0  0  0  0  0  # atno 10765 bound_to 10752
  139.9568  134.9611  156.9022 H   0  0  0  0  0  0  0  0  0  0  0  0  # atno 11005 bound_to 11000
  146.2046  139.5362  142.9721 LP  0  0  0  0  0  0  0  0  0  0  0  0  # atno 17320 bound_to 7965
  145.6002  141.0356  143.2022 LP  0  0  0  0  0  0  0  0  0  0  0  0  # atno 17321 bound_to 7965
  139.6521  144.7661  151.2128 LP  0  0  0  0  0  0  0  0  0  0  0  0  # atno 17342 bound_to 10162
  140.7539  143.6144  150.8574 LP  0  0  0  0  0  0  0  0  0  0  0  0  # atno 17343 bound_to 10162
  156.3244  130.3791  149.7546 LP  0  0  0  0  0  0  0  0  0  0  0  0  # atno 17370 bound_to 10713
  156.5106  130.8170  151.3167 LP  0  0  0  0  0  0  0  0  0  0  0  0  # atno 17371 bound_to 10713
  140.5591  134.0552  155.7393 LP  0  0  0  0  0  0  0  0  0  0  0  0  # atno 17394 bound_to 11000
  141.1240  133.9413  157.2672 LP  0  0  0  0  0  0  0  0  0  0  0  0  # atno 17395 bound_to 11000

$$$$
