#       Name:                AV-unprocessed.smi:1897
#       Creating user name   scv26
#       Creation time:       Fri Mar 27 09:42:42 2020


#       File generated by GOLD software.
#

@<TRIPOS>MOLECULE
AV-unprocessed.smi:1897
    43    45     1
SMALL
NO_CHARGES


@<TRIPOS>ATOM
      1 ****         0.0412   7.4553   3.7000 C.3            1 S1                 0.0000
      2 ****         0.3396   6.1923   2.9669 C.2            1 S1                 0.0000
      3 ****         1.5448   5.6112   2.9900 N.2            1 S1                 0.0000
      4 ****         1.5816   4.4476   2.2355 N.2            1 S1                 0.0000
      5 ****         0.3965   4.1758   1.6696 C.2            1 S1                 0.0000
      6 ****         0.1376   3.0521   0.8308 N.am           1 S1                 0.0000
      7 ****         0.9021   1.9934   0.4874 C.2            1 S1                 0.0000
      8 ****         2.0492   1.8751   0.9144 O.2            1 S1                 0.0000
      9 ****         0.3413   1.0957  -0.3395 N.am           1 S1                 0.0000
     10 ****         0.9764  -0.1223  -0.8312 C.3            1 S1                 0.0000
     11 ****         0.4674  -0.5476  -2.2033 C.3            1 S1                 0.0000
     12 ****         0.8686  -2.0228  -2.2527 C.3            1 S1                 0.0000
     13 ****         0.7551  -2.5221  -0.8631 N.4            1 S1                 1.0000
     14 ****         1.7643  -3.5432  -0.4899 C.3            1 S1                 0.0000
     15 ****         1.5548  -4.0101   0.9627 C.3            1 S1                 0.0000
     16 ****         1.4311  -2.8410   1.9625 C.3            1 S1                 0.0000
     17 ****         1.5845  -1.4705   1.2847 C.3            1 S1                 0.0000
     18 ****         0.6658  -1.3455   0.0479 C.3            1 S1                 0.0000
     19 ****        -0.8680   5.3466   2.0068 S.3            1 S1                 0.0000
     20 ****         0.9079   8.1169   3.6847 H              1 S1                 0.0000
     21 ****        -0.2134   7.2331   4.7364 H              1 S1                 0.0000
     22 ****        -0.7989   7.9726   3.2361 H              1 S1                 0.0000
     23 ****        -0.7737   3.0637   0.3956 H              1 S1                 0.0000
     24 ****        -0.6053   1.2714  -0.6462 H              1 S1                 0.0000
     25 ****         2.0572   0.0163  -0.9056 H              1 S1                 0.0000
     26 ****        -0.6187  -0.4538  -2.2550 H              1 S1                 0.0000
     27 ****         0.8983   0.0358  -3.0175 H              1 S1                 0.0000
     28 ****         0.2479  -2.6021  -2.9367 H              1 S1                 0.0000
     29 ****         1.9024  -2.1018  -2.5933 H              1 S1                 0.0000
     30 ****         1.6903  -4.3928  -1.1697 H              1 S1                 0.0000
     31 ****         2.7677  -3.1316  -0.6110 H              1 S1                 0.0000
     32 ****         0.6525  -4.6205   1.0177 H              1 S1                 0.0000
     33 ****         2.3768  -4.6644   1.2557 H              1 S1                 0.0000
     34 ****         0.4568  -2.8902   2.4504 H              1 S1                 0.0000
     35 ****         2.1711  -2.9455   2.7568 H              1 S1                 0.0000
     36 ****         1.3622  -0.6782   1.9998 H              1 S1                 0.0000
     37 ****         2.6263  -1.3289   0.9936 H              1 S1                 0.0000
     38 ****        -0.3730  -1.3003   0.3794 H              1 S1                 0.0000
     39 ****        -0.1437  -2.9782  -0.7963 H              1 S1                 0.0000
     40 ****         2.3290   5.9741   3.4933 LP             1 S1                 0.0000
     41 ****         2.3963   3.8782   2.1263 LP             1 S1                 0.0000
     42 ****         2.4292   2.5692   1.5258 LP             1 S1                 0.0000
     43 ****         2.6020   1.0848   0.6503 LP             1 S1                 0.0000
@<TRIPOS>BOND
    1    1    2 1     
    2    1   20 1     
    3    1   21 1     
    4    1   22 1     
    5    2   19 1     
    6    2    3 2     
    7    3    4 1     
    8    4    5 2     
    9    5    6 1     
   10    5   19 1     
   11    6    7 am    
   12    6   23 1     
   13    7    8 2     
   14    7    9 am    
   15    9   10 1     
   16    9   24 1     
   17   10   18 1     
   18   10   11 1     
   19   10   25 1     
   20   11   12 1     
   21   11   26 1     
   22   11   27 1     
   23   12   13 1     
   24   12   28 1     
   25   12   29 1     
   26   13   18 1     
   27   13   14 1     
   28   13   39 1     
   29   14   15 1     
   30   14   30 1     
   31   14   31 1     
   32   15   16 1     
   33   15   32 1     
   34   15   33 1     
   35   16   17 1     
   36   16   34 1     
   37   16   35 1     
   38   17   18 1     
   39   17   36 1     
   40   17   37 1     
   41   18   38 1     
   42    3   40 1     
   43    4   41 1     
   44    8   42 1     
   45    8   43 1     
@<TRIPOS>SUBSTRUCTURE
      1 S1             1
@<TRIPOS>SET
LONE_PAIRS      STATIC     ATOMS    <user>   **** ""
4 40 41 42 43
DONOR_HYDROGENS      STATIC     ATOMS    <user>   **** ""
3 23 24 39
ATOM$BLUE        STATIC     ATOMS    COLORGROUP SYSTEM
4 40 41 42 43
ATOM$RED        STATIC     ATOMS    COLORGROUP SYSTEM
3 23 24 39
