AV-unprocessed.smi:438|AV-procd|sdf|2573|dock5
  -GOLD-   2262022553D 1   1.00000     0.00000
 Structure written by MMmdl.
 47 48  0  0  0  0  0  0  0  0  2 V2000
  147.7389  132.9769  161.1992 C   0  0  0  0  0  0  0  0  0  0  0  0
  147.6343  134.4914  161.1708 C   0  0  0  0  0  0  0  0  0  0  0  0
  148.5190  135.1493  160.3003 N   0  0  0  0  0  0  0  0  0  0  0  0
  148.4960  136.4252  160.2230 C   0  0  0  0  0  0  0  0  0  0  0  0
  149.6344  137.2711  159.1125 S   0  0  0  0  0  0  0  0  0  0  0  0
  148.5437  138.2617  158.0462 C   0  0  0  0  0  0  0  0  0  0  0  0
  149.1719  138.5744  156.6911 C   0  0  0  0  0  0  0  0  0  0  0  0
  150.2632  138.0928  156.3878 O   0  0  0  0  0  0  0  0  0  0  0  0
  148.4764  139.3985  155.8927 N   0  0  0  0  0  0  0  0  0  0  0  0
  148.8755  139.8390  154.5565 C   0  0  2  0  0  0  0  0  0  0  0  0
  149.3670  141.3024  154.5856 C   0  0  0  0  0  0  0  0  0  0  0  0
  148.2209  142.2945  154.8484 C   0  0  0  0  0  0  0  0  0  0  0  0
  147.0832  142.1121  153.8327 C   0  0  0  0  0  0  0  0  0  0  0  0
  146.5741  140.6620  153.8165 C   0  0  0  0  0  0  0  0  0  0  0  0
  147.7164  139.6610  153.5444 C   0  0  2  0  0  0  0  0  0  0  0  0
  147.1960  138.2142  153.4825 C   0  0  0  0  0  0  0  0  0  0  0  0
  147.6423  137.2223  160.9498 N   0  5  0  0  0  0  0  0  0  0  0  0
  146.7538  136.6596  161.8182 C   0  0  0  0  0  0  0  0  0  0  0  0
  145.9768  137.3366  162.4904 O   0  0  0  0  0  0  0  0  0  0  0  0
  146.7506  135.1908  161.9383 C   0  0  0  0  0  0  0  0  0  0  0  0
  145.7567  134.5310  162.8913 C   0  0  0  0  0  0  0  0  0  0  0  0
  144.3010  134.8506  162.5218 C   0  0  0  0  0  0  0  0  0  0  0  0
  143.4371  133.9043  163.1135 O   0  0  0  0  0  0  0  0  0  0  0  0
  147.8598  132.6188  162.2219 H   0  0  0  0  0  0  0  0  0  0  0  0
  148.5952  132.6293  160.6200 H   0  0  0  0  0  0  0  0  0  0  0  0
  146.8415  132.5265  160.7752 H   0  0  0  0  0  0  0  0  0  0  0  0
  148.2885  139.1900  158.5589 H   0  0  0  0  0  0  0  0  0  0  0  0
  147.6131  137.7191  157.8765 H   0  0  0  0  0  0  0  0  0  0  0  0
  147.5901  139.7413  156.2344 H   0  0  0  0  0  0  0  0  0  0  0  0
  149.7035  139.2099  154.2244 H   0  0  0  0  0  0  0  0  0  0  0  0
  150.1482  141.4278  155.3362 H   0  0  0  0  0  0  0  0  0  0  0  0
  149.8307  141.5414  153.6277 H   0  0  0  0  0  0  0  0  0  0  0  0
  147.8357  142.1542  155.8593 H   0  0  0  0  0  0  0  0  0  0  0  0
  148.5979  143.3165  154.8028 H   0  0  0  0  0  0  0  0  0  0  0  0
  146.2631  142.7909  154.0683 H   0  0  0  0  0  0  0  0  0  0  0  0
  147.4348  142.3864  152.8373 H   0  0  0  0  0  0  0  0  0  0  0  0
  146.0965  140.4330  154.7700 H   0  0  0  0  0  0  0  0  0  0  0  0
  145.8002  140.5586  153.0551 H   0  0  0  0  0  0  0  0  0  0  0  0
  148.1170  139.8920  152.5561 H   0  0  0  0  0  0  0  0  0  0  0  0
  146.7231  137.9132  154.4178 H   0  0  0  0  0  0  0  0  0  0  0  0
  148.0070  137.5144  153.2791 H   0  0  0  0  0  0  0  0  0  0  0  0
  146.4562  138.0992  152.6897 H   0  0  0  0  0  0  0  0  0  0  0  0
  145.9522  134.8521  163.9139 H   0  0  0  0  0  0  0  0  0  0  0  0
  145.9168  133.4517  162.8969 H   0  0  0  0  0  0  0  0  0  0  0  0
  144.0260  135.8474  162.8682 H   0  0  0  0  0  0  0  0  0  0  0  0
  144.1610  134.8306  161.4407 H   0  0  0  0  0  0  0  0  0  0  0  0
  143.1798  134.2252  163.9640 H   0  0  0  0  0  0  0  0  0  0  0  0
  1 24  1  0  0  0  0
  1 25  1  0  0  0  0
  1 26  1  0  0  0  0
  1  2  1  0  0  0  0
  2 20  2  0  0  0  0
  2  3  1  0  0  0  0
  3  4  2  0  0  0  0
  4  5  1  0  0  0  0
  4 17  1  0  0  0  0
  5  6  1  0  0  0  0
  6  7  1  0  0  0  0
  6 27  1  0  0  0  0
  6 28  1  0  0  0  0
  7  8  2  0  0  0  0
  7  9  1  0  0  0  0
  9 10  1  0  0  0  0
  9 29  1  0  0  0  0
 10 15  1  0  0  0  0
 10 11  1  0  0  0  0
 10 30  1  0  0  0  0
 11 12  1  0  0  0  0
 11 31  1  0  0  0  0
 11 32  1  0  0  0  0
 12 13  1  0  0  0  0
 12 33  1  0  0  0  0
 12 34  1  0  0  0  0
 13 14  1  0  0  0  0
 13 35  1  0  0  0  0
 13 36  1  0  0  0  0
 14 15  1  0  0  0  0
 14 37  1  0  0  0  0
 14 38  1  0  0  0  0
 15 16  1  0  0  0  0
 15 39  1  0  0  0  0
 16 40  1  0  0  0  0
 16 41  1  0  0  0  0
 16 42  1  0  0  0  0
 17 18  1  0  0  0  0
 18 19  2  0  0  0  0
 18 20  1  0  0  0  0
 20 21  1  0  0  0  0
 21 22  1  0  0  0  0
 21 43  1  0  0  0  0
 21 44  1  0  0  0  0
 22 23  1  0  0  0  0
 22 45  1  0  0  0  0
 22 46  1  0  0  0  0
 23 47  1  0  0  0  0
M  CHG  1  17  -1
M  END
> <s_m_source_file>
AV-unprocessed.smi

> <i_m_source_file_index>
438

> <i_lp_mmshare_version>
43012

> <i_f3d_flags>
0

> <s_epik_input>
W09IXVtDSDJdW0NIMl1jMWMoW09IXSluYyhuYzFbQ0gzXSlTW0NIMl1DKD1PKVtOSF1bQ0BASF0yW0NIMl1bQ0gyXVtDSDJdW0NIMl1bQ0BIXTJbQ0gzXQ==

> <s_epik_cmdline>
J2VwaWtfcHl0aG9uJywgJy1waCcsICc3LjAnLCAnLXRuJywgJzgnLCAnLW1hJywgJzIwMCcsICctbWV0YWxfYmluZGluZycsICctaW1hZScsICc8aW5maWxlLm1hZT4nLCAnLW9tYWUnLCAnPG91dGZpbGUubWFlPic=

> <r_lp_tautomer_probability>
1

> <r_epik_Ionization_Penalty>
3.69231

> <r_epik_Ionization_Penalty_Charging>
0.00434774

> <r_epik_Ionization_Penalty_Neutral>
3.68796

> <r_epik_State_Penalty>
2.13826

> <r_epik_Charging_Adjusted_Penalty>
2.14261

> <i_epik_Tot_Q>
-1

> <i_epik_Tot_abs_Q>
1

> <r_epik_Metal_State_Penalty>
0.260979

> <b_epik_Metal_Only>
0

> <s_lp_Force_Field>
OPLS_2005

> <r_lp_Energy>
17.6813

> <b_lp_Chiralities_Consistent>
1

> <s_lp_Variant>
AV-unprocessed.smi:438-11

> <Gold.Version>
5.8.1

> <Gold.Id.Protein>
6NUR|6NUR_protein|mol2

> <Gold.PLP.Fitness>
42.5807

> <Gold.PLP.PLP>
-32.3284

> <Gold.PLP.part.hbond>
-2.9124

> <Gold.PLP.part.metal>
0.0000

> <Gold.PLP.part.buried>
1.6739

> <Gold.PLP.part.nonpolar>
-31.7975

> <Gold.PLP.part.repulsive>
0.0022

> <Gold.PLP.ligand.clash>
0.0000

> <Gold.PLP.ligand.torsion>
0.4177

> <Gold.PLP.Chemscore.Hbond>
3.6800

> <Gold.PLP.Chemscore.CHOScore>
0.0000

> <Gold.PLP.Chemscore.Metal>
0.0000

> <Gold.Chemscore.Hbonds>
donor molecule, donor type, donor heavy atom, donor atom, acceptor molecule, acceptor atom, score
      P1  H  6931  6943       L1    17  1.44
      P1  H  6934  6947       L1    17  1.86

> <Gold.PLP.Chemscore.Internal.Correction>
0.0476

> <Gold.Rescore>
     Score         DG    S(hbond)    S(metal)    S(lipo)     H(rot)  DE(clash)    DE(int)     intcor
      8.96     -11.18       0.86        0.00      85.18       2.79       1.85       0.37       ----

> <Gold.Chemscore.Fitness>
8.9565

> <Gold.Chemscore.DG>
-11.1780

> <Gold.Chemscore.ZeroCoef>
-5.4800

> <Gold.Chemscore.Hbond>
0.8625

> <Gold.Chemscore.Metal>
0.0000

> <Gold.Chemscore.Lipo>
85.1826

> <Gold.Chemscore.Internal_Hbond>
0.0000

> <Gold.Chemscore.DEClash>
1.8515

> <Gold.Chemscore.DEInternal>
0.3699

> <Gold.Chemscore.Rot>
2.7927

> <Gold.Chemscore.Internal.Correction>
   9.000000E+99

> <Gold.Chemscore.Hbonds>
donor molecule, donor type, donor heavy atom, donor atom, acceptor molecule, acceptor atom, score
      P1  H  6931  6943       L1    17  0.10
      P1  H  6934  6947       L1    17  0.40

> <Gold.Chemscore.Hbond.Weighted>
-2.8808

> <Gold.Chemscore.Metal.Weighted>
-0.0000

> <Gold.Chemscore.Lipo.Weighted>
-9.9664

> <Gold.Chemscore.Internal_Hbond.Weighted>
0.0000

> <Gold.Chemscore.DEClash.Weighted>
1.8515

> <Gold.Chemscore.DEInternal.Weighted>
0.3699

> <Gold.Chemscore.Rot.Weighted>
7.1492

> <Gold.Chemscore.Internal.Correction.Weighted>
   9.000000E+99

> <Gold.Protein.RotatedTorsions>
[ 6907 6896 6895 6894 ] final  115.95 input  -60.11 | X-H torsion
[ 7974 7965 7964 7962 ] final  111.73 input  175.53 | X-H torsion
[ 8008 7997 7996 7995 ] final   99.09 input   59.86 | X-H torsion
[ 10167 10162 10161 10158 ] final  101.34 input  -65.29 | X-H torsion
[ 10718 10713 10712 10709 ] final  -19.58 input   66.30 | X-H torsion
[ 10763 10752 10751 10750 ] final   51.23 input  -60.55 | X-H torsion
[ 11005 11000 10999 10996 ] final  -43.19 input  -57.11 | X-H torsion

> <Gold.Protein.ActiveResidues>
 VAL166  LYS551  ARG553  GLY616  TRP617  ASP618  TYR619  PRO620  LYS621  CYS622 
 ASP623  PHE694  ASN695  SER759  ASP760  ASP761  ALA762  ILE779  LEU786  VAL792 
 PHE793  MET794  SER795  GLU796  ALA797  LYS798  CYS799  TRP800  GLU811  SER814 

> <Gold.Protein.RotatedAtoms>
  152.4709  133.8028  159.6961 H   0  0  0  0  0  0  0  0  0  0  0  0  # atno 6907 bound_to 6896
  150.8698  133.7512  159.2971 H   0  0  0  0  0  0  0  0  0  0  0  0  # atno 6908 bound_to 6896
  151.5050  135.1066  159.9891 H   0  0  0  0  0  0  0  0  0  0  0  0  # atno 6909 bound_to 6896
  145.2386  139.2788  143.4130 H   0  0  0  0  0  0  0  0  0  0  0  0  # atno 7974 bound_to 7965
  156.1070  140.3234  155.8020 H   0  0  0  0  0  0  0  0  0  0  0  0  # atno 8008 bound_to 7997
  155.4739  140.0548  157.2993 H   0  0  0  0  0  0  0  0  0  0  0  0  # atno 8009 bound_to 7997
  154.4734  140.2021  155.9952 H   0  0  0  0  0  0  0  0  0  0  0  0  # atno 8010 bound_to 7997
  139.7447  144.7001  151.0523 H   0  0  0  0  0  0  0  0  0  0  0  0  # atno 10167 bound_to 10162
  156.5437  130.4684  149.6486 H   0  0  0  0  0  0  0  0  0  0  0  0  # atno 10718 bound_to 10713
  152.9785  135.5853  154.4381 H   0  0  0  0  0  0  0  0  0  0  0  0  # atno 10763 bound_to 10752
  154.3986  135.2768  155.2112 H   0  0  0  0  0  0  0  0  0  0  0  0  # atno 10764 bound_to 10752
  154.3953  135.6116  153.5920 H   0  0  0  0  0  0  0  0  0  0  0  0  # atno 10765 bound_to 10752
  141.0367  133.6797  156.2699 H   0  0  0  0  0  0  0  0  0  0  0  0  # atno 11005 bound_to 11000
  146.3334  140.2742  142.8607 LP  0  0  0  0  0  0  0  0  0  0  0  0  # atno 17320 bound_to 7965
  144.9610  140.8275  143.5513 LP  0  0  0  0  0  0  0  0  0  0  0  0  # atno 17321 bound_to 7965
  140.7790  143.4882  150.9928 LP  0  0  0  0  0  0  0  0  0  0  0  0  # atno 17342 bound_to 10162
  139.8570  143.7364  152.3175 LP  0  0  0  0  0  0  0  0  0  0  0  0  # atno 17343 bound_to 10162
  156.2948  130.7144  151.2001 LP  0  0  0  0  0  0  0  0  0  0  0  0  # atno 17370 bound_to 10713
  157.7400  131.0522  150.5192 LP  0  0  0  0  0  0  0  0  0  0  0  0  # atno 17371 bound_to 10713
  140.6309  134.5265  157.5559 LP  0  0  0  0  0  0  0  0  0  0  0  0  # atno 17394 bound_to 11000
  139.9246  134.8082  156.1108 LP  0  0  0  0  0  0  0  0  0  0  0  0  # atno 17395 bound_to 11000

$$$$
