#       Name:                AV-unprocessed.smi:3352
#       Creating user name   scv26
#       Creation time:       Fri Mar 27 19:39:02 2020


#       File generated by GOLD software.
#

@<TRIPOS>MOLECULE
AV-unprocessed.smi:3352
    43    44     1
SMALL
NO_CHARGES


@<TRIPOS>ATOM
      1 ****        -4.9362   1.2678  -0.5008 C.3            1 S1                 0.0000
      2 ****        -4.1865   0.7300  -1.7283 C.3            1 S1                 0.0000
      3 ****        -5.1322   0.3771  -2.8851 C.3            1 S1                 0.0000
      4 ****        -3.2877  -0.4148  -1.3775 C.2            1 S1                 0.0000
      5 ****        -1.9650  -0.3932  -1.5652 N.2            1 S1                 0.0000
      6 ****        -1.3404  -1.5792  -1.1642 C.2            1 S1                 0.0000
      7 ****         0.1470  -1.7272  -1.2992 C.3            1 S1                 0.0000
      8 ****         0.8380  -1.3154   0.0013 C.2            1 S1                 0.0000
      9 ****         1.1714  -2.1735   0.8186 O.2            1 S1                 0.0000
     10 ****         1.0470  -0.0013   0.1778 N.am           1 S1                 0.0000
     11 ****         1.6924   0.6006   1.3386 C.3            1 S1                 0.0000
     12 ****         3.2112   0.7318   1.1372 C.3            1 S1                 0.0000
     13 ****         3.9133   1.4878   2.2643 C.3            1 S1                 0.0000
     14 ****         5.3211   0.9469   2.1658 C.3            1 S1                 0.0000
     15 ****         5.0646  -0.5203   1.8372 C.3            1 S1                 0.0000
     16 ****         3.8398  -0.5486   1.1092 O.3            1 S1                 0.0000
     17 ****        -2.2193  -2.5135  -0.6745 C.2            1 S1                 0.0000
     18 ****        -3.8616  -1.9344  -0.6938 S.3            1 S1                 0.0000
     19 ****        -4.2399   1.5737   0.2808 H              1 S1                 0.0000
     20 ****        -5.6025   0.5150  -0.0783 H              1 S1                 0.0000
     21 ****        -5.5418   2.1364  -0.7611 H              1 S1                 0.0000
     22 ****        -3.5463   1.5395  -2.0827 H              1 S1                 0.0000
     23 ****        -4.5720   0.0674  -3.7680 H              1 S1                 0.0000
     24 ****        -5.7440   1.2343  -3.1669 H              1 S1                 0.0000
     25 ****        -5.8057  -0.4367  -2.6148 H              1 S1                 0.0000
     26 ****         0.4094  -2.7599  -1.5327 H              1 S1                 0.0000
     27 ****         0.5278  -1.1211  -2.1227 H              1 S1                 0.0000
     28 ****         0.7355   0.6280  -0.5480 H              1 S1                 0.0000
     29 ****         1.2573   1.5906   1.4771 H              1 S1                 0.0000
     30 ****         1.4691   0.0364   2.2457 H              1 S1                 0.0000
     31 ****         3.4252   1.2305   0.1903 H              1 S1                 0.0000
     32 ****         3.8611   2.5708   2.1475 H              1 S1                 0.0000
     33 ****         3.4821   1.2267   3.2320 H              1 S1                 0.0000
     34 ****         5.8517   1.4305   1.3444 H              1 S1                 0.0000
     35 ****         5.9010   1.0851   3.0786 H              1 S1                 0.0000
     36 ****         5.8786  -0.9673   1.2664 H              1 S1                 0.0000
     37 ****         4.9348  -1.0988   2.7527 H              1 S1                 0.0000
     38 ****        -1.9992  -3.5033  -0.3026 H              1 S1                 0.0000
     39 ****        -1.4737   0.3876  -1.9512 LP             1 S1                 0.0000
     40 ****         0.9903  -3.1390   0.6318 LP             1 S1                 0.0000
     41 ****         1.6233  -1.9049   1.6693 LP             1 S1                 0.0000
     42 ****         4.0270  -0.8024   0.1603 LP             1 S1                 0.0000
     43 ****         3.2282  -1.2243   1.5206 LP             1 S1                 0.0000
@<TRIPOS>BOND
    1    1    2 1     
    2    1   19 1     
    3    1   20 1     
    4    1   21 1     
    5    2    3 1     
    6    2    4 1     
    7    2   22 1     
    8    3   23 1     
    9    3   24 1     
   10    3   25 1     
   11    4   18 1     
   12    4    5 2     
   13    5    6 1     
   14    6    7 1     
   15    6   17 2     
   16    7    8 1     
   17    7   26 1     
   18    7   27 1     
   19    8    9 2     
   20    8   10 am    
   21   10   11 1     
   22   10   28 1     
   23   11   12 1     
   24   11   29 1     
   25   11   30 1     
   26   12   16 1     
   27   12   13 1     
   28   12   31 1     
   29   13   14 1     
   30   13   32 1     
   31   13   33 1     
   32   14   15 1     
   33   14   34 1     
   34   14   35 1     
   35   15   16 1     
   36   15   36 1     
   37   15   37 1     
   38   17   18 1     
   39   17   38 1     
   40    5   39 1     
   41    9   40 1     
   42    9   41 1     
   43   16   42 1     
   44   16   43 1     
@<TRIPOS>SUBSTRUCTURE
      1 S1             1
@<TRIPOS>SET
LONE_PAIRS      STATIC     ATOMS    <user>   **** ""
5 39 40 41 42 43
DONOR_HYDROGENS      STATIC     ATOMS    <user>   **** ""
1 28
ATOM$BLUE        STATIC     ATOMS    COLORGROUP SYSTEM
5 39 40 41 42 43
ATOM$RED        STATIC     ATOMS    COLORGROUP SYSTEM
1 28
