AV-unprocessed.smi:15|AV-procd|sdf|82|dock8
  -GOLD-   2262015213D 1   1.00000     0.00000
 Structure written by MMmdl.
 53 56  0  0  0  0  0  0  0  0  1 V2000
  149.9213  141.1979  155.6516 C   0  0  0  0  0  0  0  0  0  0  0  0
  151.1272  140.3848  156.1398 C   0  0  0  0  0  0  0  0  0  0  0  0
  151.2498  140.3765  157.5973 N   0  0  0  0  0  0  0  0  0  0  0  0
  152.1456  141.3236  158.2639 C   0  0  0  0  0  0  0  0  0  0  0  0
  151.4058  142.5133  158.9065 C   0  0  1  0  0  0  0  0  0  0  0  0
  152.2681  143.3144  159.8793 C   0  0  0  0  0  0  0  0  0  0  0  0
  151.6245  144.6930  159.8775 C   0  0  0  0  0  0  0  0  0  0  0  0
  150.7256  144.6829  158.6382 C   0  0  0  0  0  0  0  0  0  0  0  0
  151.0790  143.4992  157.9387 O   0  0  0  0  0  0  0  0  0  0  0  0
  151.1577  139.1753  158.2169 C   0  0  0  0  0  0  0  0  0  0  0  0
  152.3164  138.5677  158.5788 N   0  0  0  0  0  0  0  0  0  0  0  0
  152.2914  137.3658  159.1613 C   0  0  0  0  0  0  0  0  0  0  0  0
  151.2373  136.6026  159.4553 N   0  0  0  0  0  0  0  0  0  0  0  0
  150.0710  137.2019  159.0804 C   0  0  0  0  0  0  0  0  0  0  0  0
  149.9388  138.4810  158.4695 C   0  0  0  0  0  0  0  0  0  0  0  0
  148.5966  138.7493  158.2255 N   0  0  0  0  0  0  0  0  0  0  0  0
  147.9731  137.6915  158.6655 C   0  0  0  0  0  0  0  0  0  0  0  0
  148.7829  136.7047  159.1798 N   0  0  0  0  0  0  0  0  0  0  0  0
  148.3578  135.4161  159.7043 C   0  0  0  0  0  0  0  0  0  0  0  0
  147.3681  135.5327  160.8902 C   0  0  2  0  0  0  0  0  0  0  0  0
  147.6605  136.7261  161.5985 O   0  0  0  0  0  0  0  0  0  0  0  0
  147.4933  134.3576  161.8656 C   0  0  0  0  0  0  0  0  0  0  0  0
  146.1804  133.5996  161.7051 C   0  0  0  0  0  0  0  0  0  0  0  0
  145.2547  134.6290  161.4057 O   0  0  0  0  0  0  0  0  0  0  0  0
  145.8789  135.4821  160.4578 C   0  0  1  0  0  0  0  0  0  0  0  0
  145.1308  136.8218  160.3540 C   0  0  0  0  0  0  0  0  0  0  0  0
  149.8205  141.1194  154.5690 H   0  0  0  0  0  0  0  0  0  0  0  0
  150.0207  142.2562  155.8917 H   0  0  0  0  0  0  0  0  0  0  0  0
  148.9950  140.8345  156.0974 H   0  0  0  0  0  0  0  0  0  0  0  0
  151.0178  139.3611  155.7788 H   0  0  0  0  0  0  0  0  0  0  0  0
  152.0408  140.7773  155.6935 H   0  0  0  0  0  0  0  0  0  0  0  0
  152.6969  140.7884  159.0359 H   0  0  0  0  0  0  0  0  0  0  0  0
  152.9012  141.6862  157.5659 H   0  0  0  0  0  0  0  0  0  0  0  0
  150.4968  142.1864  159.4136 H   0  0  0  0  0  0  0  0  0  0  0  0
  152.3083  142.8654  160.8722 H   0  0  0  0  0  0  0  0  0  0  0  0
  153.2891  143.3893  159.5027 H   0  0  0  0  0  0  0  0  0  0  0  0
  151.0334  144.8603  160.7784 H   0  0  0  0  0  0  0  0  0  0  0  0
  152.3815  145.4757  159.8214 H   0  0  0  0  0  0  0  0  0  0  0  0
  149.6741  144.6291  158.9248 H   0  0  0  0  0  0  0  0  0  0  0  0
  150.8632  145.5645  158.0119 H   0  0  0  0  0  0  0  0  0  0  0  0
  153.2547  136.9534  159.4230 H   0  0  0  0  0  0  0  0  0  0  0  0
  146.8987  137.5934  158.6107 H   0  0  0  0  0  0  0  0  0  0  0  0
  147.9020  134.8491  158.8914 H   0  0  0  0  0  0  0  0  0  0  0  0
  149.2466  134.8584  160.0031 H   0  0  0  0  0  0  0  0  0  0  0  0
  147.3278  136.6387  162.4789 H   0  0  0  0  0  0  0  0  0  0  0  0
  148.3580  133.7219  161.6717 H   0  0  0  0  0  0  0  0  0  0  0  0
  147.5750  134.7073  162.8961 H   0  0  0  0  0  0  0  0  0  0  0  0
  146.2331  132.8968  160.8719 H   0  0  0  0  0  0  0  0  0  0  0  0
  145.8981  133.0504  162.6034 H   0  0  0  0  0  0  0  0  0  0  0  0
  145.8006  134.9688  159.4989 H   0  0  0  0  0  0  0  0  0  0  0  0
  145.6244  137.4965  159.6546 H   0  0  0  0  0  0  0  0  0  0  0  0
  145.0673  137.3236  161.3196 H   0  0  0  0  0  0  0  0  0  0  0  0
  144.1124  136.6678  159.9970 H   0  0  0  0  0  0  0  0  0  0  0  0
  1  2  1  0  0  0  0
  1 27  1  0  0  0  0
  1 28  1  0  0  0  0
  1 29  1  0  0  0  0
  2  3  1  0  0  0  0
  2 30  1  0  0  0  0
  2 31  1  0  0  0  0
  3  4  1  0  0  0  0
  3 10  1  0  0  0  0
  4  5  1  0  0  0  0
  4 32  1  0  0  0  0
  4 33  1  0  0  0  0
  5  9  1  0  0  0  0
  5  6  1  0  0  0  0
  5 34  1  0  0  0  0
  6  7  1  0  0  0  0
  6 35  1  0  0  0  0
  6 36  1  0  0  0  0
  7  8  1  0  0  0  0
  7 37  1  0  0  0  0
  7 38  1  0  0  0  0
  8  9  1  0  0  0  0
  8 39  1  0  0  0  0
  8 40  1  0  0  0  0
 10 15  1  0  0  0  0
 10 11  2  0  0  0  0
 11 12  1  0  0  0  0
 12 13  2  0  0  0  0
 12 41  1  0  0  0  0
 13 14  1  0  0  0  0
 14 18  1  0  0  0  0
 14 15  2  0  0  0  0
 15 16  1  0  0  0  0
 16 17  2  0  0  0  0
 17 18  1  0  0  0  0
 17 42  1  0  0  0  0
 18 19  1  0  0  0  0
 19 20  1  0  0  0  0
 19 43  1  0  0  0  0
 19 44  1  0  0  0  0
 20 25  1  0  0  0  0
 20 21  1  0  0  0  0
 20 22  1  0  0  0  0
 21 45  1  0  0  0  0
 22 23  1  0  0  0  0
 22 46  1  0  0  0  0
 22 47  1  0  0  0  0
 23 24  1  0  0  0  0
 23 48  1  0  0  0  0
 23 49  1  0  0  0  0
 24 25  1  0  0  0  0
 25 26  1  0  0  0  0
 25 50  1  0  0  0  0
 26 51  1  0  0  0  0
 26 52  1  0  0  0  0
 26 53  1  0  0  0  0
M  END
> <s_m_source_file>
AV-unprocessed.smi

> <i_m_source_file_index>
15

> <i_lp_mmshare_version>
43012

> <i_f3d_flags>
0

> <s_epik_input>
TzFbQ0gyXVtDSDJdW0NIMl1bQ0BIXTFbQ0gyXU4oW0NIMl1bQ0gzXSljKG5bY0hdbjIpYyhjMjMpbltjSF1uM1tDSDJdW0NAQF00KFtPSF0pW0NIMl1bQ0gyXU9bQ0BIXTRbQ0gzXQ==

> <s_epik_cmdline>
J2VwaWtfcHl0aG9uJywgJy1waCcsICc3LjAnLCAnLXRuJywgJzgnLCAnLW1hJywgJzIwMCcsICctbWV0YWxfYmluZGluZycsICctaW1hZScsICc8aW5maWxlLm1hZT4nLCAnLW9tYWUnLCAnPG91dGZpbGUubWFlPic=

> <r_lp_tautomer_probability>
1

> <r_epik_Ionization_Penalty>
0.00360814

> <r_epik_Ionization_Penalty_Charging>
0

> <r_epik_Ionization_Penalty_Neutral>
0.00360814

> <r_epik_State_Penalty>
0.00237482

> <r_epik_Charging_Adjusted_Penalty>
0.00237482

> <i_epik_Tot_Q>
0

> <i_epik_Tot_abs_Q>
0

> <r_epik_Metal_State_Penalty>
-0

> <b_epik_Metal_Only>
0

> <s_lp_Force_Field>
OPLS_2005

> <r_lp_Energy>
44.887

> <b_lp_Chiralities_Consistent>
1

> <s_lp_Variant>
AV-unprocessed.smi:15-4

> <Gold.Version>
5.8.1

> <Gold.Id.Protein>
6NUR|6NUR_protein|mol2

> <Gold.PLP.Fitness>
50.0536

> <Gold.PLP.PLP>
-45.5750

> <Gold.PLP.part.hbond>
-3.6482

> <Gold.PLP.part.metal>
0.0000

> <Gold.PLP.part.buried>
-5.6939

> <Gold.PLP.part.nonpolar>
-35.6352

> <Gold.PLP.part.repulsive>
0.1292

> <Gold.PLP.ligand.clash>
0.0000

> <Gold.PLP.ligand.torsion>
2.1830

> <Gold.PLP.Chemscore.Hbond>
2.6334

> <Gold.PLP.Chemscore.CHOScore>
0.0000

> <Gold.PLP.Chemscore.Metal>
0.0000

> <Gold.Chemscore.Hbonds>
donor molecule, donor type, donor heavy atom, donor atom, acceptor molecule, acceptor atom, score
      P1  H  6896  6907       L1    13  1.00
      P1  H  6931  6943       L1    21  0.85

> <Gold.PLP.Chemscore.Internal.Correction>
0.9446

> <Gold.Rescore>
     Score         DG    S(hbond)    S(metal)    S(lipo)     H(rot)  DE(clash)    DE(int)     intcor
     15.28     -17.87       2.11        0.00      99.13       2.44       0.34       2.25       ----

> <Gold.Chemscore.Fitness>
15.2833

> <Gold.Chemscore.DG>
-17.8693

> <Gold.Chemscore.ZeroCoef>
-5.4800

> <Gold.Chemscore.Hbond>
2.1093

> <Gold.Chemscore.Metal>
0.0000

> <Gold.Chemscore.Lipo>
99.1343

> <Gold.Chemscore.Internal_Hbond>
0.0000

> <Gold.Chemscore.DEClash>
0.3409

> <Gold.Chemscore.DEInternal>
2.2450

> <Gold.Chemscore.Rot>
2.4431

> <Gold.Chemscore.Internal.Correction>
   9.000000E+99

> <Gold.Chemscore.Hbonds>
donor molecule, donor type, donor heavy atom, donor atom, acceptor molecule, acceptor atom, score
      P1  H  6896  6907       L1    13  0.86
      P1  H  6931  6943       L1    21  0.19
      P1  H  6934  6947       L1    21  0.03

> <Gold.Chemscore.Hbond.Weighted>
-7.0450

> <Gold.Chemscore.Metal.Weighted>
-0.0000

> <Gold.Chemscore.Lipo.Weighted>
-11.5987

> <Gold.Chemscore.Internal_Hbond.Weighted>
0.0000

> <Gold.Chemscore.DEClash.Weighted>
0.3409

> <Gold.Chemscore.DEInternal.Weighted>
2.2450

> <Gold.Chemscore.Rot.Weighted>
6.2544

> <Gold.Chemscore.Internal.Correction.Weighted>
   9.000000E+99

> <Gold.Protein.RotatedTorsions>
[ 6907 6896 6895 6894 ] final  -27.96 input  -60.11 | X-H torsion
[ 7974 7965 7964 7962 ] final -178.15 input  175.53 | X-H torsion
[ 8008 7997 7996 7995 ] final   41.83 input   59.86 | X-H torsion
[ 10167 10162 10161 10158 ] final   11.55 input  -65.29 | X-H torsion
[ 10718 10713 10712 10709 ] final  174.98 input   66.30 | X-H torsion
[ 10763 10752 10751 10750 ] final  152.32 input  -60.55 | X-H torsion
[ 11005 11000 10999 10996 ] final  -99.34 input  -57.11 | X-H torsion

> <Gold.Protein.ActiveResidues>
 VAL166  LYS551  ARG553  GLY616  TRP617  ASP618  TYR619  PRO620  LYS621  CYS622 
 ASP623  PHE694  ASN695  SER759  ASP760  ASP761  ALA762  ILE779  LEU786  VAL792 
 PHE793  MET794  SER795  GLU796  ALA797  LYS798  CYS799  TRP800  GLU811  SER814 

> <Gold.Protein.RotatedAtoms>
  151.1396  135.0172  159.8619 H   0  0  0  0  0  0  0  0  0  0  0  0  # atno 6907 bound_to 6896
  152.5452  134.1515  159.8530 H   0  0  0  0  0  0  0  0  0  0  0  0  # atno 6908 bound_to 6896
  151.1589  133.4812  159.2627 H   0  0  0  0  0  0  0  0  0  0  0  0  # atno 6909 bound_to 6896
  144.7130  140.0912  143.6421 H   0  0  0  0  0  0  0  0  0  0  0  0  # atno 7974 bound_to 7965
  155.2760  140.3369  155.4261 H   0  0  0  0  0  0  0  0  0  0  0  0  # atno 8008 bound_to 7997
  156.2111  140.1770  156.7734 H   0  0  0  0  0  0  0  0  0  0  0  0  # atno 8009 bound_to 7997
  154.5688  140.0674  156.8917 H   0  0  0  0  0  0  0  0  0  0  0  0  # atno 8010 bound_to 7997
  140.6125  143.8378  150.7081 H   0  0  0  0  0  0  0  0  0  0  0  0  # atno 10167 bound_to 10162
  156.9416  131.0003  151.2967 H   0  0  0  0  0  0  0  0  0  0  0  0  # atno 10718 bound_to 10713
  154.1181  135.2834  155.3215 H   0  0  0  0  0  0  0  0  0  0  0  0  # atno 10763 bound_to 10752
  154.6442  135.5391  153.7828 H   0  0  0  0  0  0  0  0  0  0  0  0  # atno 10764 bound_to 10752
  153.0322  135.6494  154.1337 H   0  0  0  0  0  0  0  0  0  0  0  0  # atno 10765 bound_to 10752
  141.1312  133.8314  157.0959 H   0  0  0  0  0  0  0  0  0  0  0  0  # atno 11005 bound_to 11000
  145.9618  139.2806  143.1151 LP  0  0  0  0  0  0  0  0  0  0  0  0  # atno 17320 bound_to 7965
  145.9212  140.9114  143.0404 LP  0  0  0  0  0  0  0  0  0  0  0  0  # atno 17321 bound_to 7965
  140.1949  143.4006  152.1835 LP  0  0  0  0  0  0  0  0  0  0  0  0  # atno 17342 bound_to 10162
  139.5372  144.7221  151.4853 LP  0  0  0  0  0  0  0  0  0  0  0  0  # atno 17343 bound_to 10162
  157.5781  130.8357  149.8484 LP  0  0  0  0  0  0  0  0  0  0  0  0  # atno 17370 bound_to 10713
  156.0402  130.3741  150.1456 LP  0  0  0  0  0  0  0  0  0  0  0  0  # atno 17371 bound_to 10713
  140.0363  134.9876  157.0877 LP  0  0  0  0  0  0  0  0  0  0  0  0  # atno 17394 bound_to 11000
  140.4205  134.1885  155.7164 LP  0  0  0  0  0  0  0  0  0  0  0  0  # atno 17395 bound_to 11000

$$$$
