AV-unprocessed.smi:1010|AV-procd|sdf|4415|dock5
  -GOLD-   22720 2363D 1   1.00000     0.00000
 Structure written by MMmdl.
 55 57  0  0  0  0  0  0  0  0  2 V2000
  144.1650  136.0087  159.3874 C   0  0  0  0  0  0  0  0  0  0  0  0
  144.9051  136.5473  160.5566 N   0  3  0  0  0  0  0  0  0  0  0  0
  143.9565  136.8948  161.6473 C   0  0  0  0  0  0  0  0  0  0  0  0
  146.1378  135.7881  160.9916 C   0  0  0  0  0  0  0  0  0  0  0  0
  147.0964  135.6629  159.7617 C   0  0  0  0  0  0  0  0  0  0  0  0
  147.4899  136.9503  159.1905 N   0  0  0  0  0  0  0  0  0  0  0  0
  148.7441  137.3836  159.0050 C   0  0  0  0  0  0  0  0  0  0  0  0
  149.7422  136.7294  159.3050 O   0  0  0  0  0  0  0  0  0  0  0  0
  148.7536  138.6215  158.4862 N   0  0  0  0  0  0  0  0  0  0  0  0
  149.8738  139.4723  158.2760 C   0  0  0  0  0  0  0  0  0  0  0  0
  151.0589  139.3399  159.0400 C   0  0  0  0  0  0  0  0  0  0  0  0
  152.1624  140.1598  158.7474 C   0  0  0  0  0  0  0  0  0  0  0  0
  152.0478  141.0751  157.6879 C   0  0  0  0  0  0  0  0  0  0  0  0
  150.9319  141.2030  156.9426 N   0  0  0  0  0  0  0  0  0  0  0  0
  149.8547  140.4285  157.2207 C   0  0  0  0  0  0  0  0  0  0  0  0
  148.7067  140.6157  156.4170 N   0  0  0  0  0  0  0  0  0  0  0  0
  148.6833  140.1388  155.0382 C   0  0  0  0  0  0  0  0  0  0  0  0
  147.4931  140.8463  154.3967 C   0  0  0  0  0  0  0  0  0  0  0  0
  147.5239  142.2124  155.0750 C   0  0  0  0  0  0  0  0  0  0  0  0
  148.0217  141.9032  156.4913 C   0  0  0  0  0  0  0  0  0  0  0  0
  146.8591  136.5186  162.1587 C   0  0  0  0  0  0  0  0  0  0  0  0
  147.9956  135.6862  162.7865 C   0  0  0  0  0  0  0  0  0  0  0  0
  147.5136  134.4168  163.2069 O   0  0  0  0  0  0  0  0  0  0  0  0
  146.9941  133.6368  162.1383 C   0  0  0  0  0  0  0  0  0  0  0  0
  145.7852  134.3633  161.5239 C   0  0  0  0  0  0  0  0  0  0  0  0
  143.8508  134.9781  159.5555 H   0  0  0  0  0  0  0  0  0  0  0  0
  144.7629  136.0560  158.4776 H   0  0  0  0  0  0  0  0  0  0  0  0
  143.2702  136.6006  159.1913 H   0  0  0  0  0  0  0  0  0  0  0  0
  143.3981  136.0205  161.9835 H   0  0  0  0  0  0  0  0  0  0  0  0
  143.2328  137.6297  161.2937 H   0  0  0  0  0  0  0  0  0  0  0  0
  144.4520  137.3356  162.5103 H   0  0  0  0  0  0  0  0  0  0  0  0
  147.9843  135.0783  160.0014 H   0  0  0  0  0  0  0  0  0  0  0  0
  146.6276  135.1090  158.9513 H   0  0  0  0  0  0  0  0  0  0  0  0
  146.7381  137.5625  158.9075 H   0  0  0  0  0  0  0  0  0  0  0  0
  147.8525  139.0595  158.3606 H   0  0  0  0  0  0  0  0  0  0  0  0
  151.1466  138.6080  159.8286 H   0  0  0  0  0  0  0  0  0  0  0  0
  153.0787  140.0788  159.3128 H   0  0  0  0  0  0  0  0  0  0  0  0
  152.8756  141.7178  157.4270 H   0  0  0  0  0  0  0  0  0  0  0  0
  149.5970  140.4216  154.5142 H   0  0  0  0  0  0  0  0  0  0  0  0
  148.5834  139.0539  154.9941 H   0  0  0  0  0  0  0  0  0  0  0  0
  147.5682  140.9047  153.3106 H   0  0  0  0  0  0  0  0  0  0  0  0
  146.5676  140.3261  154.6474 H   0  0  0  0  0  0  0  0  0  0  0  0
  148.2426  142.8558  154.5654 H   0  0  0  0  0  0  0  0  0  0  0  0
  146.5569  142.7157  155.0651 H   0  0  0  0  0  0  0  0  0  0  0  0
  147.1735  141.8111  157.1702 H   0  0  0  0  0  0  0  0  0  0  0  0
  148.6726  142.6945  156.8661 H   0  0  0  0  0  0  0  0  0  0  0  0
  147.2729  137.4713  161.8275 H   0  0  0  0  0  0  0  0  0  0  0  0
  146.1395  136.7539  162.9436 H   0  0  0  0  0  0  0  0  0  0  0  0
  148.8307  135.5599  162.0974 H   0  0  0  0  0  0  0  0  0  0  0  0
  148.3945  136.2078  163.6567 H   0  0  0  0  0  0  0  0  0  0  0  0
  147.7688  133.4251  161.4014 H   0  0  0  0  0  0  0  0  0  0  0  0
  146.6794  132.6732  162.5393 H   0  0  0  0  0  0  0  0  0  0  0  0
  145.0514  134.4192  162.3271 H   0  0  0  0  0  0  0  0  0  0  0  0
  145.3334  133.7485  160.7448 H   0  0  0  0  0  0  0  0  0  0  0  0
  145.2625  137.4367  160.2365 H   0  0  0  0  0  0  0  0  0  0  0  0
  1  2  1  0  0  0  0
  1 26  1  0  0  0  0
  1 27  1  0  0  0  0
  1 28  1  0  0  0  0
  2  3  1  0  0  0  0
  2  4  1  0  0  0  0
  2 55  1  0  0  0  0
  3 29  1  0  0  0  0
  3 30  1  0  0  0  0
  3 31  1  0  0  0  0
  4 25  1  0  0  0  0
  4  5  1  0  0  0  0
  4 21  1  0  0  0  0
  5  6  1  0  0  0  0
  5 32  1  0  0  0  0
  5 33  1  0  0  0  0
  6  7  1  0  0  0  0
  6 34  1  0  0  0  0
  7  8  2  0  0  0  0
  7  9  1  0  0  0  0
  9 10  1  0  0  0  0
  9 35  1  0  0  0  0
 10 15  1  0  0  0  0
 10 11  2  0  0  0  0
 11 12  1  0  0  0  0
 11 36  1  0  0  0  0
 12 13  2  0  0  0  0
 12 37  1  0  0  0  0
 13 14  1  0  0  0  0
 13 38  1  0  0  0  0
 14 15  2  0  0  0  0
 15 16  1  0  0  0  0
 16 20  1  0  0  0  0
 16 17  1  0  0  0  0
 17 18  1  0  0  0  0
 17 39  1  0  0  0  0
 17 40  1  0  0  0  0
 18 19  1  0  0  0  0
 18 41  1  0  0  0  0
 18 42  1  0  0  0  0
 19 20  1  0  0  0  0
 19 43  1  0  0  0  0
 19 44  1  0  0  0  0
 20 45  1  0  0  0  0
 20 46  1  0  0  0  0
 21 22  1  0  0  0  0
 21 47  1  0  0  0  0
 21 48  1  0  0  0  0
 22 23  1  0  0  0  0
 22 49  1  0  0  0  0
 22 50  1  0  0  0  0
 23 24  1  0  0  0  0
 24 25  1  0  0  0  0
 24 51  1  0  0  0  0
 24 52  1  0  0  0  0
 25 53  1  0  0  0  0
 25 54  1  0  0  0  0
M  CHG  1   2   1
M  END
> <s_m_source_file>
AV-unprocessed.smi

> <i_m_source_file_index>
1010

> <i_lp_mmshare_version>
43012

> <i_f3d_flags>
0

> <s_epik_input>
W0NIMl0xW0NIMl1PW0NIMl1bQ0gyXUMxKE4oW0NIM10pW0NIM10pW0NIMl1bTkhdQyg9TylbTkhdYzJbY0hdW2NIXVtjSF1uYzJOM1tDSDJdW0NIMl1bQ0gyXVtDSDJdMw==

> <s_epik_cmdline>
J2VwaWtfcHl0aG9uJywgJy1waCcsICc3LjAnLCAnLXRuJywgJzgnLCAnLW1hJywgJzIwMCcsICctbWV0YWxfYmluZGluZycsICctaW1hZScsICc8aW5maWxlLm1hZT4nLCAnLW9tYWUnLCAnPG91dGZpbGUubWFlPic=

> <r_lp_tautomer_probability>
1

> <r_epik_Ionization_Penalty>
0.0977718

> <r_epik_Ionization_Penalty_Charging>
0.0128317

> <r_epik_Ionization_Penalty_Neutral>
0.0849401

> <r_epik_State_Penalty>
0.0837778

> <r_epik_Charging_Adjusted_Penalty>
0.0966095

> <i_epik_Tot_Q>
1

> <i_epik_Tot_abs_Q>
1

> <r_epik_Metal_State_Penalty>
0.0755623

> <b_epik_Metal_Only>
0

> <s_lp_Force_Field>
OPLS_2005

> <r_lp_Energy>
58.4563

> <b_lp_Chiralities_Consistent>
1

> <s_lp_Variant>
AV-unprocessed.smi:1010-1

> <Gold.Version>
5.8.1

> <Gold.Id.Protein>
6NUR|6NUR_protein|mol2

> <Gold.PLP.Fitness>
36.1311

> <Gold.PLP.PLP>
-33.4855

> <Gold.PLP.part.hbond>
-2.7595

> <Gold.PLP.part.metal>
0.0000

> <Gold.PLP.part.buried>
-6.6567

> <Gold.PLP.part.nonpolar>
-24.0596

> <Gold.PLP.part.repulsive>
0.3866

> <Gold.PLP.ligand.clash>
0.0000

> <Gold.PLP.ligand.torsion>
0.3969

> <Gold.PLP.Chemscore.Hbond>
1.0000

> <Gold.PLP.Chemscore.CHOScore>
0.0000

> <Gold.PLP.Chemscore.Metal>
0.0000

> <Gold.Chemscore.Hbonds>
donor molecule, donor type, donor heavy atom, donor atom, acceptor molecule, acceptor atom, score
      P1  H  6896  6907       L1     8  0.62

> <Gold.PLP.Chemscore.Internal.Correction>
0.4395

> <Gold.Rescore>
     Score         DG    S(hbond)    S(metal)    S(lipo)     H(rot)  DE(clash)    DE(int)     intcor
     12.71     -14.69       0.94        0.00      86.90       1.60       0.28       1.70       ----

> <Gold.Chemscore.Fitness>
12.7073

> <Gold.Chemscore.DG>
-14.6880

> <Gold.Chemscore.ZeroCoef>
-5.4800

> <Gold.Chemscore.Hbond>
0.9418

> <Gold.Chemscore.Metal>
0.0000

> <Gold.Chemscore.Lipo>
86.8966

> <Gold.Chemscore.Internal_Hbond>
0.0000

> <Gold.Chemscore.DEClash>
0.2849

> <Gold.Chemscore.DEInternal>
1.6958

> <Gold.Chemscore.Rot>
1.6033

> <Gold.Chemscore.Internal.Correction>
   9.000000E+99

> <Gold.Chemscore.Hbonds>
donor molecule, donor type, donor heavy atom, donor atom, acceptor molecule, acceptor atom, score
      P1  H  6896  6907       L1     8  0.63

> <Gold.Chemscore.Hbond.Weighted>
-3.1457

> <Gold.Chemscore.Metal.Weighted>
-0.0000

> <Gold.Chemscore.Lipo.Weighted>
-10.1669

> <Gold.Chemscore.Internal_Hbond.Weighted>
0.0000

> <Gold.Chemscore.DEClash.Weighted>
0.2849

> <Gold.Chemscore.DEInternal.Weighted>
1.6958

> <Gold.Chemscore.Rot.Weighted>
4.1046

> <Gold.Chemscore.Internal.Correction.Weighted>
   9.000000E+99

> <Gold.Protein.RotatedTorsions>
[ 6907 6896 6895 6894 ] final  -44.28 input  -60.11 | X-H torsion
[ 7974 7965 7964 7962 ] final  151.60 input  175.53 | X-H torsion
[ 8008 7997 7996 7995 ] final  -16.14 input   59.86 | X-H torsion
[ 10167 10162 10161 10158 ] final -104.29 input  -65.29 | X-H torsion
[ 10718 10713 10712 10709 ] final   66.52 input   66.30 | X-H torsion
[ 10763 10752 10751 10750 ] final   -5.94 input  -60.55 | X-H torsion
[ 11005 11000 10999 10996 ] final   -7.20 input  -57.11 | X-H torsion

> <Gold.Protein.ActiveResidues>
 VAL166  LYS551  ARG553  GLY616  TRP617  ASP618  TYR619  PRO620  LYS621  CYS622 
 ASP623  PHE694  ASN695  SER759  ASP760  ASP761  ALA762  ILE779  LEU786  VAL792 
 PHE793  MET794  SER795  GLU796  ALA797  LYS798  CYS799  TRP800  GLU811  SER814 

> <Gold.Protein.RotatedAtoms>
  150.9346  134.8759  159.7572 H   0  0  0  0  0  0  0  0  0  0  0  0  # atno 6907 bound_to 6896
  152.5053  134.4029  159.9432 H   0  0  0  0  0  0  0  0  0  0  0  0  # atno 6908 bound_to 6896
  151.4054  133.3704  159.2772 H   0  0  0  0  0  0  0  0  0  0  0  0  # atno 6909 bound_to 6896
  144.8281  139.6559  143.6071 H   0  0  0  0  0  0  0  0  0  0  0  0  # atno 7974 bound_to 7965
  154.5076  140.2177  155.9220 H   0  0  0  0  0  0  0  0  0  0  0  0  # atno 8008 bound_to 7997
  156.1513  140.3161  155.8619 H   0  0  0  0  0  0  0  0  0  0  0  0  # atno 8009 bound_to 7997
  155.3933  140.0479  157.3030 H   0  0  0  0  0  0  0  0  0  0  0  0  # atno 8010 bound_to 7997
  140.2108  143.3748  152.1052 H   0  0  0  0  0  0  0  0  0  0  0  0  # atno 10167 bound_to 10162
  157.6174  130.9272  150.0120 H   0  0  0  0  0  0  0  0  0  0  0  0  # atno 10718 bound_to 10713
  153.4055  135.7006  153.6396 H   0  0  0  0  0  0  0  0  0  0  0  0  # atno 10763 bound_to 10752
  153.4912  135.3672  155.2493 H   0  0  0  0  0  0  0  0  0  0  0  0  # atno 10764 bound_to 10752
  154.8713  135.4089  154.3397 H   0  0  0  0  0  0  0  0  0  0  0  0  # atno 10765 bound_to 10752
  140.7102  133.8915  155.8745 H   0  0  0  0  0  0  0  0  0  0  0  0  # atno 11005 bound_to 11000
  146.2585  139.6356  142.9378 LP  0  0  0  0  0  0  0  0  0  0  0  0  # atno 17320 bound_to 7965
  145.4956  141.0438  143.2568 LP  0  0  0  0  0  0  0  0  0  0  0  0  # atno 17321 bound_to 7965
  139.5180  144.7000  151.5520 LP  0  0  0  0  0  0  0  0  0  0  0  0  # atno 17342 bound_to 10162
  140.6324  143.9049  150.6617 LP  0  0  0  0  0  0  0  0  0  0  0  0  # atno 17343 bound_to 10162
  156.1303  130.3643  149.9743 LP  0  0  0  0  0  0  0  0  0  0  0  0  # atno 17370 bound_to 10713
  156.7805  130.9219  151.3646 LP  0  0  0  0  0  0  0  0  0  0  0  0  # atno 17371 bound_to 10713
  141.0090  134.1046  157.4240 LP  0  0  0  0  0  0  0  0  0  0  0  0  # atno 17394 bound_to 11000
  139.8873  135.0089  156.6555 LP  0  0  0  0  0  0  0  0  0  0  0  0  # atno 17395 bound_to 11000

$$$$
