AV-unprocessed.smi:1962|AV-procd|sdf|7923|dock7
  -GOLD-   2272010 93D 1   1.00000     0.00000
 Structure written by MMmdl.
 36 37  0  0  0  0  0  0  0  0  1 V2000
  145.3697  136.0365  150.5775 C   0  0  0  0  0  0  0  0  0  0  0  0
  145.5545  135.8541  152.0899 C   0  0  1  0  0  0  0  0  0  0  0  0
  145.9264  134.3981  152.4400 C   0  0  0  0  0  0  0  0  0  0  0  0
  145.2516  133.4300  151.5928 N   0  0  0  0  0  0  0  0  0  0  0  0
  145.8061  132.4076  150.8522 C   0  0  0  0  0  0  0  0  0  0  0  0
  144.7838  131.7730  150.2066 C   0  0  0  0  0  0  0  0  0  0  0  0
  143.6260  132.4878  150.6228 C   0  0  0  0  0  0  0  0  0  0  0  0
  143.9085  133.4771  151.4547 N   0  0  0  0  0  0  0  0  0  0  0  0
  146.5858  136.7790  152.5576 N   0  0  0  0  0  0  0  0  0  0  0  0
  146.3819  137.8648  153.3273 C   0  0  0  0  0  0  0  0  0  0  0  0
  145.2656  138.2208  153.7058 O   0  0  0  0  0  0  0  0  0  0  0  0
  147.6010  138.6213  153.7185 C   0  0  0  0  0  0  0  0  0  0  0  0
  148.6943  137.9869  154.0068 N   0  0  0  0  0  0  0  0  0  0  0  0
  149.8517  138.6470  154.3655 N   0  0  0  0  0  0  0  0  0  0  0  0
  151.0498  137.8107  154.3988 C   0  0  0  0  0  0  0  0  0  0  0  0
  149.9181  139.9586  154.7049 C   0  0  0  0  0  0  0  0  0  0  0  0
  150.9623  140.5343  155.0107 O   0  0  0  0  0  0  0  0  0  0  0  0
  148.5929  140.7254  154.7287 C   0  0  0  0  0  0  0  0  0  0  0  0
  147.5591  140.1364  153.7484 C   0  0  0  0  0  0  0  0  0  0  0  0
  144.5847  135.3822  150.1973 H   0  0  0  0  0  0  0  0  0  0  0  0
  146.2868  135.8066  150.0340 H   0  0  0  0  0  0  0  0  0  0  0  0
  145.0874  137.0619  150.3370 H   0  0  0  0  0  0  0  0  0  0  0  0
  144.5993  136.0923  152.5611 H   0  0  0  0  0  0  0  0  0  0  0  0
  147.0003  134.2486  152.3221 H   0  0  0  0  0  0  0  0  0  0  0  0
  145.6967  134.1839  153.4853 H   0  0  0  0  0  0  0  0  0  0  0  0
  146.8703  132.2235  150.8420 H   0  0  0  0  0  0  0  0  0  0  0  0
  144.8527  130.9282  149.5376 H   0  0  0  0  0  0  0  0  0  0  0  0
  142.5955  132.3182  150.3476 H   0  0  0  0  0  0  0  0  0  0  0  0
  147.5379  136.5639  152.2982 H   0  0  0  0  0  0  0  0  0  0  0  0
  151.4620  137.7716  155.4083 H   0  0  0  0  0  0  0  0  0  0  0  0
  151.8161  138.2094  153.7323 H   0  0  0  0  0  0  0  0  0  0  0  0
  150.8431  136.7855  154.0867 H   0  0  0  0  0  0  0  0  0  0  0  0
  148.2038  140.6741  155.7464 H   0  0  0  0  0  0  0  0  0  0  0  0
  148.7648  141.7798  154.5105 H   0  0  0  0  0  0  0  0  0  0  0  0
  147.7379  140.5208  152.7437 H   0  0  0  0  0  0  0  0  0  0  0  0
  146.5690  140.4889  154.0405 H   0  0  0  0  0  0  0  0  0  0  0  0
  1  2  1  0  0  0  0
  1 20  1  0  0  0  0
  1 21  1  0  0  0  0
  1 22  1  0  0  0  0
  2  3  1  0  0  0  0
  2  9  1  0  0  0  0
  2 23  1  0  0  0  0
  3  4  1  0  0  0  0
  3 24  1  0  0  0  0
  3 25  1  0  0  0  0
  4  8  1  0  0  0  0
  4  5  1  0  0  0  0
  5  6  2  0  0  0  0
  5 26  1  0  0  0  0
  6  7  1  0  0  0  0
  6 27  1  0  0  0  0
  7  8  2  0  0  0  0
  7 28  1  0  0  0  0
  9 10  1  0  0  0  0
  9 29  1  0  0  0  0
 10 11  2  0  0  0  0
 10 12  1  0  0  0  0
 12 19  1  0  0  0  0
 12 13  2  0  0  0  0
 13 14  1  0  0  0  0
 14 15  1  0  0  0  0
 14 16  1  0  0  0  0
 15 30  1  0  0  0  0
 15 31  1  0  0  0  0
 15 32  1  0  0  0  0
 16 17  2  0  0  0  0
 16 18  1  0  0  0  0
 18 19  1  0  0  0  0
 18 33  1  0  0  0  0
 18 34  1  0  0  0  0
 19 35  1  0  0  0  0
 19 36  1  0  0  0  0
M  END
> <s_m_source_file>
AV-unprocessed.smi

> <i_m_source_file_index>
1962

> <i_lp_mmshare_version>
43012

> <i_f3d_flags>
0

> <s_epik_input>
bjFbY0hdW2NIXVtjSF1uMVtDSDJdW0NAQEhdKFtDSDNdKVtOSF1DKD1PKUMyPU5OKFtDSDNdKUMoPU8pW0NIMl1bQ0gyXTI=

> <s_epik_cmdline>
J2VwaWtfcHl0aG9uJywgJy1waCcsICc3LjAnLCAnLXRuJywgJzgnLCAnLW1hJywgJzIwMCcsICctbWV0YWxfYmluZGluZycsICctaW1hZScsICc8aW5maWxlLm1hZT4nLCAnLW9tYWUnLCAnPG91dGZpbGUubWFlPic=

> <r_lp_tautomer_probability>
1

> <r_epik_Ionization_Penalty>
9.43868e-05

> <r_epik_Ionization_Penalty_Charging>
0

> <r_epik_Ionization_Penalty_Neutral>
9.43868e-05

> <r_epik_State_Penalty>
-0

> <r_epik_Charging_Adjusted_Penalty>
0

> <i_epik_Tot_Q>
0

> <i_epik_Tot_abs_Q>
0

> <r_epik_Metal_State_Penalty>
0.0732556

> <b_epik_Metal_Only>
0

> <s_epik_Chemistry_Notes>
This compound has an imine and may undergo hydrolysis.

> <s_lp_Force_Field>
OPLS_2005

> <r_lp_Energy>
16.0721

> <b_lp_Chiralities_Consistent>
1

> <s_lp_Variant>
AV-unprocessed.smi:1962-2

> <Gold.Version>
5.8.1

> <Gold.Id.Protein>
6NUR|6NUR_protein|mol2

> <Gold.PLP.Fitness>
39.5980

> <Gold.PLP.PLP>
-30.1630

> <Gold.PLP.part.hbond>
-2.0000

> <Gold.PLP.part.metal>
0.0000

> <Gold.PLP.part.buried>
-3.8586

> <Gold.PLP.part.nonpolar>
-29.0973

> <Gold.PLP.part.repulsive>
4.0597

> <Gold.PLP.ligand.clash>
0.0000

> <Gold.PLP.ligand.torsion>
0.9573

> <Gold.PLP.Chemscore.Hbond>
2.0000

> <Gold.PLP.Chemscore.CHOScore>
1.7763

> <Gold.PLP.Chemscore.Metal>
0.0000

> <Gold.Chemscore.Hbonds>
donor molecule, donor type, donor heavy atom, donor atom, acceptor molecule, acceptor atom, score
      L1  H     9    29       P1  7948  0.94
      P1  H  7989  7998       L1    17  1.00
      L1  C     5    26       P1 10747  0.90
      L1  C     7    28       P1 10186  0.38
      L1  C     7    28       P1 10952  0.44

> <Gold.PLP.Chemscore.Internal.Correction>
0.0208

> <Gold.Rescore>
     Score         DG    S(hbond)    S(metal)    S(lipo)     H(rot)  DE(clash)    DE(int)     intcor
     13.28     -15.70       1.73        0.00      71.19       1.53       1.49       0.92       ----

> <Gold.Chemscore.Fitness>
13.2825

> <Gold.Chemscore.DG>
-15.6950

> <Gold.Chemscore.ZeroCoef>
-5.4800

> <Gold.Chemscore.Hbond>
1.7338

> <Gold.Chemscore.Metal>
0.0000

> <Gold.Chemscore.Lipo>
71.1907

> <Gold.Chemscore.Internal_Hbond>
0.0000

> <Gold.Chemscore.DEClash>
1.4910

> <Gold.Chemscore.DEInternal>
0.9215

> <Gold.Chemscore.Rot>
1.5254

> <Gold.Chemscore.Internal.Correction>
   9.000000E+99

> <Gold.Chemscore.Hbonds>
donor molecule, donor type, donor heavy atom, donor atom, acceptor molecule, acceptor atom, score
      L1  H     9    29       P1  7948  0.90
      P1  H  7989  7998       L1    17  0.37

> <Gold.Chemscore.Hbond.Weighted>
-5.7908

> <Gold.Chemscore.Metal.Weighted>
-0.0000

> <Gold.Chemscore.Lipo.Weighted>
-8.3293

> <Gold.Chemscore.Internal_Hbond.Weighted>
0.0000

> <Gold.Chemscore.DEClash.Weighted>
1.4910

> <Gold.Chemscore.DEInternal.Weighted>
0.9215

> <Gold.Chemscore.Rot.Weighted>
3.9051

> <Gold.Chemscore.Internal.Correction.Weighted>
   9.000000E+99

> <Gold.Protein.RotatedTorsions>
[ 6907 6896 6895 6894 ] final    6.95 input  -60.11 | X-H torsion
[ 7974 7965 7964 7962 ] final    2.13 input  175.53 | X-H torsion
[ 8008 7997 7996 7995 ] final   63.15 input   59.86 | X-H torsion
[ 10167 10162 10161 10158 ] final -121.97 input  -65.29 | X-H torsion
[ 10718 10713 10712 10709 ] final   86.81 input   66.30 | X-H torsion
[ 10763 10752 10751 10750 ] final   34.00 input  -60.55 | X-H torsion
[ 11005 11000 10999 10996 ] final  -63.42 input  -57.11 | X-H torsion

> <Gold.Protein.ActiveResidues>
 VAL166  LYS551  ARG553  GLY616  TRP617  ASP618  TYR619  PRO620  LYS621  CYS622 
 ASP623  PHE694  ASN695  SER759  ASP760  ASP761  ALA762  ILE779  LEU786  VAL792 
 PHE793  MET794  SER795  GLU796  ALA797  LYS798  CYS799  TRP800  GLU811  SER814 

> <Gold.Protein.RotatedAtoms>
  151.6820  135.0960  160.0217 H   0  0  0  0  0  0  0  0  0  0  0  0  # atno 6907 bound_to 6896
  152.3830  133.6568  159.6185 H   0  0  0  0  0  0  0  0  0  0  0  0  # atno 6908 bound_to 6896
  150.7762  133.8999  159.3379 H   0  0  0  0  0  0  0  0  0  0  0  0  # atno 6909 bound_to 6896
  146.2443  140.0882  142.8353 H   0  0  0  0  0  0  0  0  0  0  0  0  # atno 7974 bound_to 7965
  155.6256  140.3496  155.4666 H   0  0  0  0  0  0  0  0  0  0  0  0  # atno 8008 bound_to 7997
  156.0044  140.1220  157.0540 H   0  0  0  0  0  0  0  0  0  0  0  0  # atno 8009 bound_to 7997
  154.4259  140.1094  156.5728 H   0  0  0  0  0  0  0  0  0  0  0  0  # atno 8010 bound_to 7997
  140.0193  143.5361  152.2228 H   0  0  0  0  0  0  0  0  0  0  0  0  # atno 10167 bound_to 10162
  157.6933  131.0230  150.3028 H   0  0  0  0  0  0  0  0  0  0  0  0  # atno 10718 bound_to 10713
  153.0185  135.6372  154.1599 H   0  0  0  0  0  0  0  0  0  0  0  0  # atno 10763 bound_to 10752
  154.1336  135.2839  155.3180 H   0  0  0  0  0  0  0  0  0  0  0  0  # atno 10764 bound_to 10752
  154.6176  135.5535  153.7602 H   0  0  0  0  0  0  0  0  0  0  0  0  # atno 10765 bound_to 10752
  141.1392  133.6652  156.5678 H   0  0  0  0  0  0  0  0  0  0  0  0  # atno 11005 bound_to 11000
  145.0673  140.9130  143.4903 LP  0  0  0  0  0  0  0  0  0  0  0  0  # atno 17320 bound_to 7965
  145.1009  139.2823  143.5686 LP  0  0  0  0  0  0  0  0  0  0  0  0  # atno 17321 bound_to 7965
  139.6151  144.7617  151.2864 LP  0  0  0  0  0  0  0  0  0  0  0  0  # atno 17342 bound_to 10162
  140.7349  143.6752  150.8048 LP  0  0  0  0  0  0  0  0  0  0  0  0  # atno 17343 bound_to 10162
  156.3542  130.3836  149.7304 LP  0  0  0  0  0  0  0  0  0  0  0  0  # atno 17370 bound_to 10713
  156.4772  130.8024  151.3040 LP  0  0  0  0  0  0  0  0  0  0  0  0  # atno 17371 bound_to 10713
  140.3937  134.7417  157.4737 LP  0  0  0  0  0  0  0  0  0  0  0  0  # atno 17394 bound_to 11000
  140.0547  134.6081  155.8819 LP  0  0  0  0  0  0  0  0  0  0  0  0  # atno 17395 bound_to 11000

$$$$
