#       Name:                AV-unprocessed.smi:3085
#       Creating user name   scv26
#       Creation time:       Fri Mar 27 17:14:46 2020


#       File generated by GOLD software.
#

@<TRIPOS>MOLECULE
AV-unprocessed.smi:3085
    32    33     1
SMALL
NO_CHARGES


@<TRIPOS>ATOM
      1 ****        -3.9269   0.9254   1.6612 C.3            1 S1                 0.0000
      2 ****        -3.4038  -0.5132   1.5946 C.3            1 S1                 0.0000
      3 ****        -1.8927  -0.5682   1.5465 C.2            1 S1                 0.0000
      4 ****        -1.1480  -0.5204   0.4468 N.2            1 S1                 0.0000
      5 ****         0.1256  -0.5707   0.8648 C.2            1 S1                 0.0000
      6 ****         1.3390  -0.5172  -0.0424 C.3            1 S1                 0.0000
      7 ****         1.7750   0.9396  -0.3004 C.3            1 S1                 0.0000
      8 ****         2.9409   0.9815  -1.1832 N.3            1 S1                 0.0000
      9 ****         2.6907   0.2551  -2.4260 C.3            1 S1                 0.0000
     10 ****         2.2364  -1.1825  -2.1213 C.3            1 S1                 0.0000
     11 ****         1.0788  -1.1486  -1.2947 O.3            1 S1                 0.0000
     12 ****         0.1822  -0.6194   2.2049 N.2            1 S1                 0.0000
     13 ****        -1.0715  -0.6175   2.6102 N.pl3          1 S1                -1.0000
     14 ****        -5.0163   0.9428   1.6886 H              1 S1                 0.0000
     15 ****        -3.6049   1.4988   0.7916 H              1 S1                 0.0000
     16 ****        -3.5612   1.4348   2.5531 H              1 S1                 0.0000
     17 ****        -3.7496  -1.0774   2.4614 H              1 S1                 0.0000
     18 ****        -3.8028  -1.0150   0.7124 H              1 S1                 0.0000
     19 ****         2.1425  -1.0572   0.4627 H              1 S1                 0.0000
     20 ****         0.9503   1.4951  -0.7491 H              1 S1                 0.0000
     21 ****         2.0074   1.4335   0.6433 H              1 S1                 0.0000
     22 ****         3.1704   1.9473  -1.3940 H              1 S1                 0.0000
     23 ****         1.9222   0.7666  -3.0065 H              1 S1                 0.0000
     24 ****         3.5915   0.2419  -3.0397 H              1 S1                 0.0000
     25 ****         1.9924  -1.7024  -3.0477 H              1 S1                 0.0000
     26 ****         3.0313  -1.7517  -1.6366 H              1 S1                 0.0000
     27 ****        -1.4706  -0.4595  -0.4978 LP             1 S1                 0.0000
     28 ****         3.7067   0.5419  -0.7137 LP             1 S1                 0.0000
     29 ****         0.3578  -0.6429  -1.7684 LP             1 S1                 0.0000
     30 ****         0.7735  -2.0860  -1.1271 LP             1 S1                 0.0000
     31 ****         1.0029  -0.6506   2.7754 LP             1 S1                 0.0000
     32 ****        -1.3676  -0.6481   3.5648 LP             1 S1                 0.0000
@<TRIPOS>BOND
    1    1    2 1     
    2    1   14 1     
    3    1   15 1     
    4    1   16 1     
    5    2    3 1     
    6    2   17 1     
    7    2   18 1     
    8    3   13 1     
    9    3    4 2     
   10    4    5 1     
   11    5    6 1     
   12    5   12 2     
   13    6   11 1     
   14    6    7 1     
   15    6   19 1     
   16    7    8 1     
   17    7   20 1     
   18    7   21 1     
   19    8    9 1     
   20    8   22 1     
   21    9   10 1     
   22    9   23 1     
   23    9   24 1     
   24   10   11 1     
   25   10   25 1     
   26   10   26 1     
   27   12   13 1     
   28    4   27 1     
   29    8   28 1     
   30   11   29 1     
   31   11   30 1     
   32   12   31 1     
   33   13   32 1     
@<TRIPOS>SUBSTRUCTURE
      1 S1             1
@<TRIPOS>SET
LONE_PAIRS      STATIC     ATOMS    <user>   **** ""
6 27 28 29 30 31 32
DONOR_HYDROGENS      STATIC     ATOMS    <user>   **** ""
1 22
ATOM$BLUE        STATIC     ATOMS    COLORGROUP SYSTEM
6 27 28 29 30 31 32
ATOM$RED        STATIC     ATOMS    COLORGROUP SYSTEM
1 22
