AV-unprocessed.smi:2032|AV-procd|sdf|8258|dock5
  -GOLD-   2272010533D 1   1.00000     0.00000
 Structure written by MMmdl.
 42 43  0  0  0  0  0  0  0  0  3 V2000
  146.5590  134.1232  151.1649 C   0  0  0  0  0  0  0  0  0  0  0  0
  146.3536  133.5011  152.5578 C   0  0  1  0  0  0  0  0  0  0  0  0
  147.6732  133.1719  153.2853 C   0  0  0  0  0  0  0  0  0  0  0  0
  148.3405  134.4010  153.7948 N   0  3  2  0  0  0  0  0  0  0  0  0
  149.6604  134.1989  154.4753 C   0  0  1  0  0  0  0  0  0  0  0  0
  150.4464  135.5102  154.7181 C   0  0  0  0  0  0  0  0  0  0  0  0
  149.4522  133.4440  155.8141 C   0  0  0  0  0  0  0  0  0  0  0  0
  149.3846  134.3381  156.9657 N   0  0  0  0  0  0  0  0  0  0  0  0
  148.5316  134.2221  157.9932 C   0  0  0  0  0  0  0  0  0  0  0  0
  147.7020  133.3095  158.0024 O   0  0  0  0  0  0  0  0  0  0  0  0
  148.6988  135.1653  158.9468 N   0  5  0  0  0  0  0  0  0  0  0  0
  148.0282  135.0737  160.1068 C   0  0  0  0  0  0  0  0  0  0  0  0
  147.4688  133.9376  160.5380 N   0  0  0  0  0  0  0  0  0  0  0  0
  146.8168  134.0707  161.7651 C   0  0  0  0  0  0  0  0  0  0  0  0
  146.8738  135.3402  162.2761 C   0  0  0  0  0  0  0  0  0  0  0  0
  147.7535  136.4128  161.2248 S   0  0  0  0  0  0  0  0  0  0  0  0
  147.3837  135.1666  154.6364 C   0  0  0  0  0  0  0  0  0  0  0  0
  146.1064  135.5049  153.8494 C   0  0  2  0  0  0  0  0  0  0  0  0
  145.0742  136.2353  154.7159 C   0  0  0  0  0  0  0  0  0  0  0  0
  145.5096  134.2994  153.3844 O   0  0  0  0  0  0  0  0  0  0  0  0
  147.0820  133.4298  150.5057 H   0  0  0  0  0  0  0  0  0  0  0  0
  147.1485  135.0389  151.2023 H   0  0  0  0  0  0  0  0  0  0  0  0
  145.6019  134.3593  150.6995 H   0  0  0  0  0  0  0  0  0  0  0  0
  145.8194  132.5629  152.4043 H   0  0  0  0  0  0  0  0  0  0  0  0
  147.4751  132.5020  154.1236 H   0  0  0  0  0  0  0  0  0  0  0  0
  148.3134  132.6340  152.5867 H   0  0  0  0  0  0  0  0  0  0  0  0
  150.2771  133.5870  153.8152 H   0  0  0  0  0  0  0  0  0  0  0  0
  151.3899  135.3238  155.2310 H   0  0  0  0  0  0  0  0  0  0  0  0
  149.8770  136.2106  155.3300 H   0  0  0  0  0  0  0  0  0  0  0  0
  150.7129  136.0061  153.7846 H   0  0  0  0  0  0  0  0  0  0  0  0
  148.5196  132.8803  155.7761 H   0  0  0  0  0  0  0  0  0  0  0  0
  150.2367  132.7108  155.9986 H   0  0  0  0  0  0  0  0  0  0  0  0
  150.0441  135.1021  156.9946 H   0  0  0  0  0  0  0  0  0  0  0  0
  146.3371  133.2078  162.2023 H   0  0  0  0  0  0  0  0  0  0  0  0
  146.4541  135.7084  163.1999 H   0  0  0  0  0  0  0  0  0  0  0  0
  147.1334  134.5812  155.5231 H   0  0  0  0  0  0  0  0  0  0  0  0
  147.8316  136.0929  154.9926 H   0  0  0  0  0  0  0  0  0  0  0  0
  146.3537  136.1485  153.0051 H   0  0  0  0  0  0  0  0  0  0  0  0
  145.4767  137.1731  155.0996 H   0  0  0  0  0  0  0  0  0  0  0  0
  144.7725  135.6268  155.5689 H   0  0  0  0  0  0  0  0  0  0  0  0
  144.1781  136.4698  154.1406 H   0  0  0  0  0  0  0  0  0  0  0  0
  148.5335  134.9654  152.9799 H   0  0  0  0  0  0  0  0  0  0  0  0
  1  2  1  0  0  0  0
  1 21  1  0  0  0  0
  1 22  1  0  0  0  0
  1 23  1  0  0  0  0
  2 20  1  0  0  0  0
  2  3  1  0  0  0  0
  2 24  1  0  0  0  0
  3  4  1  0  0  0  0
  3 25  1  0  0  0  0
  3 26  1  0  0  0  0
  4  5  1  0  0  0  0
  4 17  1  0  0  0  0
  4 42  1  0  0  0  0
  5  6  1  0  0  0  0
  5  7  1  0  0  0  0
  5 27  1  0  0  0  0
  6 28  1  0  0  0  0
  6 29  1  0  0  0  0
  6 30  1  0  0  0  0
  7  8  1  0  0  0  0
  7 31  1  0  0  0  0
  7 32  1  0  0  0  0
  8  9  1  0  0  0  0
  8 33  1  0  0  0  0
  9 10  2  0  0  0  0
  9 11  1  0  0  0  0
 11 12  1  0  0  0  0
 12 16  1  0  0  0  0
 12 13  2  0  0  0  0
 13 14  1  0  0  0  0
 14 15  2  0  0  0  0
 14 34  1  0  0  0  0
 15 16  1  0  0  0  0
 15 35  1  0  0  0  0
 17 18  1  0  0  0  0
 17 36  1  0  0  0  0
 17 37  1  0  0  0  0
 18 19  1  0  0  0  0
 18 20  1  0  0  0  0
 18 38  1  0  0  0  0
 19 39  1  0  0  0  0
 19 40  1  0  0  0  0
 19 41  1  0  0  0  0
M  CHG  1   4   1
M  CHG  1  11  -1
M  END
> <s_m_source_file>
AV-unprocessed.smi

> <i_m_source_file_index>
2032

> <i_lp_mmshare_version>
43012

> <i_f3d_flags>
0

> <s_epik_input>
W0NIM11bQ0BASF0xW0NIMl1OKFtDSDJdW0NASF0oTzEpW0NIM10pW0NASF0oW0NIM10pW0NIMl1bTkhdQyg9TylbTkhdYzJuW2NIXVtjSF1zMg==

> <s_epik_cmdline>
J2VwaWtfcHl0aG9uJywgJy1waCcsICc3LjAnLCAnLXRuJywgJzgnLCAnLW1hJywgJzIwMCcsICctbWV0YWxfYmluZGluZycsICctaW1hZScsICc8aW5maWxlLm1hZT4nLCAnLW9tYWUnLCAnPG91dGZpbGUubWFlPic=

> <r_lp_tautomer_probability>
0.999

> <r_epik_Ionization_Penalty>
6.71699

> <r_epik_Ionization_Penalty_Charging>
5.88592

> <r_epik_Ionization_Penalty_Neutral>
0.831074

> <r_epik_State_Penalty>
6.08365

> <r_epik_Charging_Adjusted_Penalty>
11.9696

> <i_epik_Tot_Q>
0

> <i_epik_Tot_abs_Q>
2

> <r_epik_Metal_State_Penalty>
2.0947

> <b_epik_Metal_Only>
1

> <s_lp_Force_Field>
OPLS_2005

> <r_lp_Energy>
13.797

> <b_lp_Chiralities_Consistent>
1

> <s_lp_Variant>
AV-unprocessed.smi:2032-28

> <Gold.Version>
5.8.1

> <Gold.Id.Protein>
6NUR|6NUR_protein|mol2

> <Gold.PLP.Fitness>
38.0878

> <Gold.PLP.PLP>
-27.5389

> <Gold.PLP.part.hbond>
-2.0000

> <Gold.PLP.part.metal>
0.0000

> <Gold.PLP.part.buried>
-3.3978

> <Gold.PLP.part.nonpolar>
-21.9496

> <Gold.PLP.part.repulsive>
0.1643

> <Gold.PLP.ligand.clash>
0.0624

> <Gold.PLP.ligand.torsion>
0.7285

> <Gold.PLP.Chemscore.Hbond>
4.0000

> <Gold.PLP.Chemscore.CHOScore>
0.0000

> <Gold.PLP.Chemscore.Metal>
0.0000

> <Gold.Chemscore.Hbonds>
donor molecule, donor type, donor heavy atom, donor atom, acceptor molecule, acceptor atom, score
      L1  H     4    42       P1  7948  2.00
      P1  H  6896  6908       L1    11  1.17

> <Gold.PLP.Chemscore.Internal.Correction>
0.0684

> <Gold.Rescore>
     Score         DG    S(hbond)    S(metal)    S(lipo)     H(rot)  DE(clash)    DE(int)     intcor
      9.78     -12.16       1.15        0.00      58.76       1.58       0.01       2.37       ----

> <Gold.Chemscore.Fitness>
9.7751

> <Gold.Chemscore.DG>
-12.1596

> <Gold.Chemscore.ZeroCoef>
-5.4800

> <Gold.Chemscore.Hbond>
1.1519

> <Gold.Chemscore.Metal>
0.0000

> <Gold.Chemscore.Lipo>
58.7593

> <Gold.Chemscore.Internal_Hbond>
0.0000

> <Gold.Chemscore.DEClash>
0.0106

> <Gold.Chemscore.DEInternal>
2.3739

> <Gold.Chemscore.Rot>
1.5791

> <Gold.Chemscore.Internal.Correction>
   9.000000E+99

> <Gold.Chemscore.Hbonds>
donor molecule, donor type, donor heavy atom, donor atom, acceptor molecule, acceptor atom, score
      L1  H     4    42       P1  7948  0.60
      P1  H  6896  6908       L1    11  0.03

> <Gold.Chemscore.Hbond.Weighted>
-3.8473

> <Gold.Chemscore.Metal.Weighted>
-0.0000

> <Gold.Chemscore.Lipo.Weighted>
-6.8748

> <Gold.Chemscore.Internal_Hbond.Weighted>
0.0000

> <Gold.Chemscore.DEClash.Weighted>
0.0106

> <Gold.Chemscore.DEInternal.Weighted>
2.3739

> <Gold.Chemscore.Rot.Weighted>
4.0425

> <Gold.Chemscore.Internal.Correction.Weighted>
   9.000000E+99

> <Gold.Protein.RotatedTorsions>
[ 6907 6896 6895 6894 ] final  167.57 input  -60.11 | X-H torsion
[ 7974 7965 7964 7962 ] final -122.75 input  175.53 | X-H torsion
[ 8008 7997 7996 7995 ] final   60.08 input   59.86 | X-H torsion
[ 10167 10162 10161 10158 ] final   98.23 input  -65.29 | X-H torsion
[ 10718 10713 10712 10709 ] final   64.38 input   66.30 | X-H torsion
[ 10763 10752 10751 10750 ] final  -55.44 input  -60.55 | X-H torsion
[ 11005 11000 10999 10996 ] final  135.41 input  -57.11 | X-H torsion

> <Gold.Protein.ActiveResidues>
 VAL166  LYS551  ARG553  GLY616  TRP617  ASP618  TYR619  PRO620  LYS621  CYS622 
 ASP623  PHE694  ASN695  SER759  ASP760  ASP761  ALA762  ILE779  LEU786  VAL792 
 PHE793  MET794  SER795  GLU796  ALA797  LYS798  CYS799  TRP800  GLU811  SER814 

> <Gold.Protein.RotatedAtoms>
  151.8612  133.3457  159.3704 H   0  0  0  0  0  0  0  0  0  0  0  0  # atno 6907 bound_to 6896
  150.7178  134.5204  159.5660 H   0  0  0  0  0  0  0  0  0  0  0  0  # atno 6908 bound_to 6896
  152.2718  134.7925  160.0464 H   0  0  0  0  0  0  0  0  0  0  0  0  # atno 6909 bound_to 6896
  145.0261  140.8029  143.4352 H   0  0  0  0  0  0  0  0  0  0  0  0  # atno 7974 bound_to 7965
  155.5765  140.3491  155.4529 H   0  0  0  0  0  0  0  0  0  0  0  0  # atno 8008 bound_to 7997
  156.0405  140.1295  157.0186 H   0  0  0  0  0  0  0  0  0  0  0  0  # atno 8009 bound_to 7997
  154.4390  140.1025  156.6216 H   0  0  0  0  0  0  0  0  0  0  0  0  # atno 8010 bound_to 7997
  139.7727  144.6916  151.0132 H   0  0  0  0  0  0  0  0  0  0  0  0  # atno 10167 bound_to 10162
  157.6035  130.9156  149.9838 H   0  0  0  0  0  0  0  0  0  0  0  0  # atno 10718 bound_to 10713
  154.1908  135.6427  153.5059 H   0  0  0  0  0  0  0  0  0  0  0  0  # atno 10763 bound_to 10752
  153.0035  135.5428  154.6417 H   0  0  0  0  0  0  0  0  0  0  0  0  # atno 10764 bound_to 10752
  154.5805  135.2925  155.0710 H   0  0  0  0  0  0  0  0  0  0  0  0  # atno 10765 bound_to 10752
  139.9978  134.9490  157.0003 H   0  0  0  0  0  0  0  0  0  0  0  0  # atno 11005 bound_to 11000
  145.1832  139.2340  143.5281 LP  0  0  0  0  0  0  0  0  0  0  0  0  # atno 17320 bound_to 7965
  146.3492  140.1611  142.8591 LP  0  0  0  0  0  0  0  0  0  0  0  0  # atno 17321 bound_to 7965
  140.7815  143.4570  151.0332 LP  0  0  0  0  0  0  0  0  0  0  0  0  # atno 17342 bound_to 10162
  139.8253  143.7764  152.3178 LP  0  0  0  0  0  0  0  0  0  0  0  0  # atno 17343 bound_to 10162
  156.1115  130.3650  150.0041 LP  0  0  0  0  0  0  0  0  0  0  0  0  # atno 17370 bound_to 10713
  156.8139  130.9334  151.3643 LP  0  0  0  0  0  0  0  0  0  0  0  0  # atno 17371 bound_to 10713
  140.4785  134.1313  155.7213 LP  0  0  0  0  0  0  0  0  0  0  0  0  # atno 17394 bound_to 11000
  141.1618  133.8778  157.1826 LP  0  0  0  0  0  0  0  0  0  0  0  0  # atno 17395 bound_to 11000

$$$$
