AV-unprocessed.smi:1253|AV-procd|sdf|5268|dock2
  -GOLD-   22720 4383D 1   1.00000     0.00000
 Structure written by MMmdl.
 31 32  0  0  0  0  0  0  0  0  1 V2000
  153.7425  141.7199  160.7734 C   0  0  0  0  0  0  0  0  0  0  0  0
  152.8181  142.3685  159.7860 C   0  0  0  0  0  0  0  0  0  0  0  0
  152.1342  141.7600  158.6935 C   0  0  0  0  0  0  0  0  0  0  0  0
  151.4457  142.8087  158.1475 C   0  0  0  0  0  0  0  0  0  0  0  0
  150.6158  142.8197  157.0706 N   0  0  0  0  0  0  0  0  0  0  0  0
  150.3331  141.8200  156.2171 C   0  0  0  0  0  0  0  0  0  0  0  0
  150.7966  140.6806  156.2723 O   0  0  0  0  0  0  0  0  0  0  0  0
  149.4669  142.2190  155.2750 N   0  0  0  0  0  0  0  0  0  0  0  0
  148.9641  141.3811  154.1939 C   0  0  0  0  0  0  0  0  0  0  0  0
  147.4529  141.3354  154.0699 C   0  0  0  0  0  0  0  0  0  0  0  0
  146.6406  142.6046  153.9616 C   0  0  0  0  0  0  0  0  0  0  0  0
  146.5776  141.7728  155.2204 C   0  0  0  0  0  0  0  0  0  0  0  0
  151.7149  143.9455  158.8768 N   0  0  0  0  0  0  0  0  0  0  0  0
  151.2255  145.2972  158.6887 C   0  0  0  0  0  0  0  0  0  0  0  0
  152.5643  143.6683  159.8897 N   0  0  0  0  0  0  0  0  0  0  0  0
  153.9061  140.6702  160.5289 H   0  0  0  0  0  0  0  0  0  0  0  0
  153.3326  141.7655  161.7826 H   0  0  0  0  0  0  0  0  0  0  0  0
  154.7148  142.2127  160.7841 H   0  0  0  0  0  0  0  0  0  0  0  0
  152.1597  140.7268  158.3818 H   0  0  0  0  0  0  0  0  0  0  0  0
  150.1544  143.6996  156.8929 H   0  0  0  0  0  0  0  0  0  0  0  0
  149.1352  143.1721  155.3034 H   0  0  0  0  0  0  0  0  0  0  0  0
  149.3815  141.7210  153.2447 H   0  0  0  0  0  0  0  0  0  0  0  0
  149.3422  140.3697  154.3467 H   0  0  0  0  0  0  0  0  0  0  0  0
  147.0841  140.4796  153.5071 H   0  0  0  0  0  0  0  0  0  0  0  0
  147.1713  143.5533  154.0127 H   0  0  0  0  0  0  0  0  0  0  0  0
  145.7736  142.5900  153.3043 H   0  0  0  0  0  0  0  0  0  0  0  0
  145.6680  141.2044  155.4031 H   0  0  0  0  0  0  0  0  0  0  0  0
  147.0659  142.1694  156.1084 H   0  0  0  0  0  0  0  0  0  0  0  0
  150.1359  145.3012  158.7291 H   0  0  0  0  0  0  0  0  0  0  0  0
  151.5480  145.6706  157.7164 H   0  0  0  0  0  0  0  0  0  0  0  0
  151.6104  145.9577  159.4671 H   0  0  0  0  0  0  0  0  0  0  0  0
  1  2  1  0  0  0  0
  1 16  1  0  0  0  0
  1 17  1  0  0  0  0
  1 18  1  0  0  0  0
  2 15  2  0  0  0  0
  2  3  1  0  0  0  0
  3  4  2  0  0  0  0
  3 19  1  0  0  0  0
  4  5  1  0  0  0  0
  4 13  1  0  0  0  0
  5  6  1  0  0  0  0
  5 20  1  0  0  0  0
  6  7  2  0  0  0  0
  6  8  1  0  0  0  0
  8  9  1  0  0  0  0
  8 21  1  0  0  0  0
  9 10  1  0  0  0  0
  9 22  1  0  0  0  0
  9 23  1  0  0  0  0
 10 12  1  0  0  0  0
 10 11  1  0  0  0  0
 10 24  1  0  0  0  0
 11 12  1  0  0  0  0
 11 25  1  0  0  0  0
 11 26  1  0  0  0  0
 12 27  1  0  0  0  0
 12 28  1  0  0  0  0
 13 14  1  0  0  0  0
 13 15  1  0  0  0  0
 14 29  1  0  0  0  0
 14 30  1  0  0  0  0
 14 31  1  0  0  0  0
M  END
> <s_m_source_file>
AV-unprocessed.smi

> <i_m_source_file_index>
1253

> <i_lp_mmshare_version>
43012

> <i_f3d_flags>
0

> <s_epik_input>
W0NIM11jMVtjSF1jKG4objEpW0NIM10pW05IXUMoPU8pW05IXVtDSDJdW0NIXTJbQ0gyXVtDSDJdMg==

> <s_epik_cmdline>
J2VwaWtfcHl0aG9uJywgJy1waCcsICc3LjAnLCAnLXRuJywgJzgnLCAnLW1hJywgJzIwMCcsICctbWV0YWxfYmluZGluZycsICctaW1hZScsICc8aW5maWxlLm1hZT4nLCAnLW9tYWUnLCAnPG91dGZpbGUubWFlPic=

> <r_lp_tautomer_probability>
1

> <r_epik_Ionization_Penalty>
9.92667e-05

> <r_epik_Ionization_Penalty_Charging>
0

> <r_epik_Ionization_Penalty_Neutral>
9.92667e-05

> <r_epik_State_Penalty>
-0

> <r_epik_Charging_Adjusted_Penalty>
0

> <i_epik_Tot_Q>
0

> <i_epik_Tot_abs_Q>
0

> <r_epik_Metal_State_Penalty>
-0

> <b_epik_Metal_Only>
0

> <s_lp_Force_Field>
OPLS_2005

> <r_lp_Energy>
13.2565

> <b_lp_Chiralities_Consistent>
1

> <s_lp_Variant>
AV-unprocessed.smi:1253-1

> <Gold.Version>
5.8.1

> <Gold.Id.Protein>
6NUR|6NUR_protein|mol2

> <Gold.PLP.Fitness>
42.5671

> <Gold.PLP.PLP>
-36.8796

> <Gold.PLP.part.hbond>
-2.0000

> <Gold.PLP.part.metal>
0.0000

> <Gold.PLP.part.buried>
-5.0229

> <Gold.PLP.part.nonpolar>
-30.0139

> <Gold.PLP.part.repulsive>
0.2467

> <Gold.PLP.ligand.clash>
0.0000

> <Gold.PLP.ligand.torsion>
0.3429

> <Gold.PLP.Chemscore.Hbond>
1.9440

> <Gold.PLP.Chemscore.CHOScore>
0.0000

> <Gold.PLP.Chemscore.Metal>
0.0000

> <Gold.Chemscore.Hbonds>
donor molecule, donor type, donor heavy atom, donor atom, acceptor molecule, acceptor atom, score
      L1  H     5    20       P1  8028  0.93
      L1  H     8    21       P1  8028  1.00

> <Gold.PLP.Chemscore.Internal.Correction>
0.5412

> <Gold.Rescore>
     Score         DG    S(hbond)    S(metal)    S(lipo)     H(rot)  DE(clash)    DE(int)     intcor
     15.42     -17.06       1.97        0.00      69.16       1.21       0.09       1.54       ----

> <Gold.Chemscore.Fitness>
15.4232

> <Gold.Chemscore.DG>
-17.0578

> <Gold.Chemscore.ZeroCoef>
-5.4800

> <Gold.Chemscore.Hbond>
1.9714

> <Gold.Chemscore.Metal>
0.0000

> <Gold.Chemscore.Lipo>
69.1616

> <Gold.Chemscore.Internal_Hbond>
0.0000

> <Gold.Chemscore.DEClash>
0.0901

> <Gold.Chemscore.DEInternal>
1.5445

> <Gold.Chemscore.Rot>
1.2103

> <Gold.Chemscore.Internal.Correction>
   9.000000E+99

> <Gold.Chemscore.Hbonds>
donor molecule, donor type, donor heavy atom, donor atom, acceptor molecule, acceptor atom, score
      L1  H     5    20       P1  8028  0.85
      L1  H     8    21       P1  8028  0.99

> <Gold.Chemscore.Hbond.Weighted>
-6.5844

> <Gold.Chemscore.Metal.Weighted>
-0.0000

> <Gold.Chemscore.Lipo.Weighted>
-8.0919

> <Gold.Chemscore.Internal_Hbond.Weighted>
0.0000

> <Gold.Chemscore.DEClash.Weighted>
0.0901

> <Gold.Chemscore.DEInternal.Weighted>
1.5445

> <Gold.Chemscore.Rot.Weighted>
3.0984

> <Gold.Chemscore.Internal.Correction.Weighted>
   9.000000E+99

> <Gold.Protein.RotatedTorsions>
[ 6907 6896 6895 6894 ] final  -38.49 input  -60.11 | X-H torsion
[ 7974 7965 7964 7962 ] final   73.84 input  175.53 | X-H torsion
[ 8008 7997 7996 7995 ] final  127.70 input   59.86 | X-H torsion
[ 10167 10162 10161 10158 ] final -160.98 input  -65.29 | X-H torsion
[ 10718 10713 10712 10709 ] final -149.68 input   66.30 | X-H torsion
[ 10763 10752 10751 10750 ] final   45.22 input  -60.55 | X-H torsion
[ 11005 11000 10999 10996 ] final -131.51 input  -57.11 | X-H torsion

> <Gold.Protein.ActiveResidues>
 VAL166  LYS551  ARG553  GLY616  TRP617  ASP618  TYR619  PRO620  LYS621  CYS622 
 ASP623  PHE694  ASN695  SER759  ASP760  ASP761  ALA762  ILE779  LEU786  VAL792 
 PHE793  MET794  SER795  GLU796  ALA797  LYS798  CYS799  TRP800  GLU811  SER814 

> <Gold.Protein.RotatedAtoms>
  151.0018  134.9328  159.7957 H   0  0  0  0  0  0  0  0  0  0  0  0  # atno 6907 bound_to 6896
  152.5280  134.3144  159.9135 H   0  0  0  0  0  0  0  0  0  0  0  0  # atno 6908 bound_to 6896
  151.3149  133.4023  159.2684 H   0  0  0  0  0  0  0  0  0  0  0  0  # atno 6909 bound_to 6896
  145.7358  139.2701  143.1515 H   0  0  0  0  0  0  0  0  0  0  0  0  # atno 7974 bound_to 7965
  156.2897  140.2662  156.2316 H   0  0  0  0  0  0  0  0  0  0  0  0  # atno 8008 bound_to 7997
  155.0066  140.0387  157.2400 H   0  0  0  0  0  0  0  0  0  0  0  0  # atno 8009 bound_to 7997
  154.7554  140.2751  155.6262 H   0  0  0  0  0  0  0  0  0  0  0  0  # atno 8010 bound_to 7997
  139.6499  144.0104  152.2154 H   0  0  0  0  0  0  0  0  0  0  0  0  # atno 10167 bound_to 10162
  156.4362  130.8100  151.2328 H   0  0  0  0  0  0  0  0  0  0  0  0  # atno 10718 bound_to 10713
  152.9828  135.6046  154.3401 H   0  0  0  0  0  0  0  0  0  0  0  0  # atno 10763 bound_to 10752
  154.3099  135.2771  155.2573 H   0  0  0  0  0  0  0  0  0  0  0  0  # atno 10764 bound_to 10752
  154.4787  135.5923  153.6430 H   0  0  0  0  0  0  0  0  0  0  0  0  # atno 10765 bound_to 10752
  140.9252  134.1392  157.4281 H   0  0  0  0  0  0  0  0  0  0  0  0  # atno 11005 bound_to 11000
  146.0495  140.8084  142.9789 LP  0  0  0  0  0  0  0  0  0  0  0  0  # atno 17320 bound_to 7965
  144.6882  140.3031  143.7260 LP  0  0  0  0  0  0  0  0  0  0  0  0  # atno 17321 bound_to 7965
  139.9815  144.6425  150.7896 LP  0  0  0  0  0  0  0  0  0  0  0  0  # atno 17342 bound_to 10162
  140.7532  143.3005  151.3093 LP  0  0  0  0  0  0  0  0  0  0  0  0  # atno 17343 bound_to 10162
  157.7507  131.0182  150.3619 LP  0  0  0  0  0  0  0  0  0  0  0  0  # atno 17370 bound_to 10713
  156.3966  130.3908  149.6990 LP  0  0  0  0  0  0  0  0  0  0  0  0  # atno 17371 bound_to 10713
  139.8784  134.9986  156.5907 LP  0  0  0  0  0  0  0  0  0  0  0  0  # atno 17394 bound_to 11000
  140.7935  133.8563  155.8666 LP  0  0  0  0  0  0  0  0  0  0  0  0  # atno 17395 bound_to 11000

$$$$
