AV-unprocessed.smi:598|AV-procd|sdf|3021|dock3
  -GOLD-   2262023533D 1   1.00000     0.00000
 Structure written by MMmdl.
 43 44  0  0  0  0  0  0  0  0  3 V2000
  145.3256  135.2110  150.4254 C   0  0  0  0  0  0  0  0  0  0  0  0
  146.2732  134.3686  151.2981 C   0  0  2  0  0  0  0  0  0  0  0  0
  146.2469  132.8992  150.8284 C   0  0  0  0  0  0  0  0  0  0  0  0
  147.1889  132.0097  151.6508 C   0  0  0  0  0  0  0  0  0  0  0  0
  146.8679  132.1025  153.1501 C   0  0  0  0  0  0  0  0  0  0  0  0
  146.8947  133.5573  153.6542 C   0  0  1  0  0  0  0  0  0  0  0  0
  148.2716  134.0564  153.6475 N   0  0  0  0  0  0  0  0  0  0  0  0
  149.2346  133.7420  154.5276 C   0  0  0  0  0  0  0  0  0  0  0  0
  149.0805  132.9327  155.4427 O   0  0  0  0  0  0  0  0  0  0  0  0
  150.5769  134.4595  154.3397 C   0  0  0  0  0  0  0  0  0  0  0  0
  150.7963  135.4955  155.3615 N   0  0  0  0  0  0  0  0  0  0  0  0
  151.0012  136.8069  154.8889 C   0  0  0  0  0  0  0  0  0  0  0  0
  151.1900  137.8484  155.7220 C   0  0  0  0  0  0  0  0  0  0  0  0
  151.3875  139.1890  155.2162 N   0  3  0  0  0  0  0  0  0  0  0  0
  150.4046  139.8418  154.8810 O   0  0  0  0  0  0  0  0  0  0  0  0
  152.5292  139.6332  155.1362 O   0  5  0  0  0  0  0  0  0  0  0  0
  151.1798  137.5808  157.1470 C   0  0  0  0  0  0  0  0  0  0  0  0
  150.9809  136.3292  157.6060 C   0  0  0  0  0  0  0  0  0  0  0  0
  150.7689  135.1980  156.6965 C   0  0  0  0  0  0  0  0  0  0  0  0
  150.5763  134.0553  157.1115 O   0  0  0  0  0  0  0  0  0  0  0  0
  145.9483  134.4608  152.8155 C   0  0  1  0  0  0  0  0  0  0  0  0
  145.9230  135.9108  153.3412 C   0  0  0  0  0  0  0  0  0  0  0  0
  144.2838  134.9322  150.5865 H   0  0  0  0  0  0  0  0  0  0  0  0
  145.5452  135.0739  149.3662 H   0  0  0  0  0  0  0  0  0  0  0  0
  145.4249  136.2764  150.6320 H   0  0  0  0  0  0  0  0  0  0  0  0
  147.2822  134.7517  151.1392 H   0  0  0  0  0  0  0  0  0  0  0  0
  145.2302  132.5099  150.8997 H   0  0  0  0  0  0  0  0  0  0  0  0
  146.5236  132.8390  149.7752 H   0  0  0  0  0  0  0  0  0  0  0  0
  147.1043  130.9747  151.3182 H   0  0  0  0  0  0  0  0  0  0  0  0
  148.2232  132.3054  151.4717 H   0  0  0  0  0  0  0  0  0  0  0  0
  145.8793  131.6783  153.3301 H   0  0  0  0  0  0  0  0  0  0  0  0
  147.5677  131.4909  153.7212 H   0  0  0  0  0  0  0  0  0  0  0  0
  146.5283  133.5428  154.6821 H   0  0  0  0  0  0  0  0  0  0  0  0
  148.4993  134.7244  152.9257 H   0  0  0  0  0  0  0  0  0  0  0  0
  151.3724  133.7128  154.3408 H   0  0  0  0  0  0  0  0  0  0  0  0
  150.6166  134.9149  153.3484 H   0  0  0  0  0  0  0  0  0  0  0  0
  150.9829  136.9002  153.8123 H   0  0  0  0  0  0  0  0  0  0  0  0
  151.3292  138.3815  157.8562 H   0  0  0  0  0  0  0  0  0  0  0  0
  150.9754  136.1527  158.6717 H   0  0  0  0  0  0  0  0  0  0  0  0
  144.9396  134.0679  152.9537 H   0  0  0  0  0  0  0  0  0  0  0  0
  146.8511  136.4379  153.1178 H   0  0  0  0  0  0  0  0  0  0  0  0
  145.7798  135.9316  154.4219 H   0  0  0  0  0  0  0  0  0  0  0  0
  145.1043  136.4821  152.9047 H   0  0  0  0  0  0  0  0  0  0  0  0
  1  2  1  0  0  0  0
  1 23  1  0  0  0  0
  1 24  1  0  0  0  0
  1 25  1  0  0  0  0
  2 21  1  0  0  0  0
  2  3  1  0  0  0  0
  2 26  1  0  0  0  0
  3  4  1  0  0  0  0
  3 27  1  0  0  0  0
  3 28  1  0  0  0  0
  4  5  1  0  0  0  0
  4 29  1  0  0  0  0
  4 30  1  0  0  0  0
  5  6  1  0  0  0  0
  5 31  1  0  0  0  0
  5 32  1  0  0  0  0
  6  7  1  0  0  0  0
  6 21  1  0  0  0  0
  6 33  1  0  0  0  0
  7  8  1  0  0  0  0
  7 34  1  0  0  0  0
  8  9  2  0  0  0  0
  8 10  1  0  0  0  0
 10 11  1  0  0  0  0
 10 35  1  0  0  0  0
 10 36  1  0  0  0  0
 11 19  1  0  0  0  0
 11 12  1  0  0  0  0
 12 13  2  0  0  0  0
 12 37  1  0  0  0  0
 13 14  1  0  0  0  0
 13 17  1  0  0  0  0
 14 15  2  0  0  0  0
 14 16  1  0  0  0  0
 17 18  2  0  0  0  0
 17 38  1  0  0  0  0
 18 19  1  0  0  0  0
 18 39  1  0  0  0  0
 19 20  2  0  0  0  0
 21 22  1  0  0  0  0
 21 40  1  0  0  0  0
 22 41  1  0  0  0  0
 22 42  1  0  0  0  0
 22 43  1  0  0  0  0
M  CHG  1  14   1
M  CHG  1  16  -1
M  END
> <s_m_source_file>
AV-unprocessed.smi

> <i_m_source_file_index>
598

> <i_lp_mmshare_version>
43012

> <i_f3d_flags>
0

> <s_epik_input>
W0NIM11bQ0BASF0xW0NIMl1bQ0gyXVtDSDJdW0NASF0oW0NASF0xW0NIM10pW05IXUMoPU8pW0NIMl1uMltjSF1jKFtOK10oPU8pW08tXSlbY0hdW2NIXWMyPU8=

> <s_epik_cmdline>
J2VwaWtfcHl0aG9uJywgJy1waCcsICc3LjAnLCAnLXRuJywgJzgnLCAnLW1hJywgJzIwMCcsICctbWV0YWxfYmluZGluZycsICctaW1hZScsICc8aW5maWxlLm1hZT4nLCAnLW9tYWUnLCAnPG91dGZpbGUubWFlPic=

> <r_lp_tautomer_probability>
1

> <r_epik_Ionization_Penalty>
1.91291e-08

> <r_epik_Ionization_Penalty_Charging>
8.21931e-11

> <r_epik_Ionization_Penalty_Neutral>
1.90469e-08

> <r_epik_State_Penalty>
-0

> <r_epik_Charging_Adjusted_Penalty>
8.21931e-11

> <i_epik_Tot_Q>
0

> <i_epik_Tot_abs_Q>
2

> <r_epik_Metal_State_Penalty>
-0

> <b_epik_Metal_Only>
0

> <s_lp_Force_Field>
OPLS_2005

> <r_lp_Energy>
23.6598

> <b_lp_Chiralities_Consistent>
1

> <s_lp_Variant>
AV-unprocessed.smi:598-1

> <Gold.Version>
5.8.1

> <Gold.Id.Protein>
6NUR|6NUR_protein|mol2

> <Gold.PLP.Fitness>
41.3862

> <Gold.PLP.PLP>
-30.9569

> <Gold.PLP.part.hbond>
-5.0000

> <Gold.PLP.part.metal>
0.0000

> <Gold.PLP.part.buried>
-4.6503

> <Gold.PLP.part.nonpolar>
-22.1949

> <Gold.PLP.part.repulsive>
0.1099

> <Gold.PLP.ligand.clash>
0.0000

> <Gold.PLP.ligand.torsion>
1.8617

> <Gold.PLP.Chemscore.Hbond>
3.6232

> <Gold.PLP.Chemscore.CHOScore>
1.0887

> <Gold.PLP.Chemscore.Metal>
0.0000

> <Gold.Chemscore.Hbonds>
donor molecule, donor type, donor heavy atom, donor atom, acceptor molecule, acceptor atom, score
      L1  H     7    34       P1  7948  1.00
      P1  H  6896  6908       L1    20  0.43
      P1  H  7989  7998       L1    15  0.36
      P1  H  7997  8009       L1    16  0.62
      L1  C    12    37       P1  7948  0.06
      L1  C    12    37       P1  7949  1.00

> <Gold.PLP.Chemscore.Internal.Correction>
0.0169

> <Gold.Rescore>
     Score         DG    S(hbond)    S(metal)    S(lipo)     H(rot)  DE(clash)    DE(int)     intcor
     16.05     -20.49       3.65        0.00      57.80       1.54       0.07       4.38       ----

> <Gold.Chemscore.Fitness>
16.0457

> <Gold.Chemscore.DG>
-20.4898

> <Gold.Chemscore.ZeroCoef>
-5.4800

> <Gold.Chemscore.Hbond>
3.6491

> <Gold.Chemscore.Metal>
0.0000

> <Gold.Chemscore.Lipo>
57.8001

> <Gold.Chemscore.Internal_Hbond>
0.0000

> <Gold.Chemscore.DEClash>
0.0659

> <Gold.Chemscore.DEInternal>
4.3782

> <Gold.Chemscore.Rot>
1.5393

> <Gold.Chemscore.Internal.Correction>
   9.000000E+99

> <Gold.Chemscore.Hbonds>
donor molecule, donor type, donor heavy atom, donor atom, acceptor molecule, acceptor atom, score
      L1  H     7    34       P1  7948  0.40
      P1  H  6896  6908       L1    20  0.36
      P1  H  7989  7998       L1    15  0.01
      P1  H  7997  8009       L1    16  0.62

> <Gold.Chemscore.Hbond.Weighted>
-12.1879

> <Gold.Chemscore.Metal.Weighted>
-0.0000

> <Gold.Chemscore.Lipo.Weighted>
-6.7626

> <Gold.Chemscore.Internal_Hbond.Weighted>
0.0000

> <Gold.Chemscore.DEClash.Weighted>
0.0659

> <Gold.Chemscore.DEInternal.Weighted>
4.3782

> <Gold.Chemscore.Rot.Weighted>
3.9407

> <Gold.Chemscore.Internal.Correction.Weighted>
   9.000000E+99

> <Gold.Protein.RotatedTorsions>
[ 6907 6896 6895 6894 ] final  126.58 input  -60.11 | X-H torsion
[ 7974 7965 7964 7962 ] final -133.53 input  175.53 | X-H torsion
[ 8008 7997 7996 7995 ] final -125.23 input   59.86 | X-H torsion
[ 10167 10162 10161 10158 ] final -171.33 input  -65.29 | X-H torsion
[ 10718 10713 10712 10709 ] final    5.35 input   66.30 | X-H torsion
[ 10763 10752 10751 10750 ] final   72.38 input  -60.55 | X-H torsion
[ 11005 11000 10999 10996 ] final -122.51 input  -57.11 | X-H torsion

> <Gold.Protein.ActiveResidues>
 VAL166  LYS551  ARG553  GLY616  TRP617  ASP618  TYR619  PRO620  LYS621  CYS622 
 ASP623  PHE694  ASN695  SER759  ASP760  ASP761  ALA762  ILE779  LEU786  VAL792 
 PHE793  MET794  SER795  GLU796  ALA797  LYS798  CYS799  TRP800  GLU811  SER814 

> <Gold.Protein.RotatedAtoms>
  152.3891  133.6653  159.6222 H   0  0  0  0  0  0  0  0  0  0  0  0  # atno 6907 bound_to 6896
  150.7803  133.8985  159.3343 H   0  0  0  0  0  0  0  0  0  0  0  0  # atno 6908 bound_to 6896
  151.6776  135.0968  160.0261 H   0  0  0  0  0  0  0  0  0  0  0  0  # atno 6909 bound_to 6896
  144.9185  140.6984  143.4980 H   0  0  0  0  0  0  0  0  0  0  0  0  # atno 7974 bound_to 7965
  155.2099  140.0418  157.2931 H   0  0  0  0  0  0  0  0  0  0  0  0  # atno 8008 bound_to 7997
  154.6019  140.2454  155.7753 H   0  0  0  0  0  0  0  0  0  0  0  0  # atno 8009 bound_to 7997
  156.2326  140.2933  156.0237 H   0  0  0  0  0  0  0  0  0  0  0  0  # atno 8010 bound_to 7997
  139.5808  144.1427  152.1513 H   0  0  0  0  0  0  0  0  0  0  0  0  # atno 10167 bound_to 10162
  156.9061  130.5739  149.5647 H   0  0  0  0  0  0  0  0  0  0  0  0  # atno 10718 bound_to 10713
  153.0455  135.5102  154.7735 H   0  0  0  0  0  0  0  0  0  0  0  0  # atno 10763 bound_to 10752
  154.6638  135.2942  154.9834 H   0  0  0  0  0  0  0  0  0  0  0  0  # atno 10764 bound_to 10752
  154.0676  135.6682  153.4872 H   0  0  0  0  0  0  0  0  0  0  0  0  # atno 10765 bound_to 10752
  140.9990  134.0431  157.3562 H   0  0  0  0  0  0  0  0  0  0  0  0  # atno 11005 bound_to 11000
  145.3335  139.1752  143.4524 LP  0  0  0  0  0  0  0  0  0  0  0  0  # atno 17320 bound_to 7965
  146.3193  140.3368  142.8645 LP  0  0  0  0  0  0  0  0  0  0  0  0  # atno 17321 bound_to 7965
  140.0980  144.5564  150.7009 LP  0  0  0  0  0  0  0  0  0  0  0  0  # atno 17342 bound_to 10162
  140.7087  143.2487  151.4648 LP  0  0  0  0  0  0  0  0  0  0  0  0  # atno 17343 bound_to 10162
  156.0558  130.5620  150.9089 LP  0  0  0  0  0  0  0  0  0  0  0  0  # atno 17370 bound_to 10713
  157.5996  131.0942  150.8982 LP  0  0  0  0  0  0  0  0  0  0  0  0  # atno 17371 bound_to 10713
  139.9029  135.0170  156.7352 LP  0  0  0  0  0  0  0  0  0  0  0  0  # atno 17394 bound_to 11000
  140.6920  133.9381  155.7972 LP  0  0  0  0  0  0  0  0  0  0  0  0  # atno 17395 bound_to 11000

$$$$
