AV-unprocessed.smi:75|AV-procd|sdf|766|dock2
  -GOLD-   2262017103D 1   1.00000     0.00000
 Structure written by MMmdl.
 51 54  0  0  0  0  0  0  0  0  1 V2000
  148.8106  140.2625  154.0216 N   0  0  0  0  0  0  0  0  0  0  0  0
  149.8589  140.4152  154.8343 C   0  0  0  0  0  0  0  0  0  0  0  0
  150.9505  139.9020  154.5995 O   0  0  0  0  0  0  0  0  0  0  0  0
  149.6400  141.2397  156.1076 C   0  0  0  0  0  0  0  0  0  0  0  0
  150.9348  141.5869  156.8956 C   0  0  1  0  0  0  0  0  0  0  0  0
  150.7021  142.8829  157.7046 C   0  0  0  0  0  0  0  0  0  0  0  0
  151.8679  143.2331  158.4406 O   0  0  0  0  0  0  0  0  0  0  0  0
  152.2120  142.2305  159.3870 C   0  0  0  0  0  0  0  0  0  0  0  0
  152.5269  140.9298  158.6375 C   0  0  0  0  0  0  0  0  0  0  0  0
  151.3926  140.5289  157.8107 N   0  0  0  0  0  0  0  0  0  0  0  0
  151.6062  139.3036  157.2838 C   0  0  0  0  0  0  0  0  0  0  0  0
  152.8694  139.0156  156.8862 N   0  0  0  0  0  0  0  0  0  0  0  0
  153.1460  137.8172  156.3637 C   0  0  0  0  0  0  0  0  0  0  0  0
  152.3227  136.7881  156.1504 N   0  0  0  0  0  0  0  0  0  0  0  0
  151.0486  137.0799  156.5421 C   0  0  0  0  0  0  0  0  0  0  0  0
  150.6044  138.3068  157.1097 C   0  0  0  0  0  0  0  0  0  0  0  0
  149.2434  138.2400  157.3821 N   0  0  0  0  0  0  0  0  0  0  0  0
  148.9028  137.0394  157.0007 C   0  0  0  0  0  0  0  0  0  0  0  0
  149.9242  136.2737  156.4835 N   0  0  0  0  0  0  0  0  0  0  0  0
  149.8237  134.9296  155.9907 C   0  0  0  0  0  0  0  0  0  0  0  0
  150.1016  134.6094  154.5201 C   0  0  0  0  0  0  0  0  0  0  0  0
  149.0323  133.4926  154.5757 C   0  0  0  0  0  0  0  0  0  0  0  0
  148.1007  133.3438  153.3568 C   0  0  0  0  0  0  0  0  0  0  0  0
  147.2909  134.4847  153.1516 O   0  0  0  0  0  0  0  0  0  0  0  0
  149.5640  132.0880  154.9173 C   0  0  0  0  0  0  0  0  0  0  0  0
  148.5102  131.1807  155.1699 O   0  0  0  0  0  0  0  0  0  0  0  0
  148.4605  134.2625  155.7893 C   0  0  0  0  0  0  0  0  0  0  0  0
  148.9105  139.7282  153.1705 H   0  0  0  0  0  0  0  0  0  0  0  0
  147.9227  140.6816  154.2575 H   0  0  0  0  0  0  0  0  0  0  0  0
  149.1423  142.1593  155.7959 H   0  0  0  0  0  0  0  0  0  0  0  0
  148.9282  140.7296  156.7586 H   0  0  0  0  0  0  0  0  0  0  0  0
  151.7380  141.7892  156.1858 H   0  0  0  0  0  0  0  0  0  0  0  0
  150.4633  143.7088  157.0341 H   0  0  0  0  0  0  0  0  0  0  0  0
  149.8546  142.7722  158.3836 H   0  0  0  0  0  0  0  0  0  0  0  0
  153.0835  142.5588  159.9535 H   0  0  0  0  0  0  0  0  0  0  0  0
  151.3998  142.0857  160.1013 H   0  0  0  0  0  0  0  0  0  0  0  0
  153.4087  141.0743  158.0120 H   0  0  0  0  0  0  0  0  0  0  0  0
  152.7658  140.1413  159.3531 H   0  0  0  0  0  0  0  0  0  0  0  0
  154.1749  137.6589  156.0767 H   0  0  0  0  0  0  0  0  0  0  0  0
  147.8884  136.6773  157.0865 H   0  0  0  0  0  0  0  0  0  0  0  0
  150.4515  134.3088  156.6320 H   0  0  0  0  0  0  0  0  0  0  0  0
  149.8382  135.4325  153.8546 H   0  0  0  0  0  0  0  0  0  0  0  0
  151.1182  134.2677  154.3241 H   0  0  0  0  0  0  0  0  0  0  0  0
  148.6716  133.1790  152.4426 H   0  0  0  0  0  0  0  0  0  0  0  0
  147.4419  132.4829  153.4755 H   0  0  0  0  0  0  0  0  0  0  0  0
  147.8415  135.1940  152.8567 H   0  0  0  0  0  0  0  0  0  0  0  0
  150.1638  131.6816  154.1027 H   0  0  0  0  0  0  0  0  0  0  0  0
  150.2173  132.1172  155.7902 H   0  0  0  0  0  0  0  0  0  0  0  0
  148.6677  130.3931  154.6718 H   0  0  0  0  0  0  0  0  0  0  0  0
  148.1437  133.6332  156.6217 H   0  0  0  0  0  0  0  0  0  0  0  0
  147.6788  134.9776  155.5299 H   0  0  0  0  0  0  0  0  0  0  0  0
  1  2  1  0  0  0  0
  1 28  1  0  0  0  0
  1 29  1  0  0  0  0
  2  3  2  0  0  0  0
  2  4  1  0  0  0  0
  4  5  1  0  0  0  0
  4 30  1  0  0  0  0
  4 31  1  0  0  0  0
  5 10  1  0  0  0  0
  5  6  1  0  0  0  0
  5 32  1  0  0  0  0
  6  7  1  0  0  0  0
  6 33  1  0  0  0  0
  6 34  1  0  0  0  0
  7  8  1  0  0  0  0
  8  9  1  0  0  0  0
  8 35  1  0  0  0  0
  8 36  1  0  0  0  0
  9 10  1  0  0  0  0
  9 37  1  0  0  0  0
  9 38  1  0  0  0  0
 10 11  1  0  0  0  0
 11 16  1  0  0  0  0
 11 12  2  0  0  0  0
 12 13  1  0  0  0  0
 13 14  2  0  0  0  0
 13 39  1  0  0  0  0
 14 15  1  0  0  0  0
 15 19  1  0  0  0  0
 15 16  2  0  0  0  0
 16 17  1  0  0  0  0
 17 18  2  0  0  0  0
 18 19  1  0  0  0  0
 18 40  1  0  0  0  0
 19 20  1  0  0  0  0
 20 27  1  0  0  0  0
 20 21  1  0  0  0  0
 20 41  1  0  0  0  0
 21 22  1  0  0  0  0
 21 42  1  0  0  0  0
 21 43  1  0  0  0  0
 22 23  1  0  0  0  0
 22 25  1  0  0  0  0
 22 27  1  0  0  0  0
 23 24  1  0  0  0  0
 23 44  1  0  0  0  0
 23 45  1  0  0  0  0
 24 46  1  0  0  0  0
 25 26  1  0  0  0  0
 25 47  1  0  0  0  0
 25 48  1  0  0  0  0
 26 49  1  0  0  0  0
 27 50  1  0  0  0  0
 27 51  1  0  0  0  0
M  END
> <s_m_source_file>
AV-unprocessed.smi

> <i_m_source_file_index>
75

> <i_lp_mmshare_version>
43012

> <i_f3d_flags>
0

> <s_epik_input>
W05IMl1DKD1PKVtDSDJdW0NAQEhdMVtDSDJdT1tDSDJdW0NIMl1OMWMobltjSF1uMiljKGMyMyluW2NIXW4zW0NIXShbQ0gyXTQpW0NIMl1DNChbQ0gyXVtPSF0pW0NIMl1bT0hd

> <s_epik_cmdline>
J2VwaWtfcHl0aG9uJywgJy1waCcsICc3LjAnLCAnLXRuJywgJzgnLCAnLW1hJywgJzIwMCcsICctbWV0YWxfYmluZGluZycsICctaW1hZScsICc8aW5maWxlLm1hZT4nLCAnLW9tYWUnLCAnPG91dGZpbGUubWFlPic=

> <r_lp_tautomer_probability>
1

> <r_epik_Ionization_Penalty>
5.29078e-05

> <r_epik_Ionization_Penalty_Charging>
0

> <r_epik_Ionization_Penalty_Neutral>
5.29078e-05

> <r_epik_State_Penalty>
-0

> <r_epik_Charging_Adjusted_Penalty>
0

> <i_epik_Tot_Q>
0

> <i_epik_Tot_abs_Q>
0

> <r_epik_Metal_State_Penalty>
-0

> <b_epik_Metal_Only>
0

> <s_lp_Force_Field>
OPLS_2005

> <r_lp_Energy>
41.8109

> <b_lp_Chiralities_Consistent>
1

> <s_lp_Variant>
AV-unprocessed.smi:75-2

> <Gold.Version>
5.8.1

> <Gold.Id.Protein>
6NUR|6NUR_protein|mol2

> <Gold.PLP.Fitness>
46.7805

> <Gold.PLP.PLP>
-34.6747

> <Gold.PLP.part.hbond>
-5.0000

> <Gold.PLP.part.metal>
0.0000

> <Gold.PLP.part.buried>
-4.3942

> <Gold.PLP.part.nonpolar>
-25.3540

> <Gold.PLP.part.repulsive>
0.2720

> <Gold.PLP.ligand.clash>
0.0000

> <Gold.PLP.ligand.torsion>
1.4166

> <Gold.PLP.Chemscore.Hbond>
4.7440

> <Gold.PLP.Chemscore.CHOScore>
0.0000

> <Gold.PLP.Chemscore.Metal>
0.0000

> <Gold.Chemscore.Hbonds>
donor molecule, donor type, donor heavy atom, donor atom, acceptor molecule, acceptor atom, score
      L1  H     1    28       P1  7957  0.54
      L1  H    24    46       P1  7948  1.00
      P1  H  7989  7998       L1     3  1.00
      P1  H  7997  8009       L1    12  1.00
      P1  H 10752 10763       L1    14  0.99

> <Gold.PLP.Chemscore.Internal.Correction>
0.7070

> <Gold.Rescore>
     Score         DG    S(hbond)    S(metal)    S(lipo)     H(rot)  DE(clash)    DE(int)     intcor
     12.14     -14.95       3.87        0.00      71.75       4.63       0.14       2.67       ----

> <Gold.Chemscore.Fitness>
12.1353

> <Gold.Chemscore.DG>
-14.9505

> <Gold.Chemscore.ZeroCoef>
-5.4800

> <Gold.Chemscore.Hbond>
3.8677

> <Gold.Chemscore.Metal>
0.0000

> <Gold.Chemscore.Lipo>
71.7548

> <Gold.Chemscore.Internal_Hbond>
0.0000

> <Gold.Chemscore.DEClash>
0.1414

> <Gold.Chemscore.DEInternal>
2.6738

> <Gold.Chemscore.Rot>
4.6261

> <Gold.Chemscore.Internal.Correction>
   9.000000E+99

> <Gold.Chemscore.Hbonds>
donor molecule, donor type, donor heavy atom, donor atom, acceptor molecule, acceptor atom, score
      L1  H     1    28       P1  7957  0.54
      L1  H    24    46       P1  7948  0.99
      P1  H  7989  7998       L1     3  0.50
      P1  H  7997  8009       L1    12  0.50
      P1  H 10752 10763       L1    14  0.76

> <Gold.Chemscore.Hbond.Weighted>
-12.9181

> <Gold.Chemscore.Metal.Weighted>
-0.0000

> <Gold.Chemscore.Lipo.Weighted>
-8.3953

> <Gold.Chemscore.Internal_Hbond.Weighted>
0.0000

> <Gold.Chemscore.DEClash.Weighted>
0.1414

> <Gold.Chemscore.DEInternal.Weighted>
2.6738

> <Gold.Chemscore.Rot.Weighted>
11.8429

> <Gold.Chemscore.Internal.Correction.Weighted>
   9.000000E+99

> <Gold.Protein.RotatedTorsions>
[ 6907 6896 6895 6894 ] final -116.71 input  -60.11 | X-H torsion
[ 7974 7965 7964 7962 ] final  164.45 input  175.53 | X-H torsion
[ 8008 7997 7996 7995 ] final -165.44 input   59.86 | X-H torsion
[ 10167 10162 10161 10158 ] final -171.46 input  -65.29 | X-H torsion
[ 10718 10713 10712 10709 ] final  -53.80 input   66.30 | X-H torsion
[ 10763 10752 10751 10750 ] final   80.31 input  -60.55 | X-H torsion
[ 11005 11000 10999 10996 ] final   53.80 input  -57.11 | X-H torsion

> <Gold.Protein.ActiveResidues>
 VAL166  LYS551  ARG553  GLY616  TRP617  ASP618  TYR619  PRO620  LYS621  CYS622 
 ASP623  PHE694  ASN695  SER759  ASP760  ASP761  ALA762  ILE779  LEU786  VAL792 
 PHE793  MET794  SER795  GLU796  ALA797  LYS798  CYS799  TRP800  GLU811  SER814 

> <Gold.Protein.RotatedAtoms>
  150.8078  133.8479  159.3196 H   0  0  0  0  0  0  0  0  0  0  0  0  # atno 6907 bound_to 6896
  151.6273  135.1024  160.0124 H   0  0  0  0  0  0  0  0  0  0  0  0  # atno 6908 bound_to 6896
  152.4169  133.7012  159.6482 H   0  0  0  0  0  0  0  0  0  0  0  0  # atno 6909 bound_to 6896
  144.7545  139.8328  143.6355 H   0  0  0  0  0  0  0  0  0  0  0  0  # atno 7974 bound_to 7965
  155.8499  140.0961  157.1681 H   0  0  0  0  0  0  0  0  0  0  0  0  # atno 8008 bound_to 7997
  154.3985  140.1385  156.3893 H   0  0  0  0  0  0  0  0  0  0  0  0  # atno 8009 bound_to 7997
  155.7973  140.3454  155.5385 H   0  0  0  0  0  0  0  0  0  0  0  0  # atno 8010 bound_to 7997
  139.5801  144.1443  152.1503 H   0  0  0  0  0  0  0  0  0  0  0  0  # atno 10167 bound_to 10162
  156.1504  130.4151  149.9954 H   0  0  0  0  0  0  0  0  0  0  0  0  # atno 10718 bound_to 10713
  153.1023  135.4807  154.8889 H   0  0  0  0  0  0  0  0  0  0  0  0  # atno 10763 bound_to 10752
  154.7392  135.3078  154.8760 H   0  0  0  0  0  0  0  0  0  0  0  0  # atno 10764 bound_to 10752
  153.9373  135.6838  153.4798 H   0  0  0  0  0  0  0  0  0  0  0  0  # atno 10765 bound_to 10752
  140.0738  134.5433  155.9018 H   0  0  0  0  0  0  0  0  0  0  0  0  # atno 11005 bound_to 11000
  146.1537  139.4628  143.0032 LP  0  0  0  0  0  0  0  0  0  0  0  0  # atno 17320 bound_to 7965
  145.6829  141.0186  143.1597 LP  0  0  0  0  0  0  0  0  0  0  0  0  # atno 17321 bound_to 7965
  140.0994  144.5552  150.6999 LP  0  0  0  0  0  0  0  0  0  0  0  0  # atno 17342 bound_to 10162
  140.7080  143.2482  151.4668 LP  0  0  0  0  0  0  0  0  0  0  0  0  # atno 17343 bound_to 10162
  156.7813  130.9222  151.3646 LP  0  0  0  0  0  0  0  0  0  0  0  0  # atno 17370 bound_to 10713
  157.6652  130.9001  149.9917 LP  0  0  0  0  0  0  0  0  0  0  0  0  # atno 17371 bound_to 10713
  141.2022  133.6623  156.5991 LP  0  0  0  0  0  0  0  0  0  0  0  0  # atno 17394 bound_to 11000
  140.3588  134.7705  157.4519 LP  0  0  0  0  0  0  0  0  0  0  0  0  # atno 17395 bound_to 11000

$$$$
