#       Name:                AV-unprocessed.smi:1248
#       Creating user name   scv26
#       Creation time:       Fri Mar 27 04:36:17 2020


#       File generated by GOLD software.
#

@<TRIPOS>MOLECULE
AV-unprocessed.smi:1248
    47    49     1
SMALL
NO_CHARGES


@<TRIPOS>ATOM
      1 ****        -7.3197  -1.7311  -2.3826 C.3            1 S1                 0.0000
      2 ****        -6.6984  -2.0217  -1.0115 C.3            1 S1                 0.0000
      3 ****        -5.4748  -1.2712  -0.8070 N.pl3          1 S1                 0.0000
      4 ****        -4.1725  -1.6973  -0.9778 C.2            1 S1                 0.0000
      5 ****        -3.3875  -0.6297  -0.6611 C.2            1 S1                 0.0000
      6 ****        -1.9706  -0.6288  -0.6950 N.am           1 S1                 0.0000
      7 ****        -1.1517   0.3870  -0.3784 C.2            1 S1                 0.0000
      8 ****        -1.5168   1.5072  -0.0219 O.2            1 S1                 0.0000
      9 ****         0.1358   0.0309  -0.4953 N.am           1 S1                 0.0000
     10 ****         1.2761   0.9011  -0.2216 C.3            1 S1                 0.0000
     11 ****         2.5269   0.3624  -0.9369 C.3            1 S1                 0.0000
     12 ****         3.7736   1.2006  -0.5934 C.3            1 S1                 0.0000
     13 ****         3.9983   1.2949   0.8720 N.4            1 S1                 1.0000
     14 ****         4.5307   0.0458   1.4657 C.3            1 S1                 0.0000
     15 ****         5.4060   0.2737   2.6760 C.3            1 S1                 0.0000
     16 ****         6.0309  -0.0889   1.3473 C.3            1 S1                 0.0000
     17 ****         2.8085   1.8253   1.5854 C.3            1 S1                 0.0000
     18 ****         1.5419   0.9997   1.2930 C.3            1 S1                 0.0000
     19 ****        -4.2827   0.4193  -0.3075 C.2            1 S1                 0.0000
     20 ****        -5.5424   0.0204  -0.4004 N.2            1 S1                 0.0000
     21 ****        -8.2383  -2.3013  -2.5207 H              1 S1                 0.0000
     22 ****        -6.6365  -2.0004  -3.1884 H              1 S1                 0.0000
     23 ****        -7.5652  -0.6739  -2.4891 H              1 S1                 0.0000
     24 ****        -7.4018  -1.7729  -0.2156 H              1 S1                 0.0000
     25 ****        -6.4754  -3.0851  -0.9162 H              1 S1                 0.0000
     26 ****        -3.9265  -2.6980  -1.3010 H              1 S1                 0.0000
     27 ****        -1.5367  -1.4952  -0.9779 H              1 S1                 0.0000
     28 ****         0.3415  -0.9104  -0.7970 H              1 S1                 0.0000
     29 ****         1.0629   1.8986  -0.6111 H              1 S1                 0.0000
     30 ****         2.6956  -0.6794  -0.6612 H              1 S1                 0.0000
     31 ****         2.3697   0.3688  -2.0161 H              1 S1                 0.0000
     32 ****         4.6574   0.7855  -1.0790 H              1 S1                 0.0000
     33 ****         3.6526   2.2103  -0.9881 H              1 S1                 0.0000
     34 ****         3.8944  -0.8355   1.4108 H              1 S1                 0.0000
     35 ****         5.5399   1.2935   3.0321 H              1 S1                 0.0000
     36 ****         5.4005  -0.4917   3.4495 H              1 S1                 0.0000
     37 ****         6.4388  -1.0926   1.2464 H              1 S1                 0.0000
     38 ****         6.5801   0.6909   0.8226 H              1 S1                 0.0000
     39 ****         3.0010   1.8594   2.6583 H              1 S1                 0.0000
     40 ****         2.6503   2.8573   1.2699 H              1 S1                 0.0000
     41 ****         0.6893   1.4581   1.7955 H              1 S1                 0.0000
     42 ****         1.6442   0.0013   1.7198 H              1 S1                 0.0000
     43 ****        -4.0775   1.4316   0.0067 H              1 S1                 0.0000
     44 ****         4.7288   1.9808   0.9990 H              1 S1                 0.0000
     45 ****        -2.4922   1.7159   0.0498 LP             1 S1                 0.0000
     46 ****        -0.8381   2.2085   0.1961 LP             1 S1                 0.0000
     47 ****        -6.3654   0.5561  -0.2114 LP             1 S1                 0.0000
@<TRIPOS>BOND
    1    1    2 1     
    2    1   21 1     
    3    1   22 1     
    4    1   23 1     
    5    2    3 1     
    6    2   24 1     
    7    2   25 1     
    8    3   20 1     
    9    3    4 1     
   10    4    5 2     
   11    4   26 1     
   12    5    6 1     
   13    5   19 1     
   14    6    7 am    
   15    6   27 1     
   16    7    8 2     
   17    7    9 am    
   18    9   10 1     
   19    9   28 1     
   20   10   18 1     
   21   10   11 1     
   22   10   29 1     
   23   11   12 1     
   24   11   30 1     
   25   11   31 1     
   26   12   13 1     
   27   12   32 1     
   28   12   33 1     
   29   13   14 1     
   30   13   17 1     
   31   13   44 1     
   32   14   16 1     
   33   14   15 1     
   34   14   34 1     
   35   15   16 1     
   36   15   35 1     
   37   15   36 1     
   38   16   37 1     
   39   16   38 1     
   40   17   18 1     
   41   17   39 1     
   42   17   40 1     
   43   18   41 1     
   44   18   42 1     
   45   19   20 2     
   46   19   43 1     
   47    8   45 1     
   48    8   46 1     
   49   20   47 1     
@<TRIPOS>SUBSTRUCTURE
      1 S1             1
@<TRIPOS>SET
LONE_PAIRS      STATIC     ATOMS    <user>   **** ""
3 45 46 47
DONOR_HYDROGENS      STATIC     ATOMS    <user>   **** ""
3 27 28 44
ATOM$BLUE        STATIC     ATOMS    COLORGROUP SYSTEM
3 45 46 47
ATOM$RED        STATIC     ATOMS    COLORGROUP SYSTEM
3 27 28 44
