AV-unprocessed.smi:1304|AV-procd|sdf|5432|dock2
  -GOLD-   22720 4593D 1   1.00000     0.00000
 Structure written by MMmdl.
 48 49  0  0  0  0  0  0  0  0  2 V2000
  148.6963  131.8135  153.4744 C   0  0  0  0  0  0  0  0  0  0  0  0
  149.3515  133.1291  153.9317 C   0  0  0  0  0  0  0  0  0  0  0  0
  148.4322  134.0986  154.7374 C   0  0  2  0  0  0  0  0  0  0  0  0
  149.3521  135.1605  155.3967 C   0  0  0  0  0  0  0  0  0  0  0  0
  147.6836  133.3149  155.8620 C   0  0  0  0  0  0  0  0  0  0  0  0
  147.0621  134.1816  156.8623 N   0  0  0  0  0  0  0  0  0  0  0  0
  147.6050  134.5358  158.0373 C   0  0  0  0  0  0  0  0  0  0  0  0
  148.6942  134.1199  158.4330 O   0  0  0  0  0  0  0  0  0  0  0  0
  146.7890  135.5124  158.8936 C   0  0  0  0  0  0  0  0  0  0  0  0
  146.8564  135.1892  160.3284 N   0  0  0  0  0  0  0  0  0  0  0  0
  146.3114  133.9561  160.7387 C   0  0  0  0  0  0  0  0  0  0  0  0
  146.3282  133.5649  162.0228 C   0  0  0  0  0  0  0  0  0  0  0  0
  146.9263  134.4462  162.9973 C   0  0  0  0  0  0  0  0  0  0  0  0
  147.4518  135.6274  162.6157 C   0  0  0  0  0  0  0  0  0  0  0  0
  147.4363  136.0590  161.2133 C   0  0  0  0  0  0  0  0  0  0  0  0
  147.9172  137.1349  160.8547 O   0  0  0  0  0  0  0  0  0  0  0  0
  147.4477  134.7602  153.8049 N   0  3  0  0  0  0  0  0  0  0  0  0
  146.4983  133.8464  153.1077 C   0  0  0  0  0  0  0  0  0  0  0  0
  145.7043  134.6105  152.0361 C   0  0  0  0  0  0  0  0  0  0  0  0
  145.0038  135.6876  152.6422 O   0  0  0  0  0  0  0  0  0  0  0  0
  145.8910  136.6185  153.2461 C   0  0  0  0  0  0  0  0  0  0  0  0
  146.7004  135.9259  154.3559 C   0  0  0  0  0  0  0  0  0  0  0  0
  149.4069  131.2149  152.9040 H   0  0  0  0  0  0  0  0  0  0  0  0
  147.8352  131.9906  152.8305 H   0  0  0  0  0  0  0  0  0  0  0  0
  148.3682  131.2069  154.3182 H   0  0  0  0  0  0  0  0  0  0  0  0
  150.2520  132.8965  154.4997 H   0  0  0  0  0  0  0  0  0  0  0  0
  149.7183  133.6318  153.0368 H   0  0  0  0  0  0  0  0  0  0  0  0
  150.2087  134.7007  155.8914 H   0  0  0  0  0  0  0  0  0  0  0  0
  148.8309  135.7344  156.1629 H   0  0  0  0  0  0  0  0  0  0  0  0
  149.7463  135.8674  154.6663 H   0  0  0  0  0  0  0  0  0  0  0  0
  146.8813  132.7138  155.4356 H   0  0  0  0  0  0  0  0  0  0  0  0
  148.3486  132.6095  156.3607 H   0  0  0  0  0  0  0  0  0  0  0  0
  146.1590  134.5682  156.6279 H   0  0  0  0  0  0  0  0  0  0  0  0
  147.1337  136.5353  158.7284 H   0  0  0  0  0  0  0  0  0  0  0  0
  145.7582  135.4956  158.5376 H   0  0  0  0  0  0  0  0  0  0  0  0
  145.8890  133.3519  159.9490 H   0  0  0  0  0  0  0  0  0  0  0  0
  145.9086  132.6145  162.3184 H   0  0  0  0  0  0  0  0  0  0  0  0
  146.9535  134.1566  164.0375 H   0  0  0  0  0  0  0  0  0  0  0  0
  147.8955  136.2735  163.3592 H   0  0  0  0  0  0  0  0  0  0  0  0
  147.0182  133.0236  152.6212 H   0  0  0  0  0  0  0  0  0  0  0  0
  145.7986  133.4090  153.8202 H   0  0  0  0  0  0  0  0  0  0  0  0
  146.3640  134.9816  151.2502 H   0  0  0  0  0  0  0  0  0  0  0  0
  144.9830  133.9463  151.5599 H   0  0  0  0  0  0  0  0  0  0  0  0
  146.5534  137.0496  152.4935 H   0  0  0  0  0  0  0  0  0  0  0  0
  145.3080  137.4397  153.6636 H   0  0  0  0  0  0  0  0  0  0  0  0
  146.0282  135.6024  155.1508 H   0  0  0  0  0  0  0  0  0  0  0  0
  147.3705  136.6697  154.7833 H   0  0  0  0  0  0  0  0  0  0  0  0
  148.0246  135.1483  153.0721 H   0  0  0  0  0  0  0  0  0  0  0  0
  1  2  1  0  0  0  0
  1 23  1  0  0  0  0
  1 24  1  0  0  0  0
  1 25  1  0  0  0  0
  2  3  1  0  0  0  0
  2 26  1  0  0  0  0
  2 27  1  0  0  0  0
  3  4  1  0  0  0  0
  3  5  1  0  0  0  0
  3 17  1  0  0  0  0
  4 28  1  0  0  0  0
  4 29  1  0  0  0  0
  4 30  1  0  0  0  0
  5  6  1  0  0  0  0
  5 31  1  0  0  0  0
  5 32  1  0  0  0  0
  6  7  1  0  0  0  0
  6 33  1  0  0  0  0
  7  8  2  0  0  0  0
  7  9  1  0  0  0  0
  9 10  1  0  0  0  0
  9 34  1  0  0  0  0
  9 35  1  0  0  0  0
 10 15  1  0  0  0  0
 10 11  1  0  0  0  0
 11 12  2  0  0  0  0
 11 36  1  0  0  0  0
 12 13  1  0  0  0  0
 12 37  1  0  0  0  0
 13 14  2  0  0  0  0
 13 38  1  0  0  0  0
 14 15  1  0  0  0  0
 14 39  1  0  0  0  0
 15 16  2  0  0  0  0
 17 22  1  0  0  0  0
 17 18  1  0  0  0  0
 17 48  1  0  0  0  0
 18 19  1  0  0  0  0
 18 40  1  0  0  0  0
 18 41  1  0  0  0  0
 19 20  1  0  0  0  0
 19 42  1  0  0  0  0
 19 43  1  0  0  0  0
 20 21  1  0  0  0  0
 21 22  1  0  0  0  0
 21 44  1  0  0  0  0
 21 45  1  0  0  0  0
 22 46  1  0  0  0  0
 22 47  1  0  0  0  0
M  CHG  1  17   1
M  END
> <s_m_source_file>
AV-unprocessed.smi

> <i_m_source_file_index>
1304

> <i_lp_mmshare_version>
43012

> <i_f3d_flags>
0

> <s_epik_input>
W0NIMl0xW0NIMl1PW0NIMl1bQ0gyXU4xW0NAQF0oW0NIM10pKFtDSDJdW0NIM10pW0NIMl1bTkhdQyg9TylbQ0gyXW4yW2NIXVtjSF1bY0hdW2NIXWMyPU8=

> <s_epik_cmdline>
J2VwaWtfcHl0aG9uJywgJy1waCcsICc3LjAnLCAnLXRuJywgJzgnLCAnLW1hJywgJzIwMCcsICctbWV0YWxfYmluZGluZycsICctaW1hZScsICc8aW5maWxlLm1hZT4nLCAnLW9tYWUnLCAnPG91dGZpbGUubWFlPic=

> <r_lp_tautomer_probability>
1

> <r_epik_Ionization_Penalty>
0.519658

> <r_epik_Ionization_Penalty_Charging>
0.519658

> <r_epik_Ionization_Penalty_Neutral>
8.70177e-08

> <r_epik_State_Penalty>
0.527569

> <r_epik_Charging_Adjusted_Penalty>
1.04723

> <i_epik_Tot_Q>
1

> <i_epik_Tot_abs_Q>
1

> <r_epik_Metal_State_Penalty>
0.527613

> <b_epik_Metal_Only>
0

> <s_lp_Force_Field>
OPLS_2005

> <r_lp_Energy>
37.518

> <b_lp_Chiralities_Consistent>
1

> <s_lp_Variant>
AV-unprocessed.smi:1304-4

> <Gold.Version>
5.8.1

> <Gold.Id.Protein>
6NUR|6NUR_protein|mol2

> <Gold.PLP.Fitness>
45.8107

> <Gold.PLP.PLP>
-33.4172

> <Gold.PLP.part.hbond>
-4.0000

> <Gold.PLP.part.metal>
0.0000

> <Gold.PLP.part.buried>
-3.2215

> <Gold.PLP.part.nonpolar>
-27.2459

> <Gold.PLP.part.repulsive>
0.0827

> <Gold.PLP.ligand.clash>
0.0000

> <Gold.PLP.ligand.torsion>
0.8408

> <Gold.PLP.Chemscore.Hbond>
4.6000

> <Gold.PLP.Chemscore.CHOScore>
0.0000

> <Gold.PLP.Chemscore.Metal>
0.0000

> <Gold.Chemscore.Hbonds>
donor molecule, donor type, donor heavy atom, donor atom, acceptor molecule, acceptor atom, score
      L1  H    17    48       P1  7948  2.00
      P1  H  6896  6908       L1     8  0.65
      P1  H  6931  6943       L1    16  0.91
      P1  H  6934  6947       L1    16  0.80

> <Gold.PLP.Chemscore.Internal.Correction>
0.2751

> <Gold.Rescore>
     Score         DG    S(hbond)    S(metal)    S(lipo)     H(rot)  DE(clash)    DE(int)     intcor
     19.66     -20.73       3.74        0.00      68.10       2.03       0.05       1.02       ----

> <Gold.Chemscore.Fitness>
19.6615

> <Gold.Chemscore.DG>
-20.7306

> <Gold.Chemscore.ZeroCoef>
-5.4800

> <Gold.Chemscore.Hbond>
3.7362

> <Gold.Chemscore.Metal>
0.0000

> <Gold.Chemscore.Lipo>
68.1026

> <Gold.Chemscore.Internal_Hbond>
0.0000

> <Gold.Chemscore.DEClash>
0.0465

> <Gold.Chemscore.DEInternal>
1.0225

> <Gold.Chemscore.Rot>
2.0298

> <Gold.Chemscore.Internal.Correction>
   9.000000E+99

> <Gold.Chemscore.Hbonds>
donor molecule, donor type, donor heavy atom, donor atom, acceptor molecule, acceptor atom, score
      L1  H    17    48       P1  7948  0.99
      P1  H  6896  6908       L1     8  0.65
      P1  H  6931  6943       L1    16  0.88
      P1  H  6934  6947       L1    16  0.75

> <Gold.Chemscore.Hbond.Weighted>
-12.4788

> <Gold.Chemscore.Metal.Weighted>
-0.0000

> <Gold.Chemscore.Lipo.Weighted>
-7.9680

> <Gold.Chemscore.Internal_Hbond.Weighted>
0.0000

> <Gold.Chemscore.DEClash.Weighted>
0.0465

> <Gold.Chemscore.DEInternal.Weighted>
1.0225

> <Gold.Chemscore.Rot.Weighted>
5.1962

> <Gold.Chemscore.Internal.Correction.Weighted>
   9.000000E+99

> <Gold.Protein.RotatedTorsions>
[ 6907 6896 6895 6894 ] final  136.30 input  -60.11 | X-H torsion
[ 7974 7965 7964 7962 ] final   59.44 input  175.53 | X-H torsion
[ 8008 7997 7996 7995 ] final  151.54 input   59.86 | X-H torsion
[ 10167 10162 10161 10158 ] final   40.58 input  -65.29 | X-H torsion
[ 10718 10713 10712 10709 ] final -128.32 input   66.30 | X-H torsion
[ 10763 10752 10751 10750 ] final  -35.56 input  -60.55 | X-H torsion
[ 11005 11000 10999 10996 ] final  -63.13 input  -57.11 | X-H torsion

> <Gold.Protein.ActiveResidues>
 VAL166  LYS551  ARG553  GLY616  TRP617  ASP618  TYR619  PRO620  LYS621  CYS622 
 ASP623  PHE694  ASN695  SER759  ASP760  ASP761  ALA762  ILE779  LEU786  VAL792 
 PHE793  MET794  SER795  GLU796  ALA797  LYS798  CYS799  TRP800  GLU811  SER814 

> <Gold.Protein.RotatedAtoms>
  152.2909  133.5560  159.5556 H   0  0  0  0  0  0  0  0  0  0  0  0  # atno 6907 bound_to 6896
  150.7235  134.0430  159.3781 H   0  0  0  0  0  0  0  0  0  0  0  0  # atno 6908 bound_to 6896
  151.8336  135.0613  160.0490 H   0  0  0  0  0  0  0  0  0  0  0  0  # atno 6909 bound_to 6896
  145.9071  139.3625  143.0558 H   0  0  0  0  0  0  0  0  0  0  0  0  # atno 7974 bound_to 7965
  156.2669  140.2045  156.6192 H   0  0  0  0  0  0  0  0  0  0  0  0  # atno 8008 bound_to 7997
  154.6770  140.0544  157.0250 H   0  0  0  0  0  0  0  0  0  0  0  0  # atno 8009 bound_to 7997
  155.1054  140.3210  155.4538 H   0  0  0  0  0  0  0  0  0  0  0  0  # atno 8010 bound_to 7997
  140.3727  144.2083  150.6132 H   0  0  0  0  0  0  0  0  0  0  0  0  # atno 10167 bound_to 10162
  156.1940  130.6814  151.0459 H   0  0  0  0  0  0  0  0  0  0  0  0  # atno 10718 bound_to 10713
  153.8653  135.6836  153.4779 H   0  0  0  0  0  0  0  0  0  0  0  0  # atno 10763 bound_to 10752
  153.1318  135.4694  154.9359 H   0  0  0  0  0  0  0  0  0  0  0  0  # atno 10764 bound_to 10752
  154.7740  135.3247  154.8081 H   0  0  0  0  0  0  0  0  0  0  0  0  # atno 10765 bound_to 10752
  141.1383  133.6648  156.5633 H   0  0  0  0  0  0  0  0  0  0  0  0  # atno 11005 bound_to 11000
  145.8719  140.9415  143.0646 LP  0  0  0  0  0  0  0  0  0  0  0  0  # atno 17320 bound_to 7965
  144.6740  140.0665  143.7474 LP  0  0  0  0  0  0  0  0  0  0  0  0  # atno 17321 bound_to 7965
  140.5017  143.2316  151.8669 LP  0  0  0  0  0  0  0  0  0  0  0  0  # atno 17342 bound_to 10162
  139.4802  144.5052  151.9007 LP  0  0  0  0  0  0  0  0  0  0  0  0  # atno 17343 bound_to 10162
  157.6946  131.0798  150.7006 LP  0  0  0  0  0  0  0  0  0  0  0  0  # atno 17370 bound_to 10713
  156.7063  130.4638  149.5559 LP  0  0  0  0  0  0  0  0  0  0  0  0  # atno 17371 bound_to 10713
  140.3971  134.7389  157.4757 LP  0  0  0  0  0  0  0  0  0  0  0  0  # atno 17394 bound_to 11000
  140.0523  134.6113  155.8846 LP  0  0  0  0  0  0  0  0  0  0  0  0  # atno 17395 bound_to 11000

$$$$
