#       Name:                AV-unprocessed.smi:1856
#       Creating user name   scv26
#       Creation time:       Fri Mar 27 09:25:30 2020


#       File generated by GOLD software.
#

@<TRIPOS>MOLECULE
AV-unprocessed.smi:1856
    49    50     1
SMALL
NO_CHARGES


@<TRIPOS>ATOM
      1 ****        -2.4731   5.2575  -0.6921 C.3            1 S1                 0.0000
      2 ****        -1.8543   3.9619  -0.1555 C.3            1 S1                 0.0000
      3 ****        -2.5674   2.7059  -0.6880 C.3            1 S1                 0.0000
      4 ****        -1.9222   1.4002  -0.2133 C.2            1 S1                 0.0000
      5 ****        -1.3667   1.3357   0.8836 O.2            1 S1                 0.0000
      6 ****        -2.0027   0.3588  -1.0566 N.am           1 S1                 0.0000
      7 ****        -1.4669  -0.9753  -0.7994 C.3            1 S1                 0.0000
      8 ****        -2.0130  -1.9622  -1.8393 C.3            1 S1                 0.0000
      9 ****         0.0339  -0.9940  -0.7947 C.2            1 S1                 0.0000
     10 ****         0.8438  -0.4029  -1.7195 N.pl3          1 S1                 1.0000
     11 ****         2.1805  -0.6226  -1.3890 C.ar           1 S1                 0.0000
     12 ****         3.3520  -0.2148  -2.0194 C.ar           1 S1                 0.0000
     13 ****         4.5645  -0.6071  -1.4157 C.ar           1 S1                 0.0000
     14 ****         4.5806  -1.3719  -0.2314 C.ar           1 S1                 0.0000
     15 ****         3.3861  -1.7793   0.3980 C.ar           1 S1                 0.0000
     16 ****         2.1903  -1.3913  -0.2071 C.ar           1 S1                 0.0000
     17 ****         0.8443  -1.6043   0.1182 N.pl3          1 S1                 0.0000
     18 ****         0.5016  -2.4002   1.3091 C.3            1 S1                 0.0000
     19 ****         0.1938  -1.5343   2.5461 C.3            1 S1                 0.0000
     20 ****        -0.1225  -2.3860   3.7812 C.3            1 S1                 0.0000
     21 ****         1.2906  -0.6956   2.8466 O.3            1 S1                 0.0000
     22 ****        -1.9523   6.1295  -0.2961 H              1 S1                 0.0000
     23 ****        -3.5228   5.3394  -0.4084 H              1 S1                 0.0000
     24 ****        -2.4146   5.3009  -1.7799 H              1 S1                 0.0000
     25 ****        -0.7984   3.9315  -0.4281 H              1 S1                 0.0000
     26 ****        -1.8921   3.9781   0.9347 H              1 S1                 0.0000
     27 ****        -3.6110   2.7074  -0.3715 H              1 S1                 0.0000
     28 ****        -2.5713   2.7264  -1.7791 H              1 S1                 0.0000
     29 ****        -2.4799   0.4973  -1.9357 H              1 S1                 0.0000
     30 ****        -1.8245  -1.2903   0.1818 H              1 S1                 0.0000
     31 ****        -1.6699  -2.9764  -1.6324 H              1 S1                 0.0000
     32 ****        -1.6892  -1.7008  -2.8476 H              1 S1                 0.0000
     33 ****        -3.1033  -1.9762  -1.8329 H              1 S1                 0.0000
     34 ****         3.3411   0.3740  -2.9249 H              1 S1                 0.0000
     35 ****         5.5006  -0.3139  -1.8686 H              1 S1                 0.0000
     36 ****         5.5286  -1.6512   0.2050 H              1 S1                 0.0000
     37 ****         3.4139  -2.3586   1.3089 H              1 S1                 0.0000
     38 ****        -0.3674  -3.0077   1.0543 H              1 S1                 0.0000
     39 ****         1.3056  -3.1066   1.5151 H              1 S1                 0.0000
     40 ****        -0.6628  -0.8939   2.3361 H              1 S1                 0.0000
     41 ****        -0.9828  -3.0311   3.6006 H              1 S1                 0.0000
     42 ****        -0.3566  -1.7586   4.6419 H              1 S1                 0.0000
     43 ****         0.7205  -3.0227   4.0519 H              1 S1                 0.0000
     44 ****         1.4126  -0.0955   2.1269 H              1 S1                 0.0000
     45 ****         0.5012   0.1196  -2.5153 H              1 S1                 0.0000
     46 ****        -1.3332   2.1412   1.4753 LP             1 S1                 0.0000
     47 ****        -0.9489   0.4778   1.1829 LP             1 S1                 0.0000
     48 ****         2.1150  -1.2483   2.9691 LP             1 S1                 0.0000
     49 ****         1.1048  -0.1838   3.6854 LP             1 S1                 0.0000
@<TRIPOS>BOND
    1    1    2 1     
    2    1   22 1     
    3    1   23 1     
    4    1   24 1     
    5    2    3 1     
    6    2   25 1     
    7    2   26 1     
    8    3    4 1     
    9    3   27 1     
   10    3   28 1     
   11    4    5 2     
   12    4    6 am    
   13    6    7 1     
   14    6   29 1     
   15    7    8 1     
   16    7    9 1     
   17    7   30 1     
   18    8   31 1     
   19    8   32 1     
   20    8   33 1     
   21    9   17 1     
   22    9   10 2     
   23   10   11 1     
   24   10   45 1     
   25   11   16 ar    
   26   11   12 ar    
   27   12   13 ar    
   28   12   34 1     
   29   13   14 ar    
   30   13   35 1     
   31   14   15 ar    
   32   14   36 1     
   33   15   16 ar    
   34   15   37 1     
   35   16   17 1     
   36   17   18 1     
   37   18   19 1     
   38   18   38 1     
   39   18   39 1     
   40   19   20 1     
   41   19   21 1     
   42   19   40 1     
   43   20   41 1     
   44   20   42 1     
   45   20   43 1     
   46   21   44 1     
   47    5   46 1     
   48    5   47 1     
   49   21   48 1     
   50   21   49 1     
@<TRIPOS>SUBSTRUCTURE
      1 S1             1
@<TRIPOS>SET
LONE_PAIRS      STATIC     ATOMS    <user>   **** ""
4 46 47 48 49
DONOR_HYDROGENS      STATIC     ATOMS    <user>   **** ""
3 29 45 44
ATOM$BLUE        STATIC     ATOMS    COLORGROUP SYSTEM
4 46 47 48 49
ATOM$RED        STATIC     ATOMS    COLORGROUP SYSTEM
3 29 45 44
