AV-unprocessed.smi:3306|AV-procd|sdf|12705|dock1
  -GOLD-   2272019 43D 1   1.00000     0.00000
 Structure written by MMmdl.
 44 45  0  0  0  0  0  0  0  0  2 V2000
  148.4205  134.1732  154.5432 C   0  0  0  0  0  0  0  0  0  0  0  0
  149.6084  134.9643  155.1312 C   0  0  0  0  0  0  0  0  0  0  0  0
  149.4941  134.9352  156.6705 C   0  0  0  0  0  0  0  0  0  0  0  0
  149.6917  136.3556  154.5757 N   0  3  2  0  0  0  0  0  0  0  0  0
  150.9747  137.0389  154.9109 C   0  0  0  0  0  0  0  0  0  0  0  0
  151.0974  138.4154  154.2347 C   0  0  0  0  0  0  0  0  0  0  0  0
  149.9136  139.3398  154.5708 C   0  0  2  0  0  0  0  0  0  0  0  0
  149.9231  139.7773  155.9617 N   0  0  0  0  0  0  0  0  0  0  0  0
  150.9635  140.7549  156.2515 C   0  0  0  0  0  0  0  0  0  0  0  0
  150.3411  142.0611  156.7742 C   0  0  0  0  0  0  0  0  0  0  0  0
  151.1156  142.6701  157.9330 C   0  0  0  0  0  0  0  0  0  0  0  0
  151.5667  144.0058  157.8693 C   0  0  0  0  0  0  0  0  0  0  0  0
  152.2985  144.5206  158.9569 C   0  0  0  0  0  0  0  0  0  0  0  0
  152.5526  143.6836  160.0604 C   0  0  0  0  0  0  0  0  0  0  0  0
  152.0598  142.3640  160.0279 C   0  0  0  0  0  0  0  0  0  0  0  0
  151.3576  141.8607  158.9903 N   0  0  0  0  0  0  0  0  0  0  0  0
  148.5963  138.6082  154.2789 C   0  0  0  0  0  0  0  0  0  0  0  0
  148.5295  137.2178  154.9393 C   0  0  0  0  0  0  0  0  0  0  0  0
  148.2982  133.2150  155.0491 H   0  0  0  0  0  0  0  0  0  0  0  0
  148.5565  133.9361  153.4890 H   0  0  0  0  0  0  0  0  0  0  0  0
  147.4844  134.7219  154.6521 H   0  0  0  0  0  0  0  0  0  0  0  0
  150.5269  134.4401  154.8617 H   0  0  0  0  0  0  0  0  0  0  0  0
  149.3124  133.9221  157.0311 H   0  0  0  0  0  0  0  0  0  0  0  0
  148.6719  135.5597  157.0220 H   0  0  0  0  0  0  0  0  0  0  0  0
  150.4102  135.2643  157.1601 H   0  0  0  0  0  0  0  0  0  0  0  0
  151.0611  137.1427  155.9939 H   0  0  0  0  0  0  0  0  0  0  0  0
  151.8280  136.4494  154.5831 H   0  0  0  0  0  0  0  0  0  0  0  0
  152.0516  138.8726  154.4924 H   0  0  0  0  0  0  0  0  0  0  0  0
  151.1288  138.2703  153.1542 H   0  0  0  0  0  0  0  0  0  0  0  0
  149.9556  140.2297  153.9410 H   0  0  0  0  0  0  0  0  0  0  0  0
  149.0270  140.1775  156.2022 H   0  0  0  0  0  0  0  0  0  0  0  0
  151.6682  140.3753  156.9899 H   0  0  0  0  0  0  0  0  0  0  0  0
  151.5278  140.9507  155.3391 H   0  0  0  0  0  0  0  0  0  0  0  0
  150.2991  142.7896  155.9638 H   0  0  0  0  0  0  0  0  0  0  0  0
  149.3067  141.8913  157.0774 H   0  0  0  0  0  0  0  0  0  0  0  0
  151.3605  144.6222  157.0064 H   0  0  0  0  0  0  0  0  0  0  0  0
  152.6597  145.5384  158.9442 H   0  0  0  0  0  0  0  0  0  0  0  0
  153.1100  144.0446  160.9122 H   0  0  0  0  0  0  0  0  0  0  0  0
  152.2358  141.6942  160.8564 H   0  0  0  0  0  0  0  0  0  0  0  0
  147.7454  139.2140  154.5938 H   0  0  0  0  0  0  0  0  0  0  0  0
  148.4934  138.4878  153.1996 H   0  0  0  0  0  0  0  0  0  0  0  0
  147.5936  136.7662  154.6156 H   0  0  0  0  0  0  0  0  0  0  0  0
  148.4768  137.3160  156.0249 H   0  0  0  0  0  0  0  0  0  0  0  0
  149.6696  136.2612  153.5704 H   0  0  0  0  0  0  0  0  0  0  0  0
  1  2  1  0  0  0  0
  1 19  1  0  0  0  0
  1 20  1  0  0  0  0
  1 21  1  0  0  0  0
  2  3  1  0  0  0  0
  2  4  1  0  0  0  0
  2 22  1  0  0  0  0
  3 23  1  0  0  0  0
  3 24  1  0  0  0  0
  3 25  1  0  0  0  0
  4 18  1  0  0  0  0
  4  5  1  0  0  0  0
  4 44  1  0  0  0  0
  5  6  1  0  0  0  0
  5 26  1  0  0  0  0
  5 27  1  0  0  0  0
  6  7  1  0  0  0  0
  6 28  1  0  0  0  0
  6 29  1  0  0  0  0
  7  8  1  0  0  0  0
  7 17  1  0  0  0  0
  7 30  1  0  0  0  0
  8  9  1  0  0  0  0
  8 31  1  0  0  0  0
  9 10  1  0  0  0  0
  9 32  1  0  0  0  0
  9 33  1  0  0  0  0
 10 11  1  0  0  0  0
 10 34  1  0  0  0  0
 10 35  1  0  0  0  0
 11 16  1  0  0  0  0
 11 12  2  0  0  0  0
 12 13  1  0  0  0  0
 12 36  1  0  0  0  0
 13 14  2  0  0  0  0
 13 37  1  0  0  0  0
 14 15  1  0  0  0  0
 14 38  1  0  0  0  0
 15 16  2  0  0  0  0
 15 39  1  0  0  0  0
 17 18  1  0  0  0  0
 17 40  1  0  0  0  0
 17 41  1  0  0  0  0
 18 42  1  0  0  0  0
 18 43  1  0  0  0  0
M  CHG  1   4   1
M  END
> <s_m_source_file>
AV-unprocessed.smi

> <i_m_source_file_index>
3306

> <i_lp_mmshare_version>
43012

> <i_f3d_flags>
0

> <s_epik_input>
W0NIM11bQ0hdKFtDSDNdKU4xW0NIMl1bQ0gyXVtDSF0oW0NIMl1bQ0gyXTEpW05IXVtDSDJdW0NIMl1jMltjSF1bY0hdW2NIXVtjSF1uMg==

> <s_epik_cmdline>
J2VwaWtfcHl0aG9uJywgJy1waCcsICc3LjAnLCAnLXRuJywgJzgnLCAnLW1hJywgJzIwMCcsICctbWV0YWxfYmluZGluZycsICctaW1hZScsICc8aW5maWxlLm1hZT4nLCAnLW9tYWUnLCAnPG91dGZpbGUubWFlPic=

> <r_epik_Ionization_Penalty>
2.29993

> <r_epik_Ionization_Penalty_Charging>
0.000386008

> <r_epik_Ionization_Penalty_Neutral>
2.29954

> <r_epik_State_Penalty>
2.40593

> <r_epik_Charging_Adjusted_Penalty>
2.40631

> <i_epik_Tot_Q>
1

> <i_epik_Tot_abs_Q>
1

> <r_epik_Metal_State_Penalty>
2.31593

> <b_epik_Metal_Only>
0

> <s_lp_Force_Field>
OPLS_2005

> <r_lp_Energy>
27.2023

> <b_lp_Chiralities_Consistent>
1

> <s_lp_Variant>
AV-unprocessed.smi:3306-5

> <Gold.Version>
5.8.1

> <Gold.Id.Protein>
6NUR|6NUR_protein|mol2

> <Gold.PLP.Fitness>
43.6245

> <Gold.PLP.PLP>
-39.2347

> <Gold.PLP.part.hbond>
-1.0025

> <Gold.PLP.part.metal>
0.0000

> <Gold.PLP.part.buried>
-4.3730

> <Gold.PLP.part.nonpolar>
-35.1624

> <Gold.PLP.part.repulsive>
0.0438

> <Gold.PLP.ligand.clash>
0.0000

> <Gold.PLP.ligand.torsion>
0.8544

> <Gold.PLP.Chemscore.Hbond>
2.0000

> <Gold.PLP.Chemscore.CHOScore>
0.0000

> <Gold.PLP.Chemscore.Metal>
0.0000

> <Gold.Chemscore.Hbonds>
donor molecule, donor type, donor heavy atom, donor atom, acceptor molecule, acceptor atom, score
      L1  H     4    44       P1  7948  2.00

> <Gold.PLP.Chemscore.Internal.Correction>
0.0986

> <Gold.Rescore>
     Score         DG    S(hbond)    S(metal)    S(lipo)     H(rot)  DE(clash)    DE(int)     intcor
     17.84     -18.76       0.99        0.00     115.99       1.41       0.07       0.85       ----

> <Gold.Chemscore.Fitness>
17.8422

> <Gold.Chemscore.DG>
-18.7608

> <Gold.Chemscore.ZeroCoef>
-5.4800

> <Gold.Chemscore.Hbond>
0.9922

> <Gold.Chemscore.Metal>
0.0000

> <Gold.Chemscore.Lipo>
115.9914

> <Gold.Chemscore.Internal_Hbond>
0.0000

> <Gold.Chemscore.DEClash>
0.0681

> <Gold.Chemscore.DEInternal>
0.8505

> <Gold.Chemscore.Rot>
1.4078

> <Gold.Chemscore.Internal.Correction>
   9.000000E+99

> <Gold.Chemscore.Hbonds>
donor molecule, donor type, donor heavy atom, donor atom, acceptor molecule, acceptor atom, score
      L1  H     4    44       P1  7948  0.39

> <Gold.Chemscore.Hbond.Weighted>
-3.3139

> <Gold.Chemscore.Metal.Weighted>
-0.0000

> <Gold.Chemscore.Lipo.Weighted>
-13.5710

> <Gold.Chemscore.Internal_Hbond.Weighted>
0.0000

> <Gold.Chemscore.DEClash.Weighted>
0.0681

> <Gold.Chemscore.DEInternal.Weighted>
0.8505

> <Gold.Chemscore.Rot.Weighted>
3.6041

> <Gold.Chemscore.Internal.Correction.Weighted>
   9.000000E+99

> <Gold.Protein.RotatedTorsions>
[ 6907 6896 6895 6894 ] final  -86.49 input  -60.11 | X-H torsion
[ 7974 7965 7964 7962 ] final -106.45 input  175.53 | X-H torsion
[ 8008 7997 7996 7995 ] final -147.39 input   59.86 | X-H torsion
[ 10167 10162 10161 10158 ] final  -92.82 input  -65.29 | X-H torsion
[ 10718 10713 10712 10709 ] final  -44.51 input   66.30 | X-H torsion
[ 10763 10752 10751 10750 ] final  110.98 input  -60.55 | X-H torsion
[ 11005 11000 10999 10996 ] final  175.88 input  -57.11 | X-H torsion

> <Gold.Protein.ActiveResidues>
 VAL166  LYS551  ARG553  GLY616  TRP617  ASP618  TYR619  PRO620  LYS621  CYS622 
 ASP623  PHE694  ASN695  SER759  ASP760  ASP761  ALA762  ILE779  LEU786  VAL792 
 PHE793  MET794  SER795  GLU796  ALA797  LYS798  CYS799  TRP800  GLU811  SER814 

> <Gold.Protein.RotatedAtoms>
  150.6867  134.3042  159.4718 H   0  0  0  0  0  0  0  0  0  0  0  0  # atno 6907 bound_to 6896
  152.0935  134.9388  160.0580 H   0  0  0  0  0  0  0  0  0  0  0  0  # atno 6908 bound_to 6896
  152.0695  133.4065  159.4490 H   0  0  0  0  0  0  0  0  0  0  0  0  # atno 6909 bound_to 6896
  145.2177  140.9122  143.3278 H   0  0  0  0  0  0  0  0  0  0  0  0  # atno 7974 bound_to 7965
  155.5747  140.0637  157.2798 H   0  0  0  0  0  0  0  0  0  0  0  0  # atno 8008 bound_to 7997
  154.4350  140.1862  156.0962 H   0  0  0  0  0  0  0  0  0  0  0  0  # atno 8009 bound_to 7997
  156.0350  140.3302  155.7184 H   0  0  0  0  0  0  0  0  0  0  0  0  # atno 8010 bound_to 7997
  140.3309  143.2995  151.9943 H   0  0  0  0  0  0  0  0  0  0  0  0  # atno 10167 bound_to 10162
  156.2379  130.4177  149.8796 H   0  0  0  0  0  0  0  0  0  0  0  0  # atno 10718 bound_to 10713
  153.4567  135.3731  155.2315 H   0  0  0  0  0  0  0  0  0  0  0  0  # atno 10763 bound_to 10752
  154.8757  135.3899  154.3973 H   0  0  0  0  0  0  0  0  0  0  0  0  # atno 10764 bound_to 10752
  153.4541  135.7086  153.6155 H   0  0  0  0  0  0  0  0  0  0  0  0  # atno 10765 bound_to 10752
  140.3670  134.7063  157.4368 H   0  0  0  0  0  0  0  0  0  0  0  0  # atno 11005 bound_to 11000
  144.9795  139.3797  143.6269 LP  0  0  0  0  0  0  0  0  0  0  0  0  # atno 17320 bound_to 7965
  146.3383  139.8930  142.8806 LP  0  0  0  0  0  0  0  0  0  0  0  0  # atno 17321 bound_to 7965
  139.4857  144.6236  151.7208 LP  0  0  0  0  0  0  0  0  0  0  0  0  # atno 17342 bound_to 10162
  140.5398  144.0597  150.6084 LP  0  0  0  0  0  0  0  0  0  0  0  0  # atno 17343 bound_to 10162
  156.6388  130.8696  151.3510 LP  0  0  0  0  0  0  0  0  0  0  0  0  # atno 17370 bound_to 10713
  157.7162  130.9500  150.1265 LP  0  0  0  0  0  0  0  0  0  0  0  0  # atno 17371 bound_to 10713
  140.0581  134.6034  155.8781 LP  0  0  0  0  0  0  0  0  0  0  0  0  # atno 17394 bound_to 11000
  141.1966  133.6592  156.5701 LP  0  0  0  0  0  0  0  0  0  0  0  0  # atno 17395 bound_to 11000

$$$$
