#       Name:                AV-unprocessed.smi:2355
#       Creating user name   scv26
#       Creation time:       Fri Mar 27 13:02:25 2020


#       File generated by GOLD software.
#

@<TRIPOS>MOLECULE
AV-unprocessed.smi:2355
    54    55     1
SMALL
NO_CHARGES


@<TRIPOS>ATOM
      1 ****        -7.0966   0.5346  -0.5110 C.3            1 S1                 0.0000
      2 ****        -5.6854   1.0694  -0.6353 C.ar           1 S1                 0.0000
      3 ****        -5.4483   2.4430  -0.8330 C.ar           1 S1                 0.0000
      4 ****        -4.1131   2.8783  -0.9415 C.ar           1 S1                 0.0000
      5 ****        -3.7867   4.3405  -1.1595 C.3            1 S1                 0.0000
      6 ****        -3.0566   2.0407  -0.8666 N.ar           1 S1                 0.0000
      7 ****        -3.2727   0.7156  -0.6765 C.ar           1 S1                 0.0000
      8 ****        -2.2314  -0.2463  -0.5846 N.am           1 S1                 0.0000
      9 ****        -0.9047  -0.0429  -0.6671 C.2            1 S1                 0.0000
     10 ****        -0.3588   1.0463  -0.8463 O.2            1 S1                 0.0000
     11 ****        -0.2254  -1.1908  -0.5240 N.am           1 S1                 0.0000
     12 ****         1.2311  -1.3177  -0.5630 C.3            1 S1                 0.0000
     13 ****         1.5907  -2.7724  -0.9134 C.3            1 S1                 0.0000
     14 ****         1.8918  -0.8178   0.7602 C.3            1 S1                 0.0000
     15 ****         1.3336  -1.5739   1.9930 C.3            1 S1                 0.0000
     16 ****         3.3899  -0.8435   0.6662 N.4            1 S1                 1.0000
     17 ****         3.9296   0.2270  -0.2170 C.3            1 S1                 0.0000
     18 ****         5.4577   0.1251  -0.3490 C.3            1 S1                 0.0000
     19 ****         6.0520   0.1951   0.9382 O.3            1 S1                 0.0000
     20 ****         5.6350  -0.8838   1.7608 C.3            1 S1                 0.0000
     21 ****         4.1121  -0.8240   1.9687 C.3            1 S1                 0.0000
     22 ****        -4.5815   0.1964  -0.5553 C.ar           1 S1                 0.0000
     23 ****        -7.8339   1.3255  -0.6525 H              1 S1                 0.0000
     24 ****        -7.2497   0.0983   0.4762 H              1 S1                 0.0000
     25 ****        -7.2767  -0.2365  -1.2604 H              1 S1                 0.0000
     26 ****        -6.2673   3.1443  -0.9004 H              1 S1                 0.0000
     27 ****        -4.6654   4.9679  -1.0065 H              1 S1                 0.0000
     28 ****        -3.4267   4.4982  -2.1766 H              1 S1                 0.0000
     29 ****        -3.0120   4.6677  -0.4653 H              1 S1                 0.0000
     30 ****        -2.5333  -1.1981  -0.4385 H              1 S1                 0.0000
     31 ****        -0.7526  -2.0401  -0.3822 H              1 S1                 0.0000
     32 ****         1.5647  -0.7025  -1.3977 H              1 S1                 0.0000
     33 ****         2.6682  -2.9057  -1.0114 H              1 S1                 0.0000
     34 ****         1.1429  -3.0646  -1.8638 H              1 S1                 0.0000
     35 ****         1.2345  -3.4724  -0.1574 H              1 S1                 0.0000
     36 ****         1.6104   0.2267   0.9035 H              1 S1                 0.0000
     37 ****         0.2441  -1.5745   2.0100 H              1 S1                 0.0000
     38 ****         1.6403  -1.1054   2.9282 H              1 S1                 0.0000
     39 ****         1.6615  -2.6133   2.0145 H              1 S1                 0.0000
     40 ****         3.5003   0.1695  -1.2149 H              1 S1                 0.0000
     41 ****         3.6602   1.2040   0.1875 H              1 S1                 0.0000
     42 ****         5.7468  -0.7994  -0.8513 H              1 S1                 0.0000
     43 ****         5.8366   0.9478  -0.9556 H              1 S1                 0.0000
     44 ****         5.9305  -1.8344   1.3136 H              1 S1                 0.0000
     45 ****         6.1469  -0.8127   2.7208 H              1 S1                 0.0000
     46 ****         3.8452   0.0770   2.5235 H              1 S1                 0.0000
     47 ****         3.8343  -1.6812   2.5811 H              1 S1                 0.0000
     48 ****        -4.7406  -0.8616  -0.4036 H              1 S1                 0.0000
     49 ****         3.6279  -1.7254   0.2353 H              1 S1                 0.0000
     50 ****        -2.1248   2.3939  -0.9504 LP             1 S1                 0.0000
     51 ****        -0.9127   1.8732  -0.9436 LP             1 S1                 0.0000
     52 ****         0.6384   1.1039  -0.8945 LP             1 S1                 0.0000
     53 ****         5.7875   1.0563   1.3723 LP             1 S1                 0.0000
     54 ****         7.0466   0.1634   0.8395 LP             1 S1                 0.0000
@<TRIPOS>BOND
    1    1    2 1     
    2    1   23 1     
    3    1   24 1     
    4    1   25 1     
    5    2   22 ar    
    6    2    3 ar    
    7    3    4 ar    
    8    3   26 1     
    9    4    5 1     
   10    4    6 ar    
   11    5   27 1     
   12    5   28 1     
   13    5   29 1     
   14    6    7 ar    
   15    7    8 1     
   16    7   22 ar    
   17    8    9 am    
   18    8   30 1     
   19    9   10 2     
   20    9   11 am    
   21   11   12 1     
   22   11   31 1     
   23   12   13 1     
   24   12   14 1     
   25   12   32 1     
   26   13   33 1     
   27   13   34 1     
   28   13   35 1     
   29   14   15 1     
   30   14   16 1     
   31   14   36 1     
   32   15   37 1     
   33   15   38 1     
   34   15   39 1     
   35   16   21 1     
   36   16   17 1     
   37   16   49 1     
   38   17   18 1     
   39   17   40 1     
   40   17   41 1     
   41   18   19 1     
   42   18   42 1     
   43   18   43 1     
   44   19   20 1     
   45   20   21 1     
   46   20   44 1     
   47   20   45 1     
   48   21   46 1     
   49   21   47 1     
   50   22   48 1     
   51    6   50 1     
   52   10   51 1     
   53   10   52 1     
   54   19   53 1     
   55   19   54 1     
@<TRIPOS>SUBSTRUCTURE
      1 S1             1
@<TRIPOS>SET
LONE_PAIRS      STATIC     ATOMS    <user>   **** ""
5 50 51 52 53 54
DONOR_HYDROGENS      STATIC     ATOMS    <user>   **** ""
3 30 31 49
ATOM$BLUE        STATIC     ATOMS    COLORGROUP SYSTEM
5 50 51 52 53 54
ATOM$RED        STATIC     ATOMS    COLORGROUP SYSTEM
3 30 31 49
