AV-unprocessed.smi:3132|AV-procd|sdf|11931|dock8
  -GOLD-   2272017323D 1   1.00000     0.00000
 Structure written by MMmdl.
 34 35  0  0  0  0  0  0  0  0  2 V2000
  149.7929  139.5594  157.8870 C   0  0  0  0  0  0  0  0  0  0  0  0
  150.0906  140.9471  157.3035 C   0  0  2  0  0  0  0  0  0  0  0  0
  150.7751  140.8380  155.9238 C   0  0  0  0  0  0  0  0  0  0  0  0
  149.9704  140.1077  154.9387 N   0  0  0  0  0  0  0  0  0  0  0  0
  148.7219  140.4357  154.4758 C   0  0  0  0  0  0  0  0  0  0  0  0
  148.3686  139.4595  153.5804 C   0  0  0  0  0  0  0  0  0  0  0  0
  149.4177  138.5811  153.5302 N   0  3  0  0  0  0  0  0  0  0  0  0
  150.3928  138.9795  154.3534 C   0  0  0  0  0  0  0  0  0  0  0  0
  150.9257  141.6869  158.2487 N   0  0  0  0  0  0  0  0  0  0  0  0
  152.2012  141.4063  158.5639 C   0  0  0  0  0  0  0  0  0  0  0  0
  152.8123  140.4453  158.0955 O   0  0  0  0  0  0  0  0  0  0  0  0
  152.8890  142.3271  159.5822 C   0  0  1  0  0  0  0  0  0  0  0  0
  152.8762  143.8189  159.1968 C   0  0  0  0  0  0  0  0  0  0  0  0
  152.2181  144.5030  160.3837 C   0  0  0  0  0  0  0  0  0  0  0  0
  152.4119  143.4935  161.5067 C   0  0  0  0  0  0  0  0  0  0  0  0
  152.2215  142.2572  160.8412 O   0  0  0  0  0  0  0  0  0  0  0  0
  149.1428  138.9867  157.2250 H   0  0  0  0  0  0  0  0  0  0  0  0
  149.2909  139.6379  158.8520 H   0  0  0  0  0  0  0  0  0  0  0  0
  150.7079  138.9841  158.0333 H   0  0  0  0  0  0  0  0  0  0  0  0
  149.1322  141.4557  157.1841 H   0  0  0  0  0  0  0  0  0  0  0  0
  150.9927  141.8275  155.5191 H   0  0  0  0  0  0  0  0  0  0  0  0
  151.7295  140.3169  156.0128 H   0  0  0  0  0  0  0  0  0  0  0  0
  148.1886  141.3121  154.8146 H   0  0  0  0  0  0  0  0  0  0  0  0
  147.4726  139.3271  152.9914 H   0  0  0  0  0  0  0  0  0  0  0  0
  151.3317  138.4820  154.5204 H   0  0  0  0  0  0  0  0  0  0  0  0
  150.5084  142.4962  158.6863 H   0  0  0  0  0  0  0  0  0  0  0  0
  153.9181  141.9918  159.7192 H   0  0  0  0  0  0  0  0  0  0  0  0
  153.8981  144.1770  159.0685 H   0  0  0  0  0  0  0  0  0  0  0  0
  152.3352  144.0342  158.2741 H   0  0  0  0  0  0  0  0  0  0  0  0
  152.6493  145.4788  160.6085 H   0  0  0  0  0  0  0  0  0  0  0  0
  151.1532  144.6379  160.1900 H   0  0  0  0  0  0  0  0  0  0  0  0
  153.4236  143.5437  161.9125 H   0  0  0  0  0  0  0  0  0  0  0  0
  151.7017  143.6270  162.3227 H   0  0  0  0  0  0  0  0  0  0  0  0
  149.4522  137.7482  152.9557 H   0  0  0  0  0  0  0  0  0  0  0  0
  1  2  1  0  0  0  0
  1 17  1  0  0  0  0
  1 18  1  0  0  0  0
  1 19  1  0  0  0  0
  2  3  1  0  0  0  0
  2  9  1  0  0  0  0
  2 20  1  0  0  0  0
  3  4  1  0  0  0  0
  3 21  1  0  0  0  0
  3 22  1  0  0  0  0
  4  8  1  0  0  0  0
  4  5  1  0  0  0  0
  5  6  2  0  0  0  0
  5 23  1  0  0  0  0
  6  7  1  0  0  0  0
  6 24  1  0  0  0  0
  7  8  2  0  0  0  0
  7 34  1  0  0  0  0
  8 25  1  0  0  0  0
  9 10  1  0  0  0  0
  9 26  1  0  0  0  0
 10 11  2  0  0  0  0
 10 12  1  0  0  0  0
 12 16  1  0  0  0  0
 12 13  1  0  0  0  0
 12 27  1  0  0  0  0
 13 14  1  0  0  0  0
 13 28  1  0  0  0  0
 13 29  1  0  0  0  0
 14 15  1  0  0  0  0
 14 30  1  0  0  0  0
 14 31  1  0  0  0  0
 15 16  1  0  0  0  0
 15 32  1  0  0  0  0
 15 33  1  0  0  0  0
M  CHG  1   7   1
M  END
> <s_m_source_file>
AV-unprocessed.smi

> <i_m_source_file_index>
3132

> <i_lp_mmshare_version>
43012

> <i_f3d_flags>
0

> <s_epik_input>
W2NIXTFuW2NIXVtjSF1uMVtDSDJdW0NAQEhdKFtDSDNdKVtOSF1DKD1PKVtDQEBIXTJbQ0gyXVtDSDJdW0NIMl1PMg==

> <s_epik_cmdline>
J2VwaWtfcHl0aG9uJywgJy1waCcsICc3LjAnLCAnLXRuJywgJzgnLCAnLW1hJywgJzIwMCcsICctbWV0YWxfYmluZGluZycsICctaW1hZScsICc8aW5maWxlLm1hZT4nLCAnLW9tYWUnLCAnPG91dGZpbGUubWFlPic=

> <r_lp_tautomer_probability>
1

> <r_epik_Ionization_Penalty>
0.250802

> <r_epik_Ionization_Penalty_Charging>
0

> <r_epik_Ionization_Penalty_Neutral>
0.250802

> <r_epik_State_Penalty>
0.242139

> <r_epik_Charging_Adjusted_Penalty>
0.242139

> <i_epik_Tot_Q>
1

> <i_epik_Tot_abs_Q>
1

> <r_epik_Metal_State_Penalty>
0.533361

> <b_epik_Metal_Only>
0

> <s_lp_Force_Field>
OPLS_2005

> <r_lp_Energy>
20.312

> <b_lp_Chiralities_Consistent>
1

> <s_lp_Variant>
AV-unprocessed.smi:3132-3

> <Gold.Version>
5.8.1

> <Gold.Id.Protein>
6NUR|6NUR_protein|mol2

> <Gold.PLP.Fitness>
43.9283

> <Gold.PLP.PLP>
-35.6436

> <Gold.PLP.part.hbond>
-3.2306

> <Gold.PLP.part.metal>
0.0000

> <Gold.PLP.part.buried>
-0.5025

> <Gold.PLP.part.nonpolar>
-31.0035

> <Gold.PLP.part.repulsive>
0.2004

> <Gold.PLP.ligand.clash>
0.0000

> <Gold.PLP.ligand.torsion>
0.0851

> <Gold.PLP.Chemscore.Hbond>
2.8130

> <Gold.PLP.Chemscore.CHOScore>
0.0000

> <Gold.PLP.Chemscore.Metal>
0.0000

> <Gold.Chemscore.Hbonds>
donor molecule, donor type, donor heavy atom, donor atom, acceptor molecule, acceptor atom, score
      L1  H     7    34       P1  7948  2.00
      P1  H  7997  8008       L1    11  0.73

> <Gold.PLP.Chemscore.Internal.Correction>
0.0158

> <Gold.Rescore>
     Score         DG    S(hbond)    S(metal)    S(lipo)     H(rot)  DE(clash)    DE(int)     intcor
     14.60     -15.68       1.83        0.00      77.29       1.93       0.15       0.93       ----

> <Gold.Chemscore.Fitness>
14.5968

> <Gold.Chemscore.DG>
-15.6758

> <Gold.Chemscore.ZeroCoef>
-5.4800

> <Gold.Chemscore.Hbond>
1.8252

> <Gold.Chemscore.Metal>
0.0000

> <Gold.Chemscore.Lipo>
77.2863

> <Gold.Chemscore.Internal_Hbond>
0.0000

> <Gold.Chemscore.DEClash>
0.1536

> <Gold.Chemscore.DEInternal>
0.9255

> <Gold.Chemscore.Rot>
1.9308

> <Gold.Chemscore.Internal.Correction>
   9.000000E+99

> <Gold.Chemscore.Hbonds>
donor molecule, donor type, donor heavy atom, donor atom, acceptor molecule, acceptor atom, score
      L1  H     7    34       P1  7948  0.88
      P1  H  7997  8008       L1    11  0.70

> <Gold.Chemscore.Hbond.Weighted>
-6.0963

> <Gold.Chemscore.Metal.Weighted>
-0.0000

> <Gold.Chemscore.Lipo.Weighted>
-9.0425

> <Gold.Chemscore.Internal_Hbond.Weighted>
0.0000

> <Gold.Chemscore.DEClash.Weighted>
0.1536

> <Gold.Chemscore.DEInternal.Weighted>
0.9255

> <Gold.Chemscore.Rot.Weighted>
4.9429

> <Gold.Chemscore.Internal.Correction.Weighted>
   9.000000E+99

> <Gold.Protein.RotatedTorsions>
[ 6907 6896 6895 6894 ] final -119.58 input  -60.11 | X-H torsion
[ 7974 7965 7964 7962 ] final  140.06 input  175.53 | X-H torsion
[ 8008 7997 7996 7995 ] final  -77.67 input   59.86 | X-H torsion
[ 10167 10162 10161 10158 ] final  -16.88 input  -65.29 | X-H torsion
[ 10718 10713 10712 10709 ] final   64.26 input   66.30 | X-H torsion
[ 10763 10752 10751 10750 ] final -127.39 input  -60.55 | X-H torsion
[ 11005 11000 10999 10996 ] final   98.18 input  -57.11 | X-H torsion

> <Gold.Protein.ActiveResidues>
 VAL166  LYS551  ARG553  GLY616  TRP617  ASP618  TYR619  PRO620  LYS621  CYS622 
 ASP623  PHE694  ASN695  SER759  ASP760  ASP761  ALA762  ILE779  LEU786  VAL792 
 PHE793  MET794  SER795  GLU796  ALA797  LYS798  CYS799  TRP800  GLU811  SER814 

> <Gold.Protein.RotatedAtoms>
  150.8317  133.8079  159.3095 H   0  0  0  0  0  0  0  0  0  0  0  0  # atno 6907 bound_to 6896
  151.5807  135.1057  160.0026 H   0  0  0  0  0  0  0  0  0  0  0  0  # atno 6908 bound_to 6896
  152.4396  133.7382  159.6682 H   0  0  0  0  0  0  0  0  0  0  0  0  # atno 6909 bound_to 6896
  144.9221  139.5154  143.5658 H   0  0  0  0  0  0  0  0  0  0  0  0  # atno 7974 bound_to 7965
  154.5618  140.0706  156.8830 H   0  0  0  0  0  0  0  0  0  0  0  0  # atno 8008 bound_to 7997
  155.2798  140.3371  155.4241 H   0  0  0  0  0  0  0  0  0  0  0  0  # atno 8009 bound_to 7997
  156.2048  140.1736  156.7809 H   0  0  0  0  0  0  0  0  0  0  0  0  # atno 8010 bound_to 7997
  140.7240  143.5071  150.9796 H   0  0  0  0  0  0  0  0  0  0  0  0  # atno 10167 bound_to 10162
  157.6027  130.9150  149.9823 H   0  0  0  0  0  0  0  0  0  0  0  0  # atno 10718 bound_to 10713
  154.8752  135.3963  154.3586 H   0  0  0  0  0  0  0  0  0  0  0  0  # atno 10763 bound_to 10752
  153.4362  135.7026  153.6204 H   0  0  0  0  0  0  0  0  0  0  0  0  # atno 10764 bound_to 10752
  153.4804  135.3770  155.2408 H   0  0  0  0  0  0  0  0  0  0  0  0  # atno 10765 bound_to 10752
  139.8773  134.9036  156.4417 H   0  0  0  0  0  0  0  0  0  0  0  0  # atno 11005 bound_to 11000
  146.3209  139.8109  142.8946 LP  0  0  0  0  0  0  0  0  0  0  0  0  # atno 17320 bound_to 7965
  145.3279  141.0259  143.3463 LP  0  0  0  0  0  0  0  0  0  0  0  0  # atno 17321 bound_to 7965
  139.8783  143.7104  152.3159 LP  0  0  0  0  0  0  0  0  0  0  0  0  # atno 17342 bound_to 10162
  139.7378  144.7567  151.0701 LP  0  0  0  0  0  0  0  0  0  0  0  0  # atno 17343 bound_to 10162
  156.1105  130.3650  150.0057 LP  0  0  0  0  0  0  0  0  0  0  0  0  # atno 17370 bound_to 10713
  156.8156  130.9340  151.3643 LP  0  0  0  0  0  0  0  0  0  0  0  0  # atno 17371 bound_to 10713
  140.8995  133.7790  155.9663 LP  0  0  0  0  0  0  0  0  0  0  0  0  # atno 17394 bound_to 11000
  140.8667  134.2776  157.5210 LP  0  0  0  0  0  0  0  0  0  0  0  0  # atno 17395 bound_to 11000

$$$$
