AV-unprocessed.smi:1443|AV-procd|sdf|5878|dock8
  -GOLD-   22720 5553D 1   1.00000     0.00000
 Structure written by MMmdl.
 27 28  0  0  0  0  0  0  0  0  1 V2000
  146.5701  138.3573  151.6095 C   0  0  0  0  0  0  0  0  0  0  0  0
  146.6285  140.1019  152.0970 S   0  0  0  0  0  0  0  0  0  0  0  0
  147.8608  140.2218  153.3536 C   0  0  0  0  0  0  0  0  0  0  0  0
  148.5338  139.1264  153.7496 N   0  0  0  0  0  0  0  0  0  0  0  0
  149.6391  139.5760  154.9458 S   0  0  0  0  0  0  0  0  0  0  0  0
  149.1277  141.2342  154.8380 C   0  0  0  0  0  0  0  0  0  0  0  0
  149.7091  142.2608  155.6373 N   0  0  0  0  0  0  0  0  0  0  0  0
  150.6947  142.2237  156.5592 C   0  0  0  0  0  0  0  0  0  0  0  0
  151.2614  141.1681  156.8371 O   0  0  0  0  0  0  0  0  0  0  0  0
  151.0073  143.3929  157.1392 N   0  0  0  0  0  0  0  0  0  0  0  0
  152.0295  143.5942  158.1155 C   0  0  1  0  0  0  0  0  0  0  0  0
  152.5075  145.0141  158.3305 C   0  0  0  0  0  0  0  0  0  0  0  0
  151.6893  144.3344  159.3960 C   0  0  1  0  0  0  0  0  0  0  0  0
  150.2810  144.8011  159.7062 C   0  0  0  0  0  0  0  0  0  0  0  0
  148.1608  141.3981  153.9343 N   0  0  0  0  0  0  0  0  0  0  0  0
  145.7871  138.2007  150.8679 H   0  0  0  0  0  0  0  0  0  0  0  0
  146.3626  137.7234  152.4718 H   0  0  0  0  0  0  0  0  0  0  0  0
  147.5222  138.0572  151.1734 H   0  0  0  0  0  0  0  0  0  0  0  0
  149.2899  143.1710  155.5135 H   0  0  0  0  0  0  0  0  0  0  0  0
  150.4867  144.2099  156.8531 H   0  0  0  0  0  0  0  0  0  0  0  0
  152.7931  142.8222  158.1985 H   0  0  0  0  0  0  0  0  0  0  0  0
  153.5671  145.1616  158.5292 H   0  0  0  0  0  0  0  0  0  0  0  0
  152.0307  145.8029  157.7514 H   0  0  0  0  0  0  0  0  0  0  0  0
  152.2356  144.0088  160.2792 H   0  0  0  0  0  0  0  0  0  0  0  0
  149.7853  145.1748  158.8111 H   0  0  0  0  0  0  0  0  0  0  0  0
  150.3078  145.6024  160.4448 H   0  0  0  0  0  0  0  0  0  0  0  0
  149.6940  143.9759  160.1092 H   0  0  0  0  0  0  0  0  0  0  0  0
  1  2  1  0  0  0  0
  1 16  1  0  0  0  0
  1 17  1  0  0  0  0
  1 18  1  0  0  0  0
  2  3  1  0  0  0  0
  3 15  1  0  0  0  0
  3  4  2  0  0  0  0
  4  5  1  0  0  0  0
  5  6  1  0  0  0  0
  6  7  1  0  0  0  0
  6 15  2  0  0  0  0
  7  8  1  0  0  0  0
  7 19  1  0  0  0  0
  8  9  2  0  0  0  0
  8 10  1  0  0  0  0
 10 11  1  0  0  0  0
 10 20  1  0  0  0  0
 11 13  1  0  0  0  0
 11 12  1  0  0  0  0
 11 21  1  0  0  0  0
 12 13  1  0  0  0  0
 12 22  1  0  0  0  0
 12 23  1  0  0  0  0
 13 14  1  0  0  0  0
 13 24  1  0  0  0  0
 14 25  1  0  0  0  0
 14 26  1  0  0  0  0
 14 27  1  0  0  0  0
M  END
> <s_m_source_file>
AV-unprocessed.smi

> <i_m_source_file_index>
1443

> <i_lp_mmshare_version>
43012

> <i_f3d_flags>
0

> <s_epik_input>
W0NIM11TYzFuc2MobjEpW05IXUMoPU8pW05IXVtDQEBIXTJbQ0gyXVtDQEhdMltDSDNd

> <s_epik_cmdline>
J2VwaWtfcHl0aG9uJywgJy1waCcsICc3LjAnLCAnLXRuJywgJzgnLCAnLW1hJywgJzIwMCcsICctbWV0YWxfYmluZGluZycsICctaW1hZScsICc8aW5maWxlLm1hZT4nLCAnLW9tYWUnLCAnPG91dGZpbGUubWFlPic=

> <r_lp_tautomer_probability>
1

> <r_epik_Ionization_Penalty>
2.74658e-05

> <r_epik_Ionization_Penalty_Charging>
0

> <r_epik_Ionization_Penalty_Neutral>
2.74658e-05

> <r_epik_State_Penalty>
-0

> <r_epik_Charging_Adjusted_Penalty>
0

> <i_epik_Tot_Q>
0

> <i_epik_Tot_abs_Q>
0

> <r_epik_Metal_State_Penalty>
-0

> <b_epik_Metal_Only>
0

> <s_lp_Force_Field>
OPLS_2005

> <r_lp_Energy>
21.211

> <b_lp_Chiralities_Consistent>
1

> <s_lp_Variant>
AV-unprocessed.smi:1443-2

> <Gold.Version>
5.8.1

> <Gold.Id.Protein>
6NUR|6NUR_protein|mol2

> <Gold.PLP.Fitness>
36.1651

> <Gold.PLP.PLP>
-30.9752

> <Gold.PLP.part.hbond>
-2.0548

> <Gold.PLP.part.metal>
0.0000

> <Gold.PLP.part.buried>
0.3924

> <Gold.PLP.part.nonpolar>
-31.2413

> <Gold.PLP.part.repulsive>
1.2847

> <Gold.PLP.ligand.clash>
0.0000

> <Gold.PLP.ligand.torsion>
0.1714

> <Gold.PLP.Chemscore.Hbond>
1.8320

> <Gold.PLP.Chemscore.CHOScore>
0.0000

> <Gold.PLP.Chemscore.Metal>
0.0000

> <Gold.Chemscore.Hbonds>
donor molecule, donor type, donor heavy atom, donor atom, acceptor molecule, acceptor atom, score
      L1  H     7    19       P1  8028  1.00
      L1  H    10    20       P1  8028  0.82

> <Gold.PLP.Chemscore.Internal.Correction>
0.0368

> <Gold.Rescore>
     Score         DG    S(hbond)    S(metal)    S(lipo)     H(rot)  DE(clash)    DE(int)     intcor
     14.18     -16.91       1.86        0.00      72.37       1.27       1.42       1.30       ----

> <Gold.Chemscore.Fitness>
14.1831

> <Gold.Chemscore.DG>
-16.9076

> <Gold.Chemscore.ZeroCoef>
-5.4800

> <Gold.Chemscore.Hbond>
1.8596

> <Gold.Chemscore.Metal>
0.0000

> <Gold.Chemscore.Lipo>
72.3709

> <Gold.Chemscore.Internal_Hbond>
0.0000

> <Gold.Chemscore.DEClash>
1.4205

> <Gold.Chemscore.DEInternal>
1.3039

> <Gold.Chemscore.Rot>
1.2699

> <Gold.Chemscore.Internal.Correction>
   9.000000E+99

> <Gold.Chemscore.Hbonds>
donor molecule, donor type, donor heavy atom, donor atom, acceptor molecule, acceptor atom, score
      L1  H     7    19       P1  8028  0.99
      L1  H    10    20       P1  8028  0.74

> <Gold.Chemscore.Hbond.Weighted>
-6.2111

> <Gold.Chemscore.Metal.Weighted>
-0.0000

> <Gold.Chemscore.Lipo.Weighted>
-8.4674

> <Gold.Chemscore.Internal_Hbond.Weighted>
0.0000

> <Gold.Chemscore.DEClash.Weighted>
1.4205

> <Gold.Chemscore.DEInternal.Weighted>
1.3039

> <Gold.Chemscore.Rot.Weighted>
3.2509

> <Gold.Chemscore.Internal.Correction.Weighted>
   9.000000E+99

> <Gold.Protein.RotatedTorsions>
[ 6907 6896 6895 6894 ] final  -21.32 input  -60.11 | X-H torsion
[ 7974 7965 7964 7962 ] final  101.87 input  175.53 | X-H torsion
[ 8008 7997 7996 7995 ] final   64.68 input   59.86 | X-H torsion
[ 10167 10162 10161 10158 ] final -105.55 input  -65.29 | X-H torsion
[ 10718 10713 10712 10709 ] final  -10.54 input   66.30 | X-H torsion
[ 10763 10752 10751 10750 ] final  104.15 input  -60.55 | X-H torsion
[ 11005 11000 10999 10996 ] final  -78.85 input  -57.11 | X-H torsion

> <Gold.Protein.ActiveResidues>
 VAL166  LYS551  ARG553  GLY616  TRP617  ASP618  TYR619  PRO620  LYS621  CYS622 
 ASP623  PHE694  ASN695  SER759  ASP760  ASP761  ALA762  ILE779  LEU786  VAL792 
 PHE793  MET794  SER795  GLU796  ALA797  LYS798  CYS799  TRP800  GLU811  SER814 

> <Gold.Protein.RotatedAtoms>
  151.2351  135.0568  159.9002 H   0  0  0  0  0  0  0  0  0  0  0  0  # atno 6907 bound_to 6896
  152.5400  134.0495  159.8114 H   0  0  0  0  0  0  0  0  0  0  0  0  # atno 6908 bound_to 6896
  151.0680  133.5440  159.2660 H   0  0  0  0  0  0  0  0  0  0  0  0  # atno 6909 bound_to 6896
  145.3666  139.2406  143.3477 H   0  0  0  0  0  0  0  0  0  0  0  0  # atno 7974 bound_to 7965
  155.6499  140.3497  155.4744 H   0  0  0  0  0  0  0  0  0  0  0  0  # atno 8008 bound_to 7997
  155.9856  140.1183  157.0709 H   0  0  0  0  0  0  0  0  0  0  0  0  # atno 8009 bound_to 7997
  154.4204  140.1129  156.5482 H   0  0  0  0  0  0  0  0  0  0  0  0  # atno 8010 bound_to 7997
  140.1973  143.3845  152.1158 H   0  0  0  0  0  0  0  0  0  0  0  0  # atno 10167 bound_to 10162
  156.6720  130.5012  149.5997 H   0  0  0  0  0  0  0  0  0  0  0  0  # atno 10718 bound_to 10713
  153.3620  135.3953  155.1725 H   0  0  0  0  0  0  0  0  0  0  0  0  # atno 10763 bound_to 10752
  154.8681  135.3682  154.5087 H   0  0  0  0  0  0  0  0  0  0  0  0  # atno 10764 bound_to 10752
  153.5547  135.7082  153.5635 H   0  0  0  0  0  0  0  0  0  0  0  0  # atno 10765 bound_to 10752
  141.1666  133.7081  156.8035 H   0  0  0  0  0  0  0  0  0  0  0  0  # atno 11005 bound_to 11000
  146.2904  140.4310  142.8742 LP  0  0  0  0  0  0  0  0  0  0  0  0  # atno 17320 bound_to 7965
  144.8607  140.7135  143.6109 LP  0  0  0  0  0  0  0  0  0  0  0  0  # atno 17321 bound_to 7965
  139.5231  144.7067  151.5331 LP  0  0  0  0  0  0  0  0  0  0  0  0  # atno 17342 bound_to 10162
  140.6414  143.8881  150.6696 LP  0  0  0  0  0  0  0  0  0  0  0  0  # atno 17343 bound_to 10162
  156.1931  130.6573  151.1084 LP  0  0  0  0  0  0  0  0  0  0  0  0  # atno 17370 bound_to 10713
  157.7074  131.0750  150.6621 LP  0  0  0  0  0  0  0  0  0  0  0  0  # atno 17371 bound_to 10713
  140.2239  134.8736  157.3406 LP  0  0  0  0  0  0  0  0  0  0  0  0  # atno 17394 bound_to 11000
  140.1959  134.4314  155.7689 LP  0  0  0  0  0  0  0  0  0  0  0  0  # atno 17395 bound_to 11000

$$$$
