AV-unprocessed.smi:1381|AV-procd|sdf|5602|dock9
  -GOLD-   22720 5213D 1   1.00000     0.00000
 Structure written by MMmdl.
 42 43  0  0  0  0  0  0  0  0  1 V2000
  147.1516  134.5540  161.0781 C   0  0  0  0  0  0  0  0  0  0  0  0
  147.8274  135.4083  160.0606 C   0  0  0  0  0  0  0  0  0  0  0  0
  148.1978  136.7237  160.0509 C   0  0  0  0  0  0  0  0  0  0  0  0
  148.7902  136.8798  158.7696 C   0  0  0  0  0  0  0  0  0  0  0  0
  149.3160  138.1314  158.3585 N   0  0  0  0  0  0  0  0  0  0  0  0
  149.8850  138.4336  157.1790 C   0  0  0  0  0  0  0  0  0  0  0  0
  150.0446  137.6463  156.2456 O   0  0  0  0  0  0  0  0  0  0  0  0
  150.2666  139.7183  157.1365 N   0  0  0  0  0  0  0  0  0  0  0  0
  150.9150  140.3595  155.9989 C   0  0  0  0  0  0  0  0  0  0  0  0
  151.1355  141.8624  156.2537 C   0  0  0  0  0  0  0  0  0  0  0  0
  151.3396  142.2273  157.6544 N   0  0  0  0  0  0  0  0  0  0  0  0
  152.4988  141.5608  158.2437 C   0  0  0  0  0  0  0  0  0  0  0  0
  152.7185  141.9752  159.7119 C   0  0  1  0  0  0  0  0  0  0  0  0
  153.9822  141.3471  160.3087 C   0  0  0  0  0  0  0  0  0  0  0  0
  152.8459  143.3925  159.7844 O   0  0  0  0  0  0  0  0  0  0  0  0
  151.7156  144.0864  159.2639 C   0  0  1  0  0  0  0  0  0  0  0  0
  151.9655  145.5911  159.4092 C   0  0  0  0  0  0  0  0  0  0  0  0
  151.5037  143.6695  157.7963 C   0  0  0  0  0  0  0  0  0  0  0  0
  148.7814  135.7613  158.0607 N   0  0  0  0  0  0  0  0  0  0  0  0
  148.1638  134.8127  158.8842 O   0  0  0  0  0  0  0  0  0  0  0  0
  146.0691  134.6657  161.0169 H   0  0  0  0  0  0  0  0  0  0  0  0
  147.4643  134.8301  162.0853 H   0  0  0  0  0  0  0  0  0  0  0  0
  147.3924  133.5014  160.9280 H   0  0  0  0  0  0  0  0  0  0  0  0
  148.0646  137.4536  160.8355 H   0  0  0  0  0  0  0  0  0  0  0  0
  149.2526  138.8765  159.0362 H   0  0  0  0  0  0  0  0  0  0  0  0
  150.1007  140.2940  157.9489 H   0  0  0  0  0  0  0  0  0  0  0  0
  151.8738  139.8669  155.8350 H   0  0  0  0  0  0  0  0  0  0  0  0
  150.3183  140.1888  155.1022 H   0  0  0  0  0  0  0  0  0  0  0  0
  151.9770  142.2183  155.6572 H   0  0  0  0  0  0  0  0  0  0  0  0
  150.2588  142.3923  155.8787 H   0  0  0  0  0  0  0  0  0  0  0  0
  152.3731  140.4795  158.2040 H   0  0  0  0  0  0  0  0  0  0  0  0
  153.3925  141.7934  157.6623 H   0  0  0  0  0  0  0  0  0  0  0  0
  151.8590  141.6673  160.3099 H   0  0  0  0  0  0  0  0  0  0  0  0
  153.9273  140.2583  160.2868 H   0  0  0  0  0  0  0  0  0  0  0  0
  154.1155  141.6522  161.3468 H   0  0  0  0  0  0  0  0  0  0  0  0
  154.8720  141.6489  159.7555 H   0  0  0  0  0  0  0  0  0  0  0  0
  150.8350  143.8187  159.8507 H   0  0  0  0  0  0  0  0  0  0  0  0
  151.1201  146.1674  159.0331 H   0  0  0  0  0  0  0  0  0  0  0  0
  152.8534  145.8986  158.8560 H   0  0  0  0  0  0  0  0  0  0  0  0
  152.1143  145.8619  160.4547 H   0  0  0  0  0  0  0  0  0  0  0  0
  152.3528  144.0040  157.1976 H   0  0  0  0  0  0  0  0  0  0  0  0
  150.6244  144.1800  157.4013 H   0  0  0  0  0  0  0  0  0  0  0  0
  1  2  1  0  0  0  0
  1 21  1  0  0  0  0
  1 22  1  0  0  0  0
  1 23  1  0  0  0  0
  2 20  1  0  0  0  0
  2  3  2  0  0  0  0
  3  4  1  0  0  0  0
  3 24  1  0  0  0  0
  4  5  1  0  0  0  0
  4 19  2  0  0  0  0
  5  6  1  0  0  0  0
  5 25  1  0  0  0  0
  6  7  2  0  0  0  0
  6  8  1  0  0  0  0
  8  9  1  0  0  0  0
  8 26  1  0  0  0  0
  9 10  1  0  0  0  0
  9 27  1  0  0  0  0
  9 28  1  0  0  0  0
 10 11  1  0  0  0  0
 10 29  1  0  0  0  0
 10 30  1  0  0  0  0
 11 18  1  0  0  0  0
 11 12  1  0  0  0  0
 12 13  1  0  0  0  0
 12 31  1  0  0  0  0
 12 32  1  0  0  0  0
 13 14  1  0  0  0  0
 13 15  1  0  0  0  0
 13 33  1  0  0  0  0
 14 34  1  0  0  0  0
 14 35  1  0  0  0  0
 14 36  1  0  0  0  0
 15 16  1  0  0  0  0
 16 17  1  0  0  0  0
 16 18  1  0  0  0  0
 16 37  1  0  0  0  0
 17 38  1  0  0  0  0
 17 39  1  0  0  0  0
 17 40  1  0  0  0  0
 18 41  1  0  0  0  0
 18 42  1  0  0  0  0
 19 20  1  0  0  0  0
M  END
> <s_m_source_file>
AV-unprocessed.smi

> <i_m_source_file_index>
1381

> <i_lp_mmshare_version>
43012

> <i_f3d_flags>
0

> <s_epik_input>
W0NIM11jMVtjSF1jKG5vMSlbTkhdQyg9TylbTkhdW0NIMl1bQ0gyXU4yW0NIMl1bQ0BASF0oW0NIM10pT1tDQEBIXShbQ0gzXSlbQ0gyXTI=

> <s_epik_cmdline>
J2VwaWtfcHl0aG9uJywgJy1waCcsICc3LjAnLCAnLXRuJywgJzgnLCAnLW1hJywgJzIwMCcsICctbWV0YWxfYmluZGluZycsICctaW1hZScsICc8aW5maWxlLm1hZT4nLCAnLW9tYWUnLCAnPG91dGZpbGUubWFlPic=

> <r_epik_Ionization_Penalty>
0.214073

> <r_epik_Ionization_Penalty_Charging>
0

> <r_epik_Ionization_Penalty_Neutral>
0.214073

> <r_epik_State_Penalty>
0.204211

> <r_epik_Charging_Adjusted_Penalty>
0.204211

> <i_epik_Tot_Q>
0

> <i_epik_Tot_abs_Q>
0

> <r_epik_Metal_State_Penalty>
0.217067

> <b_epik_Metal_Only>
0

> <s_lp_Force_Field>
OPLS_2005

> <r_lp_Energy>
17.1752

> <b_lp_Chiralities_Consistent>
1

> <s_lp_Variant>
AV-unprocessed.smi:1381-1

> <Gold.Version>
5.8.1

> <Gold.Id.Protein>
6NUR|6NUR_protein|mol2

> <Gold.PLP.Fitness>
39.0071

> <Gold.PLP.PLP>
-36.3795

> <Gold.PLP.part.hbond>
-1.0000

> <Gold.PLP.part.metal>
0.0000

> <Gold.PLP.part.buried>
-4.9070

> <Gold.PLP.part.nonpolar>
-31.5755

> <Gold.PLP.part.repulsive>
0.3309

> <Gold.PLP.ligand.clash>
0.0000

> <Gold.PLP.ligand.torsion>
0.1913

> <Gold.PLP.Chemscore.Hbond>
1.0000

> <Gold.PLP.Chemscore.CHOScore>
0.0000

> <Gold.PLP.Chemscore.Metal>
0.0000

> <Gold.PLP.Chemscore.Internal.Correction>
0.0101

> <Gold.Rescore>
     Score         DG    S(hbond)    S(metal)    S(lipo)     H(rot)  DE(clash)    DE(int)     intcor
     13.99     -15.49       0.87        0.00      95.23       1.57       0.03       1.48       ----

> <Gold.Chemscore.Fitness>
13.9870

> <Gold.Chemscore.DG>
-15.4938

> <Gold.Chemscore.ZeroCoef>
-5.4800

> <Gold.Chemscore.Hbond>
0.8655

> <Gold.Chemscore.Metal>
0.0000

> <Gold.Chemscore.Lipo>
95.2253

> <Gold.Chemscore.Internal_Hbond>
0.0000

> <Gold.Chemscore.DEClash>
0.0254

> <Gold.Chemscore.DEInternal>
1.4814

> <Gold.Chemscore.Rot>
1.5697

> <Gold.Chemscore.Internal.Correction>
   9.000000E+99

> <Gold.Chemscore.Hbond.Weighted>
-2.8909

> <Gold.Chemscore.Metal.Weighted>
-0.0000

> <Gold.Chemscore.Lipo.Weighted>
-11.1414

> <Gold.Chemscore.Internal_Hbond.Weighted>
0.0000

> <Gold.Chemscore.DEClash.Weighted>
0.0254

> <Gold.Chemscore.DEInternal.Weighted>
1.4814

> <Gold.Chemscore.Rot.Weighted>
4.0185

> <Gold.Chemscore.Internal.Correction.Weighted>
   9.000000E+99

> <Gold.Protein.RotatedTorsions>
[ 6907 6896 6895 6894 ] final  -61.32 input  -60.11 | X-H torsion
[ 7974 7965 7964 7962 ] final   30.05 input  175.53 | X-H torsion
[ 8008 7997 7996 7995 ] final  -85.45 input   59.86 | X-H torsion
[ 10167 10162 10161 10158 ] final  -96.22 input  -65.29 | X-H torsion
[ 10718 10713 10712 10709 ] final -160.85 input   66.30 | X-H torsion
[ 10763 10752 10751 10750 ] final    7.97 input  -60.55 | X-H torsion
[ 11005 11000 10999 10996 ] final -160.78 input  -57.11 | X-H torsion

> <Gold.Protein.ActiveResidues>
 VAL166  LYS551  ARG553  GLY616  TRP617  ASP618  TYR619  PRO620  LYS621  CYS622 
 ASP623  PHE694  ASN695  SER759  ASP760  ASP761  ALA762  ILE779  LEU786  VAL792 
 PHE793  MET794  SER795  GLU796  ALA797  LYS798  CYS799  TRP800  GLU811  SER814 

> <Gold.Protein.RotatedAtoms>
  150.7793  134.6721  159.6396 H   0  0  0  0  0  0  0  0  0  0  0  0  # atno 6907 bound_to 6896
  152.3873  134.6494  160.0130 H   0  0  0  0  0  0  0  0  0  0  0  0  # atno 6908 bound_to 6896
  151.6805  133.3275  159.3254 H   0  0  0  0  0  0  0  0  0  0  0  0  # atno 6909 bound_to 6896
  146.1635  139.6840  142.9017 H   0  0  0  0  0  0  0  0  0  0  0  0  # atno 7974 bound_to 7965
  154.6409  140.0591  156.9844 H   0  0  0  0  0  0  0  0  0  0  0  0  # atno 8008 bound_to 7997
  155.1518  140.3275  155.4411 H   0  0  0  0  0  0  0  0  0  0  0  0  # atno 8009 bound_to 7997
  156.2530  140.1946  156.6630 H   0  0  0  0  0  0  0  0  0  0  0  0  # atno 8010 bound_to 7997
  140.2960  143.3191  152.0297 H   0  0  0  0  0  0  0  0  0  0  0  0  # atno 10167 bound_to 10162
  156.5879  130.8757  151.2882 H   0  0  0  0  0  0  0  0  0  0  0  0  # atno 10718 bound_to 10713
  153.2303  135.6892  153.7898 H   0  0  0  0  0  0  0  0  0  0  0  0  # atno 10763 bound_to 10752
  153.7064  135.3289  155.3237 H   0  0  0  0  0  0  0  0  0  0  0  0  # atno 10764 bound_to 10752
  154.8311  135.4580  154.1186 H   0  0  0  0  0  0  0  0  0  0  0  0  # atno 10765 bound_to 10752
  140.6277  134.4684  157.5228 H   0  0  0  0  0  0  0  0  0  0  0  0  # atno 11005 bound_to 11000
  145.4528  141.0429  143.2795 LP  0  0  0  0  0  0  0  0  0  0  0  0  # atno 17320 bound_to 7965
  144.8059  139.6051  143.7051 LP  0  0  0  0  0  0  0  0  0  0  0  0  # atno 17321 bound_to 7965
  139.4926  144.6490  151.6716 LP  0  0  0  0  0  0  0  0  0  0  0  0  # atno 17342 bound_to 10162
  140.5691  144.0139  150.6207 LP  0  0  0  0  0  0  0  0  0  0  0  0  # atno 17343 bound_to 10162
  157.7311  130.9695  150.1863 LP  0  0  0  0  0  0  0  0  0  0  0  0  # atno 17370 bound_to 10713
  156.2575  130.3707  149.8166 LP  0  0  0  0  0  0  0  0  0  0  0  0  # atno 17371 bound_to 10713
  139.9128  134.8308  156.1468 LP  0  0  0  0  0  0  0  0  0  0  0  0  # atno 17394 bound_to 11000
  141.0698  133.6802  156.2116 LP  0  0  0  0  0  0  0  0  0  0  0  0  # atno 17395 bound_to 11000

$$$$
