#       Name:                AV-unprocessed.smi:1258
#       Creating user name   scv26
#       Creation time:       Fri Mar 27 04:40:59 2020


#       File generated by GOLD software.
#

@<TRIPOS>MOLECULE
AV-unprocessed.smi:1258
    38    39     1
SMALL
NO_CHARGES


@<TRIPOS>ATOM
      1 ****        -3.1013  -1.4000   1.8207 C.3            1 S1                 0.0000
      2 ****        -2.5830  -0.6813   0.5670 C.3            1 S1                 0.0000
      3 ****        -3.1078  -1.3452  -0.7204 C.3            1 S1                 0.0000
      4 ****        -2.5891  -0.6263  -1.9754 C.3            1 S1                 0.0000
      5 ****        -1.0543  -0.5613  -1.9849 C.3            1 S1                 0.0000
      6 ****        -0.5147   0.1066  -0.7070 C.3            1 S1                 0.0000
      7 ****         0.9451   0.1034  -0.7341 N.am           1 S1                 0.0000
      8 ****         1.7362   0.9483  -0.0554 C.2            1 S1                 0.0000
      9 ****         1.3002   1.8253   0.6921 O.2            1 S1                 0.0000
     10 ****         3.2436   0.7596  -0.2658 C.3            1 S1                 0.0000
     11 ****         4.0441   1.6268   0.5815 N.pl3          1 S1                 0.0000
     12 ****         4.4183   1.5053   1.8568 C.2            1 S1                 0.0000
     13 ****         5.1510   2.5353   2.2516 N.2            1 S1                 0.0000
     14 ****         5.2146   3.3289   1.1185 N.2            1 S1                 0.0000
     15 ****         4.5600   2.7948   0.1241 N.2            1 S1                 0.0000
     16 ****        -1.0430  -0.6147   0.5511 C.3            1 S1                 0.0000
     17 ****        -2.7601  -2.4351   1.8545 H              1 S1                 0.0000
     18 ****        -4.1913  -1.4075   1.8464 H              1 S1                 0.0000
     19 ****        -2.7544  -0.9050   2.7280 H              1 S1                 0.0000
     20 ****        -2.9621   0.3414   0.5959 H              1 S1                 0.0000
     21 ****        -2.8009  -2.3917  -0.7486 H              1 S1                 0.0000
     22 ****        -4.1984  -1.3437  -0.7238 H              1 S1                 0.0000
     23 ****        -2.9450  -1.1375  -2.8702 H              1 S1                 0.0000
     24 ****        -2.9982   0.3841  -2.0136 H              1 S1                 0.0000
     25 ****        -0.6515  -1.5714  -2.0745 H              1 S1                 0.0000
     26 ****        -0.7163  -0.0133  -2.8654 H              1 S1                 0.0000
     27 ****        -0.8641   1.1410  -0.6933 H              1 S1                 0.0000
     28 ****         1.3859  -0.5869  -1.3247 H              1 S1                 0.0000
     29 ****         3.5149  -0.2753  -0.0535 H              1 S1                 0.0000
     30 ****         3.4918   0.9515  -1.3108 H              1 S1                 0.0000
     31 ****         4.1550   0.6709   2.4901 H              1 S1                 0.0000
     32 ****        -0.6921  -0.1024   1.4478 H              1 S1                 0.0000
     33 ****        -0.6335  -1.6252   0.5946 H              1 S1                 0.0000
     34 ****         0.3136   1.9323   0.8153 LP             1 S1                 0.0000
     35 ****         1.9329   2.4301   1.1757 LP             1 S1                 0.0000
     36 ****         5.5591   2.7000   3.1496 LP             1 S1                 0.0000
     37 ****         5.7009   4.2013   1.0687 LP             1 S1                 0.0000
     38 ****         4.4585   3.1730  -0.7960 LP             1 S1                 0.0000
@<TRIPOS>BOND
    1    1    2 1     
    2    1   17 1     
    3    1   18 1     
    4    1   19 1     
    5    2   16 1     
    6    2    3 1     
    7    2   20 1     
    8    3    4 1     
    9    3   21 1     
   10    3   22 1     
   11    4    5 1     
   12    4   23 1     
   13    4   24 1     
   14    5    6 1     
   15    5   25 1     
   16    5   26 1     
   17    6    7 1     
   18    6   16 1     
   19    6   27 1     
   20    7    8 am    
   21    7   28 1     
   22    8    9 2     
   23    8   10 1     
   24   10   11 1     
   25   10   29 1     
   26   10   30 1     
   27   11   15 1     
   28   11   12 1     
   29   12   13 2     
   30   12   31 1     
   31   13   14 1     
   32   14   15 2     
   33   16   32 1     
   34   16   33 1     
   35    9   34 1     
   36    9   35 1     
   37   13   36 1     
   38   14   37 1     
   39   15   38 1     
@<TRIPOS>SUBSTRUCTURE
      1 S1             1
@<TRIPOS>SET
LONE_PAIRS      STATIC     ATOMS    <user>   **** ""
5 34 35 36 37 38
DONOR_HYDROGENS      STATIC     ATOMS    <user>   **** ""
1 28
ATOM$BLUE        STATIC     ATOMS    COLORGROUP SYSTEM
5 34 35 36 37 38
ATOM$RED        STATIC     ATOMS    COLORGROUP SYSTEM
1 28
