AV-unprocessed.smi:1815|AV-procd|sdf|7355|dock5
  -GOLD-   22720 9 13D 1   1.00000     0.00000
 Structure written by MMmdl.
 40 41  0  0  0  0  0  0  0  0  2 V2000
  152.8458  138.5284  155.0998 C   0  0  0  0  0  0  0  0  0  0  0  0
  151.6136  137.7146  154.6896 C   0  0  2  0  0  0  0  0  0  0  0  0
  150.3056  138.5043  154.8831 C   0  0  0  0  0  0  0  0  0  0  0  0
  149.1327  137.6621  154.5486 N   0  3  2  0  0  0  0  0  0  0  0  0
  147.8539  138.4070  154.6619 C   0  0  0  0  0  0  0  0  0  0  0  0
  146.6248  137.5082  154.4250 C   0  0  0  0  0  0  0  0  0  0  0  0
  146.7500  136.7436  153.1893 N   0  0  0  0  0  0  0  0  0  0  0  0
  145.9181  135.7627  152.8099 C   0  0  0  0  0  0  0  0  0  0  0  0
  144.9526  135.3989  153.4823 O   0  0  0  0  0  0  0  0  0  0  0  0
  146.2806  135.2446  151.6235 N   0  0  0  0  0  0  0  0  0  0  0  0
  145.6626  134.1894  150.9021 C   0  0  0  0  0  0  0  0  0  0  0  0
  144.3756  134.1777  150.5359 N   0  0  0  0  0  0  0  0  0  0  0  0
  144.0395  133.0142  149.8390 C   0  0  0  0  0  0  0  0  0  0  0  0
  145.0900  132.1445  149.6837 C   0  0  0  0  0  0  0  0  0  0  0  0
  146.5524  132.7562  150.4090 S   0  0  0  0  0  0  0  0  0  0  0  0
  149.1616  136.4032  155.3333 C   0  0  0  0  0  0  0  0  0  0  0  0
  150.5014  135.6705  155.1291 C   0  0  2  0  0  0  0  0  0  0  0  0
  150.6039  134.4041  155.9861 C   0  0  0  0  0  0  0  0  0  0  0  0
  151.5684  136.5399  155.4920 O   0  0  0  0  0  0  0  0  0  0  0  0
  152.9342  139.4356  154.5017 H   0  0  0  0  0  0  0  0  0  0  0  0
  153.7590  137.9493  154.9605 H   0  0  0  0  0  0  0  0  0  0  0  0
  152.7945  138.8222  156.1487 H   0  0  0  0  0  0  0  0  0  0  0  0
  151.7203  137.4298  153.6413 H   0  0  0  0  0  0  0  0  0  0  0  0
  150.2213  138.8510  155.9146 H   0  0  0  0  0  0  0  0  0  0  0  0
  150.3161  139.3902  154.2467 H   0  0  0  0  0  0  0  0  0  0  0  0
  147.7942  138.8963  155.6354 H   0  0  0  0  0  0  0  0  0  0  0  0
  147.8495  139.2037  153.9165 H   0  0  0  0  0  0  0  0  0  0  0  0
  146.4772  136.8309  155.2680 H   0  0  0  0  0  0  0  0  0  0  0  0
  145.7176  138.1057  154.3432 H   0  0  0  0  0  0  0  0  0  0  0  0
  147.5181  136.9821  152.5786 H   0  0  0  0  0  0  0  0  0  0  0  0
  147.0949  135.6486  151.1851 H   0  0  0  0  0  0  0  0  0  0  0  0
  143.0259  132.8866  149.4885 H   0  0  0  0  0  0  0  0  0  0  0  0
  145.0920  131.1851  149.1880 H   0  0  0  0  0  0  0  0  0  0  0  0
  149.0136  136.6301  156.3906 H   0  0  0  0  0  0  0  0  0  0  0  0
  148.3459  135.7481  155.0296 H   0  0  0  0  0  0  0  0  0  0  0  0
  150.6096  135.3880  154.0803 H   0  0  0  0  0  0  0  0  0  0  0  0
  149.8097  133.6984  155.7409 H   0  0  0  0  0  0  0  0  0  0  0  0
  150.5276  134.6382  157.0484 H   0  0  0  0  0  0  0  0  0  0  0  0
  151.5570  133.9002  155.8240 H   0  0  0  0  0  0  0  0  0  0  0  0
  149.2344  137.4092  153.5759 H   0  0  0  0  0  0  0  0  0  0  0  0
  1  2  1  0  0  0  0
  1 20  1  0  0  0  0
  1 21  1  0  0  0  0
  1 22  1  0  0  0  0
  2 19  1  0  0  0  0
  2  3  1  0  0  0  0
  2 23  1  0  0  0  0
  3  4  1  0  0  0  0
  3 24  1  0  0  0  0
  3 25  1  0  0  0  0
  4  5  1  0  0  0  0
  4 16  1  0  0  0  0
  4 40  1  0  0  0  0
  5  6  1  0  0  0  0
  5 26  1  0  0  0  0
  5 27  1  0  0  0  0
  6  7  1  0  0  0  0
  6 28  1  0  0  0  0
  6 29  1  0  0  0  0
  7  8  1  0  0  0  0
  7 30  1  0  0  0  0
  8  9  2  0  0  0  0
  8 10  1  0  0  0  0
 10 11  1  0  0  0  0
 10 31  1  0  0  0  0
 11 15  1  0  0  0  0
 11 12  2  0  0  0  0
 12 13  1  0  0  0  0
 13 14  2  0  0  0  0
 13 32  1  0  0  0  0
 14 15  1  0  0  0  0
 14 33  1  0  0  0  0
 16 17  1  0  0  0  0
 16 34  1  0  0  0  0
 16 35  1  0  0  0  0
 17 18  1  0  0  0  0
 17 19  1  0  0  0  0
 17 36  1  0  0  0  0
 18 37  1  0  0  0  0
 18 38  1  0  0  0  0
 18 39  1  0  0  0  0
M  CHG  1   4   1
M  END
> <s_m_source_file>
AV-unprocessed.smi

> <i_m_source_file_index>
1815

> <i_lp_mmshare_version>
43012

> <i_f3d_flags>
0

> <s_epik_input>
W0NIM11bQ0BASF0xW0NIMl1OKFtDSDJdW0NASF0oTzEpW0NIM10pW0NIMl1bQ0gyXVtOSF1DKD1PKVtOSF1jMm5bY0hdW2NIXXMy

> <s_epik_cmdline>
J2VwaWtfcHl0aG9uJywgJy1waCcsICc3LjAnLCAnLXRuJywgJzgnLCAnLW1hJywgJzIwMCcsICctbWV0YWxfYmluZGluZycsICctaW1hZScsICc8aW5maWxlLm1hZT4nLCAnLW9tYWUnLCAnPG91dGZpbGUubWFlPic=

> <r_lp_tautomer_probability>
0.999

> <r_epik_Ionization_Penalty>
0.695838

> <r_epik_Ionization_Penalty_Charging>
0.695697

> <r_epik_Ionization_Penalty_Neutral>
0.000141198

> <r_epik_State_Penalty>
0.717972

> <r_epik_Charging_Adjusted_Penalty>
1.41367

> <i_epik_Tot_Q>
1

> <i_epik_Tot_abs_Q>
1

> <r_epik_Metal_State_Penalty>
0.756405

> <b_epik_Metal_Only>
0

> <s_lp_Force_Field>
OPLS_2005

> <r_lp_Energy>
12.0644

> <b_lp_Chiralities_Consistent>
1

> <s_lp_Variant>
AV-unprocessed.smi:1815-6

> <Gold.Version>
5.8.1

> <Gold.Id.Protein>
6NUR|6NUR_protein|mol2

> <Gold.PLP.Fitness>
45.9181

> <Gold.PLP.PLP>
-31.5655

> <Gold.PLP.part.hbond>
-4.0000

> <Gold.PLP.part.metal>
0.0000

> <Gold.PLP.part.buried>
-4.7099

> <Gold.PLP.part.nonpolar>
-24.7399

> <Gold.PLP.part.repulsive>
0.4036

> <Gold.PLP.ligand.clash>
0.0000

> <Gold.PLP.ligand.torsion>
0.6075

> <Gold.PLP.Chemscore.Hbond>
4.1797

> <Gold.PLP.Chemscore.CHOScore>
1.0000

> <Gold.PLP.Chemscore.Metal>
0.0000

> <Gold.Chemscore.Hbonds>
donor molecule, donor type, donor heavy atom, donor atom, acceptor molecule, acceptor atom, score
      L1  H     4    40       P1  7948  1.79
      L1  H     7    30       P1  7948  0.80
      L1  H    10    31       P1  7948  0.72
      P1  H 10752 10764       L1    19  0.76
      L1  C    13    32       P1 10186  0.99

> <Gold.PLP.Chemscore.Internal.Correction>
0.0285

> <Gold.Rescore>
     Score         DG    S(hbond)    S(metal)    S(lipo)     H(rot)  DE(clash)    DE(int)     intcor
     18.45     -19.13       2.64        0.00      77.26       1.64       0.13       0.55       ----

> <Gold.Chemscore.Fitness>
18.4519

> <Gold.Chemscore.DG>
-19.1348

> <Gold.Chemscore.ZeroCoef>
-5.4800

> <Gold.Chemscore.Hbond>
2.6378

> <Gold.Chemscore.Metal>
0.0000

> <Gold.Chemscore.Lipo>
77.2579

> <Gold.Chemscore.Internal_Hbond>
0.0000

> <Gold.Chemscore.DEClash>
0.1340

> <Gold.Chemscore.DEInternal>
0.5489

> <Gold.Chemscore.Rot>
1.6385

> <Gold.Chemscore.Internal.Correction>
   9.000000E+99

> <Gold.Chemscore.Hbonds>
donor molecule, donor type, donor heavy atom, donor atom, acceptor molecule, acceptor atom, score
      L1  H     4    40       P1  7948  0.84
      L1  H     7    30       P1  7948  0.80
      L1  H    10    31       P1  7948  0.65
      P1  H 10752 10764       L1    19  0.03

> <Gold.Chemscore.Hbond.Weighted>
-8.8101

> <Gold.Chemscore.Metal.Weighted>
-0.0000

> <Gold.Chemscore.Lipo.Weighted>
-9.0392

> <Gold.Chemscore.Internal_Hbond.Weighted>
0.0000

> <Gold.Chemscore.DEClash.Weighted>
0.1340

> <Gold.Chemscore.DEInternal.Weighted>
0.5489

> <Gold.Chemscore.Rot.Weighted>
4.1945

> <Gold.Chemscore.Internal.Correction.Weighted>
   9.000000E+99

> <Gold.Protein.RotatedTorsions>
[ 6907 6896 6895 6894 ] final -164.04 input  -60.11 | X-H torsion
[ 7974 7965 7964 7962 ] final -173.97 input  175.53 | X-H torsion
[ 8008 7997 7996 7995 ] final  -79.11 input   59.86 | X-H torsion
[ 10167 10162 10161 10158 ] final  -77.22 input  -65.29 | X-H torsion
[ 10718 10713 10712 10709 ] final -132.43 input   66.30 | X-H torsion
[ 10763 10752 10751 10750 ] final  -56.89 input  -60.55 | X-H torsion
[ 11005 11000 10999 10996 ] final   66.06 input  -57.11 | X-H torsion

> <Gold.Protein.ActiveResidues>
 VAL166  LYS551  ARG553  GLY616  TRP617  ASP618  TYR619  PRO620  LYS621  CYS622 
 ASP623  PHE694  ASN695  SER759  ASP760  ASP761  ALA762  ILE779  LEU786  VAL792 
 PHE793  MET794  SER795  GLU796  ALA797  LYS798  CYS799  TRP800  GLU811  SER814 

> <Gold.Protein.RotatedAtoms>
  151.4056  133.3743  159.2737 H   0  0  0  0  0  0  0  0  0  0  0  0  # atno 6907 bound_to 6896
  150.9401  134.8812  159.7617 H   0  0  0  0  0  0  0  0  0  0  0  0  # atno 6908 bound_to 6896
  152.5067  134.4006  159.9467 H   0  0  0  0  0  0  0  0  0  0  0  0  # atno 6909 bound_to 6896
  144.7134  140.1542  143.6381 H   0  0  0  0  0  0  0  0  0  0  0  0  # atno 7974 bound_to 7965
  154.5753  140.0683  156.9025 H   0  0  0  0  0  0  0  0  0  0  0  0  # atno 8008 bound_to 7997
  155.2560  140.3355  155.4259 H   0  0  0  0  0  0  0  0  0  0  0  0  # atno 8009 bound_to 7997
  156.2149  140.1774  156.7596 H   0  0  0  0  0  0  0  0  0  0  0  0  # atno 8010 bound_to 7997
  140.4789  143.2407  151.8089 H   0  0  0  0  0  0  0  0  0  0  0  0  # atno 10167 bound_to 10162
  156.2345  130.7058  151.0893 H   0  0  0  0  0  0  0  0  0  0  0  0  # atno 10718 bound_to 10713
  154.2137  135.6390  153.5123 H   0  0  0  0  0  0  0  0  0  0  0  0  # atno 10763 bound_to 10752
  152.9984  135.5480  154.6187 H   0  0  0  0  0  0  0  0  0  0  0  0  # atno 10764 bound_to 10752
  154.5631  135.2910  155.0874 H   0  0  0  0  0  0  0  0  0  0  0  0  # atno 10765 bound_to 10752
  139.9855  134.6675  156.0184 H   0  0  0  0  0  0  0  0  0  0  0  0  # atno 11005 bound_to 11000
  145.9089  139.2475  143.1449 LP  0  0  0  0  0  0  0  0  0  0  0  0  # atno 17320 bound_to 7965
  145.9736  140.8740  143.0150 LP  0  0  0  0  0  0  0  0  0  0  0  0  # atno 17321 bound_to 7965
  139.4830  144.4797  151.9322 LP  0  0  0  0  0  0  0  0  0  0  0  0  # atno 17342 bound_to 10162
  140.3883  144.2648  150.5902 LP  0  0  0  0  0  0  0  0  0  0  0  0  # atno 17343 bound_to 10162
  157.7148  131.0715  150.6368 LP  0  0  0  0  0  0  0  0  0  0  0  0  # atno 17370 bound_to 10713
  156.6437  130.4465  149.5743 LP  0  0  0  0  0  0  0  0  0  0  0  0  # atno 17371 bound_to 10713
  141.1521  133.6547  156.4045 LP  0  0  0  0  0  0  0  0  0  0  0  0  # atno 17394 bound_to 11000
  140.5011  134.6485  157.5248 LP  0  0  0  0  0  0  0  0  0  0  0  0  # atno 17395 bound_to 11000

$$$$
