AV-unprocessed.smi:2710|AV-procd|sdf|10466|dock8
  -GOLD-   2272014503D 1   1.00000     0.00000
 Structure written by MMmdl.
 53 54  0  0  0  0  0  0  0  0  2 V2000
  146.3761  143.0368  157.8335 C   0  0  0  0  0  0  0  0  0  0  0  0
  147.6304  142.2797  157.3660 C   0  0  0  0  0  0  0  0  0  0  0  0
  147.7060  142.1154  155.8849 N   0  3  2  0  0  0  0  0  0  0  0  0
  146.3572  141.9088  155.2837 C   0  0  0  0  0  0  0  0  0  0  0  0
  146.4067  141.8800  153.7490 C   0  0  0  0  0  0  0  0  0  0  0  0
  147.3691  140.8003  153.2320 C   0  0  2  0  0  0  0  0  0  0  0  0
  146.8655  139.4482  153.4749 N   0  0  0  0  0  0  0  0  0  0  0  0
  146.6107  138.5363  152.5255 C   0  0  0  0  0  0  0  0  0  0  0  0
  146.7607  138.7541  151.3243 O   0  0  0  0  0  0  0  0  0  0  0  0
  146.1794  137.3832  153.0649 N   0  0  0  0  0  0  0  0  0  0  0  0
  145.7997  136.1755  152.4169 C   0  0  0  0  0  0  0  0  0  0  0  0
  145.4835  136.0350  151.0434 C   0  0  0  0  0  0  0  0  0  0  0  0
  145.1314  134.8433  150.5160 N   0  0  0  0  0  0  0  0  0  0  0  0
  145.0569  133.7904  151.3400 C   0  0  0  0  0  0  0  0  0  0  0  0
  144.7981  132.4152  150.6996 C   0  0  0  0  0  0  0  0  0  0  0  0
  143.4104  132.3696  150.0176 C   0  0  0  0  0  0  0  0  0  0  0  0
  144.8755  131.3231  151.7823 C   0  0  0  0  0  0  0  0  0  0  0  0
  145.8306  132.1167  149.5869 C   0  0  0  0  0  0  0  0  0  0  0  0
  145.3766  133.8090  152.6405 N   0  0  0  0  0  0  0  0  0  0  0  0
  145.7288  134.9936  153.1817 C   0  0  0  0  0  0  0  0  0  0  0  0
  148.7414  140.9961  153.8909 C   0  0  0  0  0  0  0  0  0  0  0  0
  148.6730  141.0603  155.4351 C   0  0  1  0  0  0  0  0  0  0  0  0
  150.1019  141.2686  155.9791 C   0  0  0  0  0  0  0  0  0  0  0  0
  146.4487  143.2708  158.8958 H   0  0  0  0  0  0  0  0  0  0  0  0
  145.4644  142.4550  157.7033 H   0  0  0  0  0  0  0  0  0  0  0  0
  146.2600  143.9795  157.2980 H   0  0  0  0  0  0  0  0  0  0  0  0
  148.4747  142.8610  157.7289 H   0  0  0  0  0  0  0  0  0  0  0  0
  147.6923  141.3057  157.8533 H   0  0  0  0  0  0  0  0  0  0  0  0
  145.9261  140.9820  155.6654 H   0  0  0  0  0  0  0  0  0  0  0  0
  145.6789  142.7091  155.5733 H   0  0  0  0  0  0  0  0  0  0  0  0
  145.4051  141.7281  153.3452 H   0  0  0  0  0  0  0  0  0  0  0  0
  146.7313  142.8556  153.3848 H   0  0  0  0  0  0  0  0  0  0  0  0
  147.4915  140.9237  152.1541 H   0  0  0  0  0  0  0  0  0  0  0  0
  146.7196  139.1808  154.4373 H   0  0  0  0  0  0  0  0  0  0  0  0
  146.1164  137.3641  154.0721 H   0  0  0  0  0  0  0  0  0  0  0  0
  145.5086  136.8533  150.3424 H   0  0  0  0  0  0  0  0  0  0  0  0
  143.2439  131.4135  149.5199 H   0  0  0  0  0  0  0  0  0  0  0  0
  143.3120  133.1524  149.2644 H   0  0  0  0  0  0  0  0  0  0  0  0
  142.5981  132.4960  150.7342 H   0  0  0  0  0  0  0  0  0  0  0  0
  144.1326  131.4876  152.5635 H   0  0  0  0  0  0  0  0  0  0  0  0
  145.8561  131.3082  152.2595 H   0  0  0  0  0  0  0  0  0  0  0  0
  144.6986  130.3324  151.3624 H   0  0  0  0  0  0  0  0  0  0  0  0
  145.6249  131.1633  149.0990 H   0  0  0  0  0  0  0  0  0  0  0  0
  146.8468  132.0560  149.9779 H   0  0  0  0  0  0  0  0  0  0  0  0
  145.8185  132.8882  148.8161 H   0  0  0  0  0  0  0  0  0  0  0  0
  145.9625  134.9944  154.2363 H   0  0  0  0  0  0  0  0  0  0  0  0
  149.4127  140.1960  153.5752 H   0  0  0  0  0  0  0  0  0  0  0  0
  149.1821  141.9207  153.5150 H   0  0  0  0  0  0  0  0  0  0  0  0
  148.3133  140.0984  155.8044 H   0  0  0  0  0  0  0  0  0  0  0  0
  150.8044  140.5861  155.4994 H   0  0  0  0  0  0  0  0  0  0  0  0
  150.1738  141.0682  157.0474 H   0  0  0  0  0  0  0  0  0  0  0  0
  150.4559  142.2835  155.7945 H   0  0  0  0  0  0  0  0  0  0  0  0
  148.0556  142.9907  155.5210 H   0  0  0  0  0  0  0  0  0  0  0  0
  1  2  1  0  0  0  0
  1 24  1  0  0  0  0
  1 25  1  0  0  0  0
  1 26  1  0  0  0  0
  2  3  1  0  0  0  0
  2 27  1  0  0  0  0
  2 28  1  0  0  0  0
  3 22  1  0  0  0  0
  3  4  1  0  0  0  0
  3 53  1  0  0  0  0
  4  5  1  0  0  0  0
  4 29  1  0  0  0  0
  4 30  1  0  0  0  0
  5  6  1  0  0  0  0
  5 31  1  0  0  0  0
  5 32  1  0  0  0  0
  6  7  1  0  0  0  0
  6 21  1  0  0  0  0
  6 33  1  0  0  0  0
  7  8  1  0  0  0  0
  7 34  1  0  0  0  0
  8  9  2  0  0  0  0
  8 10  1  0  0  0  0
 10 11  1  0  0  0  0
 10 35  1  0  0  0  0
 11 20  1  0  0  0  0
 11 12  2  0  0  0  0
 12 13  1  0  0  0  0
 12 36  1  0  0  0  0
 13 14  2  0  0  0  0
 14 15  1  0  0  0  0
 14 19  1  0  0  0  0
 15 16  1  0  0  0  0
 15 17  1  0  0  0  0
 15 18  1  0  0  0  0
 16 37  1  0  0  0  0
 16 38  1  0  0  0  0
 16 39  1  0  0  0  0
 17 40  1  0  0  0  0
 17 41  1  0  0  0  0
 17 42  1  0  0  0  0
 18 43  1  0  0  0  0
 18 44  1  0  0  0  0
 18 45  1  0  0  0  0
 19 20  2  0  0  0  0
 20 46  1  0  0  0  0
 21 22  1  0  0  0  0
 21 47  1  0  0  0  0
 21 48  1  0  0  0  0
 22 23  1  0  0  0  0
 22 49  1  0  0  0  0
 23 50  1  0  0  0  0
 23 51  1  0  0  0  0
 23 52  1  0  0  0  0
M  CHG  1   3   1
M  END
> <s_m_source_file>
AV-unprocessed.smi

> <i_m_source_file_index>
2710

> <i_lp_mmshare_version>
43012

> <i_f3d_flags>
0

> <s_epik_input>
W0NIM11bQ0gyXU4xW0NIMl1bQ0gyXVtDQEhdKFtDSDJdW0NASF0xW0NIM10pW05IXUMoPU8pW05IXWMyW2NIXW5jKEMoW0NIM10pKFtDSDNdKVtDSDNdKW5bY0hdMg==

> <s_epik_cmdline>
J2VwaWtfcHl0aG9uJywgJy1waCcsICc3LjAnLCAnLXRuJywgJzgnLCAnLW1hJywgJzIwMCcsICctbWV0YWxfYmluZGluZycsICctaW1hZScsICc8aW5maWxlLm1hZT4nLCAnLW9tYWUnLCAnPG91dGZpbGUubWFlPic=

> <r_lp_tautomer_probability>
1

> <r_epik_Ionization_Penalty>
0.00396003

> <r_epik_Ionization_Penalty_Charging>
0.0039379

> <r_epik_Ionization_Penalty_Neutral>
2.21316e-05

> <r_epik_State_Penalty>
0.00281651

> <r_epik_Charging_Adjusted_Penalty>
0.00675441

> <i_epik_Tot_Q>
1

> <i_epik_Tot_abs_Q>
1

> <r_epik_Metal_State_Penalty>
-0

> <b_epik_Metal_Only>
0

> <s_lp_Force_Field>
OPLS_2005

> <r_lp_Energy>
19.072

> <b_lp_Chiralities_Consistent>
1

> <s_lp_Variant>
AV-unprocessed.smi:2710-3

> <Gold.Version>
5.8.1

> <Gold.Id.Protein>
6NUR|6NUR_protein|mol2

> <Gold.PLP.Fitness>
50.4674

> <Gold.PLP.PLP>
-39.6493

> <Gold.PLP.part.hbond>
-2.7743

> <Gold.PLP.part.metal>
0.0000

> <Gold.PLP.part.buried>
-1.9952

> <Gold.PLP.part.nonpolar>
-36.6433

> <Gold.PLP.part.repulsive>
2.2583

> <Gold.PLP.ligand.clash>
0.0000

> <Gold.PLP.ligand.torsion>
0.3386

> <Gold.PLP.Chemscore.Hbond>
2.7800

> <Gold.PLP.Chemscore.CHOScore>
1.0000

> <Gold.PLP.Chemscore.Metal>
0.0000

> <Gold.Chemscore.Hbonds>
donor molecule, donor type, donor heavy atom, donor atom, acceptor molecule, acceptor atom, score
      L1  H     3    53       P1  8028  2.00
      P1  H  7954  7966       L1     9  0.62
      L1  C    12    36       P1 10171  1.00

> <Gold.PLP.Chemscore.Internal.Correction>
0.1552

> <Gold.Rescore>
     Score         DG    S(hbond)    S(metal)    S(lipo)     H(rot)  DE(clash)    DE(int)     intcor
     16.72     -19.41       1.89        0.00      93.76       1.31       2.29       0.40       ----

> <Gold.Chemscore.Fitness>
16.7249

> <Gold.Chemscore.DG>
-19.4087

> <Gold.Chemscore.ZeroCoef>
-5.4800

> <Gold.Chemscore.Hbond>
1.8886

> <Gold.Chemscore.Metal>
0.0000

> <Gold.Chemscore.Lipo>
93.7574

> <Gold.Chemscore.Internal_Hbond>
0.0000

> <Gold.Chemscore.DEClash>
2.2886

> <Gold.Chemscore.DEInternal>
0.3953

> <Gold.Chemscore.Rot>
1.3081

> <Gold.Chemscore.Internal.Correction>
   9.000000E+99

> <Gold.Chemscore.Hbonds>
donor molecule, donor type, donor heavy atom, donor atom, acceptor molecule, acceptor atom, score
      L1  H     3    53       P1  8028  0.84
      P1  H  7954  7966       L1     9  0.58

> <Gold.Chemscore.Hbond.Weighted>
-6.3079

> <Gold.Chemscore.Metal.Weighted>
-0.0000

> <Gold.Chemscore.Lipo.Weighted>
-10.9696

> <Gold.Chemscore.Internal_Hbond.Weighted>
0.0000

> <Gold.Chemscore.DEClash.Weighted>
2.2886

> <Gold.Chemscore.DEInternal.Weighted>
0.3953

> <Gold.Chemscore.Rot.Weighted>
3.3488

> <Gold.Chemscore.Internal.Correction.Weighted>
   9.000000E+99

> <Gold.Protein.RotatedTorsions>
[ 6907 6896 6895 6894 ] final  123.28 input  -60.11 | X-H torsion
[ 7974 7965 7964 7962 ] final   64.53 input  175.53 | X-H torsion
[ 8008 7997 7996 7995 ] final -166.92 input   59.86 | X-H torsion
[ 10167 10162 10161 10158 ] final -152.19 input  -65.29 | X-H torsion
[ 10718 10713 10712 10709 ] final  160.90 input   66.30 | X-H torsion
[ 10763 10752 10751 10750 ] final  -30.09 input  -60.55 | X-H torsion
[ 11005 11000 10999 10996 ] final  120.97 input  -57.11 | X-H torsion

> <Gold.Protein.ActiveResidues>
 VAL166  LYS551  ARG553  GLY616  TRP617  ASP618  TYR619  PRO620  LYS621  CYS622 
 ASP623  PHE694  ASN695  SER759  ASP760  ASP761  ALA762  ILE779  LEU786  VAL792 
 PHE793  MET794  SER795  GLU796  ALA797  LYS798  CYS799  TRP800  GLU811  SER814 

> <Gold.Protein.RotatedAtoms>
  152.4175  133.7062  159.6451 H   0  0  0  0  0  0  0  0  0  0  0  0  # atno 6907 bound_to 6896
  150.8051  133.8514  159.3215 H   0  0  0  0  0  0  0  0  0  0  0  0  # atno 6908 bound_to 6896
  151.6239  135.1031  160.0159 H   0  0  0  0  0  0  0  0  0  0  0  0  # atno 6909 bound_to 6896
  145.8492  139.3243  143.0885 H   0  0  0  0  0  0  0  0  0  0  0  0  # atno 7974 bound_to 7965
  155.8706  140.0993  157.1553 H   0  0  0  0  0  0  0  0  0  0  0  0  # atno 8008 bound_to 7997
  154.3997  140.1348  156.4136 H   0  0  0  0  0  0  0  0  0  0  0  0  # atno 8009 bound_to 7997
  155.7755  140.3460  155.5272 H   0  0  0  0  0  0  0  0  0  0  0  0  # atno 8010 bound_to 7997
  139.7202  143.8969  152.2500 H   0  0  0  0  0  0  0  0  0  0  0  0  # atno 10167 bound_to 10162
  157.1440  131.0547  151.2313 H   0  0  0  0  0  0  0  0  0  0  0  0  # atno 10718 bound_to 10713
  153.7753  135.6909  153.4898 H   0  0  0  0  0  0  0  0  0  0  0  0  # atno 10763 bound_to 10752
  153.1847  135.4493  155.0072 H   0  0  0  0  0  0  0  0  0  0  0  0  # atno 10764 bound_to 10752
  154.8102  135.3374  154.7260 H   0  0  0  0  0  0  0  0  0  0  0  0  # atno 10765 bound_to 10752
  139.9206  134.9637  156.7887 H   0  0  0  0  0  0  0  0  0  0  0  0  # atno 11005 bound_to 11000
  145.9377  140.9002  143.0323 LP  0  0  0  0  0  0  0  0  0  0  0  0  # atno 17320 bound_to 7965
  144.6730  140.1506  143.7430 LP  0  0  0  0  0  0  0  0  0  0  0  0  # atno 17321 bound_to 7965
  139.8863  144.6990  150.8821 LP  0  0  0  0  0  0  0  0  0  0  0  0  # atno 17342 bound_to 10162
  140.7752  143.3622  151.1807 LP  0  0  0  0  0  0  0  0  0  0  0  0  # atno 17343 bound_to 10162
  157.4281  130.7475  149.6968 LP  0  0  0  0  0  0  0  0  0  0  0  0  # atno 17370 bound_to 10713
  155.9783  130.4053  150.3657 LP  0  0  0  0  0  0  0  0  0  0  0  0  # atno 17371 bound_to 10713
  140.6485  133.9753  155.7743 LP  0  0  0  0  0  0  0  0  0  0  0  0  # atno 17394 bound_to 11000
  141.0724  134.0185  157.3507 LP  0  0  0  0  0  0  0  0  0  0  0  0  # atno 17395 bound_to 11000

$$$$
