#       Name:                AV-unprocessed.smi:2645
#       Creating user name   scv26
#       Creation time:       Fri Mar 27 14:29:10 2020


#       File generated by GOLD software.
#

@<TRIPOS>MOLECULE
AV-unprocessed.smi:2645
    55    57     1
SMALL
NO_CHARGES


@<TRIPOS>ATOM
      1 ****        -2.7423   1.5501  -0.6048 O.2            1 S1                 0.0000
      2 ****        -2.8949   1.3857  -1.8157 C.2            1 S1                 0.0000
      3 ****        -2.3229   0.3819  -2.4971 N.am           1 S1                 0.0000
      4 ****        -1.4738  -0.6446  -1.9030 C.3            1 S1                 0.0000
      5 ****        -0.0620  -0.1072  -1.5955 C.3            1 S1                 0.0000
      6 ****         0.8283  -1.1433  -1.0150 N.4            1 S1                 1.0000
      7 ****         2.2674  -0.8175  -1.2124 C.3            1 S1                 0.0000
      8 ****         3.1846  -1.8921  -0.5992 C.3            1 S1                 0.0000
      9 ****         2.8390  -2.0588   0.8153 N.am           1 S1                 0.0000
     10 ****         3.6716  -1.7044   1.8245 C.2            1 S1                 0.0000
     11 ****         4.8200  -1.3126   1.6139 O.2            1 S1                 0.0000
     12 ****         3.1477  -1.7491   3.2764 C.3            1 S1                 0.0000
     13 ****         4.0888  -1.1960   4.3653 C.3            1 S1                 0.0000
     14 ****         4.4627  -2.6307   4.7494 C.3            1 S1                 0.0000
     15 ****         3.2624  -3.1319   3.9404 C.3            1 S1                 0.0000
     16 ****         1.4617  -2.5361   0.9660 C.3            1 S1                 0.0000
     17 ****         0.5016  -1.4742   0.4011 C.3            1 S1                 0.0000
     18 ****        -3.6395   2.1645  -2.6205 N.am           1 S1                 0.0000
     19 ****        -4.3834   3.3240  -2.2736 C.ar           1 S1                 0.0000
     20 ****        -5.1059   3.9129  -3.3360 C.ar           1 S1                 0.0000
     21 ****        -5.8746   5.0681  -3.0943 C.ar           1 S1                 0.0000
     22 ****        -5.8995   5.6065  -1.7954 C.ar           1 S1                 0.0000
     23 ****        -5.1505   4.9600  -0.7951 C.ar           1 S1                 0.0000
     24 ****        -4.4139   3.8522  -1.0242 N.ar           1 S1                 0.0000
     25 ****        -2.5003   0.3145  -3.4890 H              1 S1                 0.0000
     26 ****        -1.9615  -1.0277  -1.0064 H              1 S1                 0.0000
     27 ****        -1.4096  -1.4788  -2.6021 H              1 S1                 0.0000
     28 ****         0.3715   0.2546  -2.5292 H              1 S1                 0.0000
     29 ****        -0.1026   0.7518  -0.9240 H              1 S1                 0.0000
     30 ****         2.4785  -0.7234  -2.2782 H              1 S1                 0.0000
     31 ****         2.4825   0.1517  -0.7592 H              1 S1                 0.0000
     32 ****         3.0505  -2.8426  -1.1175 H              1 S1                 0.0000
     33 ****         4.2281  -1.6148  -0.7538 H              1 S1                 0.0000
     34 ****         2.1552  -1.3060   3.3657 H              1 S1                 0.0000
     35 ****         4.9328  -0.5958   4.0236 H              1 S1                 0.0000
     36 ****         3.5441  -0.6788   5.1564 H              1 S1                 0.0000
     37 ****         5.4167  -2.9451   4.3240 H              1 S1                 0.0000
     38 ****         4.4074  -2.8413   5.8180 H              1 S1                 0.0000
     39 ****         2.3983  -3.3690   4.5623 H              1 S1                 0.0000
     40 ****         3.5016  -3.9553   3.2660 H              1 S1                 0.0000
     41 ****         1.3480  -3.4691   0.4118 H              1 S1                 0.0000
     42 ****         1.1901  -2.7806   1.9916 H              1 S1                 0.0000
     43 ****         0.5574  -0.5688   1.0079 H              1 S1                 0.0000
     44 ****        -0.5197  -1.8444   0.4786 H              1 S1                 0.0000
     45 ****        -3.6814   1.8980  -3.5931 H              1 S1                 0.0000
     46 ****        -5.0759   3.4868  -4.3286 H              1 S1                 0.0000
     47 ****        -6.4347   5.5324  -3.8927 H              1 S1                 0.0000
     48 ****        -6.4770   6.4910  -1.5709 H              1 S1                 0.0000
     49 ****        -5.1421   5.3412   0.2155 H              1 S1                 0.0000
     50 ****         0.6678  -1.9862  -1.5476 H              1 S1                 0.0000
     51 ****        -2.1692   0.9183  -0.0827 LP             1 S1                 0.0000
     52 ****        -3.1914   2.3153  -0.1436 LP             1 S1                 0.0000
     53 ****         5.1625  -1.2487   0.6766 LP             1 S1                 0.0000
     54 ****         5.4100  -1.0584   2.3802 LP             1 S1                 0.0000
     55 ****        -3.8968   3.4259  -0.2819 LP             1 S1                 0.0000
@<TRIPOS>BOND
    1    1    2 2     
    2    2    3 am    
    3    2   18 am    
    4    3    4 1     
    5    3   25 1     
    6    4    5 1     
    7    4   26 1     
    8    4   27 1     
    9    5    6 1     
   10    5   28 1     
   11    5   29 1     
   12    6   17 1     
   13    6    7 1     
   14    6   50 1     
   15    7    8 1     
   16    7   30 1     
   17    7   31 1     
   18    8    9 1     
   19    8   32 1     
   20    8   33 1     
   21    9   10 am    
   22    9   16 1     
   23   10   11 2     
   24   10   12 1     
   25   12   15 1     
   26   12   13 1     
   27   12   34 1     
   28   13   14 1     
   29   13   35 1     
   30   13   36 1     
   31   14   15 1     
   32   14   37 1     
   33   14   38 1     
   34   15   39 1     
   35   15   40 1     
   36   16   17 1     
   37   16   41 1     
   38   16   42 1     
   39   17   43 1     
   40   17   44 1     
   41   18   19 1     
   42   18   45 1     
   43   19   24 ar    
   44   19   20 ar    
   45   20   21 ar    
   46   20   46 1     
   47   21   22 ar    
   48   21   47 1     
   49   22   23 ar    
   50   22   48 1     
   51   23   24 ar    
   52   23   49 1     
   53    1   51 1     
   54    1   52 1     
   55   11   53 1     
   56   11   54 1     
   57   24   55 1     
@<TRIPOS>SUBSTRUCTURE
      1 S1             1
@<TRIPOS>SET
LONE_PAIRS      STATIC     ATOMS    <user>   **** ""
5 51 52 53 54 55
DONOR_HYDROGENS      STATIC     ATOMS    <user>   **** ""
3 25 50 45
ATOM$BLUE        STATIC     ATOMS    COLORGROUP SYSTEM
5 51 52 53 54 55
ATOM$RED        STATIC     ATOMS    COLORGROUP SYSTEM
3 25 50 45
