AV-unprocessed.smi:1153|AV-procd|sdf|4899|dock3
  -GOLD-   22720 3473D 1   1.00000     0.00000
 Structure written by MMmdl.
 26 27  0  0  0  0  0  0  0  0  1 V2000
  152.0473  139.9022  155.1332 O   0  0  0  0  0  0  0  0  0  0  0  0
  151.5945  140.2412  156.2276 C   0  0  0  0  0  0  0  0  0  0  0  0
  152.2834  139.8135  157.5289 C   0  0  0  0  0  0  0  0  0  0  0  0
  152.3459  140.8902  158.5041 N   0  0  0  0  0  0  0  0  0  0  0  0
  152.9327  140.8855  159.7517 C   0  0  0  0  0  0  0  0  0  0  0  0
  152.7336  142.1202  160.2987 C   0  0  0  0  0  0  0  0  0  0  0  0
  152.0010  142.8275  159.3013 C   0  0  0  0  0  0  0  0  0  0  0  0
  151.4949  144.2454  159.3426 C   0  0  0  0  0  0  0  0  0  0  0  0
  152.1038  144.9729  158.4063 F   0  0  0  0  0  0  0  0  0  0  0  0
  150.1809  144.2745  159.1204 F   0  0  0  0  0  0  0  0  0  0  0  0
  151.7396  144.7821  160.5381 F   0  0  0  0  0  0  0  0  0  0  0  0
  151.7702  142.0805  158.2298 N   0  0  0  0  0  0  0  0  0  0  0  0
  150.4950  140.9963  156.3685 N   0  0  0  0  0  0  0  0  0  0  0  0
  149.6966  141.5069  155.3014 C   0  0  0  0  0  0  0  0  0  0  0  0
  148.2467  141.0771  155.2409 C   0  0  0  0  0  0  0  0  0  0  0  0
  149.2302  140.5298  154.2439 C   0  0  0  0  0  0  0  0  0  0  0  0
  151.7474  138.9647  157.9560 H   0  0  0  0  0  0  0  0  0  0  0  0
  153.3016  139.4806  157.3228 H   0  0  0  0  0  0  0  0  0  0  0  0
  153.4400  140.0146  160.1399 H   0  0  0  0  0  0  0  0  0  0  0  0
  153.0622  142.4677  161.2669 H   0  0  0  0  0  0  0  0  0  0  0  0
  150.2004  141.2290  157.3058 H   0  0  0  0  0  0  0  0  0  0  0  0
  149.9097  142.5175  154.9561 H   0  0  0  0  0  0  0  0  0  0  0  0
  147.8831  140.3998  156.0114 H   0  0  0  0  0  0  0  0  0  0  0  0
  147.5225  141.8066  154.8837 H   0  0  0  0  0  0  0  0  0  0  0  0
  149.1628  140.8934  153.2205 H   0  0  0  0  0  0  0  0  0  0  0  0
  149.5230  139.4867  154.3487 H   0  0  0  0  0  0  0  0  0  0  0  0
  1  2  2  0  0  0  0
  2  3  1  0  0  0  0
  2 13  1  0  0  0  0
  3  4  1  0  0  0  0
  3 17  1  0  0  0  0
  3 18  1  0  0  0  0
  4 12  1  0  0  0  0
  4  5  1  0  0  0  0
  5  6  2  0  0  0  0
  5 19  1  0  0  0  0
  6  7  1  0  0  0  0
  6 20  1  0  0  0  0
  7  8  1  0  0  0  0
  7 12  2  0  0  0  0
  8  9  1  0  0  0  0
  8 10  1  0  0  0  0
  8 11  1  0  0  0  0
 13 14  1  0  0  0  0
 13 21  1  0  0  0  0
 14 16  1  0  0  0  0
 14 15  1  0  0  0  0
 14 22  1  0  0  0  0
 15 16  1  0  0  0  0
 15 23  1  0  0  0  0
 15 24  1  0  0  0  0
 16 25  1  0  0  0  0
 16 26  1  0  0  0  0
M  END
> <s_m_source_file>
AV-unprocessed.smi

> <i_m_source_file_index>
1153

> <i_lp_mmshare_version>
43012

> <i_f3d_flags>
0

> <s_epik_input>
W0NIMl0xW0NIMl1bQ0hdMVtOSF1DKD1PKVtDSDJdbjJbY0hdW2NIXWMobjIpQyhGKShGKUY=

> <s_epik_cmdline>
J2VwaWtfcHl0aG9uJywgJy1waCcsICc3LjAnLCAnLXRuJywgJzgnLCAnLW1hJywgJzIwMCcsICctbWV0YWxfYmluZGluZycsICctaW1hZScsICc8aW5maWxlLm1hZT4nLCAnLW9tYWUnLCAnPG91dGZpbGUubWFlPic=

> <r_lp_tautomer_probability>
1

> <r_epik_Ionization_Penalty>
7.21317e-08

> <r_epik_Ionization_Penalty_Charging>
0

> <r_epik_Ionization_Penalty_Neutral>
7.21317e-08

> <r_epik_State_Penalty>
-0

> <r_epik_Charging_Adjusted_Penalty>
0

> <i_epik_Tot_Q>
0

> <i_epik_Tot_abs_Q>
0

> <r_epik_Metal_State_Penalty>
-0

> <b_epik_Metal_Only>
0

> <s_lp_Force_Field>
OPLS_2005

> <r_lp_Energy>
18.4383

> <b_lp_Chiralities_Consistent>
1

> <s_lp_Variant>
AV-unprocessed.smi:1153-1

> <Gold.Version>
5.8.1

> <Gold.Id.Protein>
6NUR|6NUR_protein|mol2

> <Gold.PLP.Fitness>
42.3555

> <Gold.PLP.PLP>
-40.2990

> <Gold.PLP.part.hbond>
-1.0000

> <Gold.PLP.part.metal>
0.0000

> <Gold.PLP.part.buried>
-4.7216

> <Gold.PLP.part.nonpolar>
-34.5706

> <Gold.PLP.part.repulsive>
0.1032

> <Gold.PLP.ligand.clash>
0.0000

> <Gold.PLP.ligand.torsion>
0.3615

> <Gold.PLP.Chemscore.Hbond>
0.9120

> <Gold.PLP.Chemscore.CHOScore>
0.0000

> <Gold.PLP.Chemscore.Metal>
0.0000

> <Gold.Chemscore.Hbonds>
donor molecule, donor type, donor heavy atom, donor atom, acceptor molecule, acceptor atom, score
      P1  H  7989  7998       L1     1  0.83

> <Gold.PLP.Chemscore.Internal.Correction>
0.0435

> <Gold.Rescore>
     Score         DG    S(hbond)    S(metal)    S(lipo)     H(rot)  DE(clash)    DE(int)     intcor
     11.84     -12.19       0.86        0.00      68.45       1.64       0.17       0.18       ----

> <Gold.Chemscore.Fitness>
11.8356

> <Gold.Chemscore.DG>
-12.1859

> <Gold.Chemscore.ZeroCoef>
-5.4800

> <Gold.Chemscore.Hbond>
0.8650

> <Gold.Chemscore.Metal>
0.0000

> <Gold.Chemscore.Lipo>
68.4451

> <Gold.Chemscore.Internal_Hbond>
0.0000

> <Gold.Chemscore.DEClash>
0.1675

> <Gold.Chemscore.DEInternal>
0.1827

> <Gold.Chemscore.Rot>
1.6372

> <Gold.Chemscore.Internal.Correction>
   9.000000E+99

> <Gold.Chemscore.Hbonds>
donor molecule, donor type, donor heavy atom, donor atom, acceptor molecule, acceptor atom, score
      P1  H  7989  7998       L1     1  0.82

> <Gold.Chemscore.Hbond.Weighted>
-2.8891

> <Gold.Chemscore.Metal.Weighted>
-0.0000

> <Gold.Chemscore.Lipo.Weighted>
-8.0081

> <Gold.Chemscore.Internal_Hbond.Weighted>
0.0000

> <Gold.Chemscore.DEClash.Weighted>
0.1675

> <Gold.Chemscore.DEInternal.Weighted>
0.1827

> <Gold.Chemscore.Rot.Weighted>
4.1913

> <Gold.Chemscore.Internal.Correction.Weighted>
   9.000000E+99

> <Gold.Protein.RotatedTorsions>
[ 6907 6896 6895 6894 ] final  136.91 input  -60.11 | X-H torsion
[ 7974 7965 7964 7962 ] final -173.10 input  175.53 | X-H torsion
[ 8008 7997 7996 7995 ] final -117.15 input   59.86 | X-H torsion
[ 10167 10162 10161 10158 ] final   -0.24 input  -65.29 | X-H torsion
[ 10718 10713 10712 10709 ] final  -94.81 input   66.30 | X-H torsion
[ 10763 10752 10751 10750 ] final  156.40 input  -60.55 | X-H torsion
[ 11005 11000 10999 10996 ] final -150.87 input  -57.11 | X-H torsion

> <Gold.Protein.ActiveResidues>
 VAL166  LYS551  ARG553  GLY616  TRP617  ASP618  TYR619  PRO620  LYS621  CYS622 
 ASP623  PHE694  ASN695  SER759  ASP760  ASP761  ALA762  ILE779  LEU786  VAL792 
 PHE793  MET794  SER795  GLU796  ALA797  LYS798  CYS799  TRP800  GLU811  SER814 

> <Gold.Protein.RotatedAtoms>
  152.2841  133.5498  159.5515 H   0  0  0  0  0  0  0  0  0  0  0  0  # atno 6907 bound_to 6896
  150.7208  134.0523  159.3811 H   0  0  0  0  0  0  0  0  0  0  0  0  # atno 6908 bound_to 6896
  151.8432  135.0583  160.0501 H   0  0  0  0  0  0  0  0  0  0  0  0  # atno 6909 bound_to 6896
  144.7140  140.1673  143.6370 H   0  0  0  0  0  0  0  0  0  0  0  0  # atno 7974 bound_to 7965
  155.0791  140.0394  157.2633 H   0  0  0  0  0  0  0  0  0  0  0  0  # atno 8008 bound_to 7997
  154.6921  140.2655  155.6777 H   0  0  0  0  0  0  0  0  0  0  0  0  # atno 8009 bound_to 7997
  156.2732  140.2757  156.1503 H   0  0  0  0  0  0  0  0  0  0  0  0  # atno 8010 bound_to 7997
  140.6758  143.6918  150.8021 H   0  0  0  0  0  0  0  0  0  0  0  0  # atno 10167 bound_to 10162
  156.0033  130.5083  150.5982 H   0  0  0  0  0  0  0  0  0  0  0  0  # atno 10718 bound_to 10713
  154.1837  135.2798  155.3044 H   0  0  0  0  0  0  0  0  0  0  0  0  # atno 10763 bound_to 10752
  154.5983  135.5538  153.7351 H   0  0  0  0  0  0  0  0  0  0  0  0  # atno 10764 bound_to 10752
  153.0131  135.6385  154.1976 H   0  0  0  0  0  0  0  0  0  0  0  0  # atno 10765 bound_to 10752
  140.7356  134.3572  157.5158 H   0  0  0  0  0  0  0  0  0  0  0  0  # atno 11005 bound_to 11000
  145.8976  139.2411  143.1513 LP  0  0  0  0  0  0  0  0  0  0  0  0  # atno 17320 bound_to 7965
  145.9842  140.8657  143.0099 LP  0  0  0  0  0  0  0  0  0  0  0  0  # atno 17321 bound_to 7965
  140.0611  143.5154  152.2627 LP  0  0  0  0  0  0  0  0  0  0  0  0  # atno 17342 bound_to 10162
  139.6051  144.7594  151.3082 LP  0  0  0  0  0  0  0  0  0  0  0  0  # atno 17343 bound_to 10162
  157.3836  131.0785  151.1455 LP  0  0  0  0  0  0  0  0  0  0  0  0  # atno 17370 bound_to 10713
  157.2170  130.6464  149.5796 LP  0  0  0  0  0  0  0  0  0  0  0  0  # atno 17371 bound_to 10713
  139.8817  134.9047  156.2883 LP  0  0  0  0  0  0  0  0  0  0  0  0  # atno 17394 bound_to 11000
  140.9882  133.7225  156.0774 LP  0  0  0  0  0  0  0  0  0  0  0  0  # atno 17395 bound_to 11000

$$$$
