#       Name:                AV-unprocessed.smi:3128
#       Creating user name   scv26
#       Creation time:       Fri Mar 27 17:30:01 2020


#       File generated by GOLD software.
#

@<TRIPOS>MOLECULE
AV-unprocessed.smi:3128
    43    43     1
SMALL
NO_CHARGES


@<TRIPOS>ATOM
      1 ****        -3.2820  -2.4250  -0.7416 C.3            1 S1                 0.0000
      2 ****        -3.6660  -2.2600   0.7418 C.3            1 S1                 0.0000
      3 ****        -5.1862  -2.4442   0.9001 C.3            1 S1                 0.0000
      4 ****        -3.1696  -0.9121   1.3294 C.3            1 S1                 0.0000
      5 ****        -3.4752  -0.7483   2.8290 C.3            1 S1                 0.0000
      6 ****        -1.7248  -0.7788   1.1396 N.am           1 S1                 0.0000
      7 ****        -1.0870   0.3024   0.6637 C.2            1 S1                 0.0000
      8 ****        -1.6610   1.3380   0.3251 O.2            1 S1                 0.0000
      9 ****         0.4360   0.1945   0.5743 C.3            1 S1                 0.0000
     10 ****         1.0116   1.1795  -0.3640 N.4            1 S1                 1.0000
     11 ****         2.4831   1.1267  -0.4594 C.3            1 S1                 0.0000
     12 ****         3.0099   2.1468  -1.4787 C.3            1 S1                 0.0000
     13 ****         4.4557   2.1022  -1.5816 N.pl3          1 S1                 0.0000
     14 ****         5.2298   1.5652  -2.5890 C.2            1 S1                 0.0000
     15 ****         6.5366   1.7591  -2.2434 C.2            1 S1                 0.0000
     16 ****         6.4596   2.4342  -0.9930 C.2            1 S1                 0.0000
     17 ****         5.2123   2.6380  -0.5997 N.2            1 S1                 0.0000
     18 ****        -3.6980  -1.6199  -1.3483 H              1 S1                 0.0000
     19 ****        -3.6565  -3.3677  -1.1418 H              1 S1                 0.0000
     20 ****        -2.2015  -2.4272  -0.8861 H              1 S1                 0.0000
     21 ****        -3.1824  -3.0686   1.2921 H              1 S1                 0.0000
     22 ****        -5.7359  -1.6269   0.4322 H              1 S1                 0.0000
     23 ****        -5.4823  -2.4924   1.9477 H              1 S1                 0.0000
     24 ****        -5.5189  -3.3739   0.4373 H              1 S1                 0.0000
     25 ****        -3.6837  -0.1101   0.7961 H              1 S1                 0.0000
     26 ****        -4.5470  -0.7089   3.0218 H              1 S1                 0.0000
     27 ****        -3.0514   0.1791   3.2159 H              1 S1                 0.0000
     28 ****        -3.0589  -1.5710   3.4115 H              1 S1                 0.0000
     29 ****        -1.1657  -1.5796   1.3964 H              1 S1                 0.0000
     30 ****         0.8558   0.3505   1.5689 H              1 S1                 0.0000
     31 ****         0.7126  -0.8115   0.2549 H              1 S1                 0.0000
     32 ****         0.6197   1.0121  -1.2797 H              1 S1                 0.0000
     33 ****         2.9097   1.3227   0.5255 H              1 S1                 0.0000
     34 ****         2.7887   0.1205  -0.7496 H              1 S1                 0.0000
     35 ****         2.5861   1.9529  -2.4651 H              1 S1                 0.0000
     36 ****         2.7129   3.1588  -1.1988 H              1 S1                 0.0000
     37 ****         4.7926   1.0943  -3.4571 H              1 S1                 0.0000
     38 ****         7.4145   1.4648  -2.7992 H              1 S1                 0.0000
     39 ****         7.2672   2.7796  -0.3643 H              1 S1                 0.0000
     40 ****         0.7380   2.1042  -0.0621 H              1 S1                 0.0000
     41 ****        -2.6561   1.4049   0.3980 LP             1 S1                 0.0000
     42 ****        -1.1320   2.1120  -0.0228 LP             1 S1                 0.0000
     43 ****         4.9002   3.0879   0.2370 LP             1 S1                 0.0000
@<TRIPOS>BOND
    1    1    2 1     
    2    1   18 1     
    3    1   19 1     
    4    1   20 1     
    5    2    3 1     
    6    2    4 1     
    7    2   21 1     
    8    3   22 1     
    9    3   23 1     
   10    3   24 1     
   11    4    5 1     
   12    4    6 1     
   13    4   25 1     
   14    5   26 1     
   15    5   27 1     
   16    5   28 1     
   17    6    7 am    
   18    6   29 1     
   19    7    8 2     
   20    7    9 1     
   21    9   10 1     
   22    9   30 1     
   23    9   31 1     
   24   10   11 1     
   25   10   32 1     
   26   10   40 1     
   27   11   12 1     
   28   11   33 1     
   29   11   34 1     
   30   12   13 1     
   31   12   35 1     
   32   12   36 1     
   33   13   17 1     
   34   13   14 1     
   35   14   15 2     
   36   14   37 1     
   37   15   16 1     
   38   15   38 1     
   39   16   17 2     
   40   16   39 1     
   41    8   41 1     
   42    8   42 1     
   43   17   43 1     
@<TRIPOS>SUBSTRUCTURE
      1 S1             1
@<TRIPOS>SET
LONE_PAIRS      STATIC     ATOMS    <user>   **** ""
3 41 42 43
DONOR_HYDROGENS      STATIC     ATOMS    <user>   **** ""
3 29 32 40
ATOM$BLUE        STATIC     ATOMS    COLORGROUP SYSTEM
3 41 42 43
ATOM$RED        STATIC     ATOMS    COLORGROUP SYSTEM
3 29 32 40
