AV-unprocessed.smi:235|AV-procd|sdf|1802|dock7
  -GOLD-   2262020373D 1   1.00000     0.00000
 Structure written by MMmdl.
 54 58  0  0  0  0  0  0  0  0  1 V2000
  151.7403  141.0945  157.7788 O   0  0  0  0  0  0  0  0  0  0  0  0
  150.6253  141.6011  157.6549 C   0  0  0  0  0  0  0  0  0  0  0  0
  150.2981  142.7811  158.2073 N   0  0  0  0  0  0  0  0  0  0  0  0
  151.1529  143.6069  158.9942 C   0  0  0  0  0  0  0  0  0  0  0  0
  151.1709  145.0872  158.6796 C   0  0  0  0  0  0  0  0  0  0  0  0
  152.3501  144.2305  158.3096 C   0  0  0  0  0  0  0  0  0  0  0  0
  149.5561  140.8773  156.8102 C   0  0  1  0  0  0  0  0  0  0  0  0
  148.2950  141.7386  156.5780 C   0  0  0  0  0  0  0  0  0  0  0  0
  148.3800  142.1802  155.1190 C   0  0  0  0  0  0  0  0  0  0  0  0
  149.0769  140.9958  154.4619 C   0  0  0  0  0  0  0  0  0  0  0  0
  150.0269  140.5378  155.4614 N   0  0  0  0  0  0  0  0  0  0  0  0
  150.5559  139.3115  155.2617 C   0  0  0  0  0  0  0  0  0  0  0  0
  151.8012  139.1810  154.7351 N   0  0  0  0  0  0  0  0  0  0  0  0
  152.3114  137.9620  154.5315 C   0  0  0  0  0  0  0  0  0  0  0  0
  151.7575  136.7716  154.7776 N   0  0  0  0  0  0  0  0  0  0  0  0
  150.5086  136.9069  155.3099 C   0  0  0  0  0  0  0  0  0  0  0  0
  149.8406  138.1309  155.5871 C   0  0  0  0  0  0  0  0  0  0  0  0
  148.5853  137.8814  156.1270 N   0  0  0  0  0  0  0  0  0  0  0  0
  148.5110  136.5786  156.1601 C   0  0  0  0  0  0  0  0  0  0  0  0
  149.6214  135.9152  155.6868 N   0  0  0  0  0  0  0  0  0  0  0  0
  149.8100  134.4779  155.6020 C   0  0  0  0  0  0  0  0  0  0  0  0
  149.2727  133.8905  154.2790 C   0  0  2  0  0  0  0  0  0  0  0  0
  148.1901  134.6938  153.8484 O   0  0  0  0  0  0  0  0  0  0  0  0
  148.7586  132.4442  154.4246 C   0  0  2  0  0  0  0  0  0  0  0  0
  149.8020  131.4392  154.9179 C   0  0  0  0  0  0  0  0  0  0  0  0
  149.2904  130.1060  154.3982 C   0  0  0  0  0  0  0  0  0  0  0  0
  148.3114  130.4967  153.2890 C   0  0  0  0  0  0  0  0  0  0  0  0
  148.4523  131.9035  153.1477 O   0  0  0  0  0  0  0  0  0  0  0  0
  149.3618  143.1256  158.0478 H   0  0  0  0  0  0  0  0  0  0  0  0
  151.2812  143.3406  160.0424 H   0  0  0  0  0  0  0  0  0  0  0  0
  150.5376  145.4437  157.8692 H   0  0  0  0  0  0  0  0  0  0  0  0
  151.2920  145.7756  159.5135 H   0  0  0  0  0  0  0  0  0  0  0  0
  153.2589  144.3453  158.8967 H   0  0  0  0  0  0  0  0  0  0  0  0
  152.5030  144.0145  157.2536 H   0  0  0  0  0  0  0  0  0  0  0  0
  149.2714  139.9818  157.3653 H   0  0  0  0  0  0  0  0  0  0  0  0
  147.4070  141.1206  156.7172 H   0  0  0  0  0  0  0  0  0  0  0  0
  148.2025  142.5881  157.2561 H   0  0  0  0  0  0  0  0  0  0  0  0
  147.4069  142.4007  154.6798 H   0  0  0  0  0  0  0  0  0  0  0  0
  149.0020  143.0727  155.0372 H   0  0  0  0  0  0  0  0  0  0  0  0
  148.3567  140.2103  154.2254 H   0  0  0  0  0  0  0  0  0  0  0  0
  149.5816  141.2863  153.5398 H   0  0  0  0  0  0  0  0  0  0  0  0
  153.3047  137.9367  154.1081 H   0  0  0  0  0  0  0  0  0  0  0  0
  147.6361  136.0625  156.5278 H   0  0  0  0  0  0  0  0  0  0  0  0
  150.8764  134.2784  155.7078 H   0  0  0  0  0  0  0  0  0  0  0  0
  149.3193  134.0095  156.4565 H   0  0  0  0  0  0  0  0  0  0  0  0
  150.0589  133.9265  153.5236 H   0  0  0  0  0  0  0  0  0  0  0  0
  148.4860  135.2409  153.1373 H   0  0  0  0  0  0  0  0  0  0  0  0
  147.8756  132.4032  155.0658 H   0  0  0  0  0  0  0  0  0  0  0  0
  150.7724  131.6558  154.4687 H   0  0  0  0  0  0  0  0  0  0  0  0
  149.9224  131.4502  156.0017 H   0  0  0  0  0  0  0  0  0  0  0  0
  150.1076  129.4880  154.0252 H   0  0  0  0  0  0  0  0  0  0  0  0
  148.7755  129.5476  155.1809 H   0  0  0  0  0  0  0  0  0  0  0  0
  148.5200  129.9886  152.3474 H   0  0  0  0  0  0  0  0  0  0  0  0
  147.2867  130.2647  153.5820 H   0  0  0  0  0  0  0  0  0  0  0  0
  1  2  2  0  0  0  0
  2  3  1  0  0  0  0
  2  7  1  0  0  0  0
  3  4  1  0  0  0  0
  3 29  1  0  0  0  0
  4  6  1  0  0  0  0
  4  5  1  0  0  0  0
  4 30  1  0  0  0  0
  5  6  1  0  0  0  0
  5 31  1  0  0  0  0
  5 32  1  0  0  0  0
  6 33  1  0  0  0  0
  6 34  1  0  0  0  0
  7 11  1  0  0  0  0
  7  8  1  0  0  0  0
  7 35  1  0  0  0  0
  8  9  1  0  0  0  0
  8 36  1  0  0  0  0
  8 37  1  0  0  0  0
  9 10  1  0  0  0  0
  9 38  1  0  0  0  0
  9 39  1  0  0  0  0
 10 11  1  0  0  0  0
 10 40  1  0  0  0  0
 10 41  1  0  0  0  0
 11 12  1  0  0  0  0
 12 17  1  0  0  0  0
 12 13  2  0  0  0  0
 13 14  1  0  0  0  0
 14 15  2  0  0  0  0
 14 42  1  0  0  0  0
 15 16  1  0  0  0  0
 16 20  1  0  0  0  0
 16 17  2  0  0  0  0
 17 18  1  0  0  0  0
 18 19  2  0  0  0  0
 19 20  1  0  0  0  0
 19 43  1  0  0  0  0
 20 21  1  0  0  0  0
 21 22  1  0  0  0  0
 21 44  1  0  0  0  0
 21 45  1  0  0  0  0
 22 23  1  0  0  0  0
 22 24  1  0  0  0  0
 22 46  1  0  0  0  0
 23 47  1  0  0  0  0
 24 28  1  0  0  0  0
 24 25  1  0  0  0  0
 24 48  1  0  0  0  0
 25 26  1  0  0  0  0
 25 49  1  0  0  0  0
 25 50  1  0  0  0  0
 26 27  1  0  0  0  0
 26 51  1  0  0  0  0
 26 52  1  0  0  0  0
 27 28  1  0  0  0  0
 27 53  1  0  0  0  0
 27 54  1  0  0  0  0
M  END
> <s_m_source_file>
AV-unprocessed.smi

> <i_m_source_file_index>
235

> <i_lp_mmshare_version>
43012

> <i_f3d_flags>
0

> <s_epik_input>
W0NIMl0xW0NIMl1bQ0hdMVtOSF1DKD1PKVtDQEBIXTJbQ0gyXVtDSDJdW0NIMl1OMmMobltjSF1uMyljKGMzNCluW2NIXW40W0NIMl1bQ0BIXShbT0hdKVtDQEBIXTVbQ0gyXVtDSDJdW0NIMl1PNQ==

> <s_epik_cmdline>
J2VwaWtfcHl0aG9uJywgJy1waCcsICc3LjAnLCAnLXRuJywgJzgnLCAnLW1hJywgJzIwMCcsICctbWV0YWxfYmluZGluZycsICctaW1hZScsICc8aW5maWxlLm1hZT4nLCAnLW9tYWUnLCAnPG91dGZpbGUubWFlPic=

> <r_lp_tautomer_probability>
1

> <r_epik_Ionization_Penalty>
0.000526714

> <r_epik_Ionization_Penalty_Charging>
0

> <r_epik_Ionization_Penalty_Neutral>
0.000526714

> <r_epik_State_Penalty>
0.000272704

> <r_epik_Charging_Adjusted_Penalty>
0.000272704

> <i_epik_Tot_Q>
0

> <i_epik_Tot_abs_Q>
0

> <r_epik_Metal_State_Penalty>
-0

> <b_epik_Metal_Only>
0

> <s_lp_Force_Field>
OPLS_2005

> <r_lp_Energy>
60.5906

> <b_lp_Chiralities_Consistent>
1

> <s_lp_Variant>
AV-unprocessed.smi:235-2

> <Gold.Version>
5.8.1

> <Gold.Id.Protein>
6NUR|6NUR_protein|mol2

> <Gold.PLP.Fitness>
51.7242

> <Gold.PLP.PLP>
-44.9096

> <Gold.PLP.part.hbond>
-3.0000

> <Gold.PLP.part.metal>
0.0000

> <Gold.PLP.part.buried>
-4.0955

> <Gold.PLP.part.nonpolar>
-37.9271

> <Gold.PLP.part.repulsive>
0.4521

> <Gold.PLP.ligand.clash>
0.0019

> <Gold.PLP.ligand.torsion>
1.2887

> <Gold.PLP.Chemscore.Hbond>
2.9920

> <Gold.PLP.Chemscore.CHOScore>
0.0000

> <Gold.PLP.Chemscore.Metal>
0.0000

> <Gold.Chemscore.Hbonds>
donor molecule, donor type, donor heavy atom, donor atom, acceptor molecule, acceptor atom, score
      L1  H    23    47       P1  7948  1.00
      P1  H  7989  7998       L1    13  0.69
      P1  H 10752 10765       L1    15  1.00

> <Gold.PLP.Chemscore.Internal.Correction>
0.4179

> <Gold.Rescore>
     Score         DG    S(hbond)    S(metal)    S(lipo)     H(rot)  DE(clash)    DE(int)     intcor
     13.70     -17.45       2.75        0.00      89.46       3.00       1.55       2.21       ----

> <Gold.Chemscore.Fitness>
13.6985

> <Gold.Chemscore.DG>
-17.4548

> <Gold.Chemscore.ZeroCoef>
-5.4800

> <Gold.Chemscore.Hbond>
2.7502

> <Gold.Chemscore.Metal>
0.0000

> <Gold.Chemscore.Lipo>
89.4566

> <Gold.Chemscore.Internal_Hbond>
0.0000

> <Gold.Chemscore.DEClash>
1.5485

> <Gold.Chemscore.DEInternal>
2.2079

> <Gold.Chemscore.Rot>
2.9989

> <Gold.Chemscore.Internal.Correction>
   9.000000E+99

> <Gold.Chemscore.Hbonds>
donor molecule, donor type, donor heavy atom, donor atom, acceptor molecule, acceptor atom, score
      L1  H    23    47       P1  7948  0.90
      P1  H  7989  7998       L1    13  0.09
      P1  H 10752 10765       L1    15  0.38

> <Gold.Chemscore.Hbond.Weighted>
-9.1856

> <Gold.Chemscore.Metal.Weighted>
-0.0000

> <Gold.Chemscore.Lipo.Weighted>
-10.4664

> <Gold.Chemscore.Internal_Hbond.Weighted>
0.0000

> <Gold.Chemscore.DEClash.Weighted>
1.5485

> <Gold.Chemscore.DEInternal.Weighted>
2.2079

> <Gold.Chemscore.Rot.Weighted>
7.6772

> <Gold.Chemscore.Internal.Correction.Weighted>
   9.000000E+99

> <Gold.Protein.RotatedTorsions>
[ 6907 6896 6895 6894 ] final   46.88 input  -60.11 | X-H torsion
[ 7974 7965 7964 7962 ] final -173.95 input  175.53 | X-H torsion
[ 8008 7997 7996 7995 ] final  150.57 input   59.86 | X-H torsion
[ 10167 10162 10161 10158 ] final  -37.78 input  -65.29 | X-H torsion
[ 10718 10713 10712 10709 ] final  -11.17 input   66.30 | X-H torsion
[ 10763 10752 10751 10750 ] final  159.89 input  -60.55 | X-H torsion
[ 11005 11000 10999 10996 ] final  -42.87 input  -57.11 | X-H torsion

> <Gold.Protein.ActiveResidues>
 VAL166  LYS551  ARG553  GLY616  TRP617  ASP618  TYR619  PRO620  LYS621  CYS622 
 ASP623  PHE694  ASN695  SER759  ASP760  ASP761  ALA762  ILE779  LEU786  VAL792 
 PHE793  MET794  SER795  GLU796  ALA797  LYS798  CYS799  TRP800  GLU811  SER814 

> <Gold.Protein.RotatedAtoms>
  152.2616  134.8028  160.0429 H   0  0  0  0  0  0  0  0  0  0  0  0  # atno 6907 bound_to 6896
  151.8673  133.3463  159.3731 H   0  0  0  0  0  0  0  0  0  0  0  0  # atno 6908 bound_to 6896
  150.7118  134.5075  159.5635 H   0  0  0  0  0  0  0  0  0  0  0  0  # atno 6909 bound_to 6896
  144.7134  140.1545  143.6381 H   0  0  0  0  0  0  0  0  0  0  0  0  # atno 7974 bound_to 7965
  156.2710  140.2071  156.6038 H   0  0  0  0  0  0  0  0  0  0  0  0  # atno 8008 bound_to 7997
  154.6885  140.0532  157.0363 H   0  0  0  0  0  0  0  0  0  0  0  0  # atno 8009 bound_to 7997
  155.0900  140.3195  155.4579 H   0  0  0  0  0  0  0  0  0  0  0  0  # atno 8010 bound_to 7997
  140.7109  143.3319  151.2549 H   0  0  0  0  0  0  0  0  0  0  0  0  # atno 10167 bound_to 10162
  156.6629  130.4987  149.6025 H   0  0  0  0  0  0  0  0  0  0  0  0  # atno 10718 bound_to 10713
  154.2388  135.2775  155.2862 H   0  0  0  0  0  0  0  0  0  0  0  0  # atno 10763 bound_to 10752
  154.5562  135.5660  153.6970 H   0  0  0  0  0  0  0  0  0  0  0  0  # atno 10764 bound_to 10752
  153.0004  135.6287  154.2531 H   0  0  0  0  0  0  0  0  0  0  0  0  # atno 10765 bound_to 10752
  141.0345  133.6806  156.2654 H   0  0  0  0  0  0  0  0  0  0  0  0  # atno 11005 bound_to 11000
  145.9086  139.2473  143.1451 LP  0  0  0  0  0  0  0  0  0  0  0  0  # atno 17320 bound_to 7965
  145.9739  140.8738  143.0148 LP  0  0  0  0  0  0  0  0  0  0  0  0  # atno 17321 bound_to 7965
  139.6804  143.9865  152.2805 LP  0  0  0  0  0  0  0  0  0  0  0  0  # atno 17342 bound_to 10162
  139.9493  144.6631  150.8188 LP  0  0  0  0  0  0  0  0  0  0  0  0  # atno 17343 bound_to 10162
  156.1997  130.6612  151.1154 LP  0  0  0  0  0  0  0  0  0  0  0  0  # atno 17370 bound_to 10713
  157.7103  131.0737  150.6522 LP  0  0  0  0  0  0  0  0  0  0  0  0  # atno 17371 bound_to 10713
  140.6347  134.5227  157.5563 LP  0  0  0  0  0  0  0  0  0  0  0  0  # atno 17394 bound_to 11000
  139.9231  134.8110  156.1151 LP  0  0  0  0  0  0  0  0  0  0  0  0  # atno 17395 bound_to 11000

$$$$
