#       Name:                AV-unprocessed.smi:2403
#       Creating user name   scv26
#       Creation time:       Fri Mar 27 13:13:56 2020


#       File generated by GOLD software.
#

@<TRIPOS>MOLECULE
AV-unprocessed.smi:2403
    52    54     1
SMALL
NO_CHARGES


@<TRIPOS>ATOM
      1 ****        -4.0937  -0.8172  -0.2920 C.3            1 S1                 0.0000
      2 ****        -3.9089   0.6187  -0.7518 C.ar           1 S1                 0.0000
      3 ****        -5.0104   1.5032  -0.7360 C.ar           1 S1                 0.0000
      4 ****        -4.8360   2.8338  -1.1636 C.ar           1 S1                 0.0000
      5 ****        -3.6239   3.2479  -1.5875 N.pl3          1 S1                 1.0000
      6 ****        -2.5429   2.4399  -1.6196 C.ar           1 S1                 0.0000
      7 ****        -2.6460   1.0930  -1.1900 C.ar           1 S1                 0.0000
      8 ****        -1.5442   0.1927  -1.2210 N.am           1 S1                 0.0000
      9 ****        -0.2354   0.4839  -1.1324 C.2            1 S1                 0.0000
     10 ****         0.2288   1.6165  -1.0040 O.2            1 S1                 0.0000
     11 ****         0.5146  -0.6319  -1.1646 N.am           1 S1                 0.0000
     12 ****         1.9818  -0.7387  -1.0541 C.3            1 S1                 0.0000
     13 ****         2.5105  -0.3927   0.3681 C.2            1 S1                 0.0000
     14 ****         3.7175  -0.2314   0.5540 O.2            1 S1                 0.0000
     15 ****         1.6190  -0.2971   1.3684 N.am           1 S1                 0.0000
     16 ****         1.9401   0.0259   2.7497 C.3            1 S1                 0.0000
     17 ****         0.7213   0.2620   3.6166 C.3            1 S1                 0.0000
     18 ****         0.8305   0.2353   5.1230 C.3            1 S1                 0.0000
     19 ****         0.0939  -0.8670   4.4000 C.3            1 S1                 0.0000
     20 ****         2.3873  -2.1939  -1.3911 C.3            1 S1                 0.0000
     21 ****         3.7127  -2.1076  -2.1447 C.3            1 S1                 0.0000
     22 ****         3.5737  -0.8443  -2.9832 C.3            1 S1                 0.0000
     23 ****         2.6944   0.1046  -2.1586 C.3            1 S1                 0.0000
     24 ****        -5.1123  -0.9967   0.0533 H              1 S1                 0.0000
     25 ****        -3.4156  -1.0443   0.5313 H              1 S1                 0.0000
     26 ****        -3.8881  -1.5081  -1.1100 H              1 S1                 0.0000
     27 ****        -5.9817   1.1687  -0.4015 H              1 S1                 0.0000
     28 ****        -5.6245   3.5721  -1.1843 H              1 S1                 0.0000
     29 ****        -1.6439   2.9018  -1.9995 H              1 S1                 0.0000
     30 ****        -1.7829  -0.7883  -1.2279 H              1 S1                 0.0000
     31 ****         0.0253  -1.5089  -1.2672 H              1 S1                 0.0000
     32 ****         0.6453  -0.4472   1.1493 H              1 S1                 0.0000
     33 ****         2.5400  -0.7793   3.1767 H              1 S1                 0.0000
     34 ****         2.5543   0.9273   2.7743 H              1 S1                 0.0000
     35 ****         0.0358   1.0047   3.2123 H              1 S1                 0.0000
     36 ****         1.7971  -0.0099   5.5586 H              1 S1                 0.0000
     37 ****         0.2354   0.9544   5.6825 H              1 S1                 0.0000
     38 ****        -0.9914  -0.8819   4.4756 H              1 S1                 0.0000
     39 ****         0.5715  -1.8439   4.3548 H              1 S1                 0.0000
     40 ****         2.4672  -2.8372  -0.5131 H              1 S1                 0.0000
     41 ****         1.6449  -2.6543  -2.0457 H              1 S1                 0.0000
     42 ****         4.5367  -1.9966  -1.4389 H              1 S1                 0.0000
     43 ****         3.9103  -2.9927  -2.7501 H              1 S1                 0.0000
     44 ****         4.5395  -0.4054  -3.2354 H              1 S1                 0.0000
     45 ****         3.0684  -1.0861  -3.9192 H              1 S1                 0.0000
     46 ****         1.9933   0.6060  -2.8266 H              1 S1                 0.0000
     47 ****         3.3089   0.8985  -1.7314 H              1 S1                 0.0000
     48 ****        -3.5193   4.2132  -1.9012 H              1 S1                 0.0000
     49 ****        -0.3836   2.4056  -0.9583 LP             1 S1                 0.0000
     50 ****         1.2185   1.7475  -0.9454 LP             1 S1                 0.0000
     51 ****         4.3575  -0.3228  -0.2090 LP             1 S1                 0.0000
     52 ****         4.0574  -0.0091   1.4678 LP             1 S1                 0.0000
@<TRIPOS>BOND
    1    1    2 1     
    2    1   24 1     
    3    1   25 1     
    4    1   26 1     
    5    2    7 ar    
    6    2    3 ar    
    7    3    4 ar    
    8    3   27 1     
    9    4    5 ar    
   10    4   28 1     
   11    5    6 ar    
   12    5   48 1     
   13    6    7 ar    
   14    6   29 1     
   15    7    8 1     
   16    8    9 am    
   17    8   30 1     
   18    9   10 2     
   19    9   11 am    
   20   11   12 1     
   21   11   31 1     
   22   12   23 1     
   23   12   13 1     
   24   12   20 1     
   25   13   14 2     
   26   13   15 am    
   27   15   16 1     
   28   15   32 1     
   29   16   17 1     
   30   16   33 1     
   31   16   34 1     
   32   17   19 1     
   33   17   18 1     
   34   17   35 1     
   35   18   19 1     
   36   18   36 1     
   37   18   37 1     
   38   19   38 1     
   39   19   39 1     
   40   20   21 1     
   41   20   40 1     
   42   20   41 1     
   43   21   22 1     
   44   21   42 1     
   45   21   43 1     
   46   22   23 1     
   47   22   44 1     
   48   22   45 1     
   49   23   46 1     
   50   23   47 1     
   51   10   49 1     
   52   10   50 1     
   53   14   51 1     
   54   14   52 1     
@<TRIPOS>SUBSTRUCTURE
      1 S1             1
@<TRIPOS>SET
LONE_PAIRS      STATIC     ATOMS    <user>   **** ""
4 49 50 51 52
DONOR_HYDROGENS      STATIC     ATOMS    <user>   **** ""
4 48 30 31 32
ATOM$BLUE        STATIC     ATOMS    COLORGROUP SYSTEM
4 49 50 51 52
ATOM$RED        STATIC     ATOMS    COLORGROUP SYSTEM
4 48 30 31 32
