#       Name:                AV-unprocessed.smi:260
#       Creating user name   scv26
#       Creation time:       Thu Mar 26 21:14:59 2020


#       File generated by GOLD software.
#

@<TRIPOS>MOLECULE
AV-unprocessed.smi:260
    62    65     1
SMALL
NO_CHARGES


@<TRIPOS>ATOM
      1 ****        -6.3552   2.2101   1.9848 C.3            1 S1                 0.0000
      2 ****        -5.6227   1.9878   0.7480 N.am           1 S1                 0.0000
      3 ****        -4.9326   2.9351   0.0931 C.2            1 S1                 0.0000
      4 ****        -4.8771   4.0977   0.4965 O.2            1 S1                 0.0000
      5 ****        -4.1956   2.5447  -1.2149 C.3            1 S1                 0.0000
      6 ****        -4.8300   3.3108  -2.3920 C.3            1 S1                 0.0000
      7 ****        -4.1337   1.0227  -1.4783 C.3            1 S1                 0.0000
      8 ****        -2.9469   0.5260  -0.6426 C.3            1 S1                 0.0000
      9 ****        -2.1040   1.6945  -0.4323 N.pl3          1 S1                 0.0000
     10 ****        -0.7609   1.5734  -0.2690 C.ar           1 S1                 0.0000
     11 ****         0.0385   2.6078  -0.6424 N.ar           1 S1                 0.0000
     12 ****         1.3645   2.5271  -0.5030 C.ar           1 S1                 0.0000
     13 ****         2.0918   1.5214  -0.0149 N.ar           1 S1                 0.0000
     14 ****         1.2986   0.4841   0.3764 C.ar           1 S1                 0.0000
     15 ****        -0.1227   0.4258   0.2884 C.ar           1 S1                 0.0000
     16 ****        -0.5707  -0.7894   0.7970 N.2            1 S1                 0.0000
     17 ****         0.5184  -1.4140   1.1521 C.2            1 S1                 0.0000
     18 ****         1.6866  -0.7229   0.9308 N.pl3          1 S1                 0.0000
     19 ****         3.0326  -1.1827   1.2267 C.3            1 S1                 0.0000
     20 ****         3.5805  -2.1279   0.1396 C.3            1 S1                 0.0000
     21 ****         3.6350  -1.4378  -1.0942 O.3            1 S1                 0.0000
     22 ****         4.9879  -2.6527   0.4774 C.3            1 S1                 0.0000
     23 ****         5.5589  -3.6415  -0.5409 C.3            1 S1                 0.0000
     24 ****         6.5536  -4.4581   0.2692 C.3            1 S1                 0.0000
     25 ****         6.1846  -4.1568   1.7242 C.3            1 S1                 0.0000
     26 ****         4.9587  -3.4418   1.6567 O.3            1 S1                 0.0000
     27 ****        -2.6925   2.8581  -1.0851 C.3            1 S1                 0.0000
     28 ****        -6.8707   1.2964   2.2804 H              1 S1                 0.0000
     29 ****        -7.0997   2.9979   1.8615 H              1 S1                 0.0000
     30 ****        -5.6759   2.4951   2.7894 H              1 S1                 0.0000
     31 ****        -5.6333   1.0531   0.3662 H              1 S1                 0.0000
     32 ****        -4.3165   3.0950  -3.3295 H              1 S1                 0.0000
     33 ****        -4.7854   4.3902  -2.2414 H              1 S1                 0.0000
     34 ****        -5.8773   3.0364  -2.5235 H              1 S1                 0.0000
     35 ****        -5.0562   0.4811  -1.2665 H              1 S1                 0.0000
     36 ****        -3.9133   0.8469  -2.5323 H              1 S1                 0.0000
     37 ****        -3.2833   0.1536   0.3255 H              1 S1                 0.0000
     38 ****        -2.4192  -0.2782  -1.1567 H              1 S1                 0.0000
     39 ****         1.9222   3.3919  -0.8308 H              1 S1                 0.0000
     40 ****         0.5001  -2.4035   1.5858 H              1 S1                 0.0000
     41 ****         3.6846  -0.3166   1.3470 H              1 S1                 0.0000
     42 ****         3.0101  -1.6898   2.1920 H              1 S1                 0.0000
     43 ****         2.9003  -2.9727   0.0220 H              1 S1                 0.0000
     44 ****         2.7717  -1.1080  -1.2915 H              1 S1                 0.0000
     45 ****         5.6830  -1.8232   0.6234 H              1 S1                 0.0000
     46 ****         4.7700  -4.2960  -0.9139 H              1 S1                 0.0000
     47 ****         6.0163  -3.1459  -1.3975 H              1 S1                 0.0000
     48 ****         6.4644  -5.5204   0.0399 H              1 S1                 0.0000
     49 ****         7.5807  -4.1548   0.0633 H              1 S1                 0.0000
     50 ****         6.0783  -5.0599   2.3255 H              1 S1                 0.0000
     51 ****         6.9437  -3.5259   2.1890 H              1 S1                 0.0000
     52 ****        -2.2394   2.9894  -2.0690 H              1 S1                 0.0000
     53 ****        -2.5005   3.7652  -0.5102 H              1 S1                 0.0000
     54 ****        -5.3549   4.3593   1.3351 LP             1 S1                 0.0000
     55 ****        -4.3542   4.7799  -0.0146 LP             1 S1                 0.0000
     56 ****        -0.3699   3.4366  -1.0249 LP             1 S1                 0.0000
     57 ****         3.0893   1.5275   0.0550 LP             1 S1                 0.0000
     58 ****        -1.5144  -1.1113   0.8732 LP             1 S1                 0.0000
     59 ****         3.9310  -2.0621  -1.8171 LP             1 S1                 0.0000
     60 ****         4.2797  -0.6764  -1.0267 LP             1 S1                 0.0000
     61 ****         4.1917  -4.0823   1.6197 LP             1 S1                 0.0000
     62 ****         4.8626  -2.8527   2.4591 LP             1 S1                 0.0000
@<TRIPOS>BOND
    1    1    2 1     
    2    1   28 1     
    3    1   29 1     
    4    1   30 1     
    5    2    3 am    
    6    2   31 1     
    7    3    4 2     
    8    3    5 1     
    9    5   27 1     
   10    5    6 1     
   11    5    7 1     
   12    6   32 1     
   13    6   33 1     
   14    6   34 1     
   15    7    8 1     
   16    7   35 1     
   17    7   36 1     
   18    8    9 1     
   19    8   37 1     
   20    8   38 1     
   21    9   10 1     
   22    9   27 1     
   23   10   15 ar    
   24   10   11 ar    
   25   11   12 ar    
   26   12   13 ar    
   27   12   39 1     
   28   13   14 ar    
   29   14   18 1     
   30   14   15 ar    
   31   15   16 1     
   32   16   17 2     
   33   17   18 1     
   34   17   40 1     
   35   18   19 1     
   36   19   20 1     
   37   19   41 1     
   38   19   42 1     
   39   20   21 1     
   40   20   22 1     
   41   20   43 1     
   42   21   44 1     
   43   22   26 1     
   44   22   23 1     
   45   22   45 1     
   46   23   24 1     
   47   23   46 1     
   48   23   47 1     
   49   24   25 1     
   50   24   48 1     
   51   24   49 1     
   52   25   26 1     
   53   25   50 1     
   54   25   51 1     
   55   27   52 1     
   56   27   53 1     
   57    4   54 1     
   58    4   55 1     
   59   11   56 1     
   60   13   57 1     
   61   16   58 1     
   62   21   59 1     
   63   21   60 1     
   64   26   61 1     
   65   26   62 1     
@<TRIPOS>SUBSTRUCTURE
      1 S1             1
@<TRIPOS>SET
LONE_PAIRS      STATIC     ATOMS    <user>   **** ""
9 54 55 56 57 58 59 60 61 62
DONOR_HYDROGENS      STATIC     ATOMS    <user>   **** ""
2 31 44
ATOM$BLUE        STATIC     ATOMS    COLORGROUP SYSTEM
9 54 55 56 57 58 59 60 61 62
ATOM$RED        STATIC     ATOMS    COLORGROUP SYSTEM
2 31 44
