#       Name:                AV-unprocessed.smi:2377
#       Creating user name   scv26
#       Creation time:       Fri Mar 27 13:07:49 2020


#       File generated by GOLD software.
#

@<TRIPOS>MOLECULE
AV-unprocessed.smi:2377
    27    27     1
SMALL
NO_CHARGES


@<TRIPOS>ATOM
      1 ****        -2.9434   2.3040   0.3013 C.3            1 S1                 0.0000
      2 ****        -1.4931   2.2303   0.1777 N.3            1 S1                 0.0000
      3 ****        -1.0017   0.8714  -0.0351 C.3            1 S1                 0.0000
      4 ****         0.5358   0.8267  -0.0925 C.3            1 S1                 0.0000
      5 ****         0.9622   1.4414  -1.2928 O.3            1 S1                 0.0000
      6 ****         1.0410  -0.6038   0.0048 C.ar           1 S1                 0.0000
      7 ****         0.9021  -1.5072  -1.0716 C.ar           1 S1                 0.0000
      8 ****         1.3787  -2.8237  -0.9218 C.ar           1 S1                 0.0000
      9 ****         1.9749  -3.1857   0.3023 C.ar           1 S1                 0.0000
     10 ****         2.1111  -2.3334   1.3406 N.ar           1 S1                 0.0000
     11 ****         1.6512  -1.0728   1.1886 C.ar           1 S1                 0.0000
     12 ****        -3.2651   3.3356   0.4443 H              1 S1                 0.0000
     13 ****        -3.2946   1.7228   1.1544 H              1 S1                 0.0000
     14 ****        -3.4335   1.9225  -0.5950 H              1 S1                 0.0000
     15 ****        -1.0596   2.6195   1.0087 H              1 S1                 0.0000
     16 ****        -1.3383   0.2443   0.7918 H              1 S1                 0.0000
     17 ****        -1.4304   0.4432  -0.9424 H              1 S1                 0.0000
     18 ****         0.9495   1.3977   0.7402 H              1 S1                 0.0000
     19 ****         1.9042   1.5138  -1.2750 H              1 S1                 0.0000
     20 ****         0.4361  -1.1992  -1.9962 H              1 S1                 0.0000
     21 ****         1.2883  -3.5396  -1.7255 H              1 S1                 0.0000
     22 ****         2.3506  -4.1871   0.4518 H              1 S1                 0.0000
     23 ****         1.7741  -0.4199   2.0403 H              1 S1                 0.0000
     24 ****        -1.2455   2.7610  -0.6328 LP             1 S1                 0.0000
     25 ****         0.5554   2.3518  -1.3683 LP             1 S1                 0.0000
     26 ****         0.6815   0.8849  -2.0748 LP             1 S1                 0.0000
     27 ****         2.5392  -2.6265   2.1955 LP             1 S1                 0.0000
@<TRIPOS>BOND
    1    1    2 1     
    2    1   12 1     
    3    1   13 1     
    4    1   14 1     
    5    2    3 1     
    6    2   15 1     
    7    3    4 1     
    8    3   16 1     
    9    3   17 1     
   10    4    5 1     
   11    4    6 1     
   12    4   18 1     
   13    5   19 1     
   14    6   11 ar    
   15    6    7 ar    
   16    7    8 ar    
   17    7   20 1     
   18    8    9 ar    
   19    8   21 1     
   20    9   10 ar    
   21    9   22 1     
   22   10   11 ar    
   23   11   23 1     
   24    2   24 1     
   25    5   25 1     
   26    5   26 1     
   27   10   27 1     
@<TRIPOS>SUBSTRUCTURE
      1 S1             1
@<TRIPOS>SET
LONE_PAIRS      STATIC     ATOMS    <user>   **** ""
4 24 25 26 27
DONOR_HYDROGENS      STATIC     ATOMS    <user>   **** ""
2 15 19
ATOM$BLUE        STATIC     ATOMS    COLORGROUP SYSTEM
4 24 25 26 27
ATOM$RED        STATIC     ATOMS    COLORGROUP SYSTEM
2 15 19
