AV-unprocessed.smi:2833|AV-procd|sdf|10914|dock5
  -GOLD-   2272015363D 1   1.00000     0.00000
 Structure written by MMmdl.
 28 29  0  0  0  0  0  0  0  0  1 V2000
  147.7182  142.0185  155.1540 O   0  0  0  0  0  0  0  0  0  0  0  0
  148.6218  141.4153  154.2523 C   0  0  0  0  0  0  0  0  0  0  0  0
  149.5380  140.4317  154.9965 C   0  0  2  0  0  0  0  0  0  0  0  0
  150.2518  141.1095  156.1835 C   0  0  0  0  0  0  0  0  0  0  0  0
  151.1820  140.1777  156.8091 N   0  0  0  0  0  0  0  0  0  0  0  0
  151.7742  140.6708  157.9809 C   0  0  0  0  0  0  0  0  0  0  0  0
  151.7189  142.0051  158.2144 N   0  0  0  0  0  0  0  0  0  0  0  0
  152.2916  142.4825  159.3404 C   0  0  0  0  0  0  0  0  0  0  0  0
  152.9423  141.6620  160.2828 C   0  0  0  0  0  0  0  0  0  0  0  0
  153.6529  142.3393  161.7014 Cl  0  0  0  0  0  0  0  0  0  0  0  0
  152.9993  140.2765  160.0399 C   0  0  0  0  0  0  0  0  0  0  0  0
  152.4055  139.7703  158.8676 C   0  0  0  0  0  0  0  0  0  0  0  0
  152.4429  138.4421  158.6017 F   0  0  0  0  0  0  0  0  0  0  0  0
  152.1419  139.6272  155.8612 C   0  0  0  0  0  0  0  0  0  0  0  0
  151.3996  139.0014  154.6691 C   0  0  0  0  0  0  0  0  0  0  0  0
  150.5363  139.9730  154.0856 O   0  0  0  0  0  0  0  0  0  0  0  0
  147.8655  142.9519  155.1484 H   0  0  0  0  0  0  0  0  0  0  0  0
  148.0816  140.9213  153.4439 H   0  0  0  0  0  0  0  0  0  0  0  0
  149.2124  142.2150  153.8044 H   0  0  0  0  0  0  0  0  0  0  0  0
  148.9494  139.5894  155.3666 H   0  0  0  0  0  0  0  0  0  0  0  0
  150.7900  141.9940  155.8389 H   0  0  0  0  0  0  0  0  0  0  0  0
  149.5202  141.4428  156.9207 H   0  0  0  0  0  0  0  0  0  0  0  0
  152.2291  143.5500  159.4924 H   0  0  0  0  0  0  0  0  0  0  0  0
  153.4890  139.6134  160.7378 H   0  0  0  0  0  0  0  0  0  0  0  0
  152.8078  140.4164  155.5090 H   0  0  0  0  0  0  0  0  0  0  0  0
  152.7609  138.8765  156.3541 H   0  0  0  0  0  0  0  0  0  0  0  0
  152.1127  138.6618  153.9181 H   0  0  0  0  0  0  0  0  0  0  0  0
  150.8251  138.1281  154.9820 H   0  0  0  0  0  0  0  0  0  0  0  0
  1  2  1  0  0  0  0
  1 17  1  0  0  0  0
  2  3  1  0  0  0  0
  2 18  1  0  0  0  0
  2 19  1  0  0  0  0
  3 16  1  0  0  0  0
  3  4  1  0  0  0  0
  3 20  1  0  0  0  0
  4  5  1  0  0  0  0
  4 21  1  0  0  0  0
  4 22  1  0  0  0  0
  5  6  1  0  0  0  0
  5 14  1  0  0  0  0
  6 12  1  0  0  0  0
  6  7  2  0  0  0  0
  7  8  1  0  0  0  0
  8  9  2  0  0  0  0
  8 23  1  0  0  0  0
  9 10  1  0  0  0  0
  9 11  1  0  0  0  0
 11 12  2  0  0  0  0
 11 24  1  0  0  0  0
 12 13  1  0  0  0  0
 14 15  1  0  0  0  0
 14 25  1  0  0  0  0
 14 26  1  0  0  0  0
 15 16  1  0  0  0  0
 15 27  1  0  0  0  0
 15 28  1  0  0  0  0
M  END
> <s_m_source_file>
AV-unprocessed.smi

> <i_m_source_file_index>
2833

> <i_lp_mmshare_version>
43012

> <i_f3d_flags>
0

> <s_epik_input>
W09IXVtDSDJdW0NAQEhdMVtDSDJdTihbQ0gyXVtDSDJdTzEpYzJuW2NIXWMoQ2wpW2NIXWMyRg==

> <s_epik_cmdline>
J2VwaWtfcHl0aG9uJywgJy1waCcsICc3LjAnLCAnLXRuJywgJzgnLCAnLW1hJywgJzIwMCcsICctbWV0YWxfYmluZGluZycsICctaW1hZScsICc8aW5maWxlLm1hZT4nLCAnLW9tYWUnLCAnPG91dGZpbGUubWFlPic=

> <r_lp_tautomer_probability>
1

> <r_epik_Ionization_Penalty>
1.06846e-07

> <r_epik_Ionization_Penalty_Charging>
0

> <r_epik_Ionization_Penalty_Neutral>
1.06846e-07

> <r_epik_State_Penalty>
-0

> <r_epik_Charging_Adjusted_Penalty>
0

> <i_epik_Tot_Q>
0

> <i_epik_Tot_abs_Q>
0

> <r_epik_Metal_State_Penalty>
-0

> <b_epik_Metal_Only>
0

> <s_lp_Force_Field>
OPLS_2005

> <r_lp_Energy>
22.731

> <b_lp_Chiralities_Consistent>
1

> <s_lp_Variant>
AV-unprocessed.smi:2833-1

> <Gold.Version>
5.8.1

> <Gold.Id.Protein>
6NUR|6NUR_protein|mol2

> <Gold.PLP.Fitness>
38.7198

> <Gold.PLP.PLP>
-33.2062

> <Gold.PLP.part.hbond>
-1.8684

> <Gold.PLP.part.metal>
0.0000

> <Gold.PLP.part.buried>
-2.3832

> <Gold.PLP.part.nonpolar>
-27.2136

> <Gold.PLP.part.repulsive>
0.4824

> <Gold.PLP.ligand.clash>
0.0000

> <Gold.PLP.ligand.torsion>
0.2841

> <Gold.PLP.Chemscore.Hbond>
1.9913

> <Gold.PLP.Chemscore.CHOScore>
0.0000

> <Gold.PLP.Chemscore.Metal>
0.0000

> <Gold.Chemscore.Hbonds>
donor molecule, donor type, donor heavy atom, donor atom, acceptor molecule, acceptor atom, score
      L1  H     1    17       P1  8028  0.89
      P1  H  7989  7998       L1    16  0.89

> <Gold.PLP.Chemscore.Internal.Correction>
0.1080

> <Gold.Rescore>
     Score         DG    S(hbond)    S(metal)    S(lipo)     H(rot)  DE(clash)    DE(int)     intcor
     15.28     -16.77       1.91        0.00      80.83       1.78       0.20       1.29       ----

> <Gold.Chemscore.Fitness>
15.2839

> <Gold.Chemscore.DG>
-16.7728

> <Gold.Chemscore.ZeroCoef>
-5.4800

> <Gold.Chemscore.Hbond>
1.9117

> <Gold.Chemscore.Metal>
0.0000

> <Gold.Chemscore.Lipo>
80.8348

> <Gold.Chemscore.Internal_Hbond>
0.0000

> <Gold.Chemscore.DEClash>
0.1982

> <Gold.Chemscore.DEInternal>
1.2906

> <Gold.Chemscore.Rot>
1.7773

> <Gold.Chemscore.Internal.Correction>
   9.000000E+99

> <Gold.Chemscore.Hbonds>
donor molecule, donor type, donor heavy atom, donor atom, acceptor molecule, acceptor atom, score
      L1  H     1    17       P1  8028  0.69
      P1  H  7989  7998       L1    16  0.16

> <Gold.Chemscore.Hbond.Weighted>
-6.3851

> <Gold.Chemscore.Metal.Weighted>
-0.0000

> <Gold.Chemscore.Lipo.Weighted>
-9.4577

> <Gold.Chemscore.Internal_Hbond.Weighted>
0.0000

> <Gold.Chemscore.DEClash.Weighted>
0.1982

> <Gold.Chemscore.DEInternal.Weighted>
1.2906

> <Gold.Chemscore.Rot.Weighted>
4.5499

> <Gold.Chemscore.Internal.Correction.Weighted>
   9.000000E+99

> <Gold.Protein.RotatedTorsions>
[ 6907 6896 6895 6894 ] final   46.53 input  -60.11 | X-H torsion
[ 7974 7965 7964 7962 ] final  -62.82 input  175.53 | X-H torsion
[ 8008 7997 7996 7995 ] final  -14.91 input   59.86 | X-H torsion
[ 10167 10162 10161 10158 ] final  -74.00 input  -65.29 | X-H torsion
[ 10718 10713 10712 10709 ] final -150.17 input   66.30 | X-H torsion
[ 10763 10752 10751 10750 ] final -147.56 input  -60.55 | X-H torsion
[ 11005 11000 10999 10996 ] final  -28.04 input  -57.11 | X-H torsion

> <Gold.Protein.ActiveResidues>
 VAL166  LYS551  ARG553  GLY616  TRP617  ASP618  TYR619  PRO620  LYS621  CYS622 
 ASP623  PHE694  ASN695  SER759  ASP760  ASP761  ALA762  ILE779  LEU786  VAL792 
 PHE793  MET794  SER795  GLU796  ALA797  LYS798  CYS799  TRP800  GLU811  SER814 

> <Gold.Protein.RotatedAtoms>
  152.2574  134.8070  160.0435 H   0  0  0  0  0  0  0  0  0  0  0  0  # atno 6907 bound_to 6896
  151.8728  133.3474  159.3748 H   0  0  0  0  0  0  0  0  0  0  0  0  # atno 6908 bound_to 6896
  150.7105  134.5023  159.5611 H   0  0  0  0  0  0  0  0  0  0  0  0  # atno 6909 bound_to 6896
  145.7867  140.8732  143.0302 H   0  0  0  0  0  0  0  0  0  0  0  0  # atno 7974 bound_to 7965
  154.5172  140.2210  155.9044 H   0  0  0  0  0  0  0  0  0  0  0  0  # atno 8008 bound_to 7997
  156.1621  140.3140  155.8790 H   0  0  0  0  0  0  0  0  0  0  0  0  # atno 8009 bound_to 7997
  155.3731  140.0468  157.3036 H   0  0  0  0  0  0  0  0  0  0  0  0  # atno 8010 bound_to 7997
  140.5063  143.2352  151.7668 H   0  0  0  0  0  0  0  0  0  0  0  0  # atno 10167 bound_to 10162
  156.4426  130.8129  151.2359 H   0  0  0  0  0  0  0  0  0  0  0  0  # atno 10718 bound_to 10713
  154.8279  135.3357  154.6836 H   0  0  0  0  0  0  0  0  0  0  0  0  # atno 10763 bound_to 10752
  153.7460  135.6942  153.4961 H   0  0  0  0  0  0  0  0  0  0  0  0  # atno 10764 bound_to 10752
  153.2210  135.4449  155.0440 H   0  0  0  0  0  0  0  0  0  0  0  0  # atno 10765 bound_to 10752
  140.9173  133.7421  156.0753 H   0  0  0  0  0  0  0  0  0  0  0  0  # atno 11005 bound_to 11000
  144.6788  140.0065  143.7484 LP  0  0  0  0  0  0  0  0  0  0  0  0  # atno 17320 bound_to 7965
  146.0019  139.3098  143.0922 LP  0  0  0  0  0  0  0  0  0  0  0  0  # atno 17321 bound_to 7965
  139.4884  144.4452  151.9718 LP  0  0  0  0  0  0  0  0  0  0  0  0  # atno 17342 bound_to 10162
  140.3543  144.3051  150.5944 LP  0  0  0  0  0  0  0  0  0  0  0  0  # atno 17343 bound_to 10162
  157.7506  131.0163  150.3540 LP  0  0  0  0  0  0  0  0  0  0  0  0  # atno 17370 bound_to 10713
  156.3901  130.3896  149.7036 LP  0  0  0  0  0  0  0  0  0  0  0  0  # atno 17371 bound_to 10713
  140.8033  134.3484  157.5433 LP  0  0  0  0  0  0  0  0  0  0  0  0  # atno 17394 bound_to 11000
  139.8768  134.9211  156.3266 LP  0  0  0  0  0  0  0  0  0  0  0  0  # atno 17395 bound_to 11000

$$$$
