#       Name:                AV-unprocessed.smi:283
#       Creating user name   scv26
#       Creation time:       Thu Mar 26 21:49:34 2020


#       File generated by GOLD software.
#

@<TRIPOS>MOLECULE
AV-unprocessed.smi:283
    59    62     1
SMALL
NO_CHARGES


@<TRIPOS>ATOM
      1 ****        -5.3365   0.1943  -1.0046 C.3            1 S1                 0.0000
      2 ****        -3.9660   0.6882  -0.5225 C.3            1 S1                 0.0000
      3 ****        -2.9470  -0.3229  -0.8009 N.pl3          1 S1                 0.0000
      4 ****        -1.6317  -0.0569  -0.6349 C.ar           1 S1                 0.0000
      5 ****        -1.1969   1.1986  -0.3507 N.ar           1 S1                 0.0000
      6 ****         0.1080   1.4334  -0.1894 C.ar           1 S1                 0.0000
      7 ****         1.1258   0.5746  -0.2746 N.ar           1 S1                 0.0000
      8 ****         0.6977  -0.6875  -0.5677 C.ar           1 S1                 0.0000
      9 ****        -0.6565  -1.0797  -0.7621 C.ar           1 S1                 0.0000
     10 ****        -0.7177  -2.4374  -1.0461 N.2            1 S1                 0.0000
     11 ****         0.5303  -2.8209  -1.0236 C.2            1 S1                 0.0000
     12 ****         1.4497  -1.8331  -0.7471 N.pl3          1 S1                 0.0000
     13 ****         2.9395  -1.9828  -0.6600 C.3            1 S1                 0.0000
     14 ****         3.4259  -1.1864   0.3807 O.3            1 S1                 0.0000
     15 ****         4.3810  -0.2477  -0.1111 C.3            1 S1                 0.0000
     16 ****         5.4269   0.0225   0.9819 C.3            1 S1                 0.0000
     17 ****         6.2590   1.1042   0.6210 O.3            1 S1                 0.0000
     18 ****         4.9218  -0.9170  -1.3776 C.3            1 S1                 0.0000
     19 ****         5.5309  -0.0162  -2.2829 O.3            1 S1                 0.0000
     20 ****         3.6736  -1.5729  -1.9518 C.3            1 S1                 0.0000
     21 ****         2.9246  -0.6944  -2.7786 O.3            1 S1                 0.0000
     22 ****        -4.0394   1.1288   0.9416 C.ar           1 S1                 0.0000
     23 ****        -3.8655   0.1751   1.9714 C.ar           1 S1                 0.0000
     24 ****        -3.9251   0.5599   3.3240 C.ar           1 S1                 0.0000
     25 ****        -4.1674   1.9034   3.6623 C.ar           1 S1                 0.0000
     26 ****        -4.3536   2.8588   2.6463 C.ar           1 S1                 0.0000
     27 ****        -4.2939   2.4794   1.2902 C.ar           1 S1                 0.0000
     28 ****        -4.5410   3.6945   0.0850 Cl             1 S1                 0.0000
     29 ****         3.0972  -3.0306  -0.4013 H              1 S1                 0.0000
     30 ****         3.8513   0.6712  -0.3663 H              1 S1                 0.0000
     31 ****         5.6423  -1.6898  -1.1059 H              1 S1                 0.0000
     32 ****         3.9157  -2.4637  -2.5323 H              1 S1                 0.0000
     33 ****        -6.0958   0.9680  -0.8852 H              1 S1                 0.0000
     34 ****        -5.6632  -0.6822  -0.4440 H              1 S1                 0.0000
     35 ****        -5.3077  -0.0763  -2.0605 H              1 S1                 0.0000
     36 ****        -3.7026   1.5496  -1.1354 H              1 S1                 0.0000
     37 ****        -3.2939  -1.2436  -1.0282 H              1 S1                 0.0000
     38 ****         0.3747   2.4544   0.0402 H              1 S1                 0.0000
     39 ****         0.8175  -3.8450  -1.2126 H              1 S1                 0.0000
     40 ****         4.9286   0.2789   1.9171 H              1 S1                 0.0000
     41 ****         6.0340  -0.8627   1.1731 H              1 S1                 0.0000
     42 ****         6.8836   1.2476   1.3158 H              1 S1                 0.0000
     43 ****         4.8856   0.6249  -2.5402 H              1 S1                 0.0000
     44 ****         2.1030  -1.1105  -2.9905 H              1 S1                 0.0000
     45 ****        -3.6821  -0.8612   1.7287 H              1 S1                 0.0000
     46 ****        -3.7849  -0.1764   4.1015 H              1 S1                 0.0000
     47 ****        -4.2132   2.2006   4.6996 H              1 S1                 0.0000
     48 ****        -4.5443   3.8888   2.9097 H              1 S1                 0.0000
     49 ****        -1.8542   1.9471  -0.2623 LP             1 S1                 0.0000
     50 ****         2.0845   0.8251  -0.1402 LP             1 S1                 0.0000
     51 ****        -1.5295  -2.9929  -1.2262 LP             1 S1                 0.0000
     52 ****         3.8614  -1.7704   1.0657 LP             1 S1                 0.0000
     53 ****         2.6644  -0.6919   0.7998 LP             1 S1                 0.0000
     54 ****         5.7052   1.9265   0.4903 LP             1 S1                 0.0000
     55 ****         6.7421   0.8893  -0.2278 LP             1 S1                 0.0000
     56 ****         5.8547  -0.5127  -3.0883 LP             1 S1                 0.0000
     57 ****         6.3027   0.4394  -1.8395 LP             1 S1                 0.0000
     58 ****         3.4335  -0.5054  -3.6184 LP             1 S1                 0.0000
     59 ****         2.7533   0.1625  -2.2925 LP             1 S1                 0.0000
@<TRIPOS>BOND
    1    1    2 1     
    2    1   33 1     
    3    1   34 1     
    4    1   35 1     
    5    2    3 1     
    6    2   22 1     
    7    2   36 1     
    8    3    4 1     
    9    3   37 1     
   10    4    9 ar    
   11    4    5 ar    
   12    5    6 ar    
   13    6    7 ar    
   14    6   38 1     
   15    7    8 ar    
   16    8   12 1     
   17    8    9 ar    
   18    9   10 1     
   19   10   11 2     
   20   11   12 1     
   21   11   39 1     
   22   12   13 1     
   23   13   29 1     
   24   13   20 1     
   25   13   14 1     
   26   14   15 1     
   27   15   30 1     
   28   15   16 1     
   29   15   18 1     
   30   16   17 1     
   31   16   40 1     
   32   16   41 1     
   33   17   42 1     
   34   18   31 1     
   35   18   19 1     
   36   18   20 1     
   37   19   43 1     
   38   20   32 1     
   39   20   21 1     
   40   21   44 1     
   41   22   27 ar    
   42   22   23 ar    
   43   23   24 ar    
   44   23   45 1     
   45   24   25 ar    
   46   24   46 1     
   47   25   26 ar    
   48   25   47 1     
   49   26   27 ar    
   50   26   48 1     
   51   27   28 1     
   52    5   49 1     
   53    7   50 1     
   54   10   51 1     
   55   14   52 1     
   56   14   53 1     
   57   17   54 1     
   58   17   55 1     
   59   19   56 1     
   60   19   57 1     
   61   21   58 1     
   62   21   59 1     
@<TRIPOS>SUBSTRUCTURE
      1 S1             1
@<TRIPOS>SET
LONE_PAIRS      STATIC     ATOMS    <user>   **** ""
11 49 50 51 52 53 54 55 56 57 58 59
DONOR_HYDROGENS      STATIC     ATOMS    <user>   **** ""
4 37 42 43 44
ATOM$BLUE        STATIC     ATOMS    COLORGROUP SYSTEM
11 49 50 51 52 53 54 55 56 57 58 59
ATOM$RED        STATIC     ATOMS    COLORGROUP SYSTEM
4 37 42 43 44
