AV-unprocessed.smi:283|AV-procd|sdf|2149|dock3
  -GOLD-   2262021483D 1   1.00000     0.00000
 Structure written by MMmdl.
 48 51  0  0  0  0  0  0  0  0  1 V2000
  151.2278  140.1971  155.7590 C   0  0  0  0  0  0  0  0  0  0  0  0
  150.3766  141.1767  156.5776 C   0  0  2  0  0  0  0  0  0  0  0  0
  149.6171  142.0479  155.6824 N   0  0  0  0  0  0  0  0  0  0  0  0
  148.6050  141.5525  154.9353 C   0  0  0  0  0  0  0  0  0  0  0  0
  148.1208  142.2384  153.8672 N   0  0  0  0  0  0  0  0  0  0  0  0
  147.1196  141.7285  153.1450 C   0  0  0  0  0  0  0  0  0  0  0  0
  146.4717  140.5749  153.3168 N   0  0  0  0  0  0  0  0  0  0  0  0
  146.9488  139.8825  154.3923 C   0  0  0  0  0  0  0  0  0  0  0  0
  148.0079  140.3033  155.2448 C   0  0  0  0  0  0  0  0  0  0  0  0
  148.2305  139.3494  156.2286 N   0  0  0  0  0  0  0  0  0  0  0  0
  147.3490  138.4211  155.9711 C   0  0  0  0  0  0  0  0  0  0  0  0
  146.5336  138.6608  154.8870 N   0  0  0  0  0  0  0  0  0  0  0  0
  145.4319  137.7838  154.3727 C   0  0  2  0  0  0  0  0  0  0  0  0
  145.2408  136.7343  155.2707 O   0  0  0  0  0  0  0  0  0  0  0  0
  145.0307  135.5210  154.5568 C   0  0  2  0  0  0  0  0  0  0  0  0
  145.3508  134.2988  155.4359 C   0  0  0  0  0  0  0  0  0  0  0  0
  145.0110  133.1078  154.7580 O   0  0  0  0  0  0  0  0  0  0  0  0
  145.9000  135.6826  153.3009 C   0  0  2  0  0  0  0  0  0  0  0  0
  147.2450  135.3056  153.5436 O   0  0  0  0  0  0  0  0  0  0  0  0
  145.7498  137.1697  152.9928 C   0  0  2  0  0  0  0  0  0  0  0  0
  146.8613  137.7259  152.3090 O   0  0  0  0  0  0  0  0  0  0  0  0
  151.2460  141.9293  157.5871 C   0  0  0  0  0  0  0  0  0  0  0  0
  151.3181  143.3406  157.5297 C   0  0  0  0  0  0  0  0  0  0  0  0
  152.1087  144.0575  158.4469 C   0  0  0  0  0  0  0  0  0  0  0  0
  152.8413  143.3693  159.4307 C   0  0  0  0  0  0  0  0  0  0  0  0
  152.7853  141.9646  159.4911 C   0  0  0  0  0  0  0  0  0  0  0  0
  151.9958  141.2412  158.5744 C   0  0  0  0  0  0  0  0  0  0  0  0
  151.9759  139.5162  158.6901 Cl  0  0  0  0  0  0  0  0  0  0  0  0
  144.5562  138.4337  154.3535 H   0  0  0  0  0  0  0  0  0  0  0  0
  143.9865  135.4905  154.2393 H   0  0  0  0  0  0  0  0  0  0  0  0
  145.5291  135.0671  152.4807 H   0  0  0  0  0  0  0  0  0  0  0  0
  144.8637  137.3101  152.3721 H   0  0  0  0  0  0  0  0  0  0  0  0
  151.7419  139.4888  156.4093 H   0  0  0  0  0  0  0  0  0  0  0  0
  151.9836  140.7201  155.1718 H   0  0  0  0  0  0  0  0  0  0  0  0
  150.6099  139.6207  155.0698 H   0  0  0  0  0  0  0  0  0  0  0  0
  149.6392  140.5823  157.1153 H   0  0  0  0  0  0  0  0  0  0  0  0
  149.7583  143.0387  155.8155 H   0  0  0  0  0  0  0  0  0  0  0  0
  146.7895  142.3310  152.3118 H   0  0  0  0  0  0  0  0  0  0  0  0
  147.2626  137.5298  156.5752 H   0  0  0  0  0  0  0  0  0  0  0  0
  146.4199  134.2569  155.6470 H   0  0  0  0  0  0  0  0  0  0  0  0
  144.8306  134.3501  156.3929 H   0  0  0  0  0  0  0  0  0  0  0  0
  144.0717  133.0725  154.6617 H   0  0  0  0  0  0  0  0  0  0  0  0
  147.7355  135.3966  152.7412 H   0  0  0  0  0  0  0  0  0  0  0  0
  147.3905  137.0194  151.9725 H   0  0  0  0  0  0  0  0  0  0  0  0
  150.7630  143.8832  156.7783 H   0  0  0  0  0  0  0  0  0  0  0  0
  152.1530  145.1354  158.3949 H   0  0  0  0  0  0  0  0  0  0  0  0
  153.4479  143.9175  160.1362 H   0  0  0  0  0  0  0  0  0  0  0  0
  153.3529  141.4394  160.2450 H   0  0  0  0  0  0  0  0  0  0  0  0
  1  2  1  0  0  0  0
  1 33  1  0  0  0  0
  1 34  1  0  0  0  0
  1 35  1  0  0  0  0
  2  3  1  0  0  0  0
  2 22  1  0  0  0  0
  2 36  1  0  0  0  0
  3  4  1  0  0  0  0
  3 37  1  0  0  0  0
  4  9  1  0  0  0  0
  4  5  2  0  0  0  0
  5  6  1  0  0  0  0
  6  7  2  0  0  0  0
  6 38  1  0  0  0  0
  7  8  1  0  0  0  0
  8 12  1  0  0  0  0
  8  9  2  0  0  0  0
  9 10  1  0  0  0  0
 10 11  2  0  0  0  0
 11 12  1  0  0  0  0
 11 39  1  0  0  0  0
 12 13  1  0  0  0  0
 13 29  1  0  0  0  0
 13 20  1  0  0  0  0
 13 14  1  0  0  0  0
 14 15  1  0  0  0  0
 15 30  1  0  0  0  0
 15 16  1  0  0  0  0
 15 18  1  0  0  0  0
 16 17  1  0  0  0  0
 16 40  1  0  0  0  0
 16 41  1  0  0  0  0
 17 42  1  0  0  0  0
 18 31  1  0  0  0  0
 18 19  1  0  0  0  0
 18 20  1  0  0  0  0
 19 43  1  0  0  0  0
 20 32  1  0  0  0  0
 20 21  1  0  0  0  0
 21 44  1  0  0  0  0
 22 27  1  0  0  0  0
 22 23  2  0  0  0  0
 23 24  1  0  0  0  0
 23 45  1  0  0  0  0
 24 25  2  0  0  0  0
 24 46  1  0  0  0  0
 25 26  1  0  0  0  0
 25 47  1  0  0  0  0
 26 27  2  0  0  0  0
 26 48  1  0  0  0  0
 27 28  1  0  0  0  0
M  END
> <s_m_source_file>
AV-unprocessed.smi

> <i_m_source_file_index>
283

> <i_lp_mmshare_version>
43012

> <i_f3d_flags>
0

> <s_epik_input>
Q2xjMVtjSF1bY0hdW2NIXVtjSF1jMVtDQEhdKFtDSDNdKVtOSF1jKG5bY0hdbjIpYyhjMjMpbltjSF1uM1tDQEBIXTRPW0NASF0oW0NIMl1bT0hdKVtDQEBIXShbT0hdKVtDQEhdNFtPSF0=

> <s_epik_cmdline>
J2VwaWtfcHl0aG9uJywgJy1waCcsICc3LjAnLCAnLXRuJywgJzgnLCAnLW1hJywgJzIwMCcsICctbWV0YWxfYmluZGluZycsICctaW1hZScsICc8aW5maWxlLm1hZT4nLCAnLW9tYWUnLCAnPG91dGZpbGUubWFlPic=

> <r_lp_tautomer_probability>
1

> <r_epik_Ionization_Penalty>
0.000266407

> <r_epik_Ionization_Penalty_Charging>
0

> <r_epik_Ionization_Penalty_Neutral>
0.000266407

> <r_epik_State_Penalty>
-0

> <r_epik_Charging_Adjusted_Penalty>
0

> <i_epik_Tot_Q>
0

> <i_epik_Tot_abs_Q>
0

> <r_epik_Metal_State_Penalty>
-0

> <b_epik_Metal_Only>
0

> <s_epik_Chemistry_Notes>
This compound contains an acetal/aminal-like group ( X-CH(R)-Y where X, Y are N, S, or O) that may be acid/base labile, releasing an aldehyde.

> <s_lp_Force_Field>
OPLS_2005

> <r_lp_Energy>
56.6736

> <b_lp_Chiralities_Consistent>
1

> <s_lp_Variant>
AV-unprocessed.smi:283-25

> <Gold.Version>
5.8.1

> <Gold.Id.Protein>
6NUR|6NUR_protein|mol2

> <Gold.PLP.Fitness>
49.2697

> <Gold.PLP.PLP>
-37.7888

> <Gold.PLP.part.hbond>
-4.5509

> <Gold.PLP.part.metal>
0.0000

> <Gold.PLP.part.buried>
-7.0727

> <Gold.PLP.part.nonpolar>
-28.9108

> <Gold.PLP.part.repulsive>
1.0057

> <Gold.PLP.ligand.clash>
0.0073

> <Gold.PLP.ligand.torsion>
0.3430

> <Gold.PLP.Chemscore.Hbond>
4.0162

> <Gold.PLP.Chemscore.CHOScore>
0.0000

> <Gold.PLP.Chemscore.Metal>
0.0000

> <Gold.Chemscore.Hbonds>
donor molecule, donor type, donor heavy atom, donor atom, acceptor molecule, acceptor atom, score
      L1  H     3    37       P1  8028  0.85
      L1  H    17    42       P1 10957  0.75
      L1  H    19    43       P1  7948  0.99
      L1  H    21    44       P1  7948  0.99
      P1  H  8011  8017       L1     5  0.11

> <Gold.PLP.Chemscore.Internal.Correction>
0.1258

> <Gold.Rescore>
     Score         DG    S(hbond)    S(metal)    S(lipo)     H(rot)  DE(clash)    DE(int)     intcor
     13.15     -17.50       3.53        0.00      91.57       4.10       1.66       2.69       ----

> <Gold.Chemscore.Fitness>
13.1541

> <Gold.Chemscore.DG>
-17.4959

> <Gold.Chemscore.ZeroCoef>
-5.4800

> <Gold.Chemscore.Hbond>
3.5300

> <Gold.Chemscore.Metal>
0.0000

> <Gold.Chemscore.Lipo>
91.5698

> <Gold.Chemscore.Internal_Hbond>
0.0000

> <Gold.Chemscore.DEClash>
1.6551

> <Gold.Chemscore.DEInternal>
2.6867

> <Gold.Chemscore.Rot>
4.0968

> <Gold.Chemscore.Internal.Correction>
   9.000000E+99

> <Gold.Chemscore.Hbonds>
donor molecule, donor type, donor heavy atom, donor atom, acceptor molecule, acceptor atom, score
      L1  H     3    37       P1  8028  0.85
      L1  H    17    42       P1 10957  0.74
      L1  H    19    43       P1  7948  0.94
      L1  H    21    44       P1  7948  0.94
      P1  H  8011  8017       L1     5  0.03

> <Gold.Chemscore.Hbond.Weighted>
-11.7902

> <Gold.Chemscore.Metal.Weighted>
-0.0000

> <Gold.Chemscore.Lipo.Weighted>
-10.7137

> <Gold.Chemscore.Internal_Hbond.Weighted>
0.0000

> <Gold.Chemscore.DEClash.Weighted>
1.6551

> <Gold.Chemscore.DEInternal.Weighted>
2.6867

> <Gold.Chemscore.Rot.Weighted>
10.4879

> <Gold.Chemscore.Internal.Correction.Weighted>
   9.000000E+99

> <Gold.Protein.RotatedTorsions>
[ 6907 6896 6895 6894 ] final    7.97 input  -60.11 | X-H torsion
[ 7974 7965 7964 7962 ] final   84.10 input  175.53 | X-H torsion
[ 8008 7997 7996 7995 ] final  -93.82 input   59.86 | X-H torsion
[ 10167 10162 10161 10158 ] final  -95.75 input  -65.29 | X-H torsion
[ 10718 10713 10712 10709 ] final -138.09 input   66.30 | X-H torsion
[ 10763 10752 10751 10750 ] final  168.34 input  -60.55 | X-H torsion
[ 11005 11000 10999 10996 ] final  118.93 input  -57.11 | X-H torsion

> <Gold.Protein.ActiveResidues>
 VAL166  LYS551  ARG553  GLY616  TRP617  ASP618  TYR619  PRO620  LYS621  CYS622 
 ASP623  PHE694  ASN695  SER759  ASP760  ASP761  ALA762  ILE779  LEU786  VAL792 
 PHE793  MET794  SER795  GLU796  ALA797  LYS798  CYS799  TRP800  GLU811  SER814 

> <Gold.Protein.RotatedAtoms>
  151.6985  135.0934  160.0246 H   0  0  0  0  0  0  0  0  0  0  0  0  # atno 6907 bound_to 6896
  152.3735  133.6446  159.6114 H   0  0  0  0  0  0  0  0  0  0  0  0  # atno 6908 bound_to 6896
  150.7691  133.9148  159.3421 H   0  0  0  0  0  0  0  0  0  0  0  0  # atno 6909 bound_to 6896
  145.6032  139.2356  143.2234 H   0  0  0  0  0  0  0  0  0  0  0  0  # atno 7974 bound_to 7965
  154.7406  140.0495  157.0807 H   0  0  0  0  0  0  0  0  0  0  0  0  # atno 8008 bound_to 7997
  155.0184  140.3144  155.4784 H   0  0  0  0  0  0  0  0  0  0  0  0  # atno 8009 bound_to 7997
  156.2863  140.2171  156.5301 H   0  0  0  0  0  0  0  0  0  0  0  0  # atno 8010 bound_to 7997
  140.3010  143.3163  152.0248 H   0  0  0  0  0  0  0  0  0  0  0  0  # atno 10167 bound_to 10162
  156.2955  130.7399  151.1436 H   0  0  0  0  0  0  0  0  0  0  0  0  # atno 10718 bound_to 10713
  154.3672  135.2753  155.2287 H   0  0  0  0  0  0  0  0  0  0  0  0  # atno 10763 bound_to 10752
  154.4450  135.5945  153.6157 H   0  0  0  0  0  0  0  0  0  0  0  0  # atno 10764 bound_to 10752
  152.9840  135.6028  154.3899 H   0  0  0  0  0  0  0  0  0  0  0  0  # atno 10765 bound_to 10752
  139.9128  134.9624  156.7578 H   0  0  0  0  0  0  0  0  0  0  0  0  # atno 11005 bound_to 11000
  146.1561  140.6856  142.9299 LP  0  0  0  0  0  0  0  0  0  0  0  0  # atno 17320 bound_to 7965
  144.7301  140.4646  143.6944 LP  0  0  0  0  0  0  0  0  0  0  0  0  # atno 17321 bound_to 7965
  139.4915  144.6456  151.6785 LP  0  0  0  0  0  0  0  0  0  0  0  0  # atno 17342 bound_to 10162
  140.5651  144.0203  150.6188 LP  0  0  0  0  0  0  0  0  0  0  0  0  # atno 17343 bound_to 10162
  157.7354  131.0572  150.5472 LP  0  0  0  0  0  0  0  0  0  0  0  0  # atno 17370 bound_to 10713
  156.5593  130.4251  149.6070 LP  0  0  0  0  0  0  0  0  0  0  0  0  # atno 17371 bound_to 10713
  140.6721  133.9550  155.7862 LP  0  0  0  0  0  0  0  0  0  0  0  0  # atno 17394 bound_to 11000
  141.0570  134.0402  157.3709 LP  0  0  0  0  0  0  0  0  0  0  0  0  # atno 17395 bound_to 11000

$$$$
