AV-unprocessed.smi:290|AV-procd|sdf|2242|dock6
  -GOLD-   2262022123D 1   1.00000     0.00000
 Structure written by MMmdl.
 59 62  0  0  0  0  0  0  0  0  2 V2000
  151.3691  140.2739  157.9456 C   0  0  0  0  0  0  0  0  0  0  0  0
  151.0905  141.6173  158.6384 C   0  0  1  0  0  0  0  0  0  0  0  0
  152.2213  141.9266  159.4486 O   0  0  0  0  0  0  0  0  0  0  0  0
  152.3518  143.3343  159.5335 C   0  0  0  0  0  0  0  0  0  0  0  0
  152.0298  143.7775  158.1146 C   0  0  0  0  0  0  0  0  0  0  0  0
  150.8815  142.8531  157.7171 C   0  0  2  0  0  0  0  0  0  0  0  0
  149.6693  143.4772  158.1054 O   0  0  0  0  0  0  0  0  0  0  0  0
  150.8090  142.5709  156.1932 C   0  0  0  0  0  0  0  0  0  0  0  0
  149.7775  141.6120  155.8265 N   0  0  0  0  0  0  0  0  0  0  0  0
  148.4187  141.7699  155.9742 C   0  0  0  0  0  0  0  0  0  0  0  0
  147.6949  140.7651  155.5640 N   0  0  0  0  0  0  0  0  0  0  0  0
  148.6214  139.8469  155.0820 C   0  0  0  0  0  0  0  0  0  0  0  0
  148.5314  138.5517  154.4926 C   0  0  0  0  0  0  0  0  0  0  0  0
  147.3650  137.9024  154.2435 N   0  0  0  0  0  0  0  0  0  0  0  0
  147.1788  136.4922  154.5204 C   0  0  0  0  0  0  0  0  0  0  0  0
  145.6661  136.3271  154.4844 C   0  0  0  0  0  0  0  0  0  0  0  0
  145.2124  137.2998  153.3794 C   0  0  1  0  0  0  0  0  0  0  0  0
  143.8007  137.7656  153.5528 N   0  3  2  0  0  0  0  0  0  0  0  0
  143.5606  138.3078  154.9163 C   0  0  0  0  0  0  0  0  0  0  0  0
  142.7741  136.7538  153.1693 C   0  0  0  0  0  0  0  0  0  0  0  0
  142.5785  135.6454  154.2210 C   0  0  0  0  0  0  0  0  0  0  0  0
  141.3425  134.9939  154.0154 O   0  0  0  0  0  0  0  0  0  0  0  0
  146.2864  138.4249  153.4094 C   0  0  2  0  0  0  0  0  0  0  0  0
  146.7955  138.7601  151.9893 C   0  0  0  0  0  0  0  0  0  0  0  0
  149.6963  137.9327  154.1670 N   0  0  0  0  0  0  0  0  0  0  0  0
  150.8679  138.5391  154.3770 C   0  0  0  0  0  0  0  0  0  0  0  0
  151.1008  139.7437  154.9000 N   0  0  0  0  0  0  0  0  0  0  0  0
  149.9381  140.3653  155.2470 C   0  0  0  0  0  0  0  0  0  0  0  0
  145.2818  136.7705  152.4268 H   0  0  0  0  0  0  0  0  0  0  0  0
  145.8825  139.3104  153.8998 H   0  0  0  0  0  0  0  0  0  0  0  0
  150.5374  139.9737  157.3081 H   0  0  0  0  0  0  0  0  0  0  0  0
  151.5141  139.4847  158.6836 H   0  0  0  0  0  0  0  0  0  0  0  0
  152.2713  140.3175  157.3350 H   0  0  0  0  0  0  0  0  0  0  0  0
  150.2335  141.4897  159.3027 H   0  0  0  0  0  0  0  0  0  0  0  0
  151.6276  143.7317  160.2463 H   0  0  0  0  0  0  0  0  0  0  0  0
  153.3519  143.6281  159.8527 H   0  0  0  0  0  0  0  0  0  0  0  0
  151.7904  144.8392  158.0396 H   0  0  0  0  0  0  0  0  0  0  0  0
  152.8993  143.5873  157.4840 H   0  0  0  0  0  0  0  0  0  0  0  0
  149.2817  143.8815  157.3442 H   0  0  0  0  0  0  0  0  0  0  0  0
  150.6043  143.4909  155.6453 H   0  0  0  0  0  0  0  0  0  0  0  0
  151.7675  142.2006  155.8270 H   0  0  0  0  0  0  0  0  0  0  0  0
  147.9781  142.6591  156.4014 H   0  0  0  0  0  0  0  0  0  0  0  0
  147.6613  135.8995  153.7422 H   0  0  0  0  0  0  0  0  0  0  0  0
  147.5899  136.2023  155.4882 H   0  0  0  0  0  0  0  0  0  0  0  0
  145.3704  135.2941  154.2986 H   0  0  0  0  0  0  0  0  0  0  0  0
  145.2508  136.6298  155.4472 H   0  0  0  0  0  0  0  0  0  0  0  0
  143.6620  137.5248  155.6690 H   0  0  0  0  0  0  0  0  0  0  0  0
  142.5678  138.7434  155.0124 H   0  0  0  0  0  0  0  0  0  0  0  0
  144.2580  139.1067  155.1655 H   0  0  0  0  0  0  0  0  0  0  0  0
  141.8006  137.2200  153.0368 H   0  0  0  0  0  0  0  0  0  0  0  0
  143.0393  136.3178  152.2050 H   0  0  0  0  0  0  0  0  0  0  0  0
  143.3716  134.9042  154.1183 H   0  0  0  0  0  0  0  0  0  0  0  0
  142.6388  136.0150  155.2435 H   0  0  0  0  0  0  0  0  0  0  0  0
  141.4273  134.4117  153.2749 H   0  0  0  0  0  0  0  0  0  0  0  0
  145.9882  139.0636  151.3246 H   0  0  0  0  0  0  0  0  0  0  0  0
  147.2809  137.8966  151.5330 H   0  0  0  0  0  0  0  0  0  0  0  0
  147.5216  139.5721  151.9983 H   0  0  0  0  0  0  0  0  0  0  0  0
  151.7437  137.9800  154.0820 H   0  0  0  0  0  0  0  0  0  0  0  0
  143.6820  138.5346  152.9083 H   0  0  0  0  0  0  0  0  0  0  0  0
  1  2  1  0  0  0  0
  1 31  1  0  0  0  0
  1 32  1  0  0  0  0
  1 33  1  0  0  0  0
  2  6  1  0  0  0  0
  2  3  1  0  0  0  0
  2 34  1  0  0  0  0
  3  4  1  0  0  0  0
  4  5  1  0  0  0  0
  4 35  1  0  0  0  0
  4 36  1  0  0  0  0
  5  6  1  0  0  0  0
  5 37  1  0  0  0  0
  5 38  1  0  0  0  0
  6  7  1  0  0  0  0
  6  8  1  0  0  0  0
  7 39  1  0  0  0  0
  8  9  1  0  0  0  0
  8 40  1  0  0  0  0
  8 41  1  0  0  0  0
  9 28  1  0  0  0  0
  9 10  1  0  0  0  0
 10 11  2  0  0  0  0
 10 42  1  0  0  0  0
 11 12  1  0  0  0  0
 12 28  2  0  0  0  0
 12 13  1  0  0  0  0
 13 14  1  0  0  0  0
 13 25  2  0  0  0  0
 14 23  1  0  0  0  0
 14 15  1  0  0  0  0
 15 16  1  0  0  0  0
 15 43  1  0  0  0  0
 15 44  1  0  0  0  0
 16 17  1  0  0  0  0
 16 45  1  0  0  0  0
 16 46  1  0  0  0  0
 17 29  1  0  0  0  0
 17 18  1  0  0  0  0
 17 23  1  0  0  0  0
 18 19  1  0  0  0  0
 18 20  1  0  0  0  0
 18 59  1  0  0  0  0
 19 47  1  0  0  0  0
 19 48  1  0  0  0  0
 19 49  1  0  0  0  0
 20 21  1  0  0  0  0
 20 50  1  0  0  0  0
 20 51  1  0  0  0  0
 21 22  1  0  0  0  0
 21 52  1  0  0  0  0
 21 53  1  0  0  0  0
 22 54  1  0  0  0  0
 23 30  1  0  0  0  0
 23 24  1  0  0  0  0
 24 55  1  0  0  0  0
 24 56  1  0  0  0  0
 24 57  1  0  0  0  0
 25 26  1  0  0  0  0
 26 27  2  0  0  0  0
 26 58  1  0  0  0  0
 27 28  1  0  0  0  0
M  CHG  1  18   1
M  END
> <s_m_source_file>
AV-unprocessed.smi

> <i_m_source_file_index>
290

> <i_lp_mmshare_version>
43012

> <i_f3d_flags>
0

> <s_epik_input>
W0NIMl0xW0NIMl1PW0NAQEhdKFtDSDNdKVtDQEBdMShbT0hdKVtDSDJdbihbY0hdbjIpYyhjMjMpbltjSF1uYzNONFtDSDJdW0NIMl1bQ0BIXShbQ0BIXTRbQ0gzXSlOKFtDSDNdKVtDSDJdW0NIMl1bT0hd

> <s_epik_cmdline>
J2VwaWtfcHl0aG9uJywgJy1waCcsICc3LjAnLCAnLXRuJywgJzgnLCAnLW1hJywgJzIwMCcsICctbWV0YWxfYmluZGluZycsICctaW1hZScsICc8aW5maWxlLm1hZT4nLCAnLW9tYWUnLCAnPG91dGZpbGUubWFlPic=

> <r_lp_tautomer_probability>
1

> <r_epik_Ionization_Penalty>
0.0036983

> <r_epik_Ionization_Penalty_Charging>
0.0032725

> <r_epik_Ionization_Penalty_Neutral>
0.000425798

> <r_epik_State_Penalty>
-0

> <r_epik_Charging_Adjusted_Penalty>
0.0032725

> <i_epik_Tot_Q>
1

> <i_epik_Tot_abs_Q>
1

> <r_epik_Metal_State_Penalty>
-0

> <b_epik_Metal_Only>
0

> <s_lp_Force_Field>
OPLS_2005

> <r_lp_Energy>
64.6527

> <b_lp_Chiralities_Consistent>
1

> <s_lp_Variant>
AV-unprocessed.smi:290-28

> <Gold.Version>
5.8.1

> <Gold.Id.Protein>
6NUR|6NUR_protein|mol2

> <Gold.PLP.Fitness>
53.9679

> <Gold.PLP.PLP>
-39.0808

> <Gold.PLP.part.hbond>
-4.6371

> <Gold.PLP.part.metal>
0.0000

> <Gold.PLP.part.buried>
-3.1347

> <Gold.PLP.part.nonpolar>
-33.5317

> <Gold.PLP.part.repulsive>
1.4390

> <Gold.PLP.ligand.clash>
0.0000

> <Gold.PLP.ligand.torsion>
1.2324

> <Gold.PLP.Chemscore.Hbond>
4.9920

> <Gold.PLP.Chemscore.CHOScore>
0.7345

> <Gold.PLP.Chemscore.Metal>
0.0000

> <Gold.Chemscore.Hbonds>
donor molecule, donor type, donor heavy atom, donor atom, acceptor molecule, acceptor atom, score
      L1  H     7    39       P1  8028  1.00
      L1  H    18    59       P1 10175  2.00
      P1  H  7989  7998       L1    27  1.00
      P1  H 11000 11005       L1    22  0.86
      L1  C    10    42       P1  8028  0.73

> <Gold.PLP.Chemscore.Internal.Correction>
0.1722

> <Gold.Rescore>
     Score         DG    S(hbond)    S(metal)    S(lipo)     H(rot)  DE(clash)    DE(int)     intcor
     11.81     -15.65       2.58        0.00      86.66       3.35       1.40       2.43       ----

> <Gold.Chemscore.Fitness>
11.8115

> <Gold.Chemscore.DG>
-15.6473

> <Gold.Chemscore.ZeroCoef>
-5.4800

> <Gold.Chemscore.Hbond>
2.5775

> <Gold.Chemscore.Metal>
0.0000

> <Gold.Chemscore.Lipo>
86.6586

> <Gold.Chemscore.Internal_Hbond>
0.0000

> <Gold.Chemscore.DEClash>
1.4018

> <Gold.Chemscore.DEInternal>
2.4340

> <Gold.Chemscore.Rot>
3.3518

> <Gold.Chemscore.Internal.Correction>
   9.000000E+99

> <Gold.Chemscore.Hbonds>
donor molecule, donor type, donor heavy atom, donor atom, acceptor molecule, acceptor atom, score
      L1  H     7    39       P1  8028  0.30
      L1  H    18    59       P1 10175  0.96
      P1  H  7989  7998       L1    27  0.15
      P1  H 11000 11005       L1    22  0.70

> <Gold.Chemscore.Hbond.Weighted>
-8.6088

> <Gold.Chemscore.Metal.Weighted>
-0.0000

> <Gold.Chemscore.Lipo.Weighted>
-10.1391

> <Gold.Chemscore.Internal_Hbond.Weighted>
0.0000

> <Gold.Chemscore.DEClash.Weighted>
1.4018

> <Gold.Chemscore.DEInternal.Weighted>
2.4340

> <Gold.Chemscore.Rot.Weighted>
8.5806

> <Gold.Chemscore.Internal.Correction.Weighted>
   9.000000E+99

> <Gold.Protein.RotatedTorsions>
[ 6907 6896 6895 6894 ] final -164.12 input  -60.11 | X-H torsion
[ 7974 7965 7964 7962 ] final -143.71 input  175.53 | X-H torsion
[ 8008 7997 7996 7995 ] final  -45.16 input   59.86 | X-H torsion
[ 10167 10162 10161 10158 ] final  102.06 input  -65.29 | X-H torsion
[ 10718 10713 10712 10709 ] final   12.32 input   66.30 | X-H torsion
[ 10763 10752 10751 10750 ] final -120.50 input  -60.55 | X-H torsion
[ 11005 11000 10999 10996 ] final   22.90 input  -57.11 | X-H torsion

> <Gold.Protein.ActiveResidues>
 VAL166  LYS551  ARG553  GLY616  TRP617  ASP618  TYR619  PRO620  LYS621  CYS622 
 ASP623  PHE694  ASN695  SER759  ASP760  ASP761  ALA762  ILE779  LEU786  VAL792 
 PHE793  MET794  SER795  GLU796  ALA797  LYS798  CYS799  TRP800  GLU811  SER814 

> <Gold.Protein.RotatedAtoms>
  151.4068  133.3740  159.2738 H   0  0  0  0  0  0  0  0  0  0  0  0  # atno 6907 bound_to 6896
  150.9393  134.8804  159.7612 H   0  0  0  0  0  0  0  0  0  0  0  0  # atno 6908 bound_to 6896
  152.5064  134.4017  159.9471 H   0  0  0  0  0  0  0  0  0  0  0  0  # atno 6909 bound_to 6896
  144.8349  140.5800  143.5490 H   0  0  0  0  0  0  0  0  0  0  0  0  # atno 7974 bound_to 7965
  154.4000  140.1404  156.3802 H   0  0  0  0  0  0  0  0  0  0  0  0  # atno 8008 bound_to 7997
  155.8011  140.3476  155.5382 H   0  0  0  0  0  0  0  0  0  0  0  0  # atno 8009 bound_to 7997
  155.8483  140.0937  157.1681 H   0  0  0  0  0  0  0  0  0  0  0  0  # atno 8010 bound_to 7997
  139.7383  144.7018  151.0615 H   0  0  0  0  0  0  0  0  0  0  0  0  # atno 10167 bound_to 10162
  157.0085  130.6107  149.5705 H   0  0  0  0  0  0  0  0  0  0  0  0  # atno 10718 bound_to 10713
  154.8646  135.4200  154.2470 H   0  0  0  0  0  0  0  0  0  0  0  0  # atno 10763 bound_to 10752
  153.3424  135.6994  153.6862 H   0  0  0  0  0  0  0  0  0  0  0  0  # atno 10764 bound_to 10752
  153.5835  135.3568  155.2857 H   0  0  0  0  0  0  0  0  0  0  0  0  # atno 10765 bound_to 10752
  140.3754  134.1977  155.7665 H   0  0  0  0  0  0  0  0  0  0  0  0  # atno 11005 bound_to 11000
  145.4815  139.1495  143.3759 LP  0  0  0  0  0  0  0  0  0  0  0  0  # atno 17320 bound_to 7965
  146.2649  140.4951  142.8838 LP  0  0  0  0  0  0  0  0  0  0  0  0  # atno 17321 bound_to 7965
  140.7782  143.4956  150.9836 LP  0  0  0  0  0  0  0  0  0  0  0  0  # atno 17342 bound_to 10162
  139.8645  143.7272  152.3171 LP  0  0  0  0  0  0  0  0  0  0  0  0  # atno 17343 bound_to 10162
  156.0145  130.5238  150.8091 LP  0  0  0  0  0  0  0  0  0  0  0  0  # atno 17370 bound_to 10713
  157.5338  131.0938  150.9920 LP  0  0  0  0  0  0  0  0  0  0  0  0  # atno 17371 bound_to 10713
  141.1941  133.8136  157.0772 LP  0  0  0  0  0  0  0  0  0  0  0  0  # atno 17394 bound_to 11000
  140.0519  134.9801  157.1151 LP  0  0  0  0  0  0  0  0  0  0  0  0  # atno 17395 bound_to 11000

$$$$
