AV-unprocessed.smi:2893|AV-procd|sdf|11122|dock10
  -GOLD-   2272015593D 1   1.00000     0.00000
 Structure written by MMmdl.
 37 39  0  0  0  0  0  0  0  0  1 V2000
  146.4327  138.3758  151.6325 C   0  0  0  0  0  0  0  0  0  0  0  0
  146.6730  139.8818  151.8006 C   0  0  0  0  0  0  0  0  0  0  0  0
  147.6177  140.1559  152.8769 N   0  0  0  0  0  0  0  0  0  0  0  0
  147.3228  140.7879  154.0260 C   0  0  0  0  0  0  0  0  0  0  0  0
  146.2027  141.2315  154.2833 O   0  0  0  0  0  0  0  0  0  0  0  0
  148.4648  140.9668  154.9901 C   0  0  0  0  0  0  0  0  0  0  0  0
  149.7346  140.4264  154.6919 C   0  0  0  0  0  0  0  0  0  0  0  0
  150.7717  140.6369  155.6165 C   0  0  0  0  0  0  0  0  0  0  0  0
  150.4749  141.3765  156.7768 C   0  0  0  0  0  0  0  0  0  0  0  0
  151.4937  141.6049  157.7127 N   0  0  0  0  0  0  0  0  0  0  0  0
  151.2857  142.4692  158.8698 C   0  0  2  0  0  0  0  0  0  0  0  0
  150.9926  143.9177  158.4665 C   0  0  0  0  0  0  0  0  0  0  0  0
  152.0654  144.6889  159.2458 C   0  0  1  0  0  0  0  0  0  0  0  0
  151.8230  144.6565  160.7613 C   0  0  0  0  0  0  0  0  0  0  0  0
  152.2021  143.2169  161.1082 C   0  0  0  0  0  0  0  0  0  0  0  0
  152.5532  142.6424  159.7293 C   0  0  2  0  0  0  0  0  0  0  0  0
  153.1489  143.7841  159.1338 O   0  0  0  0  0  0  0  0  0  0  0  0
  149.2357  141.8766  157.0065 N   0  0  0  0  0  0  0  0  0  0  0  0
  148.2485  141.6759  156.1273 N   0  0  0  0  0  0  0  0  0  0  0  0
  145.7484  138.1825  150.8062 H   0  0  0  0  0  0  0  0  0  0  0  0
  145.9959  137.9404  152.5318 H   0  0  0  0  0  0  0  0  0  0  0  0
  147.3643  137.8491  151.4230 H   0  0  0  0  0  0  0  0  0  0  0  0
  147.0802  140.2939  150.8772 H   0  0  0  0  0  0  0  0  0  0  0  0
  145.7297  140.3992  151.9825 H   0  0  0  0  0  0  0  0  0  0  0  0
  148.5670  139.8366  152.7467 H   0  0  0  0  0  0  0  0  0  0  0  0
  149.9155  139.8668  153.7856 H   0  0  0  0  0  0  0  0  0  0  0  0
  151.7616  140.2440  155.4368 H   0  0  0  0  0  0  0  0  0  0  0  0
  152.3469  141.0677  157.6596 H   0  0  0  0  0  0  0  0  0  0  0  0
  150.4654  142.0718  159.4689 H   0  0  0  0  0  0  0  0  0  0  0  0
  151.1252  144.0731  157.3945 H   0  0  0  0  0  0  0  0  0  0  0  0
  149.9817  144.2306  158.7295 H   0  0  0  0  0  0  0  0  0  0  0  0
  152.2690  145.6841  158.8501 H   0  0  0  0  0  0  0  0  0  0  0  0
  152.4793  145.3590  161.2762 H   0  0  0  0  0  0  0  0  0  0  0  0
  150.7915  144.8982  161.0195 H   0  0  0  0  0  0  0  0  0  0  0  0
  153.0714  143.1987  161.7664 H   0  0  0  0  0  0  0  0  0  0  0  0
  151.3939  142.6699  161.5948 H   0  0  0  0  0  0  0  0  0  0  0  0
  153.2006  141.7662  159.7757 H   0  0  0  0  0  0  0  0  0  0  0  0
  1  2  1  0  0  0  0
  1 20  1  0  0  0  0
  1 21  1  0  0  0  0
  1 22  1  0  0  0  0
  2  3  1  0  0  0  0
  2 23  1  0  0  0  0
  2 24  1  0  0  0  0
  3  4  1  0  0  0  0
  3 25  1  0  0  0  0
  4  5  2  0  0  0  0
  4  6  1  0  0  0  0
  6 19  1  0  0  0  0
  6  7  2  0  0  0  0
  7  8  1  0  0  0  0
  7 26  1  0  0  0  0
  8  9  2  0  0  0  0
  8 27  1  0  0  0  0
  9 10  1  0  0  0  0
  9 18  1  0  0  0  0
 10 11  1  0  0  0  0
 10 28  1  0  0  0  0
 11 16  1  0  0  0  0
 11 12  1  0  0  0  0
 11 29  1  0  0  0  0
 12 13  1  0  0  0  0
 12 30  1  0  0  0  0
 12 31  1  0  0  0  0
 13 17  1  0  0  0  0
 13 14  1  0  0  0  0
 13 32  1  0  0  0  0
 14 15  1  0  0  0  0
 14 33  1  0  0  0  0
 14 34  1  0  0  0  0
 15 16  1  0  0  0  0
 15 35  1  0  0  0  0
 15 36  1  0  0  0  0
 16 17  1  0  0  0  0
 16 37  1  0  0  0  0
 18 19  2  0  0  0  0
M  END
> <s_m_source_file>
AV-unprocessed.smi

> <i_m_source_file_index>
2893

> <i_lp_mmshare_version>
43012

> <i_f3d_flags>
0

> <s_epik_input>
W0NIM11bQ0gyXVtOSF1DKD1PKWMxW2NIXVtjSF1jKG5uMSlbTkhdW0NASF0oW0NIMl1bQ0BASF0yMylbQ0BASF0oTzMpW0NIMl1bQ0gyXTI=

> <s_epik_cmdline>
J2VwaWtfcHl0aG9uJywgJy1waCcsICc3LjAnLCAnLXRuJywgJzgnLCAnLW1hJywgJzIwMCcsICctbWV0YWxfYmluZGluZycsICctaW1hZScsICc8aW5maWxlLm1hZT4nLCAnLW9tYWUnLCAnPG91dGZpbGUubWFlPic=

> <r_lp_tautomer_probability>
1

> <r_epik_Ionization_Penalty>
0.00432031

> <r_epik_Ionization_Penalty_Charging>
0

> <r_epik_Ionization_Penalty_Neutral>
0.00432031

> <r_epik_State_Penalty>
-0

> <r_epik_Charging_Adjusted_Penalty>
0

> <i_epik_Tot_Q>
0

> <i_epik_Tot_abs_Q>
0

> <r_epik_Metal_State_Penalty>
-0

> <b_epik_Metal_Only>
0

> <s_lp_Force_Field>
OPLS_2005

> <r_lp_Energy>
51.3486

> <b_lp_Chiralities_Consistent>
1

> <s_lp_Variant>
AV-unprocessed.smi:2893-1

> <Gold.Version>
5.8.1

> <Gold.Id.Protein>
6NUR|6NUR_protein|mol2

> <Gold.PLP.Fitness>
41.7647

> <Gold.PLP.PLP>
-40.5747

> <Gold.PLP.part.hbond>
-0.8350

> <Gold.PLP.part.metal>
0.0000

> <Gold.PLP.part.buried>
-0.4333

> <Gold.PLP.part.nonpolar>
-41.0747

> <Gold.PLP.part.repulsive>
1.7325

> <Gold.PLP.ligand.clash>
0.0000

> <Gold.PLP.ligand.torsion>
0.0395

> <Gold.PLP.Chemscore.Hbond>
0.4160

> <Gold.PLP.Chemscore.CHOScore>
0.0000

> <Gold.PLP.Chemscore.Metal>
0.0000

> <Gold.Chemscore.Hbonds>
donor molecule, donor type, donor heavy atom, donor atom, acceptor molecule, acceptor atom, score
      L1  H     3    25       P1  7957  0.51

> <Gold.PLP.Chemscore.Internal.Correction>
0.0210

> <Gold.Rescore>
     Score         DG    S(hbond)    S(metal)    S(lipo)     H(rot)  DE(clash)    DE(int)     intcor
     14.12     -16.89       0.51        0.00     109.21       1.21       1.72       1.04       ----

> <Gold.Chemscore.Fitness>
14.1227

> <Gold.Chemscore.DG>
-16.8877

> <Gold.Chemscore.ZeroCoef>
-5.4800

> <Gold.Chemscore.Hbond>
0.5145

> <Gold.Chemscore.Metal>
0.0000

> <Gold.Chemscore.Lipo>
109.2052

> <Gold.Chemscore.Internal_Hbond>
0.0000

> <Gold.Chemscore.DEClash>
1.7238

> <Gold.Chemscore.DEInternal>
1.0412

> <Gold.Chemscore.Rot>
1.2061

> <Gold.Chemscore.Internal.Correction>
   9.000000E+99

> <Gold.Chemscore.Hbonds>
donor molecule, donor type, donor heavy atom, donor atom, acceptor molecule, acceptor atom, score
      L1  H     3    25       P1  7957  0.50

> <Gold.Chemscore.Hbond.Weighted>
-1.7183

> <Gold.Chemscore.Metal.Weighted>
-0.0000

> <Gold.Chemscore.Lipo.Weighted>
-12.7770

> <Gold.Chemscore.Internal_Hbond.Weighted>
0.0000

> <Gold.Chemscore.DEClash.Weighted>
1.7238

> <Gold.Chemscore.DEInternal.Weighted>
1.0412

> <Gold.Chemscore.Rot.Weighted>
3.0876

> <Gold.Chemscore.Internal.Correction.Weighted>
   9.000000E+99

> <Gold.Protein.RotatedTorsions>
[ 6907 6896 6895 6894 ] final  -27.22 input  -60.11 | X-H torsion
[ 7974 7965 7964 7962 ] final  102.34 input  175.53 | X-H torsion
[ 8008 7997 7996 7995 ] final   54.20 input   59.86 | X-H torsion
[ 10167 10162 10161 10158 ] final -165.32 input  -65.29 | X-H torsion
[ 10718 10713 10712 10709 ] final  167.85 input   66.30 | X-H torsion
[ 10763 10752 10751 10750 ] final   82.57 input  -60.55 | X-H torsion
[ 11005 11000 10999 10996 ] final -116.70 input  -57.11 | X-H torsion

> <Gold.Protein.ActiveResidues>
 VAL166  LYS551  ARG553  GLY616  TRP617  ASP618  TYR619  PRO620  LYS621  CYS622 
 ASP623  PHE694  ASN695  SER759  ASP760  ASP761  ALA762  ILE779  LEU786  VAL792 
 PHE793  MET794  SER795  GLU796  ALA797  LYS798  CYS799  TRP800  GLU811  SER814 

> <Gold.Protein.RotatedAtoms>
  151.1499  135.0222  159.8663 H   0  0  0  0  0  0  0  0  0  0  0  0  # atno 6907 bound_to 6896
  152.5453  134.1401  159.8485 H   0  0  0  0  0  0  0  0  0  0  0  0  # atno 6908 bound_to 6896
  151.1485  133.4877  159.2628 H   0  0  0  0  0  0  0  0  0  0  0  0  # atno 6909 bound_to 6896
  145.3604  139.2419  143.3510 H   0  0  0  0  0  0  0  0  0  0  0  0  # atno 7974 bound_to 7965
  155.4808  140.3468  155.4339 H   0  0  0  0  0  0  0  0  0  0  0  0  # atno 8008 bound_to 7997
  156.1040  140.1443  156.9457 H   0  0  0  0  0  0  0  0  0  0  0  0  # atno 8009 bound_to 7997
  154.4712  140.0900  156.7128 H   0  0  0  0  0  0  0  0  0  0  0  0  # atno 8010 bound_to 7997
  139.6190  144.0662  152.1915 H   0  0  0  0  0  0  0  0  0  0  0  0  # atno 10167 bound_to 10162
  157.0456  131.0299  151.2698 H   0  0  0  0  0  0  0  0  0  0  0  0  # atno 10718 bound_to 10713
  153.1214  135.4723  154.9202 H   0  0  0  0  0  0  0  0  0  0  0  0  # atno 10763 bound_to 10752
  154.7579  135.3123  154.8437 H   0  0  0  0  0  0  0  0  0  0  0  0  # atno 10764 bound_to 10752
  153.9000  135.6876  153.4809 H   0  0  0  0  0  0  0  0  0  0  0  0  # atno 10765 bound_to 10752
  141.0404  133.9844  157.3003 H   0  0  0  0  0  0  0  0  0  0  0  0  # atno 11005 bound_to 11000
  146.2930  140.4236  142.8732 LP  0  0  0  0  0  0  0  0  0  0  0  0  # atno 17320 bound_to 7965
  144.8651  140.7194  143.6082 LP  0  0  0  0  0  0  0  0  0  0  0  0  # atno 17321 bound_to 7965
  140.0299  144.6089  150.7496 LP  0  0  0  0  0  0  0  0  0  0  0  0  # atno 17342 bound_to 10162
  140.7370  143.2760  151.3742 LP  0  0  0  0  0  0  0  0  0  0  0  0  # atno 17343 bound_to 10162
  157.5070  130.7915  149.7665 LP  0  0  0  0  0  0  0  0  0  0  0  0  # atno 17370 bound_to 10713
  156.0024  130.3873  150.2556 LP  0  0  0  0  0  0  0  0  0  0  0  0  # atno 17371 bound_to 10713
  139.9272  135.0201  156.8275 LP  0  0  0  0  0  0  0  0  0  0  0  0  # atno 17394 bound_to 11000
  140.6244  133.9964  155.7633 LP  0  0  0  0  0  0  0  0  0  0  0  0  # atno 17395 bound_to 11000

$$$$
