AV-unprocessed.smi:546|AV-procd|sdf|2886|dock4
  -GOLD-   2262023383D 1   1.00000     0.00000
 Structure written by MMmdl.
 51 53  0  0  0  0  0  0  0  0  2 V2000
  151.9821  138.0040  154.6099 C   0  0  0  0  0  0  0  0  0  0  0  0
  152.3637  139.2027  155.4816 C   0  0  0  0  0  0  0  0  0  0  0  0
  152.9424  138.7353  156.6883 O   0  0  0  0  0  0  0  0  0  0  0  0
  152.0058  138.0658  157.5182 C   0  0  0  0  0  0  0  0  0  0  0  0
  151.1305  139.0940  158.2480 C   0  0  0  0  0  0  0  0  0  0  0  0
  150.4830  140.0174  157.3170 N   0  0  0  0  0  0  0  0  0  0  0  0
  150.6080  141.3713  157.2261 C   0  0  0  0  0  0  0  0  0  0  0  0
  151.4735  142.1094  158.0371 N   0  0  0  0  0  0  0  0  0  0  0  0
  151.4407  143.5684  158.1225 C   0  0  0  0  0  0  0  0  0  0  0  0
  151.4548  144.0533  159.5847 C   0  0  2  0  0  0  0  0  0  0  0  0
  151.3628  145.5821  159.6726 C   0  0  0  0  0  0  0  0  0  0  0  0
  152.7015  143.5155  160.3062 C   0  0  0  0  0  0  0  0  0  0  0  0
  152.7965  141.9892  160.1436 C   0  0  2  0  0  0  0  0  0  0  0  0
  154.0732  141.4312  160.7858 C   0  0  0  0  0  0  0  0  0  0  0  0
  152.7091  141.6197  158.6489 C   0  0  0  0  0  0  0  0  0  0  0  0
  149.8089  141.9416  156.3217 N   0  0  0  0  0  0  0  0  0  0  0  0
  149.1413  140.8622  155.7664 C   0  0  0  0  0  0  0  0  0  0  0  0
  149.5259  139.6951  156.3478 C   0  0  0  0  0  0  0  0  0  0  0  0
  148.9663  138.3735  155.9845 C   0  0  0  0  0  0  0  0  0  0  0  0
  149.3432  137.3467  156.5461 O   0  0  0  0  0  0  0  0  0  0  0  0
  148.0233  138.4653  154.9941 N   0  5  0  0  0  0  0  0  0  0  0  0
  147.6053  139.6253  154.3781 C   0  0  0  0  0  0  0  0  0  0  0  0
  146.7435  139.6197  153.4980 O   0  0  0  0  0  0  0  0  0  0  0  0
  148.1529  140.8263  154.7453 N   0  0  0  0  0  0  0  0  0  0  0  0
  147.7284  142.0766  154.1091 C   0  0  0  0  0  0  0  0  0  0  0  0
  151.5043  138.3306  153.6861 H   0  0  0  0  0  0  0  0  0  0  0  0
  151.2875  137.3454  155.1322 H   0  0  0  0  0  0  0  0  0  0  0  0
  152.8625  137.4204  154.3404 H   0  0  0  0  0  0  0  0  0  0  0  0
  153.0685  139.8408  154.9464 H   0  0  0  0  0  0  0  0  0  0  0  0
  151.4768  139.7997  155.6998 H   0  0  0  0  0  0  0  0  0  0  0  0
  151.3787  137.4101  156.9128 H   0  0  0  0  0  0  0  0  0  0  0  0
  152.5276  137.4380  158.2420 H   0  0  0  0  0  0  0  0  0  0  0  0
  150.3940  138.5730  158.8489 H   0  0  0  0  0  0  0  0  0  0  0  0
  151.7216  139.6643  158.9629 H   0  0  0  0  0  0  0  0  0  0  0  0
  152.2878  143.9816  157.5733 H   0  0  0  0  0  0  0  0  0  0  0  0
  150.5411  143.9371  157.6277 H   0  0  0  0  0  0  0  0  0  0  0  0
  150.5763  143.6416  160.0809 H   0  0  0  0  0  0  0  0  0  0  0  0
  152.2088  146.0597  159.1771 H   0  0  0  0  0  0  0  0  0  0  0  0
  151.3512  145.9153  160.7107 H   0  0  0  0  0  0  0  0  0  0  0  0
  150.4502  145.9464  159.1999 H   0  0  0  0  0  0  0  0  0  0  0  0
  153.5959  143.9863  159.8954 H   0  0  0  0  0  0  0  0  0  0  0  0
  152.6664  143.7788  161.3639 H   0  0  0  0  0  0  0  0  0  0  0  0
  151.9456  141.5436  160.6607 H   0  0  0  0  0  0  0  0  0  0  0  0
  154.9666  141.8416  160.3142 H   0  0  0  0  0  0  0  0  0  0  0  0
  154.1155  140.3456  160.6923 H   0  0  0  0  0  0  0  0  0  0  0  0
  154.1156  141.6726  161.8483 H   0  0  0  0  0  0  0  0  0  0  0  0
  152.7958  140.5426  158.5089 H   0  0  0  0  0  0  0  0  0  0  0  0
  153.5559  142.0503  158.1125 H   0  0  0  0  0  0  0  0  0  0  0  0
  146.6834  142.2839  154.3422 H   0  0  0  0  0  0  0  0  0  0  0  0
  147.8305  142.0127  153.0251 H   0  0  0  0  0  0  0  0  0  0  0  0
  148.3145  142.9349  154.4364 H   0  0  0  0  0  0  0  0  0  0  0  0
  1  2  1  0  0  0  0
  1 26  1  0  0  0  0
  1 27  1  0  0  0  0
  1 28  1  0  0  0  0
  2  3  1  0  0  0  0
  2 29  1  0  0  0  0
  2 30  1  0  0  0  0
  3  4  1  0  0  0  0
  4  5  1  0  0  0  0
  4 31  1  0  0  0  0
  4 32  1  0  0  0  0
  5  6  1  0  0  0  0
  5 33  1  0  0  0  0
  5 34  1  0  0  0  0
  6 18  1  0  0  0  0
  6  7  1  0  0  0  0
  7  8  1  0  0  0  0
  7 16  2  0  0  0  0
  8 15  1  0  0  0  0
  8  9  1  0  0  0  0
  9 10  1  0  0  0  0
  9 35  1  0  0  0  0
  9 36  1  0  0  0  0
 10 11  1  0  0  0  0
 10 12  1  0  0  0  0
 10 37  1  0  0  0  0
 11 38  1  0  0  0  0
 11 39  1  0  0  0  0
 11 40  1  0  0  0  0
 12 13  1  0  0  0  0
 12 41  1  0  0  0  0
 12 42  1  0  0  0  0
 13 14  1  0  0  0  0
 13 15  1  0  0  0  0
 13 43  1  0  0  0  0
 14 44  1  0  0  0  0
 14 45  1  0  0  0  0
 14 46  1  0  0  0  0
 15 47  1  0  0  0  0
 15 48  1  0  0  0  0
 16 17  1  0  0  0  0
 17 24  1  0  0  0  0
 17 18  2  0  0  0  0
 18 19  1  0  0  0  0
 19 20  2  0  0  0  0
 19 21  1  0  0  0  0
 21 22  1  0  0  0  0
 22 23  2  0  0  0  0
 22 24  1  0  0  0  0
 24 25  1  0  0  0  0
 25 49  1  0  0  0  0
 25 50  1  0  0  0  0
 25 51  1  0  0  0  0
M  CHG  1  21  -1
M  END
> <s_m_source_file>
AV-unprocessed.smi

> <i_m_source_file_index>
546

> <i_lp_mmshare_version>
43012

> <i_f3d_flags>
0

> <s_epik_input>
W0NIM11uMWMoPU8pW25IXWMoPU8pYyhjMTIpbihbQ0gyXVtDSDJdT1tDSDJdW0NIM10pYyhuMilOM1tDSDJdW0NAQEhdKFtDSDNdKVtDSDJdW0NAQEhdKFtDSDNdKVtDSDJdMw==

> <s_epik_cmdline>
J2VwaWtfcHl0aG9uJywgJy1waCcsICc3LjAnLCAnLXRuJywgJzgnLCAnLW1hJywgJzIwMCcsICctbWV0YWxfYmluZGluZycsICctaW1hZScsICc8aW5maWxlLm1hZT4nLCAnLW9tYWUnLCAnPG91dGZpbGUubWFlPic=

> <r_lp_tautomer_probability>
1

> <r_epik_Ionization_Penalty>
5.12825

> <r_epik_Ionization_Penalty_Charging>
0.0743105

> <r_epik_Ionization_Penalty_Neutral>
5.05394

> <r_epik_State_Penalty>
5.04406

> <r_epik_Charging_Adjusted_Penalty>
5.11837

> <i_epik_Tot_Q>
-1

> <i_epik_Tot_abs_Q>
1

> <r_epik_Metal_State_Penalty>
1.15122

> <b_epik_Metal_Only>
1

> <s_lp_Force_Field>
OPLS_2005

> <r_lp_Energy>
39.602

> <b_lp_Chiralities_Consistent>
1

> <s_lp_Variant>
AV-unprocessed.smi:546-4

> <Gold.Version>
5.8.1

> <Gold.Id.Protein>
6NUR|6NUR_protein|mol2

> <Gold.PLP.Fitness>
46.4481

> <Gold.PLP.PLP>
-43.7493

> <Gold.PLP.part.hbond>
-1.0000

> <Gold.PLP.part.metal>
0.0000

> <Gold.PLP.part.buried>
-6.0653

> <Gold.PLP.part.nonpolar>
-38.3747

> <Gold.PLP.part.repulsive>
1.4823

> <Gold.PLP.ligand.clash>
0.0000

> <Gold.PLP.ligand.torsion>
0.2866

> <Gold.PLP.Chemscore.Hbond>
0.9760

> <Gold.PLP.Chemscore.CHOScore>
0.0000

> <Gold.PLP.Chemscore.Metal>
0.0000

> <Gold.Chemscore.Hbonds>
donor molecule, donor type, donor heavy atom, donor atom, acceptor molecule, acceptor atom, score
      P1  H  7997  8010       L1     3  0.94

> <Gold.PLP.Chemscore.Internal.Correction>
0.3441

> <Gold.Rescore>
     Score         DG    S(hbond)    S(metal)    S(lipo)     H(rot)  DE(clash)    DE(int)     intcor
     12.90     -17.01       0.73        0.00     110.89       1.52       0.46       3.65       ----

> <Gold.Chemscore.Fitness>
12.8965

> <Gold.Chemscore.DG>
-17.0095

> <Gold.Chemscore.ZeroCoef>
-5.4800

> <Gold.Chemscore.Hbond>
0.7330

> <Gold.Chemscore.Metal>
0.0000

> <Gold.Chemscore.Lipo>
110.8895

> <Gold.Chemscore.Internal_Hbond>
0.0000

> <Gold.Chemscore.DEClash>
0.4602

> <Gold.Chemscore.DEInternal>
3.6528

> <Gold.Chemscore.Rot>
1.5206

> <Gold.Chemscore.Internal.Correction>
   9.000000E+99

> <Gold.Chemscore.Hbonds>
donor molecule, donor type, donor heavy atom, donor atom, acceptor molecule, acceptor atom, score
      P1  H  7997  8010       L1     3  0.19

> <Gold.Chemscore.Hbond.Weighted>
-2.4481

> <Gold.Chemscore.Metal.Weighted>
-0.0000

> <Gold.Chemscore.Lipo.Weighted>
-12.9741

> <Gold.Chemscore.Internal_Hbond.Weighted>
0.0000

> <Gold.Chemscore.DEClash.Weighted>
0.4602

> <Gold.Chemscore.DEInternal.Weighted>
3.6528

> <Gold.Chemscore.Rot.Weighted>
3.8926

> <Gold.Chemscore.Internal.Correction.Weighted>
   9.000000E+99

> <Gold.Protein.RotatedTorsions>
[ 6907 6896 6895 6894 ] final -104.42 input  -60.11 | X-H torsion
[ 7974 7965 7964 7962 ] final  -80.00 input  175.53 | X-H torsion
[ 8008 7997 7996 7995 ] final   45.65 input   59.86 | X-H torsion
[ 10167 10162 10161 10158 ] final  -59.84 input  -65.29 | X-H torsion
[ 10718 10713 10712 10709 ] final   98.43 input   66.30 | X-H torsion
[ 10763 10752 10751 10750 ] final -133.61 input  -60.55 | X-H torsion
[ 11005 11000 10999 10996 ] final -100.97 input  -57.11 | X-H torsion

> <Gold.Protein.ActiveResidues>
 VAL166  LYS551  ARG553  GLY616  TRP617  ASP618  TYR619  PRO620  LYS621  CYS622 
 ASP623  PHE694  ASN695  SER759  ASP760  ASP761  ALA762  ILE779  LEU786  VAL792 
 PHE793  MET794  SER795  GLU796  ALA797  LYS798  CYS799  TRP800  GLU811  SER814 

> <Gold.Protein.RotatedAtoms>
  150.7286  134.0281  159.3723 H   0  0  0  0  0  0  0  0  0  0  0  0  # atno 6907 bound_to 6896
  151.8249  135.0638  160.0439 H   0  0  0  0  0  0  0  0  0  0  0  0  # atno 6908 bound_to 6896
  152.2977  133.5587  159.5634 H   0  0  0  0  0  0  0  0  0  0  0  0  # atno 6909 bound_to 6896
  145.5658  140.9474  143.1423 H   0  0  0  0  0  0  0  0  0  0  0  0  # atno 7974 bound_to 7965
  155.3394  140.3407  155.4239 H   0  0  0  0  0  0  0  0  0  0  0  0  # atno 8008 bound_to 7997
  156.1821  140.1667  156.8291 H   0  0  0  0  0  0  0  0  0  0  0  0  # atno 8009 bound_to 7997
  154.5345  140.0738  156.8386 H   0  0  0  0  0  0  0  0  0  0  0  0  # atno 8010 bound_to 7997
  140.6109  143.2387  151.5710 H   0  0  0  0  0  0  0  0  0  0  0  0  # atno 10167 bound_to 10162
  157.6895  131.0639  150.4794 H   0  0  0  0  0  0  0  0  0  0  0  0  # atno 10718 bound_to 10713
  154.8730  135.3760  154.4600 H   0  0  0  0  0  0  0  0  0  0  0  0  # atno 10763 bound_to 10752
  153.5269  135.7028  153.5708 H   0  0  0  0  0  0  0  0  0  0  0  0  # atno 10764 bound_to 10752
  153.3930  135.3967  155.1901 H   0  0  0  0  0  0  0  0  0  0  0  0  # atno 10765 bound_to 10752
  141.1250  133.8441  157.1171 H   0  0  0  0  0  0  0  0  0  0  0  0  # atno 11005 bound_to 11000
  144.7461  139.7316  143.7291 LP  0  0  0  0  0  0  0  0  0  0  0  0  # atno 17320 bound_to 7965
  146.1819  139.5016  142.9861 LP  0  0  0  0  0  0  0  0  0  0  0  0  # atno 17321 bound_to 7965
  139.5361  144.2778  152.1253 LP  0  0  0  0  0  0  0  0  0  0  0  0  # atno 17342 bound_to 10162
  140.1977  144.4689  150.6447 LP  0  0  0  0  0  0  0  0  0  0  0  0  # atno 17343 bound_to 10162
  156.5127  130.4143  149.6292 LP  0  0  0  0  0  0  0  0  0  0  0  0  # atno 17370 bound_to 10713
  156.3226  130.7288  151.2203 LP  0  0  0  0  0  0  0  0  0  0  0  0  # atno 17371 bound_to 10713
  140.0239  134.9933  157.0648 LP  0  0  0  0  0  0  0  0  0  0  0  0  # atno 17394 bound_to 11000
  140.4394  134.1697  155.7173 LP  0  0  0  0  0  0  0  0  0  0  0  0  # atno 17395 bound_to 11000

$$$$
