AV-unprocessed.smi:1244|AV-procd|sdf|5235|dock5
  -GOLD-   22720 4343D 1   1.00000     0.00000
 Structure written by MMmdl.
 55 57  0  0  0  0  0  0  0  0  4 V2000
  146.3048  136.1945  154.0747 C   0  0  0  0  0  0  0  0  0  0  0  0
  146.3896  134.8240  154.7695 C   0  0  2  0  0  0  0  0  0  0  0  0
  147.7794  134.5203  155.3627 C   0  0  0  0  0  0  0  0  0  0  0  0
  148.7581  134.1975  154.2965 N   0  3  1  0  0  0  0  0  0  0  0  0
  150.1326  133.9799  154.8209 C   0  0  0  0  0  0  0  0  0  0  0  0
  150.5805  135.1132  155.7663 C   0  0  0  0  0  0  0  0  0  0  0  0
  151.1571  136.2112  154.9911 N   0  5  0  0  0  0  0  0  0  0  0  0
  151.6572  137.3599  155.5202 C   0  0  0  0  0  0  0  0  0  0  0  0
  152.7849  137.5464  155.9909 O   0  0  0  0  0  0  0  0  0  0  0  0
  150.7523  138.3539  155.5042 N   0  0  0  0  0  0  0  0  0  0  0  0
  150.8676  139.6870  155.9903 C   0  0  0  0  0  0  0  0  0  0  0  0
  151.8353  140.0356  156.9670 C   0  0  0  0  0  0  0  0  0  0  0  0
  151.9115  141.3586  157.4409 C   0  0  0  0  0  0  0  0  0  0  0  0
  151.0230  142.3172  156.9255 C   0  0  0  0  0  0  0  0  0  0  0  0
  150.1303  141.9606  155.9790 N   0  3  0  0  0  0  0  0  0  0  0  0
  150.0175  140.7072  155.4716 C   0  0  0  0  0  0  0  0  0  0  0  0
  149.0446  140.4895  154.4687 N   0  0  0  0  0  0  0  0  0  0  0  0
  148.0912  139.3924  154.5880 C   0  0  0  0  0  0  0  0  0  0  0  0
  147.0203  139.6820  153.5396 C   0  0  0  0  0  0  0  0  0  0  0  0
  146.9487  141.2059  153.5556 C   0  0  0  0  0  0  0  0  0  0  0  0
  148.3923  141.6339  153.8398 C   0  0  0  0  0  0  0  0  0  0  0  0
  148.2484  133.0819  153.4584 C   0  0  0  0  0  0  0  0  0  0  0  0
  146.8774  133.4440  152.8617 C   0  0  1  0  0  0  0  0  0  0  0  0
  146.2782  132.2868  152.0550 C   0  0  0  0  0  0  0  0  0  0  0  0
  145.9711  133.7587  153.9159 O   0  0  0  0  0  0  0  0  0  0  0  0
  146.4974  136.9993  154.7844 H   0  0  0  0  0  0  0  0  0  0  0  0
  145.3116  136.3565  153.6556 H   0  0  0  0  0  0  0  0  0  0  0  0
  147.0299  136.2960  153.2675 H   0  0  0  0  0  0  0  0  0  0  0  0
  145.6763  134.8461  155.5939 H   0  0  0  0  0  0  0  0  0  0  0  0
  148.1259  135.3742  155.9466 H   0  0  0  0  0  0  0  0  0  0  0  0
  147.7117  133.6745  156.0489 H   0  0  0  0  0  0  0  0  0  0  0  0
  150.1629  133.0439  155.3814 H   0  0  0  0  0  0  0  0  0  0  0  0
  150.8339  133.8573  153.9939 H   0  0  0  0  0  0  0  0  0  0  0  0
  149.7198  135.4546  156.3411 H   0  0  0  0  0  0  0  0  0  0  0  0
  151.2763  134.7100  156.5036 H   0  0  0  0  0  0  0  0  0  0  0  0
  149.8300  138.0831  155.1969 H   0  0  0  0  0  0  0  0  0  0  0  0
  152.5281  139.3060  157.3580 H   0  0  0  0  0  0  0  0  0  0  0  0
  152.6408  141.6317  158.1893 H   0  0  0  0  0  0  0  0  0  0  0  0
  151.0052  143.3534  157.2304 H   0  0  0  0  0  0  0  0  0  0  0  0
  148.5710  138.4274  154.4210 H   0  0  0  0  0  0  0  0  0  0  0  0
  147.6396  139.3864  155.5809 H   0  0  0  0  0  0  0  0  0  0  0  0
  147.3530  139.3354  152.5601 H   0  0  0  0  0  0  0  0  0  0  0  0
  146.0654  139.2055  153.7634 H   0  0  0  0  0  0  0  0  0  0  0  0
  146.5580  141.6248  152.6278 H   0  0  0  0  0  0  0  0  0  0  0  0
  146.3015  141.5330  154.3706 H   0  0  0  0  0  0  0  0  0  0  0  0
  148.4246  142.5245  154.4692 H   0  0  0  0  0  0  0  0  0  0  0  0
  148.9054  141.8593  152.9041 H   0  0  0  0  0  0  0  0  0  0  0  0
  148.9493  132.8637  152.6521 H   0  0  0  0  0  0  0  0  0  0  0  0
  148.1704  132.1774  154.0642 H   0  0  0  0  0  0  0  0  0  0  0  0
  146.9817  134.3007  152.1957 H   0  0  0  0  0  0  0  0  0  0  0  0
  146.9285  132.0082  151.2256 H   0  0  0  0  0  0  0  0  0  0  0  0
  145.3094  132.5632  151.6382 H   0  0  0  0  0  0  0  0  0  0  0  0
  146.1331  131.4038  152.6780 H   0  0  0  0  0  0  0  0  0  0  0  0
  148.8124  135.0154  153.7060 H   0  0  0  0  0  0  0  0  0  0  0  0
  149.5069  142.6813  155.6157 H   0  0  0  0  0  0  0  0  0  0  0  0
  1  2  1  0  0  0  0
  1 26  1  0  0  0  0
  1 27  1  0  0  0  0
  1 28  1  0  0  0  0
  2 25  1  0  0  0  0
  2  3  1  0  0  0  0
  2 29  1  0  0  0  0
  3  4  1  0  0  0  0
  3 30  1  0  0  0  0
  3 31  1  0  0  0  0
  4  5  1  0  0  0  0
  4 22  1  0  0  0  0
  4 54  1  0  0  0  0
  5  6  1  0  0  0  0
  5 32  1  0  0  0  0
  5 33  1  0  0  0  0
  6  7  1  0  0  0  0
  6 34  1  0  0  0  0
  6 35  1  0  0  0  0
  7  8  1  0  0  0  0
  8  9  2  0  0  0  0
  8 10  1  0  0  0  0
 10 11  1  0  0  0  0
 10 36  1  0  0  0  0
 11 16  1  0  0  0  0
 11 12  2  0  0  0  0
 12 13  1  0  0  0  0
 12 37  1  0  0  0  0
 13 14  2  0  0  0  0
 13 38  1  0  0  0  0
 14 15  1  0  0  0  0
 14 39  1  0  0  0  0
 15 16  2  0  0  0  0
 15 55  1  0  0  0  0
 16 17  1  0  0  0  0
 17 21  1  0  0  0  0
 17 18  1  0  0  0  0
 18 19  1  0  0  0  0
 18 40  1  0  0  0  0
 18 41  1  0  0  0  0
 19 20  1  0  0  0  0
 19 42  1  0  0  0  0
 19 43  1  0  0  0  0
 20 21  1  0  0  0  0
 20 44  1  0  0  0  0
 20 45  1  0  0  0  0
 21 46  1  0  0  0  0
 21 47  1  0  0  0  0
 22 23  1  0  0  0  0
 22 48  1  0  0  0  0
 22 49  1  0  0  0  0
 23 24  1  0  0  0  0
 23 25  1  0  0  0  0
 23 50  1  0  0  0  0
 24 51  1  0  0  0  0
 24 52  1  0  0  0  0
 24 53  1  0  0  0  0
M  CHG  1   4   1
M  CHG  1   7  -1
M  CHG  1  15   1
M  END
> <s_m_source_file>
AV-unprocessed.smi

> <i_m_source_file_index>
1244

> <i_lp_mmshare_version>
43012

> <i_f3d_flags>
0

> <s_epik_input>
W0NIM11bQ0BASF0xW0NIMl1OKFtDSDJdW0NASF0oTzEpW0NIM10pW0NIMl1bQ0gyXVtOSF1DKD1PKVtOSF1jMltjSF1bY0hdW2NIXW5jMk4zW0NIMl1bQ0gyXVtDSDJdW0NIMl0z

> <s_epik_cmdline>
J2VwaWtfcHl0aG9uJywgJy1waCcsICc3LjAnLCAnLXRuJywgJzgnLCAnLW1hJywgJzIwMCcsICctbWV0YWxfYmluZGluZycsICctaW1hZScsICc8aW5maWxlLm1hZT4nLCAnLW9tYWUnLCAnPG91dGZpbGUubWFlPic=

> <r_lp_tautomer_probability>
0.999994

> <r_epik_Ionization_Penalty>
8.60539

> <r_epik_Ionization_Penalty_Charging>
8.60539

> <r_epik_Ionization_Penalty_Neutral>
3.60441e-06

> <r_epik_State_Penalty>
8.59967

> <r_epik_Charging_Adjusted_Penalty>
17.2051

> <i_epik_Tot_Q>
1

> <i_epik_Tot_abs_Q>
3

> <r_epik_Metal_State_Penalty>
4.59489

> <b_epik_Metal_Only>
1

> <s_lp_Force_Field>
OPLS_2005

> <r_lp_Energy>
46.9863

> <b_lp_Chiralities_Consistent>
1

> <s_lp_Variant>
AV-unprocessed.smi:1244-15

> <Gold.Version>
5.8.1

> <Gold.Id.Protein>
6NUR|6NUR_protein|mol2

> <Gold.PLP.Fitness>
50.7119

> <Gold.PLP.PLP>
-34.6879

> <Gold.PLP.part.hbond>
-3.5837

> <Gold.PLP.part.metal>
0.0000

> <Gold.PLP.part.buried>
-3.7519

> <Gold.PLP.part.nonpolar>
-26.8359

> <Gold.PLP.part.repulsive>
0.5087

> <Gold.PLP.ligand.clash>
0.0014

> <Gold.PLP.ligand.torsion>
1.2310

> <Gold.PLP.Chemscore.Hbond>
6.0000

> <Gold.PLP.Chemscore.CHOScore>
0.0000

> <Gold.PLP.Chemscore.Metal>
0.0000

> <Gold.Chemscore.Hbonds>
donor molecule, donor type, donor heavy atom, donor atom, acceptor molecule, acceptor atom, score
      L1  H     4    54       P1  7948  1.24
      L1  H    15    55       P1  8028  1.44
      P1  H 10752 10765       L1     7  1.30

> <Gold.PLP.Chemscore.Internal.Correction>
0.4873

> <Gold.Rescore>
     Score         DG    S(hbond)    S(metal)    S(lipo)     H(rot)  DE(clash)    DE(int)     intcor
     13.46     -17.42       1.94        0.00      81.69       1.60       0.35       3.61       ----

> <Gold.Chemscore.Fitness>
13.4611

> <Gold.Chemscore.DG>
-17.4208

> <Gold.Chemscore.ZeroCoef>
-5.4800

> <Gold.Chemscore.Hbond>
1.9380

> <Gold.Chemscore.Metal>
0.0000

> <Gold.Chemscore.Lipo>
81.6945

> <Gold.Chemscore.Internal_Hbond>
0.0000

> <Gold.Chemscore.DEClash>
0.3543

> <Gold.Chemscore.DEInternal>
3.6054

> <Gold.Chemscore.Rot>
1.5978

> <Gold.Chemscore.Internal.Correction>
   9.000000E+99

> <Gold.Chemscore.Hbonds>
donor molecule, donor type, donor heavy atom, donor atom, acceptor molecule, acceptor atom, score
      L1  H     4    54       P1  7948  0.40
      L1  H    15    55       P1  8028  0.69
      P1  H 10752 10765       L1     7  0.04

> <Gold.Chemscore.Hbond.Weighted>
-6.4730

> <Gold.Chemscore.Metal.Weighted>
-0.0000

> <Gold.Chemscore.Lipo.Weighted>
-9.5583

> <Gold.Chemscore.Internal_Hbond.Weighted>
0.0000

> <Gold.Chemscore.DEClash.Weighted>
0.3543

> <Gold.Chemscore.DEInternal.Weighted>
3.6054

> <Gold.Chemscore.Rot.Weighted>
4.0905

> <Gold.Chemscore.Internal.Correction.Weighted>
   9.000000E+99

> <Gold.Protein.RotatedTorsions>
[ 6907 6896 6895 6894 ] final -136.60 input  -60.11 | X-H torsion
[ 7974 7965 7964 7962 ] final  -98.75 input  175.53 | X-H torsion
[ 8008 7997 7996 7995 ] final   41.90 input   59.86 | X-H torsion
[ 10167 10162 10161 10158 ] final -108.29 input  -65.29 | X-H torsion
[ 10718 10713 10712 10709 ] final   27.47 input   66.30 | X-H torsion
[ 10763 10752 10751 10750 ] final  159.07 input  -60.55 | X-H torsion
[ 11005 11000 10999 10996 ] final   65.03 input  -57.11 | X-H torsion

> <Gold.Protein.ActiveResidues>
 VAL166  LYS551  ARG553  GLY616  TRP617  ASP618  TYR619  PRO620  LYS621  CYS622 
 ASP623  PHE694  ASN695  SER759  ASP760  ASP761  ALA762  ILE779  LEU786  VAL792 
 PHE793  MET794  SER795  GLU796  ALA797  LYS798  CYS799  TRP800  GLU811  SER814 

> <Gold.Protein.RotatedAtoms>
  151.0121  133.5955  159.2681 H   0  0  0  0  0  0  0  0  0  0  0  0  # atno 6907 bound_to 6896
  151.3103  135.0791  159.9280 H   0  0  0  0  0  0  0  0  0  0  0  0  # atno 6908 bound_to 6896
  152.5302  133.9787  159.7850 H   0  0  0  0  0  0  0  0  0  0  0  0  # atno 6909 bound_to 6896
  145.3165  140.9412  143.2740 H   0  0  0  0  0  0  0  0  0  0  0  0  # atno 7974 bound_to 7965
  155.2773  140.3370  155.4261 H   0  0  0  0  0  0  0  0  0  0  0  0  # atno 8008 bound_to 7997
  156.2106  140.1768  156.7745 H   0  0  0  0  0  0  0  0  0  0  0  0  # atno 8009 bound_to 7997
  154.5680  140.0675  156.8906 H   0  0  0  0  0  0  0  0  0  0  0  0  # atno 8010 bound_to 7997
  140.1677  143.4068  152.1378 H   0  0  0  0  0  0  0  0  0  0  0  0  # atno 10167 bound_to 10162
  157.2206  130.6977  149.6268 H   0  0  0  0  0  0  0  0  0  0  0  0  # atno 10718 bound_to 10713
  154.2261  135.2780  155.2907 H   0  0  0  0  0  0  0  0  0  0  0  0  # atno 10763 bound_to 10752
  154.5662  135.5632  153.7056 H   0  0  0  0  0  0  0  0  0  0  0  0  # atno 10764 bound_to 10752
  153.0031  135.6310  154.2402 H   0  0  0  0  0  0  0  0  0  0  0  0  # atno 10765 bound_to 10752
  139.9920  134.6576  156.0074 H   0  0  0  0  0  0  0  0  0  0  0  0  # atno 11005 bound_to 11000
  144.8973  139.4695  143.6649 LP  0  0  0  0  0  0  0  0  0  0  0  0  # atno 17320 bound_to 7965
  146.3098  139.7707  142.9028 LP  0  0  0  0  0  0  0  0  0  0  0  0  # atno 17321 bound_to 7965
  139.5352  144.7202  151.4918 LP  0  0  0  0  0  0  0  0  0  0  0  0  # atno 17342 bound_to 10162
  140.6602  143.8514  150.6879 LP  0  0  0  0  0  0  0  0  0  0  0  0  # atno 17343 bound_to 10162
  155.9682  130.4521  150.5760 LP  0  0  0  0  0  0  0  0  0  0  0  0  # atno 17370 bound_to 10713
  157.3579  131.0745  151.1660 LP  0  0  0  0  0  0  0  0  0  0  0  0  # atno 17371 bound_to 10713
  141.1574  133.6541  156.4206 LP  0  0  0  0  0  0  0  0  0  0  0  0  # atno 17394 bound_to 11000
  140.4889  134.6594  157.5202 LP  0  0  0  0  0  0  0  0  0  0  0  0  # atno 17395 bound_to 11000

$$$$
