AV-unprocessed.smi:443|AV-procd|sdf|2585|dock7
  -GOLD-   2262022573D 1   1.00000     0.00000
 Structure written by MMmdl.
 48 49  0  0  0  0  0  0  0  0  1 V2000
  145.0098  143.6807  154.3789 C   0  0  0  0  0  0  0  0  0  0  0  0
  145.6864  142.8781  155.4572 C   0  0  0  0  0  0  0  0  0  0  0  0
  146.6288  142.0788  155.0800 N   0  0  0  0  0  0  0  0  0  0  0  0
  147.3022  141.2804  155.9831 N   0  0  0  0  0  0  0  0  0  0  0  0
  148.3043  140.3964  155.3727 C   0  0  0  0  0  0  0  0  0  0  0  0
  149.5282  141.1751  154.8401 C   0  0  2  0  0  0  0  0  0  0  0  0
  149.7949  140.8111  153.5017 O   0  0  0  0  0  0  0  0  0  0  0  0
  150.8112  141.0143  155.6760 C   0  0  0  0  0  0  0  0  0  0  0  0
  150.8919  142.0556  156.6423 O   0  0  0  0  0  0  0  0  0  0  0  0
  151.5745  141.8246  157.8188 C   0  0  0  0  0  0  0  0  0  0  0  0
  151.9785  140.5284  158.2319 C   0  0  0  0  0  0  0  0  0  0  0  0
  152.6846  140.3419  159.4339 C   0  0  0  0  0  0  0  0  0  0  0  0
  152.9975  141.4459  160.2432 C   0  0  0  0  0  0  0  0  0  0  0  0
  152.5993  142.7352  159.8494 C   0  0  0  0  0  0  0  0  0  0  0  0
  151.8879  142.9374  158.6453 C   0  0  0  0  0  0  0  0  0  0  0  0
  151.4735  144.3654  158.2823 C   0  0  0  0  0  0  0  0  0  0  0  0
  152.0548  144.8328  156.9362 C   0  0  0  0  0  0  0  0  0  0  0  0
  151.7518  145.3638  159.4166 C   0  0  0  0  0  0  0  0  0  0  0  0
  147.0682  141.2609  157.3259 C   0  0  0  0  0  0  0  0  0  0  0  0
  147.6913  140.5291  158.0965 O   0  0  0  0  0  0  0  0  0  0  0  0
  146.0085  142.1790  157.7500 C   0  0  0  0  0  0  0  0  0  0  0  0
  145.7308  142.1895  159.1501 C   0  0  0  0  0  0  0  0  0  0  0  0
  145.5088  142.2185  160.2859 N   0  0  0  0  0  0  0  0  0  0  0  0
  145.3335  142.9612  156.8706 C   0  0  0  0  0  0  0  0  0  0  0  0
  144.2200  143.9246  157.2584 C   0  0  0  0  0  0  0  0  0  0  0  0
  145.1721  144.7478  154.5306 H   0  0  0  0  0  0  0  0  0  0  0  0
  143.9351  143.4979  154.3761 H   0  0  0  0  0  0  0  0  0  0  0  0
  145.3860  143.4272  153.3869 H   0  0  0  0  0  0  0  0  0  0  0  0
  148.6295  139.6455  156.0945 H   0  0  0  0  0  0  0  0  0  0  0  0
  147.8470  139.8256  154.5623 H   0  0  0  0  0  0  0  0  0  0  0  0
  149.2825  142.2372  154.8118 H   0  0  0  0  0  0  0  0  0  0  0  0
  149.2096  140.1101  153.2588 H   0  0  0  0  0  0  0  0  0  0  0  0
  150.8369  140.0346  156.1559 H   0  0  0  0  0  0  0  0  0  0  0  0
  151.6683  141.0753  155.0040 H   0  0  0  0  0  0  0  0  0  0  0  0
  151.7615  139.6514  157.6420 H   0  0  0  0  0  0  0  0  0  0  0  0
  152.9872  139.3495  159.7344 H   0  0  0  0  0  0  0  0  0  0  0  0
  153.5406  141.3048  161.1661 H   0  0  0  0  0  0  0  0  0  0  0  0
  152.8445  143.5733  160.4850 H   0  0  0  0  0  0  0  0  0  0  0  0
  150.3908  144.3589  158.1495 H   0  0  0  0  0  0  0  0  0  0  0  0
  151.7957  144.1370  156.1378 H   0  0  0  0  0  0  0  0  0  0  0  0
  153.1398  144.9251  156.9582 H   0  0  0  0  0  0  0  0  0  0  0  0
  151.6556  145.8092  156.6607 H   0  0  0  0  0  0  0  0  0  0  0  0
  151.2580  145.0557  160.3382 H   0  0  0  0  0  0  0  0  0  0  0  0
  151.3792  146.3563  159.1618 H   0  0  0  0  0  0  0  0  0  0  0  0
  152.8153  145.4603  159.6241 H   0  0  0  0  0  0  0  0  0  0  0  0
  144.0587  143.9572  158.3355 H   0  0  0  0  0  0  0  0  0  0  0  0
  143.2793  143.6274  156.7940 H   0  0  0  0  0  0  0  0  0  0  0  0
  144.4587  144.9380  156.9344 H   0  0  0  0  0  0  0  0  0  0  0  0
  1  2  1  0  0  0  0
  1 26  1  0  0  0  0
  1 27  1  0  0  0  0
  1 28  1  0  0  0  0
  2 24  1  0  0  0  0
  2  3  2  0  0  0  0
  3  4  1  0  0  0  0
  4  5  1  0  0  0  0
  4 19  1  0  0  0  0
  5  6  1  0  0  0  0
  5 29  1  0  0  0  0
  5 30  1  0  0  0  0
  6  7  1  0  0  0  0
  6  8  1  0  0  0  0
  6 31  1  0  0  0  0
  7 32  1  0  0  0  0
  8  9  1  0  0  0  0
  8 33  1  0  0  0  0
  8 34  1  0  0  0  0
  9 10  1  0  0  0  0
 10 15  1  0  0  0  0
 10 11  2  0  0  0  0
 11 12  1  0  0  0  0
 11 35  1  0  0  0  0
 12 13  2  0  0  0  0
 12 36  1  0  0  0  0
 13 14  1  0  0  0  0
 13 37  1  0  0  0  0
 14 15  2  0  0  0  0
 14 38  1  0  0  0  0
 15 16  1  0  0  0  0
 16 17  1  0  0  0  0
 16 18  1  0  0  0  0
 16 39  1  0  0  0  0
 17 40  1  0  0  0  0
 17 41  1  0  0  0  0
 17 42  1  0  0  0  0
 18 43  1  0  0  0  0
 18 44  1  0  0  0  0
 18 45  1  0  0  0  0
 19 20  2  0  0  0  0
 19 21  1  0  0  0  0
 21 22  1  0  0  0  0
 21 24  2  0  0  0  0
 22 23  3  0  0  0  0
 24 25  1  0  0  0  0
 25 46  1  0  0  0  0
 25 47  1  0  0  0  0
 25 48  1  0  0  0  0
M  END
> <s_m_source_file>
AV-unprocessed.smi

> <i_m_source_file_index>
443

> <i_lp_mmshare_version>
43012

> <i_f3d_flags>
0

> <s_epik_input>
TiNDYyhjMVtDSDNdKWMoPU8pbihuYzFbQ0gzXSlbQ0gyXVtDQEhdKFtPSF0pW0NIMl1PYzJbY0hdW2NIXVtjSF1bY0hdYzJbQ0hdKFtDSDNdKVtDSDNd

> <s_epik_cmdline>
J2VwaWtfcHl0aG9uJywgJy1waCcsICc3LjAnLCAnLXRuJywgJzgnLCAnLW1hJywgJzIwMCcsICctbWV0YWxfYmluZGluZycsICctaW1hZScsICc8aW5maWxlLm1hZT4nLCAnLW9tYWUnLCAnPG91dGZpbGUubWFlPic=

> <r_lp_tautomer_probability>
1

> <r_epik_Ionization_Penalty>
1.17331e-07

> <r_epik_Ionization_Penalty_Charging>
1.57223e-10

> <r_epik_Ionization_Penalty_Neutral>
1.17174e-07

> <r_epik_State_Penalty>
-0

> <r_epik_Charging_Adjusted_Penalty>
1.57223e-10

> <i_epik_Tot_Q>
0

> <i_epik_Tot_abs_Q>
0

> <r_epik_Metal_State_Penalty>
-0

> <b_epik_Metal_Only>
0

> <s_lp_Force_Field>
OPLS_2005

> <r_lp_Energy>
30.066

> <b_lp_Chiralities_Consistent>
1

> <s_lp_Variant>
AV-unprocessed.smi:443-1

> <Gold.Version>
5.8.1

> <Gold.Id.Protein>
6NUR|6NUR_protein|mol2

> <Gold.PLP.Fitness>
50.8876

> <Gold.PLP.PLP>
-47.8271

> <Gold.PLP.part.hbond>
-4.4305

> <Gold.PLP.part.metal>
0.0000

> <Gold.PLP.part.buried>
-5.5358

> <Gold.PLP.part.nonpolar>
-36.5047

> <Gold.PLP.part.repulsive>
0.2258

> <Gold.PLP.ligand.clash>
0.0000

> <Gold.PLP.ligand.torsion>
1.6141

> <Gold.PLP.Chemscore.Hbond>
2.0520

> <Gold.PLP.Chemscore.CHOScore>
0.0000

> <Gold.PLP.Chemscore.Metal>
0.0000

> <Gold.Chemscore.Hbonds>
donor molecule, donor type, donor heavy atom, donor atom, acceptor molecule, acceptor atom, score
      P1  H  6934  6946       L1    23  0.70
      P1  H  7989  7998       L1     7  0.35
      P1  H  8011  8017       L1     7  1.00

> <Gold.PLP.Chemscore.Internal.Correction>
0.1327

> <Gold.Rescore>
     Score         DG    S(hbond)    S(metal)    S(lipo)     H(rot)  DE(clash)    DE(int)     intcor
     14.05     -17.59       0.97        0.00     128.52       2.41       1.87       1.67       ----

> <Gold.Chemscore.Fitness>
14.0471

> <Gold.Chemscore.DG>
-17.5873

> <Gold.Chemscore.ZeroCoef>
-5.4800

> <Gold.Chemscore.Hbond>
0.9687

> <Gold.Chemscore.Metal>
0.0000

> <Gold.Chemscore.Lipo>
128.5243

> <Gold.Chemscore.Internal_Hbond>
0.0000

> <Gold.Chemscore.DEClash>
1.8698

> <Gold.Chemscore.DEInternal>
1.6704

> <Gold.Chemscore.Rot>
2.4084

> <Gold.Chemscore.Internal.Correction>
   9.000000E+99

> <Gold.Chemscore.Hbonds>
donor molecule, donor type, donor heavy atom, donor atom, acceptor molecule, acceptor atom, score
      L1  H     7    32       P1  7957  0.03
      P1  H  6934  6946       L1    23  0.07
      P1  H  7989  7998       L1     7  0.12
      P1  H  8011  8017       L1     7  0.71

> <Gold.Chemscore.Hbond.Weighted>
-3.2354

> <Gold.Chemscore.Metal.Weighted>
-0.0000

> <Gold.Chemscore.Lipo.Weighted>
-15.0373

> <Gold.Chemscore.Internal_Hbond.Weighted>
0.0000

> <Gold.Chemscore.DEClash.Weighted>
1.8698

> <Gold.Chemscore.DEInternal.Weighted>
1.6704

> <Gold.Chemscore.Rot.Weighted>
6.1655

> <Gold.Chemscore.Internal.Correction.Weighted>
   9.000000E+99

> <Gold.Protein.RotatedTorsions>
[ 6907 6896 6895 6894 ] final  -88.13 input  -60.11 | X-H torsion
[ 7974 7965 7964 7962 ] final -159.72 input  175.53 | X-H torsion
[ 8008 7997 7996 7995 ] final -131.70 input   59.86 | X-H torsion
[ 10167 10162 10161 10158 ] final -145.67 input  -65.29 | X-H torsion
[ 10718 10713 10712 10709 ] final  -57.85 input   66.30 | X-H torsion
[ 10763 10752 10751 10750 ] final  121.80 input  -60.55 | X-H torsion
[ 11005 11000 10999 10996 ] final  -53.33 input  -57.11 | X-H torsion

> <Gold.Protein.ActiveResidues>
 VAL166  LYS551  ARG553  GLY616  TRP617  ASP618  TYR619  PRO620  LYS621  CYS622 
 ASP623  PHE694  ASN695  SER759  ASP760  ASP761  ALA762  ILE779  LEU786  VAL792 
 PHE793  MET794  SER795  GLU796  ALA797  LYS798  CYS799  TRP800  GLU811  SER814 

> <Gold.Protein.RotatedAtoms>
  150.6868  134.2790  159.4618 H   0  0  0  0  0  0  0  0  0  0  0  0  # atno 6907 bound_to 6896
  152.0705  134.9534  160.0584 H   0  0  0  0  0  0  0  0  0  0  0  0  # atno 6908 bound_to 6896
  152.0925  133.4173  159.4587 H   0  0  0  0  0  0  0  0  0  0  0  0  # atno 6909 bound_to 6896
  144.7454  140.3644  143.6089 H   0  0  0  0  0  0  0  0  0  0  0  0  # atno 7974 bound_to 7965
  155.3167  140.0460  157.3037 H   0  0  0  0  0  0  0  0  0  0  0  0  # atno 8008 bound_to 7997
  154.5403  140.2285  155.8619 H   0  0  0  0  0  0  0  0  0  0  0  0  # atno 8009 bound_to 7997
  156.1874  140.3059  155.9272 H   0  0  0  0  0  0  0  0  0  0  0  0  # atno 8010 bound_to 7997
  139.7784  143.8137  152.2635 H   0  0  0  0  0  0  0  0  0  0  0  0  # atno 10167 bound_to 10162
  156.1179  130.4169  150.0497 H   0  0  0  0  0  0  0  0  0  0  0  0  # atno 10718 bound_to 10713
  153.6198  135.3415  155.3007 H   0  0  0  0  0  0  0  0  0  0  0  0  # atno 10763 bound_to 10752
  154.8602  135.4270  154.2220 H   0  0  0  0  0  0  0  0  0  0  0  0  # atno 10764 bound_to 10752
  153.3090  135.7030  153.7205 H   0  0  0  0  0  0  0  0  0  0  0  0  # atno 10765 bound_to 10752
  141.0970  133.6623  156.4156 H   0  0  0  0  0  0  0  0  0  0  0  0  # atno 11005 bound_to 11000
  145.7143  139.1693  143.2521 LP  0  0  0  0  0  0  0  0  0  0  0  0  # atno 17320 bound_to 7965
  146.1324  140.7168  142.9406 LP  0  0  0  0  0  0  0  0  0  0  0  0  # atno 17321 bound_to 7965
  139.8192  144.7303  150.9595 LP  0  0  0  0  0  0  0  0  0  0  0  0  # atno 17342 bound_to 10162
  140.7817  143.4175  151.0893 LP  0  0  0  0  0  0  0  0  0  0  0  0  # atno 17343 bound_to 10162
  156.8443  130.9437  151.3630 LP  0  0  0  0  0  0  0  0  0  0  0  0  # atno 17370 bound_to 10713
  157.6362  130.8769  149.9364 LP  0  0  0  0  0  0  0  0  0  0  0  0  # atno 17371 bound_to 10713
  140.5115  134.6391  157.5286 LP  0  0  0  0  0  0  0  0  0  0  0  0  # atno 17394 bound_to 11000
  139.9810  134.7137  155.9860 LP  0  0  0  0  0  0  0  0  0  0  0  0  # atno 17395 bound_to 11000

$$$$
