#       Name:                AV-unprocessed.smi:485
#       Creating user name   scv26
#       Creation time:       Thu Mar 26 23:12:36 2020


#       File generated by GOLD software.
#

@<TRIPOS>MOLECULE
AV-unprocessed.smi:485
    41    43     1
SMALL
NO_CHARGES


@<TRIPOS>ATOM
      1 ****        -0.9303   3.0805  -1.8943 O.3            1 S1                 0.0000
      2 ****        -1.4115   2.7032  -0.6221 C.3            1 S1                 0.0000
      3 ****        -2.0066   1.3279  -0.6125 C.2            1 S1                 0.0000
      4 ****        -3.3250   1.1304  -0.6396 N.2            1 S1                 0.0000
      5 ****        -3.4262  -0.2471  -0.6323 C.ar           1 S1                 0.0000
      6 ****        -4.5649  -1.0840  -0.6536 C.ar           1 S1                 0.0000
      7 ****        -4.4204  -2.4868  -0.6402 C.ar           1 S1                 0.0000
      8 ****        -3.1379  -3.0719  -0.6055 C.ar           1 S1                 0.0000
      9 ****        -1.9902  -2.2563  -0.5844 C.ar           1 S1                 0.0000
     10 ****        -2.1399  -0.8563  -0.5981 C.ar           1 S1                 0.0000
     11 ****        -1.2422   0.2071  -0.5838 N.pl3          1 S1                 0.0000
     12 ****         0.2110   0.1103  -0.5515 C.3            1 S1                 0.0000
     13 ****         0.7867   0.1816   0.8772 C.3            1 S1                 0.0000
     14 ****         0.2550  -0.8633   1.6694 O.3            1 S1                 0.0000
     15 ****         2.3074   0.1787   0.8539 C.ar           1 S1                 0.0000
     16 ****         3.0290  -1.0334   0.7732 C.ar           1 S1                 0.0000
     17 ****         4.4372  -1.0202   0.7399 C.ar           1 S1                 0.0000
     18 ****         5.1318   0.2039   0.7817 C.ar           1 S1                 0.0000
     19 ****         4.4178   1.4152   0.8569 C.ar           1 S1                 0.0000
     20 ****         3.0098   1.4024   0.8917 C.ar           1 S1                 0.0000
     21 ****        -0.5957   3.9624  -1.8392 H              1 S1                 0.0000
     22 ****        -0.6014   2.7647   0.1036 H              1 S1                 0.0000
     23 ****        -2.1668   3.4243  -0.3078 H              1 S1                 0.0000
     24 ****        -5.5514  -0.6455  -0.6806 H              1 S1                 0.0000
     25 ****        -5.2977  -3.1168  -0.6561 H              1 S1                 0.0000
     26 ****        -3.0356  -4.1473  -0.5948 H              1 S1                 0.0000
     27 ****        -1.0063  -2.7005  -0.5547 H              1 S1                 0.0000
     28 ****         0.5081  -0.8227  -1.0322 H              1 S1                 0.0000
     29 ****         0.6277   0.9085  -1.1661 H              1 S1                 0.0000
     30 ****         0.4619   1.1108   1.3457 H              1 S1                 0.0000
     31 ****         0.5438  -0.7397   2.5607 H              1 S1                 0.0000
     32 ****         2.5059  -1.9777   0.7327 H              1 S1                 0.0000
     33 ****         4.9846  -1.9493   0.6800 H              1 S1                 0.0000
     34 ****         6.2115   0.2140   0.7538 H              1 S1                 0.0000
     35 ****         4.9502   2.3545   0.8859 H              1 S1                 0.0000
     36 ****         2.4705   2.3370   0.9440 H              1 S1                 0.0000
     37 ****        -1.6746   3.0433  -2.5611 LP             1 S1                 0.0000
     38 ****        -0.1990   2.4594  -2.1761 LP             1 S1                 0.0000
     39 ****        -4.0580   1.8104  -0.6601 LP             1 S1                 0.0000
     40 ****         0.5810  -1.7449   1.3282 LP             1 S1                 0.0000
     41 ****        -0.7440  -0.8402   1.6320 LP             1 S1                 0.0000
@<TRIPOS>BOND
    1    1    2 1     
    2    1   21 1     
    3    2    3 1     
    4    2   22 1     
    5    2   23 1     
    6    3   11 1     
    7    3    4 2     
    8    4    5 1     
    9    5   10 ar    
   10    5    6 ar    
   11    6    7 ar    
   12    6   24 1     
   13    7    8 ar    
   14    7   25 1     
   15    8    9 ar    
   16    8   26 1     
   17    9   10 ar    
   18    9   27 1     
   19   10   11 1     
   20   11   12 1     
   21   12   13 1     
   22   12   28 1     
   23   12   29 1     
   24   13   14 1     
   25   13   15 1     
   26   13   30 1     
   27   14   31 1     
   28   15   20 ar    
   29   15   16 ar    
   30   16   17 ar    
   31   16   32 1     
   32   17   18 ar    
   33   17   33 1     
   34   18   19 ar    
   35   18   34 1     
   36   19   20 ar    
   37   19   35 1     
   38   20   36 1     
   39    1   37 1     
   40    1   38 1     
   41    4   39 1     
   42   14   40 1     
   43   14   41 1     
@<TRIPOS>SUBSTRUCTURE
      1 S1             1
@<TRIPOS>SET
LONE_PAIRS      STATIC     ATOMS    <user>   **** ""
5 37 38 39 40 41
DONOR_HYDROGENS      STATIC     ATOMS    <user>   **** ""
2 21 31
ATOM$BLUE        STATIC     ATOMS    COLORGROUP SYSTEM
5 37 38 39 40 41
ATOM$RED        STATIC     ATOMS    COLORGROUP SYSTEM
2 21 31
