AV-unprocessed.smi:3239|AV-procd|sdf|12380|dock5
  -GOLD-   2272018243D 1   1.00000     0.00000
 Structure written by MMmdl.
 35 35  0  0  0  0  0  0  0  0  1 V2000
  151.9888  144.3896  160.9535 C   0  0  0  0  0  0  0  0  0  0  0  0
  152.3611  143.3711  160.3922 C   0  0  0  0  0  0  0  0  0  0  0  0
  152.8194  142.1533  159.7026 C   0  0  0  0  0  0  0  0  0  0  0  0
  152.0523  141.8696  158.4951 N   0  0  0  0  0  0  0  0  0  0  0  0
  152.2174  140.7956  157.7042 C   0  0  0  0  0  0  0  0  0  0  0  0
  153.0406  139.9073  157.9264 O   0  0  0  0  0  0  0  0  0  0  0  0
  151.2729  140.6944  156.5414 C   0  0  0  0  0  0  0  0  0  0  0  0
  151.2833  139.5837  155.6677 C   0  0  0  0  0  0  0  0  0  0  0  0
  150.3566  139.5369  154.6083 C   0  0  0  0  0  0  0  0  0  0  0  0
  149.4402  140.5979  154.4566 C   0  0  0  0  0  0  0  0  0  0  0  0
  148.5179  140.5394  153.4009 N   0  0  0  0  0  0  0  0  0  0  0  0
  147.1350  140.9812  153.5527 C   0  0  1  0  0  0  0  0  0  0  0  0
  146.3928  140.1148  154.5857 C   0  0  0  0  0  0  0  0  0  0  0  0
  147.1001  142.4689  153.9367 C   0  0  0  0  0  0  0  0  0  0  0  0
  145.7602  142.9325  153.9095 O   0  0  0  0  0  0  0  0  0  0  0  0
  145.2808  143.2865  155.1948 C   0  0  0  0  0  0  0  0  0  0  0  0
  149.4165  141.6583  155.2976 N   0  0  0  0  0  0  0  0  0  0  0  0
  150.3071  141.6987  156.3115 C   0  0  0  0  0  0  0  0  0  0  0  0
  151.6637  145.2814  161.4405 H   0  0  0  0  0  0  0  0  0  0  0  0
  153.8655  142.2949  159.4310 H   0  0  0  0  0  0  0  0  0  0  0  0
  152.7805  141.3179  160.4034 H   0  0  0  0  0  0  0  0  0  0  0  0
  151.3329  142.5335  158.2484 H   0  0  0  0  0  0  0  0  0  0  0  0
  151.9844  138.7724  155.7995 H   0  0  0  0  0  0  0  0  0  0  0  0
  150.3506  138.6975  153.9281 H   0  0  0  0  0  0  0  0  0  0  0  0
  148.8420  140.2930  152.4770 H   0  0  0  0  0  0  0  0  0  0  0  0
  146.6340  140.8856  152.5887 H   0  0  0  0  0  0  0  0  0  0  0  0
  145.3523  140.4250  154.6837 H   0  0  0  0  0  0  0  0  0  0  0  0
  146.8547  140.1889  155.5706 H   0  0  0  0  0  0  0  0  0  0  0  0
  146.3905  139.0630  154.2991 H   0  0  0  0  0  0  0  0  0  0  0  0
  147.5358  142.6196  154.9262 H   0  0  0  0  0  0  0  0  0  0  0  0
  147.6923  143.0493  153.2269 H   0  0  0  0  0  0  0  0  0  0  0  0
  144.2517  143.6373  155.1180 H   0  0  0  0  0  0  0  0  0  0  0  0
  145.8778  144.0879  155.6318 H   0  0  0  0  0  0  0  0  0  0  0  0
  145.2950  142.4302  155.8703 H   0  0  0  0  0  0  0  0  0  0  0  0
  150.2441  142.5656  156.9530 H   0  0  0  0  0  0  0  0  0  0  0  0
  1  2  3  0  0  0  0
  1 19  1  0  0  0  0
  2  3  1  0  0  0  0
  3  4  1  0  0  0  0
  3 20  1  0  0  0  0
  3 21  1  0  0  0  0
  4  5  1  0  0  0  0
  4 22  1  0  0  0  0
  5  6  2  0  0  0  0
  5  7  1  0  0  0  0
  7 18  1  0  0  0  0
  7  8  2  0  0  0  0
  8  9  1  0  0  0  0
  8 23  1  0  0  0  0
  9 10  2  0  0  0  0
  9 24  1  0  0  0  0
 10 11  1  0  0  0  0
 10 17  1  0  0  0  0
 11 12  1  0  0  0  0
 11 25  1  0  0  0  0
 12 13  1  0  0  0  0
 12 14  1  0  0  0  0
 12 26  1  0  0  0  0
 13 27  1  0  0  0  0
 13 28  1  0  0  0  0
 13 29  1  0  0  0  0
 14 15  1  0  0  0  0
 14 30  1  0  0  0  0
 14 31  1  0  0  0  0
 15 16  1  0  0  0  0
 16 32  1  0  0  0  0
 16 33  1  0  0  0  0
 16 34  1  0  0  0  0
 17 18  2  0  0  0  0
 18 35  1  0  0  0  0
M  END
> <s_m_source_file>
AV-unprocessed.smi

> <i_m_source_file_index>
3239

> <i_lp_mmshare_version>
43012

> <i_f3d_flags>
0

> <s_epik_input>
W0NIXSNDW0NIMl1bTkhdQyg9TyljMVtjSF1bY0hdYyhuW2NIXTEpW05IXVtDQEhdKFtDSDNdKVtDSDJdT1tDSDNd

> <s_epik_cmdline>
J2VwaWtfcHl0aG9uJywgJy1waCcsICc3LjAnLCAnLXRuJywgJzgnLCAnLW1hJywgJzIwMCcsICctbWV0YWxfYmluZGluZycsICctaW1hZScsICc8aW5maWxlLm1hZT4nLCAnLW9tYWUnLCAnPG91dGZpbGUubWFlPic=

> <r_lp_tautomer_probability>
1

> <r_epik_Ionization_Penalty>
0.00321854

> <r_epik_Ionization_Penalty_Charging>
0

> <r_epik_Ionization_Penalty_Neutral>
0.00321854

> <r_epik_State_Penalty>
0.00226446

> <r_epik_Charging_Adjusted_Penalty>
0.00226446

> <i_epik_Tot_Q>
0

> <i_epik_Tot_abs_Q>
0

> <r_epik_Metal_State_Penalty>
-0

> <b_epik_Metal_Only>
0

> <s_lp_Force_Field>
OPLS_2005

> <r_lp_Energy>
6.06936

> <b_lp_Chiralities_Consistent>
1

> <s_lp_Variant>
AV-unprocessed.smi:3239-2

> <Gold.Version>
5.8.1

> <Gold.Id.Protein>
6NUR|6NUR_protein|mol2

> <Gold.PLP.Fitness>
43.5618

> <Gold.PLP.PLP>
-38.2797

> <Gold.PLP.part.hbond>
-1.9652

> <Gold.PLP.part.metal>
0.0000

> <Gold.PLP.part.buried>
-4.9813

> <Gold.PLP.part.nonpolar>
-31.2867

> <Gold.PLP.part.repulsive>
0.8035

> <Gold.PLP.ligand.clash>
0.0000

> <Gold.PLP.ligand.torsion>
0.6901

> <Gold.PLP.Chemscore.Hbond>
1.9913

> <Gold.PLP.Chemscore.CHOScore>
0.1949

> <Gold.PLP.Chemscore.Metal>
0.0000

> <Gold.Chemscore.Hbonds>
donor molecule, donor type, donor heavy atom, donor atom, acceptor molecule, acceptor atom, score
      L1  H    11    25       P1  7957  1.00
      P1  H  7997  8010       L1     6  1.00
      L1  C    18    35       P1  8028  0.12

> <Gold.PLP.Chemscore.Internal.Correction>
0.1039

> <Gold.Rescore>
     Score         DG    S(hbond)    S(metal)    S(lipo)     H(rot)  DE(clash)    DE(int)     intcor
     15.48     -17.57       1.94        0.00      83.51       1.62       0.25       1.84       ----

> <Gold.Chemscore.Fitness>
15.4800

> <Gold.Chemscore.DG>
-17.5731

> <Gold.Chemscore.ZeroCoef>
-5.4800

> <Gold.Chemscore.Hbond>
1.9363

> <Gold.Chemscore.Metal>
0.0000

> <Gold.Chemscore.Lipo>
83.5095

> <Gold.Chemscore.Internal_Hbond>
0.0000

> <Gold.Chemscore.DEClash>
0.2488

> <Gold.Chemscore.DEInternal>
1.8443

> <Gold.Chemscore.Rot>
1.6190

> <Gold.Chemscore.Internal.Correction>
   9.000000E+99

> <Gold.Chemscore.Hbonds>
donor molecule, donor type, donor heavy atom, donor atom, acceptor molecule, acceptor atom, score
      L1  H    11    25       P1  7957  0.94
      P1  H  7997  8010       L1     6  0.90

> <Gold.Chemscore.Hbond.Weighted>
-6.4672

> <Gold.Chemscore.Metal.Weighted>
-0.0000

> <Gold.Chemscore.Lipo.Weighted>
-9.7706

> <Gold.Chemscore.Internal_Hbond.Weighted>
0.0000

> <Gold.Chemscore.DEClash.Weighted>
0.2488

> <Gold.Chemscore.DEInternal.Weighted>
1.8443

> <Gold.Chemscore.Rot.Weighted>
4.1447

> <Gold.Chemscore.Internal.Correction.Weighted>
   9.000000E+99

> <Gold.Protein.RotatedTorsions>
[ 6907 6896 6895 6894 ] final  124.61 input  -60.11 | X-H torsion
[ 7974 7965 7964 7962 ] final   98.27 input  175.53 | X-H torsion
[ 8008 7997 7996 7995 ] final   29.15 input   59.86 | X-H torsion
[ 10167 10162 10161 10158 ] final  170.25 input  -65.29 | X-H torsion
[ 10718 10713 10712 10709 ] final -106.89 input   66.30 | X-H torsion
[ 10763 10752 10751 10750 ] final  -69.15 input  -60.55 | X-H torsion
[ 11005 11000 10999 10996 ] final   38.24 input  -57.11 | X-H torsion

> <Gold.Protein.ActiveResidues>
 VAL166  LYS551  ARG553  GLY616  TRP617  ASP618  TYR619  PRO620  LYS621  CYS622 
 ASP623  PHE694  ASN695  SER759  ASP760  ASP761  ALA762  ILE779  LEU786  VAL792 
 PHE793  MET794  SER795  GLU796  ALA797  LYS798  CYS799  TRP800  GLU811  SER814 

> <Gold.Protein.RotatedAtoms>
  152.4063  133.6894  159.6359 H   0  0  0  0  0  0  0  0  0  0  0  0  # atno 6907 bound_to 6896
  150.7948  133.8702  159.3265 H   0  0  0  0  0  0  0  0  0  0  0  0  # atno 6908 bound_to 6896
  151.6456  135.1009  160.0201 H   0  0  0  0  0  0  0  0  0  0  0  0  # atno 6909 bound_to 6896
  145.4144  139.2329  143.3231 H   0  0  0  0  0  0  0  0  0  0  0  0  # atno 7974 bound_to 7965
  155.0699  140.3199  155.4634 H   0  0  0  0  0  0  0  0  0  0  0  0  # atno 8008 bound_to 7997
  156.2793  140.2114  156.5771 H   0  0  0  0  0  0  0  0  0  0  0  0  # atno 8009 bound_to 7997
  154.7063  140.0502  157.0495 H   0  0  0  0  0  0  0  0  0  0  0  0  # atno 8010 bound_to 7997
  139.5013  144.3617  151.9817 H   0  0  0  0  0  0  0  0  0  0  0  0  # atno 10167 bound_to 10162
  156.0411  130.5635  150.7744 H   0  0  0  0  0  0  0  0  0  0  0  0  # atno 10718 bound_to 10713
  154.3992  135.6035  153.5887 H   0  0  0  0  0  0  0  0  0  0  0  0  # atno 10763 bound_to 10752
  152.9788  135.5902  154.4204 H   0  0  0  0  0  0  0  0  0  0  0  0  # atno 10764 bound_to 10752
  154.4000  135.2843  155.2080 H   0  0  0  0  0  0  0  0  0  0  0  0  # atno 10765 bound_to 10752
  140.2145  134.3715  155.8033 H   0  0  0  0  0  0  0  0  0  0  0  0  # atno 11005 bound_to 11000
  146.2689  140.4859  142.8823 LP  0  0  0  0  0  0  0  0  0  0  0  0  # atno 17320 bound_to 7965
  144.8287  140.6672  143.6305 LP  0  0  0  0  0  0  0  0  0  0  0  0  # atno 17321 bound_to 7965
  140.3054  144.3599  150.6048 LP  0  0  0  0  0  0  0  0  0  0  0  0  # atno 17342 bound_to 10162
  140.5841  143.2171  151.7374 LP  0  0  0  0  0  0  0  0  0  0  0  0  # atno 17343 bound_to 10162
  157.5229  131.0932  151.0055 LP  0  0  0  0  0  0  0  0  0  0  0  0  # atno 17370 bound_to 10713
  157.0381  130.5738  149.5352 LP  0  0  0  0  0  0  0  0  0  0  0  0  # atno 17371 bound_to 10713
  141.2225  133.7161  156.8474 LP  0  0  0  0  0  0  0  0  0  0  0  0  # atno 17394 bound_to 11000
  140.1915  134.8962  157.3065 LP  0  0  0  0  0  0  0  0  0  0  0  0  # atno 17395 bound_to 11000

$$$$
