AV-unprocessed.smi:372|AV-procd|sdf|2445|dock5
  -GOLD-   2262022383D 1   1.00000     0.00000
 Structure written by MMmdl.
 22 23  0  0  0  0  0  0  0  0  2 V2000
  149.9030  140.3975  158.1771 C   0  0  0  0  0  0  0  0  0  0  0  0
  151.4088  140.6303  157.9386 C   0  0  1  0  0  0  0  0  0  0  0  0
  151.8113  142.0906  158.2207 C   0  0  0  0  0  0  0  0  0  0  0  0
  152.7412  142.4310  159.2354 C   0  0  0  0  0  0  0  0  0  0  0  0
  153.0616  143.7866  159.4404 C   0  0  0  0  0  0  0  0  0  0  0  0
  152.4463  144.7612  158.6339 C   0  0  0  0  0  0  0  0  0  0  0  0
  151.5315  144.3330  157.6539 C   0  0  0  0  0  0  0  0  0  0  0  0
  151.2169  143.0367  157.4517 N   0  0  0  0  0  0  0  0  0  0  0  0
  152.1610  139.6724  158.7269 N   0  0  0  0  0  0  0  0  0  0  0  0
  152.9128  138.8835  157.9626 C   0  0  0  0  0  0  0  0  0  0  0  0
  153.6467  138.0246  158.4461 O   0  0  0  0  0  0  0  0  0  0  0  0
  152.7257  139.1820  156.6635 N   0  5  0  0  0  0  0  0  0  0  0  0
  151.8348  140.1886  156.5263 C   0  0  0  0  0  0  0  0  0  0  0  0
  151.3777  140.6970  155.5025 O   0  0  0  0  0  0  0  0  0  0  0  0
  149.2923  141.0440  157.5459 H   0  0  0  0  0  0  0  0  0  0  0  0
  149.6354  140.6027  159.2140 H   0  0  0  0  0  0  0  0  0  0  0  0
  149.6161  139.3674  157.9607 H   0  0  0  0  0  0  0  0  0  0  0  0
  153.2124  141.6808  159.8522 H   0  0  0  0  0  0  0  0  0  0  0  0
  153.7685  144.0733  160.2050 H   0  0  0  0  0  0  0  0  0  0  0  0
  152.6694  145.8099  158.7628 H   0  0  0  0  0  0  0  0  0  0  0  0
  151.0375  145.0511  157.0161 H   0  0  0  0  0  0  0  0  0  0  0  0
  152.1337  139.6416  159.7350 H   0  0  0  0  0  0  0  0  0  0  0  0
  1  2  1  0  0  0  0
  1 15  1  0  0  0  0
  1 16  1  0  0  0  0
  1 17  1  0  0  0  0
  2 13  1  0  0  0  0
  2  3  1  0  0  0  0
  2  9  1  0  0  0  0
  3  8  1  0  0  0  0
  3  4  2  0  0  0  0
  4  5  1  0  0  0  0
  4 18  1  0  0  0  0
  5  6  2  0  0  0  0
  5 19  1  0  0  0  0
  6  7  1  0  0  0  0
  6 20  1  0  0  0  0
  7  8  2  0  0  0  0
  7 21  1  0  0  0  0
  9 10  1  0  0  0  0
  9 22  1  0  0  0  0
 10 11  2  0  0  0  0
 10 12  1  0  0  0  0
 12 13  1  0  0  0  0
 13 14  2  0  0  0  0
M  CHG  1  12  -1
M  END
> <s_m_source_file>
AV-unprocessed.smi

> <i_m_source_file_index>
372

> <i_lp_mmshare_version>
43012

> <i_f3d_flags>
0

> <s_epik_input>
Tz1DMVtOSF1DKD1PKVtOSF1bQ0BAXTEoW0NIM10pYzJbY0hdW2NIXVtjSF1bY0hdbjI=

> <s_epik_cmdline>
J2VwaWtfcHl0aG9uJywgJy1waCcsICc3LjAnLCAnLXRuJywgJzgnLCAnLW1hJywgJzIwMCcsICctbWV0YWxfYmluZGluZycsICctaW1hZScsICc8aW5maWxlLm1hZT4nLCAnLW9tYWUnLCAnPG91dGZpbGUubWFlPic=

> <r_epik_Ionization_Penalty>
1.82492

> <r_epik_Ionization_Penalty_Charging>
1.82122

> <r_epik_Ionization_Penalty_Neutral>
0.00370144

> <r_epik_State_Penalty>
1.71448

> <r_epik_Charging_Adjusted_Penalty>
3.5357

> <i_epik_Tot_Q>
-1

> <i_epik_Tot_abs_Q>
1

> <r_epik_Metal_State_Penalty>
0.405927

> <b_epik_Metal_Only>
0

> <s_lp_Force_Field>
OPLS_2005

> <r_lp_Energy>
9.53623

> <b_lp_Chiralities_Consistent>
1

> <s_lp_Variant>
AV-unprocessed.smi:372-3

> <Gold.Version>
5.8.1

> <Gold.Id.Protein>
6NUR|6NUR_protein|mol2

> <Gold.PLP.Fitness>
38.4768

> <Gold.PLP.PLP>
-27.2646

> <Gold.PLP.part.hbond>
-2.0000

> <Gold.PLP.part.metal>
0.0000

> <Gold.PLP.part.buried>
-3.0973

> <Gold.PLP.part.nonpolar>
-22.2085

> <Gold.PLP.part.repulsive>
0.2490

> <Gold.PLP.ligand.clash>
0.0000

> <Gold.PLP.ligand.torsion>
0.0430

> <Gold.PLP.Chemscore.Hbond>
2.7680

> <Gold.PLP.Chemscore.CHOScore>
0.9709

> <Gold.PLP.Chemscore.Metal>
0.0000

> <Gold.Chemscore.Hbonds>
donor molecule, donor type, donor heavy atom, donor atom, acceptor molecule, acceptor atom, score
      P1  H  7989  7998       L1    14  0.77
      P1  H  7997  8010       L1    12  2.00
      L1  C     7    21       P1  8028  0.98

> <Gold.PLP.Chemscore.Internal.Correction>
0.0815

> <Gold.Rescore>
     Score         DG    S(hbond)    S(metal)    S(lipo)     H(rot)  DE(clash)    DE(int)     intcor
     13.75     -13.90       0.90        0.00      68.26       1.00       0.04       0.12       ----

> <Gold.Chemscore.Fitness>
13.7467

> <Gold.Chemscore.DG>
-13.9017

> <Gold.Chemscore.ZeroCoef>
-5.4800

> <Gold.Chemscore.Hbond>
0.8966

> <Gold.Chemscore.Metal>
0.0000

> <Gold.Chemscore.Lipo>
68.2646

> <Gold.Chemscore.Internal_Hbond>
0.0000

> <Gold.Chemscore.DEClash>
0.0385

> <Gold.Chemscore.DEInternal>
0.1165

> <Gold.Chemscore.Rot>
1.0000

> <Gold.Chemscore.Internal.Correction>
   9.000000E+99

> <Gold.Chemscore.Hbonds>
donor molecule, donor type, donor heavy atom, donor atom, acceptor molecule, acceptor atom, score
      P1  H  7989  7998       L1    14  0.72
      P1  H  7997  8010       L1    12  0.07

> <Gold.Chemscore.Hbond.Weighted>
-2.9947

> <Gold.Chemscore.Metal.Weighted>
-0.0000

> <Gold.Chemscore.Lipo.Weighted>
-7.9870

> <Gold.Chemscore.Internal_Hbond.Weighted>
0.0000

> <Gold.Chemscore.DEClash.Weighted>
0.0385

> <Gold.Chemscore.DEInternal.Weighted>
0.1165

> <Gold.Chemscore.Rot.Weighted>
2.5600

> <Gold.Chemscore.Internal.Correction.Weighted>
   9.000000E+99

> <Gold.Protein.RotatedTorsions>
[ 6907 6896 6895 6894 ] final  -40.80 input  -60.11 | X-H torsion
[ 7974 7965 7964 7962 ] final  -25.71 input  175.53 | X-H torsion
[ 8008 7997 7996 7995 ] final   79.65 input   59.86 | X-H torsion
[ 10167 10162 10161 10158 ] final -133.76 input  -65.29 | X-H torsion
[ 10718 10713 10712 10709 ] final  132.24 input   66.30 | X-H torsion
[ 10763 10752 10751 10750 ] final -119.25 input  -60.55 | X-H torsion
[ 11005 11000 10999 10996 ] final  113.16 input  -57.11 | X-H torsion

> <Gold.Protein.ActiveResidues>
 VAL166  LYS551  ARG553  GLY616  TRP617  ASP618  TYR619  PRO620  LYS621  CYS622 
 ASP623  PHE694  ASN695  SER759  ASP760  ASP761  ALA762  ILE779  LEU786  VAL792 
 PHE793  MET794  SER795  GLU796  ALA797  LYS798  CYS799  TRP800  GLU811  SER814 

> <Gold.Protein.RotatedAtoms>
  150.9741  134.9109  159.7805 H   0  0  0  0  0  0  0  0  0  0  0  0  # atno 6907 bound_to 6896
  152.5200  134.3500  159.9257 H   0  0  0  0  0  0  0  0  0  0  0  0  # atno 6908 bound_to 6896
  151.3508  133.3885  159.2714 H   0  0  0  0  0  0  0  0  0  0  0  0  # atno 6909 bound_to 6896
  146.1473  140.4923  142.8626 H   0  0  0  0  0  0  0  0  0  0  0  0  # atno 7974 bound_to 7965
  155.8727  140.3448  155.5832 H   0  0  0  0  0  0  0  0  0  0  0  0  # atno 8008 bound_to 7997
  155.7810  140.0858  157.2078 H   0  0  0  0  0  0  0  0  0  0  0  0  # atno 8009 bound_to 7997
  154.4018  140.1501  156.3039 H   0  0  0  0  0  0  0  0  0  0  0  0  # atno 8010 bound_to 7997
  139.8950  143.6677  152.2605 H   0  0  0  0  0  0  0  0  0  0  0  0  # atno 10167 bound_to 10162
  157.4890  131.1089  150.9582 H   0  0  0  0  0  0  0  0  0  0  0  0  # atno 10718 bound_to 10713
  154.8612  135.4245  154.2269 H   0  0  0  0  0  0  0  0  0  0  0  0  # atno 10763 bound_to 10752
  153.3262  135.6985  153.6993 H   0  0  0  0  0  0  0  0  0  0  0  0  # atno 10764 bound_to 10752
  153.6028  135.3534  155.2925 H   0  0  0  0  0  0  0  0  0  0  0  0  # atno 10765 bound_to 10752
  139.8945  134.9544  156.6696 H   0  0  0  0  0  0  0  0  0  0  0  0  # atno 11005 bound_to 11000
  144.7862  140.5940  143.6572 LP  0  0  0  0  0  0  0  0  0  0  0  0  # atno 17320 bound_to 7965
  145.4907  139.1489  143.3711 LP  0  0  0  0  0  0  0  0  0  0  0  0  # atno 17321 bound_to 7965
  139.7076  144.7625  151.1167 LP  0  0  0  0  0  0  0  0  0  0  0  0  # atno 17342 bound_to 10162
  140.7719  143.5374  150.9353 LP  0  0  0  0  0  0  0  0  0  0  0  0  # atno 17343 bound_to 10162
  157.0290  130.5704  149.5340 LP  0  0  0  0  0  0  0  0  0  0  0  0  # atno 17370 bound_to 10713
  156.0163  130.5257  150.8143 LP  0  0  0  0  0  0  0  0  0  0  0  0  # atno 17371 bound_to 10713
  140.7384  133.8999  155.8260 LP  0  0  0  0  0  0  0  0  0  0  0  0  # atno 17394 bound_to 11000
  141.0097  134.1037  157.4233 LP  0  0  0  0  0  0  0  0  0  0  0  0  # atno 17395 bound_to 11000

$$$$
