AV-unprocessed.smi:3175|AV-procd|sdf|12123|dock6
  -GOLD-   2272017563D 1   1.00000     0.00000
 Structure written by MMmdl.
 38 39  0  0  0  0  0  0  0  0  2 V2000
  152.7131  140.4209  158.0110 O   0  0  0  0  0  0  0  0  0  0  0  0
  152.0151  141.3975  158.2831 C   0  0  0  0  0  0  0  0  0  0  0  0
  152.6093  142.5835  159.0492 C   0  0  0  0  0  0  0  0  0  0  0  0
  152.5090  142.4302  160.5808 C   0  0  0  0  0  0  0  0  0  0  0  0
  152.5420  143.7641  161.3291 C   0  0  0  0  0  0  0  0  0  0  0  0
  152.8870  143.3902  162.7732 C   0  0  0  0  0  0  0  0  0  0  0  0
  153.6801  142.0769  162.6953 C   0  0  0  0  0  0  0  0  0  0  0  0
  153.6581  141.6432  161.2240 C   0  0  0  0  0  0  0  0  0  0  0  0
  150.7180  141.4889  157.9524 N   0  0  0  0  0  0  0  0  0  0  0  0
  149.9636  140.4733  157.2234 C   0  0  0  0  0  0  0  0  0  0  0  0
  150.4832  140.2487  155.7894 C   0  0  0  0  0  0  0  0  0  0  0  0
  149.3770  140.0879  154.7609 C   0  0  0  0  0  0  0  0  0  0  0  0
  148.5438  141.1781  154.4270 C   0  0  0  0  0  0  0  0  0  0  0  0
  147.5205  140.9995  153.4728 C   0  0  0  0  0  0  0  0  0  0  0  0
  147.3537  139.7341  152.8736 C   0  0  0  0  0  0  0  0  0  0  0  0
  148.1704  138.7142  153.2178 N   0  3  0  0  0  0  0  0  0  0  0  0
  149.1622  138.8450  154.1258 C   0  0  0  0  0  0  0  0  0  0  0  0
  153.6513  142.7264  158.7583 H   0  0  0  0  0  0  0  0  0  0  0  0
  152.0777  143.4829  158.7370 H   0  0  0  0  0  0  0  0  0  0  0  0
  151.5704  141.9333  160.8338 H   0  0  0  0  0  0  0  0  0  0  0  0
  153.3278  144.4020  160.9216 H   0  0  0  0  0  0  0  0  0  0  0  0
  151.6008  144.3097  161.2544 H   0  0  0  0  0  0  0  0  0  0  0  0
  153.4468  144.1813  163.2729 H   0  0  0  0  0  0  0  0  0  0  0  0
  151.9701  143.2296  163.3419 H   0  0  0  0  0  0  0  0  0  0  0  0
  154.7041  142.2045  163.0476 H   0  0  0  0  0  0  0  0  0  0  0  0
  153.2116  141.3200  163.3254 H   0  0  0  0  0  0  0  0  0  0  0  0
  153.5381  140.5648  161.1141 H   0  0  0  0  0  0  0  0  0  0  0  0
  154.6040  141.9172  160.7541 H   0  0  0  0  0  0  0  0  0  0  0  0
  150.2206  142.3285  158.2123 H   0  0  0  0  0  0  0  0  0  0  0  0
  150.0416  139.5436  157.7875 H   0  0  0  0  0  0  0  0  0  0  0  0
  148.9040  140.7334  157.2066 H   0  0  0  0  0  0  0  0  0  0  0  0
  151.1186  141.0851  155.4958 H   0  0  0  0  0  0  0  0  0  0  0  0
  151.1223  139.3653  155.7619 H   0  0  0  0  0  0  0  0  0  0  0  0
  148.6852  142.1403  154.8976 H   0  0  0  0  0  0  0  0  0  0  0  0
  146.8732  141.8217  153.2047 H   0  0  0  0  0  0  0  0  0  0  0  0
  146.5978  139.5089  152.1355 H   0  0  0  0  0  0  0  0  0  0  0  0
  149.7458  137.9564  154.3194 H   0  0  0  0  0  0  0  0  0  0  0  0
  148.0328  137.8064  152.7728 H   0  0  0  0  0  0  0  0  0  0  0  0
  1  2  2  0  0  0  0
  2  3  1  0  0  0  0
  2  9  1  0  0  0  0
  3  4  1  0  0  0  0
  3 18  1  0  0  0  0
  3 19  1  0  0  0  0
  4  8  1  0  0  0  0
  4  5  1  0  0  0  0
  4 20  1  0  0  0  0
  5  6  1  0  0  0  0
  5 21  1  0  0  0  0
  5 22  1  0  0  0  0
  6  7  1  0  0  0  0
  6 23  1  0  0  0  0
  6 24  1  0  0  0  0
  7  8  1  0  0  0  0
  7 25  1  0  0  0  0
  7 26  1  0  0  0  0
  8 27  1  0  0  0  0
  8 28  1  0  0  0  0
  9 10  1  0  0  0  0
  9 29  1  0  0  0  0
 10 11  1  0  0  0  0
 10 30  1  0  0  0  0
 10 31  1  0  0  0  0
 11 12  1  0  0  0  0
 11 32  1  0  0  0  0
 11 33  1  0  0  0  0
 12 17  1  0  0  0  0
 12 13  2  0  0  0  0
 13 14  1  0  0  0  0
 13 34  1  0  0  0  0
 14 15  2  0  0  0  0
 14 35  1  0  0  0  0
 15 16  1  0  0  0  0
 15 36  1  0  0  0  0
 16 17  2  0  0  0  0
 16 38  1  0  0  0  0
 17 37  1  0  0  0  0
M  CHG  1  16   1
M  END
> <s_m_source_file>
AV-unprocessed.smi

> <i_m_source_file_index>
3175

> <i_lp_mmshare_version>
43012

> <i_f3d_flags>
0

> <s_epik_input>
W0NIMl0xW0NIMl1bQ0gyXVtDSDJdW0NIXTFbQ0gyXUMoPU8pW05IXVtDSDJdW0NIMl1jMltjSF1bY0hdW2NIXW5bY0hdMg==

> <s_epik_cmdline>
J2VwaWtfcHl0aG9uJywgJy1waCcsICc3LjAnLCAnLXRuJywgJzgnLCAnLW1hJywgJzIwMCcsICctbWV0YWxfYmluZGluZycsICctaW1hZScsICc8aW5maWxlLm1hZT4nLCAnLW9tYWUnLCAnPG91dGZpbGUubWFlPic=

> <r_epik_Ionization_Penalty>
2.25127

> <r_epik_Ionization_Penalty_Charging>
2.25127

> <r_epik_Ionization_Penalty_Neutral>
2.03742e-08

> <r_epik_State_Penalty>
2.39841

> <r_epik_Charging_Adjusted_Penalty>
4.64968

> <i_epik_Tot_Q>
1

> <i_epik_Tot_abs_Q>
1

> <r_epik_Metal_State_Penalty>
2.41158

> <b_epik_Metal_Only>
0

> <s_lp_Force_Field>
OPLS_2005

> <r_lp_Energy>
27.035

> <b_lp_Chiralities_Consistent>
1

> <s_lp_Variant>
AV-unprocessed.smi:3175-2

> <Gold.Version>
5.8.1

> <Gold.Id.Protein>
6NUR|6NUR_protein|mol2

> <Gold.PLP.Fitness>
46.9234

> <Gold.PLP.PLP>
-40.8291

> <Gold.PLP.part.hbond>
-3.0000

> <Gold.PLP.part.metal>
0.0000

> <Gold.PLP.part.buried>
0.5673

> <Gold.PLP.part.nonpolar>
-38.1387

> <Gold.PLP.part.repulsive>
0.1272

> <Gold.PLP.ligand.clash>
0.0000

> <Gold.PLP.ligand.torsion>
1.0117

> <Gold.PLP.Chemscore.Hbond>
2.7020

> <Gold.PLP.Chemscore.CHOScore>
0.0000

> <Gold.PLP.Chemscore.Metal>
0.0000

> <Gold.Chemscore.Hbonds>
donor molecule, donor type, donor heavy atom, donor atom, acceptor molecule, acceptor atom, score
      L1  H    16    38       P1  7948  1.79
      P1  H  7997  8009       L1     1  0.69

> <Gold.PLP.Chemscore.Internal.Correction>
0.0117

> <Gold.Rescore>
     Score         DG    S(hbond)    S(metal)    S(lipo)     H(rot)  DE(clash)    DE(int)     intcor
     18.72     -20.36       1.73        0.00     112.61       1.59       0.75       0.89       ----

> <Gold.Chemscore.Fitness>
18.7218

> <Gold.Chemscore.DG>
-20.3609

> <Gold.Chemscore.ZeroCoef>
-5.4800

> <Gold.Chemscore.Hbond>
1.7320

> <Gold.Chemscore.Metal>
0.0000

> <Gold.Chemscore.Lipo>
112.6068

> <Gold.Chemscore.Internal_Hbond>
0.0000

> <Gold.Chemscore.DEClash>
0.7466

> <Gold.Chemscore.DEInternal>
0.8925

> <Gold.Chemscore.Rot>
1.5933

> <Gold.Chemscore.Internal.Correction>
   9.000000E+99

> <Gold.Chemscore.Hbonds>
donor molecule, donor type, donor heavy atom, donor atom, acceptor molecule, acceptor atom, score
      L1  H    16    38       P1  7948  0.82
      P1  H  7997  8009       L1     1  0.66

> <Gold.Chemscore.Hbond.Weighted>
-5.7848

> <Gold.Chemscore.Metal.Weighted>
-0.0000

> <Gold.Chemscore.Lipo.Weighted>
-13.1750

> <Gold.Chemscore.Internal_Hbond.Weighted>
0.0000

> <Gold.Chemscore.DEClash.Weighted>
0.7466

> <Gold.Chemscore.DEInternal.Weighted>
0.8925

> <Gold.Chemscore.Rot.Weighted>
4.0789

> <Gold.Chemscore.Internal.Correction.Weighted>
   9.000000E+99

> <Gold.Protein.RotatedTorsions>
[ 6907 6896 6895 6894 ] final -144.19 input  -60.11 | X-H torsion
[ 7974 7965 7964 7962 ] final  -94.07 input  175.53 | X-H torsion
[ 8008 7997 7996 7995 ] final  165.81 input   59.86 | X-H torsion
[ 10167 10162 10161 10158 ] final  -97.48 input  -65.29 | X-H torsion
[ 10718 10713 10712 10709 ] final  -35.56 input   66.30 | X-H torsion
[ 10763 10752 10751 10750 ] final   13.01 input  -60.55 | X-H torsion
[ 11005 11000 10999 10996 ] final  166.04 input  -57.11 | X-H torsion

> <Gold.Protein.ActiveResidues>
 VAL166  LYS551  ARG553  GLY616  TRP617  ASP618  TYR619  PRO620  LYS621  CYS622 
 ASP623  PHE694  ASN695  SER759  ASP760  ASP761  ALA762  ILE779  LEU786  VAL792 
 PHE793  MET794  SER795  GLU796  ALA797  LYS798  CYS799  TRP800  GLU811  SER814 

> <Gold.Protein.RotatedAtoms>
  151.1107  133.5175  159.2605 H   0  0  0  0  0  0  0  0  0  0  0  0  # atno 6907 bound_to 6896
  151.1970  135.0426  159.8866 H   0  0  0  0  0  0  0  0  0  0  0  0  # atno 6908 bound_to 6896
  152.5450  134.0940  159.8342 H   0  0  0  0  0  0  0  0  0  0  0  0  # atno 6909 bound_to 6896
  145.3781  140.9514  143.2409 H   0  0  0  0  0  0  0  0  0  0  0  0  # atno 7974 bound_to 7965
  156.1770  140.1660  156.8344 H   0  0  0  0  0  0  0  0  0  0  0  0  # atno 8008 bound_to 7997
  154.5318  140.0755  156.8392 H   0  0  0  0  0  0  0  0  0  0  0  0  # atno 8009 bound_to 7997
  155.3391  140.3383  155.4241 H   0  0  0  0  0  0  0  0  0  0  0  0  # atno 8010 bound_to 7997
  140.2830  143.3270  152.0422 H   0  0  0  0  0  0  0  0  0  0  0  0  # atno 10167 bound_to 10162
  156.3371  130.4288  149.7820 H   0  0  0  0  0  0  0  0  0  0  0  0  # atno 10718 bound_to 10713
  153.1764  135.6821  153.8537 H   0  0  0  0  0  0  0  0  0  0  0  0  # atno 10763 bound_to 10752
  153.7883  135.3172  155.3376 H   0  0  0  0  0  0  0  0  0  0  0  0  # atno 10764 bound_to 10752
  154.8032  135.4765  154.0420 H   0  0  0  0  0  0  0  0  0  0  0  0  # atno 10765 bound_to 10752
  140.2624  134.7892  157.3601 H   0  0  0  0  0  0  0  0  0  0  0  0  # atno 11005 bound_to 11000
  144.8527  139.5296  143.6849 LP  0  0  0  0  0  0  0  0  0  0  0  0  # atno 17320 bound_to 7965
  146.2855  139.6991  142.9199 LP  0  0  0  0  0  0  0  0  0  0  0  0  # atno 17321 bound_to 7965
  139.4957  144.6579  151.6532 LP  0  0  0  0  0  0  0  0  0  0  0  0  # atno 17342 bound_to 10162
  140.5796  143.9969  150.6261 LP  0  0  0  0  0  0  0  0  0  0  0  0  # atno 17343 bound_to 10162
  156.5070  130.8155  151.3154 LP  0  0  0  0  0  0  0  0  0  0  0  0  # atno 17370 bound_to 10713
  157.7440  130.9926  150.2642 LP  0  0  0  0  0  0  0  0  0  0  0  0  # atno 17371 bound_to 10713
  140.1452  134.4920  155.8001 LP  0  0  0  0  0  0  0  0  0  0  0  0  # atno 17394 bound_to 11000
  141.2188  133.6841  156.7281 LP  0  0  0  0  0  0  0  0  0  0  0  0  # atno 17395 bound_to 11000

$$$$
