AV-unprocessed.smi:2225|AV-procd|sdf|9000|dock1
  -GOLD-   2272012213D 1   1.00000     0.00000
 Structure written by MMmdl.
 33 34  0  0  0  0  0  0  0  0  1 V2000
  149.1379  139.9384  156.1093 O   0  0  0  0  0  0  0  0  0  0  0  0
  149.4366  141.1318  156.1132 C   0  0  0  0  0  0  0  0  0  0  0  0
  150.9232  141.5283  156.1312 C   0  0  0  0  0  0  0  0  0  0  0  0
  151.4556  141.8929  157.4573 N   0  0  0  0  0  0  0  0  0  0  0  0
  151.0099  143.1088  158.0054 C   0  0  0  0  0  0  0  0  0  0  0  0
  151.4272  143.5379  159.2039 C   0  0  0  0  0  0  0  0  0  0  0  0
  152.3619  142.7172  159.9344 C   0  0  0  0  0  0  0  0  0  0  0  0
  152.8055  141.5403  159.4352 C   0  0  0  0  0  0  0  0  0  0  0  0
  153.7918  140.6582  160.1972 C   0  0  0  0  0  0  0  0  0  0  0  0
  153.3759  139.3910  160.2114 F   0  0  0  0  0  0  0  0  0  0  0  0
  154.9938  140.6961  159.6211 F   0  0  0  0  0  0  0  0  0  0  0  0
  153.9334  141.0535  161.4633 F   0  0  0  0  0  0  0  0  0  0  0  0
  152.3306  141.0719  158.1171 C   0  0  0  0  0  0  0  0  0  0  0  0
  152.6920  140.0003  157.6284 O   0  0  0  0  0  0  0  0  0  0  0  0
  148.5149  142.1095  156.0957 N   0  0  0  0  0  0  0  0  0  0  0  0
  147.0713  141.9028  156.0639 C   0  0  1  0  0  0  0  0  0  0  0  0
  146.3726  142.6329  157.2089 C   0  0  0  0  0  0  0  0  0  0  0  0
  145.4768  143.6530  156.5096 C   0  0  0  0  0  0  0  0  0  0  0  0
  145.2080  143.0511  155.2554 O   0  0  0  0  0  0  0  0  0  0  0  0
  146.4334  142.5000  154.8016 C   0  0  0  0  0  0  0  0  0  0  0  0
  151.5034  140.7122  155.6972 H   0  0  0  0  0  0  0  0  0  0  0  0
  151.0551  142.3600  155.4372 H   0  0  0  0  0  0  0  0  0  0  0  0
  150.3073  143.6595  157.3966 H   0  0  0  0  0  0  0  0  0  0  0  0
  151.0717  144.4721  159.6130 H   0  0  0  0  0  0  0  0  0  0  0  0
  152.7049  143.0647  160.8975 H   0  0  0  0  0  0  0  0  0  0  0  0
  148.8380  143.0660  156.0979 H   0  0  0  0  0  0  0  0  0  0  0  0
  146.8430  140.8376  156.1331 H   0  0  0  0  0  0  0  0  0  0  0  0
  145.7603  141.9276  157.7718 H   0  0  0  0  0  0  0  0  0  0  0  0
  147.0579  143.1081  157.9124 H   0  0  0  0  0  0  0  0  0  0  0  0
  144.5608  143.8603  157.0632 H   0  0  0  0  0  0  0  0  0  0  0  0
  146.0069  144.5944  156.3558 H   0  0  0  0  0  0  0  0  0  0  0  0
  147.0451  143.3019  154.3837 H   0  0  0  0  0  0  0  0  0  0  0  0
  146.2727  141.7557  154.0214 H   0  0  0  0  0  0  0  0  0  0  0  0
  1  2  2  0  0  0  0
  2  3  1  0  0  0  0
  2 15  1  0  0  0  0
  3  4  1  0  0  0  0
  3 21  1  0  0  0  0
  3 22  1  0  0  0  0
  4 13  1  0  0  0  0
  4  5  1  0  0  0  0
  5  6  2  0  0  0  0
  5 23  1  0  0  0  0
  6  7  1  0  0  0  0
  6 24  1  0  0  0  0
  7  8  2  0  0  0  0
  7 25  1  0  0  0  0
  8  9  1  0  0  0  0
  8 13  1  0  0  0  0
  9 10  1  0  0  0  0
  9 11  1  0  0  0  0
  9 12  1  0  0  0  0
 13 14  2  0  0  0  0
 15 16  1  0  0  0  0
 15 26  1  0  0  0  0
 16 20  1  0  0  0  0
 16 17  1  0  0  0  0
 16 27  1  0  0  0  0
 17 18  1  0  0  0  0
 17 28  1  0  0  0  0
 17 29  1  0  0  0  0
 18 19  1  0  0  0  0
 18 30  1  0  0  0  0
 18 31  1  0  0  0  0
 19 20  1  0  0  0  0
 20 32  1  0  0  0  0
 20 33  1  0  0  0  0
M  END
> <s_m_source_file>
AV-unprocessed.smi

> <i_m_source_file_index>
2225

> <i_lp_mmshare_version>
43012

> <i_f3d_flags>
0

> <s_epik_input>
W0NIMl0xT1tDSDJdW0NIMl1bQ0BIXTFbTkhdQyg9TylbQ0gyXW4yW2NIXVtjSF1bY0hdYyhDKEYpKEYpRiljMj1P

> <s_epik_cmdline>
J2VwaWtfcHl0aG9uJywgJy1waCcsICc3LjAnLCAnLXRuJywgJzgnLCAnLW1hJywgJzIwMCcsICctbWV0YWxfYmluZGluZycsICctaW1hZScsICc8aW5maWxlLm1hZT4nLCAnLW9tYWUnLCAnPG91dGZpbGUubWFlPic=

> <r_lp_tautomer_probability>
1

> <r_epik_Ionization_Penalty>
3.32109e-08

> <r_epik_Ionization_Penalty_Charging>
1.91399e-09

> <r_epik_Ionization_Penalty_Neutral>
3.1297e-08

> <r_epik_State_Penalty>
-0

> <r_epik_Charging_Adjusted_Penalty>
1.91399e-09

> <i_epik_Tot_Q>
0

> <i_epik_Tot_abs_Q>
0

> <r_epik_Metal_State_Penalty>
-0

> <b_epik_Metal_Only>
0

> <s_lp_Force_Field>
OPLS_2005

> <r_lp_Energy>
24.9921

> <b_lp_Chiralities_Consistent>
1

> <s_lp_Variant>
AV-unprocessed.smi:2225-2

> <Gold.Version>
5.8.1

> <Gold.Id.Protein>
6NUR|6NUR_protein|mol2

> <Gold.PLP.Fitness>
45.4632

> <Gold.PLP.PLP>
-37.6563

> <Gold.PLP.part.hbond>
-2.0000

> <Gold.PLP.part.metal>
0.0000

> <Gold.PLP.part.buried>
-5.1092

> <Gold.PLP.part.nonpolar>
-30.4317

> <Gold.PLP.part.repulsive>
0.2537

> <Gold.PLP.ligand.clash>
0.0000

> <Gold.PLP.ligand.torsion>
0.8215

> <Gold.PLP.Chemscore.Hbond>
1.9920

> <Gold.PLP.Chemscore.CHOScore>
1.0000

> <Gold.PLP.Chemscore.Metal>
0.0000

> <Gold.Chemscore.Hbonds>
donor molecule, donor type, donor heavy atom, donor atom, acceptor molecule, acceptor atom, score
      L1  H    15    26       P1  8028  1.00
      P1  H  7997  8010       L1    14  1.00
      L1  C     5    23       P1  8028  1.00

> <Gold.PLP.Chemscore.Internal.Correction>
0.4738

> <Gold.Rescore>
     Score         DG    S(hbond)    S(metal)    S(lipo)     H(rot)  DE(clash)    DE(int)     intcor
     13.67     -15.95       1.94        0.00      69.87       1.64       0.00       2.28       ----

> <Gold.Chemscore.Fitness>
13.6731

> <Gold.Chemscore.DG>
-15.9504

> <Gold.Chemscore.ZeroCoef>
-5.4800

> <Gold.Chemscore.Hbond>
1.9435

> <Gold.Chemscore.Metal>
0.0000

> <Gold.Chemscore.Lipo>
69.8690

> <Gold.Chemscore.Internal_Hbond>
0.0000

> <Gold.Chemscore.DEClash>
0.0000

> <Gold.Chemscore.DEInternal>
2.2774

> <Gold.Chemscore.Rot>
1.6389

> <Gold.Chemscore.Internal.Correction>
   9.000000E+99

> <Gold.Chemscore.Hbonds>
donor molecule, donor type, donor heavy atom, donor atom, acceptor molecule, acceptor atom, score
      L1  H    15    26       P1  8028  0.99
      P1  H  7997  8010       L1    14  0.84

> <Gold.Chemscore.Hbond.Weighted>
-6.4913

> <Gold.Chemscore.Metal.Weighted>
-0.0000

> <Gold.Chemscore.Lipo.Weighted>
-8.1747

> <Gold.Chemscore.Internal_Hbond.Weighted>
0.0000

> <Gold.Chemscore.DEClash.Weighted>
0.0000

> <Gold.Chemscore.DEInternal.Weighted>
2.2774

> <Gold.Chemscore.Rot.Weighted>
4.1956

> <Gold.Chemscore.Internal.Correction.Weighted>
   9.000000E+99

> <Gold.Protein.RotatedTorsions>
[ 6907 6896 6895 6894 ] final -109.12 input  -60.11 | X-H torsion
[ 7974 7965 7964 7962 ] final   60.29 input  175.53 | X-H torsion
[ 8008 7997 7996 7995 ] final   47.11 input   59.86 | X-H torsion
[ 10167 10162 10161 10158 ] final  -67.47 input  -65.29 | X-H torsion
[ 10718 10713 10712 10709 ] final   69.99 input   66.30 | X-H torsion
[ 10763 10752 10751 10750 ] final   50.72 input  -60.55 | X-H torsion
[ 11005 11000 10999 10996 ] final   86.79 input  -57.11 | X-H torsion

> <Gold.Protein.ActiveResidues>
 VAL166  LYS551  ARG553  GLY616  TRP617  ASP618  TYR619  PRO620  LYS621  CYS622 
 ASP623  PHE694  ASN695  SER759  ASP760  ASP761  ALA762  ILE779  LEU786  VAL792 
 PHE793  MET794  SER795  GLU796  ALA797  LYS798  CYS799  TRP800  GLU811  SER814 

> <Gold.Protein.RotatedAtoms>
  150.7542  133.9576  159.3505 H   0  0  0  0  0  0  0  0  0  0  0  0  # atno 6907 bound_to 6896
  151.7499  135.0833  160.0338 H   0  0  0  0  0  0  0  0  0  0  0  0  # atno 6908 bound_to 6896
  152.3473  133.6100  159.5955 H   0  0  0  0  0  0  0  0  0  0  0  0  # atno 6909 bound_to 6896
  145.8976  139.3557  143.0612 H   0  0  0  0  0  0  0  0  0  0  0  0  # atno 7974 bound_to 7965
  155.3636  140.3420  155.4241 H   0  0  0  0  0  0  0  0  0  0  0  0  # atno 8008 bound_to 7997
  156.1700  140.1629  156.8498 H   0  0  0  0  0  0  0  0  0  0  0  0  # atno 8009 bound_to 7997
  154.5224  140.0764  156.8178 H   0  0  0  0  0  0  0  0  0  0  0  0  # atno 8010 bound_to 7997
  140.5580  143.2312  151.6782 H   0  0  0  0  0  0  0  0  0  0  0  0  # atno 10167 bound_to 10162
  157.6376  130.9454  150.0590 H   0  0  0  0  0  0  0  0  0  0  0  0  # atno 10718 bound_to 10713
  152.9784  135.5869  154.4299 H   0  0  0  0  0  0  0  0  0  0  0  0  # atno 10763 bound_to 10752
  154.3913  135.2768  155.2155 H   0  0  0  0  0  0  0  0  0  0  0  0  # atno 10764 bound_to 10752
  154.4026  135.6100  153.5960 H   0  0  0  0  0  0  0  0  0  0  0  0  # atno 10765 bound_to 10752
  139.8935  134.8379  156.2770 H   0  0  0  0  0  0  0  0  0  0  0  0  # atno 11005 bound_to 11000
  145.8831  140.9351  143.0591 LP  0  0  0  0  0  0  0  0  0  0  0  0  # atno 17320 bound_to 7965
  144.6734  140.0806  143.7469 LP  0  0  0  0  0  0  0  0  0  0  0  0  # atno 17321 bound_to 7965
  139.5057  144.3708  152.0472 LP  0  0  0  0  0  0  0  0  0  0  0  0  # atno 17342 bound_to 10162
  140.2832  144.3837  150.6112 LP  0  0  0  0  0  0  0  0  0  0  0  0  # atno 17343 bound_to 10162
  156.1628  130.3644  149.9274 LP  0  0  0  0  0  0  0  0  0  0  0  0  # atno 17370 bound_to 10713
  156.7268  130.9028  151.3622 LP  0  0  0  0  0  0  0  0  0  0  0  0  # atno 17371 bound_to 10713
  141.0063  133.7121  156.1041 LP  0  0  0  0  0  0  0  0  0  0  0  0  # atno 17394 bound_to 11000
  140.7428  134.4131  157.5552 LP  0  0  0  0  0  0  0  0  0  0  0  0  # atno 17395 bound_to 11000

$$$$
