AV-unprocessed.smi:720|AV-procd|sdf|3501|dock10
  -GOLD-   22720 0493D 1   1.00000     0.00000
 Structure written by MMmdl.
 46 48  0  0  0  0  0  0  0  0  1 V2000
  144.1137  137.1575  153.0781 C   0  0  0  0  0  0  0  0  0  0  0  0
  145.2964  137.0612  152.2308 N   0  0  0  0  0  0  0  0  0  0  0  0
  145.4734  135.6645  151.8556 C   0  0  0  0  0  0  0  0  0  0  0  0
  146.5031  137.5256  152.9170 C   0  0  0  0  0  0  0  0  0  0  0  0
  146.6720  139.0601  152.9021 C   0  0  0  0  0  0  0  0  0  0  0  0
  147.7498  139.5319  153.7549 N   0  0  0  0  0  0  0  0  0  0  0  0
  148.9750  138.9411  153.9953 C   0  0  0  0  0  0  0  0  0  0  0  0
  149.6697  139.7602  154.8393 C   0  0  0  0  0  0  0  0  0  0  0  0
  148.7756  140.8455  155.0499 C   0  0  0  0  0  0  0  0  0  0  0  0
  149.1408  141.9303  155.8865 N   0  0  0  0  0  0  0  0  0  0  0  0
  149.7281  141.8765  157.0981 C   0  0  0  0  0  0  0  0  0  0  0  0
  150.0695  140.8392  157.6636 O   0  0  0  0  0  0  0  0  0  0  0  0
  149.9389  143.0792  157.6623 N   0  0  0  0  0  0  0  0  0  0  0  0
  150.5504  143.3708  158.9608 C   0  0  2  0  0  0  0  0  0  0  0  0
  150.3596  144.8399  159.4063 C   0  0  0  0  0  0  0  0  0  0  0  0
  151.8064  145.3312  159.5960 C   0  0  1  0  0  0  0  0  0  0  0  0
  152.4330  144.6328  160.8189 C   0  0  0  0  0  0  0  0  0  0  0  0
  152.6512  143.1918  160.3162 C   0  0  0  0  0  0  0  0  0  0  0  0
  152.0879  143.2481  158.8840 C   0  0  2  0  0  0  0  0  0  0  0  0
  152.5192  144.6430  158.4403 C   0  0  0  0  0  0  0  0  0  0  0  0
  147.6322  140.7177  154.3916 N   0  0  0  0  0  0  0  0  0  0  0  0
  143.8687  138.1951  153.2962 H   0  0  0  0  0  0  0  0  0  0  0  0
  144.2543  136.6286  154.0220 H   0  0  0  0  0  0  0  0  0  0  0  0
  143.2468  136.7289  152.5739 H   0  0  0  0  0  0  0  0  0  0  0  0
  146.3280  135.5491  151.1879 H   0  0  0  0  0  0  0  0  0  0  0  0
  144.5941  135.2940  151.3274 H   0  0  0  0  0  0  0  0  0  0  0  0
  145.6363  135.0345  152.7316 H   0  0  0  0  0  0  0  0  0  0  0  0
  146.5542  137.1265  153.9312 H   0  0  0  0  0  0  0  0  0  0  0  0
  147.3604  137.1093  152.3861 H   0  0  0  0  0  0  0  0  0  0  0  0
  146.9098  139.3805  151.8872 H   0  0  0  0  0  0  0  0  0  0  0  0
  145.7382  139.5590  153.1680 H   0  0  0  0  0  0  0  0  0  0  0  0
  149.2469  137.9951  153.5507 H   0  0  0  0  0  0  0  0  0  0  0  0
  150.6610  139.6069  155.2395 H   0  0  0  0  0  0  0  0  0  0  0  0
  148.9353  142.8506  155.5264 H   0  0  0  0  0  0  0  0  0  0  0  0
  149.6669  143.8840  157.1163 H   0  0  0  0  0  0  0  0  0  0  0  0
  150.1579  142.6756  159.7053 H   0  0  0  0  0  0  0  0  0  0  0  0
  149.8574  145.4309  158.6386 H   0  0  0  0  0  0  0  0  0  0  0  0
  149.7722  144.9211  160.3215 H   0  0  0  0  0  0  0  0  0  0  0  0
  151.9007  146.4173  159.6147 H   0  0  0  0  0  0  0  0  0  0  0  0
  153.3849  145.0937  161.0855 H   0  0  0  0  0  0  0  0  0  0  0  0
  151.7838  144.6744  161.6942 H   0  0  0  0  0  0  0  0  0  0  0  0
  153.7142  142.9473  160.3045 H   0  0  0  0  0  0  0  0  0  0  0  0
  152.1459  142.4509  160.9369 H   0  0  0  0  0  0  0  0  0  0  0  0
  152.4389  142.4324  158.2509 H   0  0  0  0  0  0  0  0  0  0  0  0
  152.1304  144.9278  157.4611 H   0  0  0  0  0  0  0  0  0  0  0  0
  153.6014  144.7863  158.4508 H   0  0  0  0  0  0  0  0  0  0  0  0
  1  2  1  0  0  0  0
  1 22  1  0  0  0  0
  1 23  1  0  0  0  0
  1 24  1  0  0  0  0
  2  3  1  0  0  0  0
  2  4  1  0  0  0  0
  3 25  1  0  0  0  0
  3 26  1  0  0  0  0
  3 27  1  0  0  0  0
  4  5  1  0  0  0  0
  4 28  1  0  0  0  0
  4 29  1  0  0  0  0
  5  6  1  0  0  0  0
  5 30  1  0  0  0  0
  5 31  1  0  0  0  0
  6 21  1  0  0  0  0
  6  7  1  0  0  0  0
  7  8  2  0  0  0  0
  7 32  1  0  0  0  0
  8  9  1  0  0  0  0
  8 33  1  0  0  0  0
  9 10  1  0  0  0  0
  9 21  2  0  0  0  0
 10 11  1  0  0  0  0
 10 34  1  0  0  0  0
 11 12  2  0  0  0  0
 11 13  1  0  0  0  0
 13 14  1  0  0  0  0
 13 35  1  0  0  0  0
 14 19  1  0  0  0  0
 14 15  1  0  0  0  0
 14 36  1  0  0  0  0
 15 16  1  0  0  0  0
 15 37  1  0  0  0  0
 15 38  1  0  0  0  0
 16 20  1  0  0  0  0
 16 17  1  0  0  0  0
 16 39  1  0  0  0  0
 17 18  1  0  0  0  0
 17 40  1  0  0  0  0
 17 41  1  0  0  0  0
 18 19  1  0  0  0  0
 18 42  1  0  0  0  0
 18 43  1  0  0  0  0
 19 20  1  0  0  0  0
 19 44  1  0  0  0  0
 20 45  1  0  0  0  0
 20 46  1  0  0  0  0
M  END
> <s_m_source_file>
AV-unprocessed.smi

> <i_m_source_file_index>
720

> <i_lp_mmshare_version>
43012

> <i_f3d_flags>
0

> <s_epik_input>
W0NIM11OKFtDSDNdKVtDSDJdW0NIMl1uMVtjSF1bY0hdYyhuMSlbTkhdQyg9TylbTkhdW0NASF0oW0NIMl1bQ0BIXTIzKVtDQEhdKFtDSDJdMylbQ0gyXVtDSDJdMg==

> <s_epik_cmdline>
J2VwaWtfcHl0aG9uJywgJy1waCcsICc3LjAnLCAnLXRuJywgJzgnLCAnLW1hJywgJzIwMCcsICctbWV0YWxfYmluZGluZycsICctaW1hZScsICc8aW5maWxlLm1hZT4nLCAnLW9tYWUnLCAnPG91dGZpbGUubWFlPic=

> <r_lp_tautomer_probability>
1

> <r_epik_Ionization_Penalty>
1.83819

> <r_epik_Ionization_Penalty_Charging>
0

> <r_epik_Ionization_Penalty_Neutral>
1.83819

> <r_epik_State_Penalty>
1.95467

> <r_epik_Charging_Adjusted_Penalty>
1.95467

> <i_epik_Tot_Q>
0

> <i_epik_Tot_abs_Q>
0

> <r_epik_Metal_State_Penalty>
1.95467

> <b_epik_Metal_Only>
0

> <s_lp_Force_Field>
OPLS_2005

> <r_lp_Energy>
62.6494

> <b_lp_Chiralities_Consistent>
1

> <s_lp_Variant>
AV-unprocessed.smi:720-7

> <Gold.Version>
5.8.1

> <Gold.Id.Protein>
6NUR|6NUR_protein|mol2

> <Gold.PLP.Fitness>
47.2892

> <Gold.PLP.PLP>
-40.5152

> <Gold.PLP.part.hbond>
-2.0000

> <Gold.PLP.part.metal>
0.0000

> <Gold.PLP.part.buried>
-1.1703

> <Gold.PLP.part.nonpolar>
-38.8777

> <Gold.PLP.part.repulsive>
0.9552

> <Gold.PLP.ligand.clash>
0.0000

> <Gold.PLP.ligand.torsion>
1.1322

> <Gold.PLP.Chemscore.Hbond>
2.0000

> <Gold.PLP.Chemscore.CHOScore>
1.0000

> <Gold.PLP.Chemscore.Metal>
0.0000

> <Gold.Chemscore.Hbonds>
donor molecule, donor type, donor heavy atom, donor atom, acceptor molecule, acceptor atom, score
      L1  H    10    34       P1  8028  1.00
      L1  H    13    35       P1  8028  1.00
      L1  C     7    32       P1  7948  1.00

> <Gold.PLP.Chemscore.Internal.Correction>
0.0384

> <Gold.Rescore>
     Score         DG    S(hbond)    S(metal)    S(lipo)     H(rot)  DE(clash)    DE(int)     intcor
     17.94     -20.41       1.77        0.00     110.57       1.53       0.85       1.62       ----

> <Gold.Chemscore.Fitness>
17.9361

> <Gold.Chemscore.DG>
-20.4122

> <Gold.Chemscore.ZeroCoef>
-5.4800

> <Gold.Chemscore.Hbond>
1.7709

> <Gold.Chemscore.Metal>
0.0000

> <Gold.Chemscore.Lipo>
110.5742

> <Gold.Chemscore.Internal_Hbond>
0.0000

> <Gold.Chemscore.DEClash>
0.8531

> <Gold.Chemscore.DEInternal>
1.6231

> <Gold.Chemscore.Rot>
1.5312

> <Gold.Chemscore.Internal.Correction>
   9.000000E+99

> <Gold.Chemscore.Hbonds>
donor molecule, donor type, donor heavy atom, donor atom, acceptor molecule, acceptor atom, score
      L1  H    10    34       P1  8028  0.98
      L1  H    13    35       P1  8028  0.77

> <Gold.Chemscore.Hbond.Weighted>
-5.9149

> <Gold.Chemscore.Metal.Weighted>
-0.0000

> <Gold.Chemscore.Lipo.Weighted>
-12.9372

> <Gold.Chemscore.Internal_Hbond.Weighted>
0.0000

> <Gold.Chemscore.DEClash.Weighted>
0.8531

> <Gold.Chemscore.DEInternal.Weighted>
1.6231

> <Gold.Chemscore.Rot.Weighted>
3.9199

> <Gold.Chemscore.Internal.Correction.Weighted>
   9.000000E+99

> <Gold.Protein.RotatedTorsions>
[ 6907 6896 6895 6894 ] final  -58.64 input  -60.11 | X-H torsion
[ 7974 7965 7964 7962 ] final  -93.42 input  175.53 | X-H torsion
[ 8008 7997 7996 7995 ] final   -2.51 input   59.86 | X-H torsion
[ 10167 10162 10161 10158 ] final  -90.70 input  -65.29 | X-H torsion
[ 10718 10713 10712 10709 ] final  -33.81 input   66.30 | X-H torsion
[ 10763 10752 10751 10750 ] final  -33.65 input  -60.55 | X-H torsion
[ 11005 11000 10999 10996 ] final -146.21 input  -57.11 | X-H torsion

> <Gold.Protein.ActiveResidues>
 VAL166  LYS551  ARG553  GLY616  TRP617  ASP618  TYR619  PRO620  LYS621  CYS622 
 ASP623  PHE694  ASN695  SER759  ASP760  ASP761  ALA762  ILE779  LEU786  VAL792 
 PHE793  MET794  SER795  GLU796  ALA797  LYS798  CYS799  TRP800  GLU811  SER814 

> <Gold.Protein.RotatedAtoms>
  150.7991  134.7072  159.6583 H   0  0  0  0  0  0  0  0  0  0  0  0  # atno 6907 bound_to 6896
  152.4107  134.6127  160.0039 H   0  0  0  0  0  0  0  0  0  0  0  0  # atno 6908 bound_to 6896
  151.6371  133.3291  159.3158 H   0  0  0  0  0  0  0  0  0  0  0  0  # atno 6909 bound_to 6896
  145.3868  140.9524  143.2363 H   0  0  0  0  0  0  0  0  0  0  0  0  # atno 7974 bound_to 7965
  154.6350  140.2532  155.7389 H   0  0  0  0  0  0  0  0  0  0  0  0  # atno 8008 bound_to 7997
  156.2499  140.2899  156.0638 H   0  0  0  0  0  0  0  0  0  0  0  0  # atno 8009 bound_to 7997
  155.1686  140.0386  157.2848 H   0  0  0  0  0  0  0  0  0  0  0  0  # atno 8010 bound_to 7997
  140.3523  143.2885  151.9711 H   0  0  0  0  0  0  0  0  0  0  0  0  # atno 10167 bound_to 10162
  156.3582  130.4319  149.7646 H   0  0  0  0  0  0  0  0  0  0  0  0  # atno 10718 bound_to 10713
  153.8338  135.6863  153.4811 H   0  0  0  0  0  0  0  0  0  0  0  0  # atno 10763 bound_to 10752
  153.1495  135.4624  154.9613 H   0  0  0  0  0  0  0  0  0  0  0  0  # atno 10764 bound_to 10752
  154.7875  135.3290  154.7798 H   0  0  0  0  0  0  0  0  0  0  0  0  # atno 10765 bound_to 10752
  140.7843  134.3042  157.5035 H   0  0  0  0  0  0  0  0  0  0  0  0  # atno 11005 bound_to 11000
  144.8468  139.5383  143.6874 LP  0  0  0  0  0  0  0  0  0  0  0  0  # atno 17320 bound_to 7965
  146.2816  139.6893  142.9225 LP  0  0  0  0  0  0  0  0  0  0  0  0  # atno 17321 bound_to 7965
  139.4825  144.6065  151.7511 LP  0  0  0  0  0  0  0  0  0  0  0  0  # atno 17342 bound_to 10162
  140.5207  144.0883  150.6022 LP  0  0  0  0  0  0  0  0  0  0  0  0  # atno 17343 bound_to 10162
  156.4821  130.8046  151.3059 LP  0  0  0  0  0  0  0  0  0  0  0  0  # atno 17370 bound_to 10713
  157.7470  131.0002  150.2919 LP  0  0  0  0  0  0  0  0  0  0  0  0  # atno 17371 bound_to 10713
  139.8738  134.9337  156.3587 LP  0  0  0  0  0  0  0  0  0  0  0  0  # atno 17394 bound_to 11000
  140.9452  133.7488  156.0198 LP  0  0  0  0  0  0  0  0  0  0  0  0  # atno 17395 bound_to 11000

$$$$
