AV-unprocessed.smi:788|AV-procd|sdf|3733|dock9
  -GOLD-   22720 1163D 1   1.00000     0.00000
 Structure written by MMmdl.
 35 36  0  0  0  0  0  0  0  0  1 V2000
  151.5745  141.6968  158.0792 C   0  0  0  0  0  0  0  0  0  0  0  0
  150.7126  140.8400  157.1339 C   0  0  2  0  0  0  0  0  0  0  0  0
  151.5941  139.8403  156.3614 C   0  0  0  0  0  0  0  0  0  0  0  0
  150.7592  138.9529  155.4295 C   0  0  0  0  0  0  0  0  0  0  0  0
  149.9378  139.8045  154.4533 C   0  0  0  0  0  0  0  0  0  0  0  0
  149.0312  140.8049  155.1954 C   0  0  2  0  0  0  0  0  0  0  0  0
  148.2031  141.6265  154.1903 C   0  0  0  0  0  0  0  0  0  0  0  0
  149.8650  141.6937  156.1549 C   0  0  1  0  0  0  0  0  0  0  0  0
  148.9767  142.5791  156.9095 N   0  0  0  0  0  0  0  0  0  0  0  0
  148.1670  142.2229  157.9213 C   0  0  0  0  0  0  0  0  0  0  0  0
  148.0853  141.0688  158.3378 O   0  0  0  0  0  0  0  0  0  0  0  0
  147.4214  143.2081  158.4657 N   0  0  0  0  0  0  0  0  0  0  0  0
  146.4726  143.2039  159.5294 C   0  0  0  0  0  0  0  0  0  0  0  0
  146.7450  142.8414  160.7938 N   0  0  0  0  0  0  0  0  0  0  0  0
  145.6282  142.9256  161.6145 N   0  0  0  0  0  0  0  0  0  0  0  0
  144.5539  143.3404  160.9378 C   0  0  0  0  0  0  0  0  0  0  0  0
  144.8021  143.6658  159.2317 S   0  0  0  0  0  0  0  0  0  0  0  0
  152.2519  142.3419  157.5195 H   0  0  0  0  0  0  0  0  0  0  0  0
  152.1787  141.0691  158.7346 H   0  0  0  0  0  0  0  0  0  0  0  0
  150.9625  142.3320  158.7197 H   0  0  0  0  0  0  0  0  0  0  0  0
  150.0277  140.2609  157.7557 H   0  0  0  0  0  0  0  0  0  0  0  0
  152.3398  140.3814  155.7771 H   0  0  0  0  0  0  0  0  0  0  0  0
  152.1473  139.2116  157.0602 H   0  0  0  0  0  0  0  0  0  0  0  0
  151.4127  138.2790  154.8750 H   0  0  0  0  0  0  0  0  0  0  0  0
  150.0929  138.3224  156.0200 H   0  0  0  0  0  0  0  0  0  0  0  0
  150.6113  140.3426  153.7848 H   0  0  0  0  0  0  0  0  0  0  0  0
  149.3351  139.1508  153.8220 H   0  0  0  0  0  0  0  0  0  0  0  0
  148.3283  140.2265  155.7975 H   0  0  0  0  0  0  0  0  0  0  0  0
  148.8422  142.2682  153.5831 H   0  0  0  0  0  0  0  0  0  0  0  0
  147.4729  142.2617  154.6919 H   0  0  0  0  0  0  0  0  0  0  0  0
  147.6493  140.9745  153.5146 H   0  0  0  0  0  0  0  0  0  0  0  0
  150.5531  142.2846  155.5475 H   0  0  0  0  0  0  0  0  0  0  0  0
  148.9773  143.5517  156.6363 H   0  0  0  0  0  0  0  0  0  0  0  0
  147.5617  144.1136  158.0418 H   0  0  0  0  0  0  0  0  0  0  0  0
  143.6075  143.4529  161.4458 H   0  0  0  0  0  0  0  0  0  0  0  0
  1  2  1  0  0  0  0
  1 18  1  0  0  0  0
  1 19  1  0  0  0  0
  1 20  1  0  0  0  0
  2  8  1  0  0  0  0
  2  3  1  0  0  0  0
  2 21  1  0  0  0  0
  3  4  1  0  0  0  0
  3 22  1  0  0  0  0
  3 23  1  0  0  0  0
  4  5  1  0  0  0  0
  4 24  1  0  0  0  0
  4 25  1  0  0  0  0
  5  6  1  0  0  0  0
  5 26  1  0  0  0  0
  5 27  1  0  0  0  0
  6  7  1  0  0  0  0
  6  8  1  0  0  0  0
  6 28  1  0  0  0  0
  7 29  1  0  0  0  0
  7 30  1  0  0  0  0
  7 31  1  0  0  0  0
  8  9  1  0  0  0  0
  8 32  1  0  0  0  0
  9 10  1  0  0  0  0
  9 33  1  0  0  0  0
 10 11  2  0  0  0  0
 10 12  1  0  0  0  0
 12 13  1  0  0  0  0
 12 34  1  0  0  0  0
 13 17  1  0  0  0  0
 13 14  2  0  0  0  0
 14 15  1  0  0  0  0
 15 16  2  0  0  0  0
 16 17  1  0  0  0  0
 16 35  1  0  0  0  0
M  END
> <s_m_source_file>
AV-unprocessed.smi

> <i_m_source_file_index>
788

> <i_lp_mmshare_version>
43012

> <i_f3d_flags>
0

> <s_epik_input>
W0NIM11bQ0BASF0xW0NIMl1bQ0gyXVtDSDJdW0NAQEhdKFtDSDNdKVtDQEhdMVtOSF1DKD1PKVtOSF1jMm5uW2NIXXMy

> <s_epik_cmdline>
J2VwaWtfcHl0aG9uJywgJy1waCcsICc3LjAnLCAnLXRuJywgJzgnLCAnLW1hJywgJzIwMCcsICctbWV0YWxfYmluZGluZycsICctaW1hZScsICc8aW5maWxlLm1hZT4nLCAnLW9tYWUnLCAnPG91dGZpbGUubWFlPic=

> <r_lp_tautomer_probability>
1

> <r_epik_Ionization_Penalty>
0.000304078

> <r_epik_Ionization_Penalty_Charging>
0

> <r_epik_Ionization_Penalty_Neutral>
0.000304078

> <r_epik_State_Penalty>
-0

> <r_epik_Charging_Adjusted_Penalty>
0

> <i_epik_Tot_Q>
0

> <i_epik_Tot_abs_Q>
0

> <r_epik_Metal_State_Penalty>
0.164801

> <b_epik_Metal_Only>
0

> <s_lp_Force_Field>
OPLS_2005

> <r_lp_Energy>
14.1502

> <b_lp_Chiralities_Consistent>
1

> <s_lp_Variant>
AV-unprocessed.smi:788-3

> <Gold.Version>
5.8.1

> <Gold.Id.Protein>
6NUR|6NUR_protein|mol2

> <Gold.PLP.Fitness>
36.1131

> <Gold.PLP.PLP>
-26.2538

> <Gold.PLP.part.hbond>
-4.7940

> <Gold.PLP.part.metal>
0.0000

> <Gold.PLP.part.buried>
-1.7724

> <Gold.PLP.part.nonpolar>
-19.7314

> <Gold.PLP.part.repulsive>
0.1452

> <Gold.PLP.ligand.clash>
0.0000

> <Gold.PLP.ligand.torsion>
0.6995

> <Gold.PLP.Chemscore.Hbond>
3.7510

> <Gold.PLP.Chemscore.CHOScore>
0.0000

> <Gold.PLP.Chemscore.Metal>
0.0000

> <Gold.Chemscore.Hbonds>
donor molecule, donor type, donor heavy atom, donor atom, acceptor molecule, acceptor atom, score
      L1  H     9    33       P1  8028  0.98
      L1  H    12    34       P1  8029  0.95
      P1  H  6933  6944       L1    14  0.90
      P1  H  6934  6946       L1    14  0.82

> <Gold.PLP.Chemscore.Internal.Correction>
0.0053

> <Gold.Rescore>
     Score         DG    S(hbond)    S(metal)    S(lipo)     H(rot)  DE(clash)    DE(int)     intcor
     17.11     -18.66       2.75        0.00      56.02       1.00       0.01       1.54       ----

> <Gold.Chemscore.Fitness>
17.1128

> <Gold.Chemscore.DG>
-18.6560

> <Gold.Chemscore.ZeroCoef>
-5.4800

> <Gold.Chemscore.Hbond>
2.7489

> <Gold.Chemscore.Metal>
0.0000

> <Gold.Chemscore.Lipo>
56.0223

> <Gold.Chemscore.Internal_Hbond>
0.0000

> <Gold.Chemscore.DEClash>
0.0060

> <Gold.Chemscore.DEInternal>
1.5372

> <Gold.Chemscore.Rot>
1.0000

> <Gold.Chemscore.Internal.Correction>
   9.000000E+99

> <Gold.Chemscore.Hbonds>
donor molecule, donor type, donor heavy atom, donor atom, acceptor molecule, acceptor atom, score
      L1  H     9    33       P1  8028  0.77
      L1  H    12    34       P1  8029  0.21
      P1  H  6933  6944       L1    14  0.87
      P1  H  6934  6946       L1    14  0.09

> <Gold.Chemscore.Hbond.Weighted>
-9.1814

> <Gold.Chemscore.Metal.Weighted>
-0.0000

> <Gold.Chemscore.Lipo.Weighted>
-6.5546

> <Gold.Chemscore.Internal_Hbond.Weighted>
0.0000

> <Gold.Chemscore.DEClash.Weighted>
0.0060

> <Gold.Chemscore.DEInternal.Weighted>
1.5372

> <Gold.Chemscore.Rot.Weighted>
2.5600

> <Gold.Chemscore.Internal.Correction.Weighted>
   9.000000E+99

> <Gold.Protein.RotatedTorsions>
[ 6907 6896 6895 6894 ] final   97.42 input  -60.11 | X-H torsion
[ 7974 7965 7964 7962 ] final  127.67 input  175.53 | X-H torsion
[ 8008 7997 7996 7995 ] final -115.82 input   59.86 | X-H torsion
[ 10167 10162 10161 10158 ] final  -63.08 input  -65.29 | X-H torsion
[ 10718 10713 10712 10709 ] final  128.48 input   66.30 | X-H torsion
[ 10763 10752 10751 10750 ] final   20.47 input  -60.55 | X-H torsion
[ 11005 11000 10999 10996 ] final  153.89 input  -57.11 | X-H torsion

> <Gold.Protein.ActiveResidues>
 VAL166  LYS551  ARG553  GLY616  TRP617  ASP618  TYR619  PRO620  LYS621  CYS622 
 ASP623  PHE694  ASN695  SER759  ASP760  ASP761  ALA762  ILE779  LEU786  VAL792 
 PHE793  MET794  SER795  GLU796  ALA797  LYS798  CYS799  TRP800  GLU811  SER814 

> <Gold.Protein.RotatedAtoms>
  152.5423  134.0736  159.8204 H   0  0  0  0  0  0  0  0  0  0  0  0  # atno 6907 bound_to 6896
  151.0847  133.5355  159.2626 H   0  0  0  0  0  0  0  0  0  0  0  0  # atno 6908 bound_to 6896
  151.2169  135.0512  159.8988 H   0  0  0  0  0  0  0  0  0  0  0  0  # atno 6909 bound_to 6896
  145.0480  139.3907  143.5068 H   0  0  0  0  0  0  0  0  0  0  0  0  # atno 7974 bound_to 7965
  155.0580  140.0393  157.2567 H   0  0  0  0  0  0  0  0  0  0  0  0  # atno 8008 bound_to 7997
  154.7083  140.2687  155.6629 H   0  0  0  0  0  0  0  0  0  0  0  0  # atno 8009 bound_to 7997
  156.2782  140.2727  156.1716 H   0  0  0  0  0  0  0  0  0  0  0  0  # atno 8010 bound_to 7997
  140.5895  143.2339  151.6170 H   0  0  0  0  0  0  0  0  0  0  0  0  # atno 10167 bound_to 10162
  157.5240  131.1098  150.9110 H   0  0  0  0  0  0  0  0  0  0  0  0  # atno 10718 bound_to 10713
  153.1075  135.6688  153.9560 H   0  0  0  0  0  0  0  0  0  0  0  0  # atno 10763 bound_to 10752
  153.9113  135.3025  155.3450 H   0  0  0  0  0  0  0  0  0  0  0  0  # atno 10764 bound_to 10752
  154.7495  135.5041  153.9341 H   0  0  0  0  0  0  0  0  0  0  0  0  # atno 10765 bound_to 10752
  140.1439  134.8721  157.2366 H   0  0  0  0  0  0  0  0  0  0  0  0  # atno 11005 bound_to 11000
  146.3515  140.0115  142.8666 LP  0  0  0  0  0  0  0  0  0  0  0  0  # atno 17320 bound_to 7965
  145.1563  140.9649  143.4403 LP  0  0  0  0  0  0  0  0  0  0  0  0  # atno 17321 bound_to 7965
  139.5218  144.3181  152.0935 LP  0  0  0  0  0  0  0  0  0  0  0  0  # atno 17342 bound_to 10162
  140.2343  144.4336  150.6287 LP  0  0  0  0  0  0  0  0  0  0  0  0  # atno 17343 bound_to 10162
  156.9712  130.5491  149.5290 LP  0  0  0  0  0  0  0  0  0  0  0  0  # atno 17370 bound_to 10713
  156.0374  130.5460  150.8687 LP  0  0  0  0  0  0  0  0  0  0  0  0  # atno 17371 bound_to 10713
  140.2688  134.3484  155.7380 LP  0  0  0  0  0  0  0  0  0  0  0  0  # atno 17394 bound_to 11000
  141.2190  133.7411  156.9192 LP  0  0  0  0  0  0  0  0  0  0  0  0  # atno 17395 bound_to 11000

$$$$
