AV-unprocessed.smi:1880|AV-procd|sdf|7637|dock2
  -GOLD-   22720 9363D 1   1.00000     0.00000
 Structure written by MMmdl.
 37 39  0  0  0  0  0  0  0  0  2 V2000
  152.6382  139.9044  154.9913 O   0  0  0  0  0  0  0  0  0  0  0  0
  151.9171  139.3095  156.0520 C   0  0  2  0  0  0  0  0  0  0  0  0
  150.4190  139.3091  155.7071 C   0  0  0  0  0  0  0  0  0  0  0  0
  150.1544  140.2632  154.6912 O   0  0  0  0  0  0  0  0  0  0  0  0
  148.9969  139.9543  153.9357 C   0  0  0  0  0  0  0  0  0  0  0  0
  147.9878  141.0013  154.2639 C   0  0  0  0  0  0  0  0  0  0  0  0
  147.2665  141.8840  153.5086 C   0  0  0  0  0  0  0  0  0  0  0  0
  146.4595  142.6228  154.4178 C   0  0  0  0  0  0  0  0  0  0  0  0
  146.7485  142.1346  155.6602 C   0  0  0  0  0  0  0  0  0  0  0  0
  147.6783  141.1440  155.5836 O   0  0  0  0  0  0  0  0  0  0  0  0
  152.2373  139.9726  157.4066 C   0  0  0  0  0  0  0  0  0  0  0  0
  151.7529  141.3577  157.4899 N   0  0  0  0  0  0  0  0  0  0  0  0
  151.0968  142.1050  156.5613 C   0  0  0  0  0  0  0  0  0  0  0  0
  150.8687  143.3316  157.1070 N   0  3  0  0  0  0  0  0  0  0  0  0
  151.3867  143.3694  158.4036 C   0  0  0  0  0  0  0  0  0  0  0  0
  151.4007  144.3888  159.3499 C   0  0  0  0  0  0  0  0  0  0  0  0
  152.0129  144.0990  160.5870 C   0  0  0  0  0  0  0  0  0  0  0  0
  152.0564  145.0571  161.5427 F   0  0  0  0  0  0  0  0  0  0  0  0
  152.5787  142.8327  160.8471 C   0  0  0  0  0  0  0  0  0  0  0  0
  153.1545  142.5959  162.0495 F   0  0  0  0  0  0  0  0  0  0  0  0
  152.5573  141.8064  159.8799 C   0  0  0  0  0  0  0  0  0  0  0  0
  151.9545  142.1031  158.6578 C   0  0  0  0  0  0  0  0  0  0  0  0
  152.7245  139.2719  154.2951 H   0  0  0  0  0  0  0  0  0  0  0  0
  152.2470  138.2707  156.0916 H   0  0  0  0  0  0  0  0  0  0  0  0
  150.0945  138.3135  155.3993 H   0  0  0  0  0  0  0  0  0  0  0  0
  149.8459  139.5727  156.5974 H   0  0  0  0  0  0  0  0  0  0  0  0
  149.2175  139.9592  152.8672 H   0  0  0  0  0  0  0  0  0  0  0  0
  148.6192  138.9652  154.1986 H   0  0  0  0  0  0  0  0  0  0  0  0
  147.3130  141.9843  152.4342 H   0  0  0  0  0  0  0  0  0  0  0  0
  145.7564  143.4107  154.1915 H   0  0  0  0  0  0  0  0  0  0  0  0
  146.4018  142.3652  156.6568 H   0  0  0  0  0  0  0  0  0  0  0  0
  151.8292  139.4015  158.2405 H   0  0  0  0  0  0  0  0  0  0  0  0
  153.3172  139.9989  157.5574 H   0  0  0  0  0  0  0  0  0  0  0  0
  150.8104  141.7836  155.5700 H   0  0  0  0  0  0  0  0  0  0  0  0
  150.9672  145.3590  159.1564 H   0  0  0  0  0  0  0  0  0  0  0  0
  152.9897  140.8398  160.0934 H   0  0  0  0  0  0  0  0  0  0  0  0
  150.3951  144.0862  156.6262 H   0  0  0  0  0  0  0  0  0  0  0  0
  1  2  1  0  0  0  0
  1 23  1  0  0  0  0
  2  3  1  0  0  0  0
  2 11  1  0  0  0  0
  2 24  1  0  0  0  0
  3  4  1  0  0  0  0
  3 25  1  0  0  0  0
  3 26  1  0  0  0  0
  4  5  1  0  0  0  0
  5  6  1  0  0  0  0
  5 27  1  0  0  0  0
  5 28  1  0  0  0  0
  6 10  1  0  0  0  0
  6  7  2  0  0  0  0
  7  8  1  0  0  0  0
  7 29  1  0  0  0  0
  8  9  2  0  0  0  0
  8 30  1  0  0  0  0
  9 10  1  0  0  0  0
  9 31  1  0  0  0  0
 11 12  1  0  0  0  0
 11 32  1  0  0  0  0
 11 33  1  0  0  0  0
 12 22  1  0  0  0  0
 12 13  1  0  0  0  0
 13 14  2  0  0  0  0
 13 34  1  0  0  0  0
 14 15  1  0  0  0  0
 14 37  1  0  0  0  0
 15 22  2  0  0  0  0
 15 16  1  0  0  0  0
 16 17  2  0  0  0  0
 16 35  1  0  0  0  0
 17 18  1  0  0  0  0
 17 19  1  0  0  0  0
 19 20  1  0  0  0  0
 19 21  2  0  0  0  0
 21 22  1  0  0  0  0
 21 36  1  0  0  0  0
M  CHG  1  14   1
M  END
> <s_m_source_file>
AV-unprocessed.smi

> <i_m_source_file_index>
1880

> <i_lp_mmshare_version>
43012

> <i_f3d_flags>
0

> <s_epik_input>
W2NIXTFjKEYpYyhGKVtjSF1jKGMxMiluKFtjSF1uMilbQ0gyXVtDQEhdKFtPSF0pW0NIMl1PW0NIMl1jM1tjSF1bY0hdW2NIXW8z

> <s_epik_cmdline>
J2VwaWtfcHl0aG9uJywgJy1waCcsICc3LjAnLCAnLXRuJywgJzgnLCAnLW1hJywgJzIwMCcsICctbWV0YWxfYmluZGluZycsICctaW1hZScsICc8aW5maWxlLm1hZT4nLCAnLW9tYWUnLCAnPG91dGZpbGUubWFlPic=

> <r_epik_Ionization_Penalty>
2.17656

> <r_epik_Ionization_Penalty_Charging>
2.17656

> <r_epik_Ionization_Penalty_Neutral>
9.34185e-07

> <r_epik_State_Penalty>
2.31826

> <r_epik_Charging_Adjusted_Penalty>
4.49482

> <i_epik_Tot_Q>
1

> <i_epik_Tot_abs_Q>
1

> <r_epik_Metal_State_Penalty>
6.39906

> <b_epik_Metal_Only>
0

> <s_lp_Force_Field>
OPLS_2005

> <r_lp_Energy>
13.1736

> <b_lp_Chiralities_Consistent>
1

> <s_lp_Variant>
AV-unprocessed.smi:1880-3

> <Gold.Version>
5.8.1

> <Gold.Id.Protein>
6NUR|6NUR_protein|mol2

> <Gold.PLP.Fitness>
56.8735

> <Gold.PLP.PLP>
-47.0895

> <Gold.PLP.part.hbond>
-4.0000

> <Gold.PLP.part.metal>
0.0000

> <Gold.PLP.part.buried>
-1.3587

> <Gold.PLP.part.nonpolar>
-41.1781

> <Gold.PLP.part.repulsive>
0.1644

> <Gold.PLP.ligand.clash>
0.0000

> <Gold.PLP.ligand.torsion>
1.1472

> <Gold.PLP.Chemscore.Hbond>
4.0000

> <Gold.PLP.Chemscore.CHOScore>
0.0000

> <Gold.PLP.Chemscore.Metal>
0.0000

> <Gold.Chemscore.Hbonds>
donor molecule, donor type, donor heavy atom, donor atom, acceptor molecule, acceptor atom, score
      L1  H    14    37       P1  8028  2.00
      P1  H  7989  7998       L1     4  1.00
      P1  H  7997  8008       L1     1  0.98

> <Gold.PLP.Chemscore.Internal.Correction>
0.0784

> <Gold.Rescore>
     Score         DG    S(hbond)    S(metal)    S(lipo)     H(rot)  DE(clash)    DE(int)     intcor
     12.68     -17.29       1.91        0.00     110.80       2.94       1.00       3.62       ----

> <Gold.Chemscore.Fitness>
12.6779

> <Gold.Chemscore.DG>
-17.2933

> <Gold.Chemscore.ZeroCoef>
-5.4800

> <Gold.Chemscore.Hbond>
1.9066

> <Gold.Chemscore.Metal>
0.0000

> <Gold.Chemscore.Lipo>
110.8019

> <Gold.Chemscore.Internal_Hbond>
0.0000

> <Gold.Chemscore.DEClash>
0.9951

> <Gold.Chemscore.DEInternal>
3.6203

> <Gold.Chemscore.Rot>
2.9369

> <Gold.Chemscore.Internal.Correction>
   9.000000E+99

> <Gold.Chemscore.Hbonds>
donor molecule, donor type, donor heavy atom, donor atom, acceptor molecule, acceptor atom, score
      L1  H    14    37       P1  8028  0.95
      P1  H  7989  7998       L1     4  0.68
      P1  H  7997  8008       L1     1  0.20

> <Gold.Chemscore.Hbond.Weighted>
-6.3680

> <Gold.Chemscore.Metal.Weighted>
-0.0000

> <Gold.Chemscore.Lipo.Weighted>
-12.9638

> <Gold.Chemscore.Internal_Hbond.Weighted>
0.0000

> <Gold.Chemscore.DEClash.Weighted>
0.9951

> <Gold.Chemscore.DEInternal.Weighted>
3.6203

> <Gold.Chemscore.Rot.Weighted>
7.5185

> <Gold.Chemscore.Internal.Correction.Weighted>
   9.000000E+99

> <Gold.Protein.RotatedTorsions>
[ 6907 6896 6895 6894 ] final  -39.10 input  -60.11 | X-H torsion
[ 7974 7965 7964 7962 ] final  167.15 input  175.53 | X-H torsion
[ 8008 7997 7996 7995 ] final  -16.22 input   59.86 | X-H torsion
[ 10167 10162 10161 10158 ] final  171.60 input  -65.29 | X-H torsion
[ 10718 10713 10712 10709 ] final -173.94 input   66.30 | X-H torsion
[ 10763 10752 10751 10750 ] final  171.65 input  -60.55 | X-H torsion
[ 11005 11000 10999 10996 ] final  -33.19 input  -57.11 | X-H torsion

> <Gold.Protein.ActiveResidues>
 VAL166  LYS551  ARG553  GLY616  TRP617  ASP618  TYR619  PRO620  LYS621  CYS622 
 ASP623  PHE694  ASN695  SER759  ASP760  ASP761  ALA762  ILE779  LEU786  VAL792 
 PHE793  MET794  SER795  GLU796  ALA797  LYS798  CYS799  TRP800  GLU811  SER814 

> <Gold.Protein.RotatedAtoms>
  150.9944  134.9271  159.7917 H   0  0  0  0  0  0  0  0  0  0  0  0  # atno 6907 bound_to 6896
  152.5260  134.3238  159.9168 H   0  0  0  0  0  0  0  0  0  0  0  0  # atno 6908 bound_to 6896
  151.3244  133.3985  159.2691 H   0  0  0  0  0  0  0  0  0  0  0  0  # atno 6909 bound_to 6896
  144.7435  139.8719  143.6389 H   0  0  0  0  0  0  0  0  0  0  0  0  # atno 7974 bound_to 7965
  154.5069  140.2175  155.9233 H   0  0  0  0  0  0  0  0  0  0  0  0  # atno 8008 bound_to 7997
  156.1505  140.3162  155.8607 H   0  0  0  0  0  0  0  0  0  0  0  0  # atno 8009 bound_to 7997
  155.3948  140.0480  157.3030 H   0  0  0  0  0  0  0  0  0  0  0  0  # atno 8010 bound_to 7997
  139.5051  144.3467  151.9964 H   0  0  0  0  0  0  0  0  0  0  0  0  # atno 10167 bound_to 10162
  156.7777  130.9472  151.3120 H   0  0  0  0  0  0  0  0  0  0  0  0  # atno 10718 bound_to 10713
  154.4149  135.2757  155.2013 H   0  0  0  0  0  0  0  0  0  0  0  0  # atno 10763 bound_to 10752
  154.3983  135.6050  153.5886 H   0  0  0  0  0  0  0  0  0  0  0  0  # atno 10764 bound_to 10752
  152.9832  135.5920  154.4436 H   0  0  0  0  0  0  0  0  0  0  0  0  # atno 10765 bound_to 10752
  140.9615  133.7162  156.1376 H   0  0  0  0  0  0  0  0  0  0  0  0  # atno 11005 bound_to 11000
  146.1274  139.4302  143.0190 LP  0  0  0  0  0  0  0  0  0  0  0  0  # atno 17320 bound_to 7965
  145.7215  141.0073  143.1400 LP  0  0  0  0  0  0  0  0  0  0  0  0  # atno 17321 bound_to 7965
  140.2904  144.3760  150.6090 LP  0  0  0  0  0  0  0  0  0  0  0  0  # atno 17342 bound_to 10162
  140.5950  143.2167  151.7180 LP  0  0  0  0  0  0  0  0  0  0  0  0  # atno 17343 bound_to 10162
  157.6661  130.9009  149.9935 LP  0  0  0  0  0  0  0  0  0  0  0  0  # atno 17370 bound_to 10713
  156.1238  130.3645  149.9844 LP  0  0  0  0  0  0  0  0  0  0  0  0  # atno 17371 bound_to 10713
  140.7461  134.4096  157.5548 LP  0  0  0  0  0  0  0  0  0  0  0  0  # atno 17394 bound_to 11000
  139.8879  134.8869  156.2500 LP  0  0  0  0  0  0  0  0  0  0  0  0  # atno 17395 bound_to 11000

$$$$
