AV-unprocessed.smi:1971|AV-procd|sdf|7967|dock5
  -GOLD-   2272010143D 1   1.00000     0.00000
 Structure written by MMmdl.
 43 44  0  0  0  0  0  0  0  0  1 V2000
  152.6482  144.0720  158.6807 C   0  0  0  0  0  0  0  0  0  0  0  0
  152.1521  142.6761  159.0834 C   0  0  0  0  0  0  0  0  0  0  0  0
  151.8663  141.7770  157.9667 N   0  0  0  0  0  0  0  0  0  0  0  0
  151.3023  140.5171  158.4450 C   0  0  0  0  0  0  0  0  0  0  0  0
  151.0031  139.5480  157.2871 C   0  0  0  0  0  0  0  0  0  0  0  0
  150.0559  140.1196  156.3209 N   0  0  0  0  0  0  0  0  0  0  0  0
  149.7397  139.1909  155.2144 C   0  0  1  0  0  0  0  0  0  0  0  0
  150.9868  138.7222  154.4314 C   0  0  0  0  0  0  0  0  0  0  0  0
  148.9526  137.9329  155.6579 C   0  0  0  0  0  0  0  0  0  0  0  0
  148.3846  137.2249  154.5162 N   0  0  0  0  0  0  0  0  0  0  0  0
  147.1108  136.8232  154.4283 C   0  0  0  0  0  0  0  0  0  0  0  0
  146.2713  137.0358  155.3038 O   0  0  0  0  0  0  0  0  0  0  0  0
  146.8878  136.1646  153.2778 N   0  0  0  0  0  0  0  0  0  0  0  0
  145.6776  135.5812  152.8198 C   0  0  0  0  0  0  0  0  0  0  0  0
  144.7869  134.9711  153.6105 N   0  0  0  0  0  0  0  0  0  0  0  0
  143.6887  134.4926  152.8913 C   0  0  0  0  0  0  0  0  0  0  0  0
  143.7609  134.7480  151.5445 C   0  0  0  0  0  0  0  0  0  0  0  0
  145.2178  135.6082  151.1239 S   0  0  0  0  0  0  0  0  0  0  0  0
  150.6248  141.3896  155.8487 C   0  0  0  0  0  0  0  0  0  0  0  0
  150.9255  142.3573  157.0080 C   0  0  0  0  0  0  0  0  0  0  0  0
  152.9313  144.6463  159.5629 H   0  0  0  0  0  0  0  0  0  0  0  0
  151.8816  144.6426  158.1568 H   0  0  0  0  0  0  0  0  0  0  0  0
  153.5235  144.0072  158.0341 H   0  0  0  0  0  0  0  0  0  0  0  0
  152.9224  142.2243  159.7098 H   0  0  0  0  0  0  0  0  0  0  0  0
  151.2696  142.7727  159.7177 H   0  0  0  0  0  0  0  0  0  0  0  0
  151.9989  140.0415  159.1361 H   0  0  0  0  0  0  0  0  0  0  0  0
  150.3867  140.7062  159.0078 H   0  0  0  0  0  0  0  0  0  0  0  0
  151.9322  139.2734  156.7847 H   0  0  0  0  0  0  0  0  0  0  0  0
  150.5996  138.6362  157.7241 H   0  0  0  0  0  0  0  0  0  0  0  0
  149.1040  139.7188  154.5019 H   0  0  0  0  0  0  0  0  0  0  0  0
  150.7284  137.9590  153.6969 H   0  0  0  0  0  0  0  0  0  0  0  0
  151.7405  138.2973  155.0952 H   0  0  0  0  0  0  0  0  0  0  0  0
  151.4496  139.5344  153.8718 H   0  0  0  0  0  0  0  0  0  0  0  0
  149.5860  137.2538  156.2290 H   0  0  0  0  0  0  0  0  0  0  0  0
  148.1486  138.2164  156.3392 H   0  0  0  0  0  0  0  0  0  0  0  0
  149.0139  137.0084  153.7568 H   0  0  0  0  0  0  0  0  0  0  0  0
  147.6797  136.0596  152.6609 H   0  0  0  0  0  0  0  0  0  0  0  0
  142.8983  133.9804  153.4195 H   0  0  0  0  0  0  0  0  0  0  0  0
  143.0478  134.4844  150.7778 H   0  0  0  0  0  0  0  0  0  0  0  0
  151.5355  141.2030  155.2773 H   0  0  0  0  0  0  0  0  0  0  0  0
  149.9309  141.8936  155.1780 H   0  0  0  0  0  0  0  0  0  0  0  0
  149.9952  142.6266  157.5105 H   0  0  0  0  0  0  0  0  0  0  0  0
  151.3332  143.2778  156.5915 H   0  0  0  0  0  0  0  0  0  0  0  0
  1  2  1  0  0  0  0
  1 21  1  0  0  0  0
  1 22  1  0  0  0  0
  1 23  1  0  0  0  0
  2  3  1  0  0  0  0
  2 24  1  0  0  0  0
  2 25  1  0  0  0  0
  3 20  1  0  0  0  0
  3  4  1  0  0  0  0
  4  5  1  0  0  0  0
  4 26  1  0  0  0  0
  4 27  1  0  0  0  0
  5  6  1  0  0  0  0
  5 28  1  0  0  0  0
  5 29  1  0  0  0  0
  6  7  1  0  0  0  0
  6 19  1  0  0  0  0
  7  8  1  0  0  0  0
  7  9  1  0  0  0  0
  7 30  1  0  0  0  0
  8 31  1  0  0  0  0
  8 32  1  0  0  0  0
  8 33  1  0  0  0  0
  9 10  1  0  0  0  0
  9 34  1  0  0  0  0
  9 35  1  0  0  0  0
 10 11  1  0  0  0  0
 10 36  1  0  0  0  0
 11 12  2  0  0  0  0
 11 13  1  0  0  0  0
 13 14  1  0  0  0  0
 13 37  1  0  0  0  0
 14 18  1  0  0  0  0
 14 15  2  0  0  0  0
 15 16  1  0  0  0  0
 16 17  2  0  0  0  0
 16 38  1  0  0  0  0
 17 18  1  0  0  0  0
 17 39  1  0  0  0  0
 19 20  1  0  0  0  0
 19 40  1  0  0  0  0
 19 41  1  0  0  0  0
 20 42  1  0  0  0  0
 20 43  1  0  0  0  0
M  END
> <s_m_source_file>
AV-unprocessed.smi

> <i_m_source_file_index>
1971

> <i_lp_mmshare_version>
43012

> <i_f3d_flags>
0

> <s_epik_input>
W0NIM11bQ0gyXU4xW0NIMl1bQ0gyXU4oW0NIMl1bQ0gyXTEpW0NASF0oW0NIM10pW0NIMl1bTkhdQyg9TylbTkhdYzJuW2NIXVtjSF1zMg==

> <s_epik_cmdline>
J2VwaWtfcHl0aG9uJywgJy1waCcsICc3LjAnLCAnLXRuJywgJzgnLCAnLW1hJywgJzIwMCcsICctbWV0YWxfYmluZGluZycsICctaW1hZScsICc8aW5maWxlLm1hZT4nLCAnLW9tYWUnLCAnPG91dGZpbGUubWFlPic=

> <r_lp_tautomer_probability>
0.999

> <r_epik_Ionization_Penalty>
2.43994

> <r_epik_Ionization_Penalty_Charging>
0

> <r_epik_Ionization_Penalty_Neutral>
2.43994

> <r_epik_State_Penalty>
1.7682

> <r_epik_Charging_Adjusted_Penalty>
1.7682

> <i_epik_Tot_Q>
0

> <i_epik_Tot_abs_Q>
0

> <r_epik_Metal_State_Penalty>
1.80147

> <b_epik_Metal_Only>
0

> <s_lp_Force_Field>
OPLS_2005

> <r_lp_Energy>
42.8393

> <b_lp_Chiralities_Consistent>
1

> <s_lp_Variant>
AV-unprocessed.smi:1971-6

> <Gold.Version>
5.8.1

> <Gold.Id.Protein>
6NUR|6NUR_protein|mol2

> <Gold.PLP.Fitness>
41.1032

> <Gold.PLP.PLP>
-30.5509

> <Gold.PLP.part.hbond>
-2.0000

> <Gold.PLP.part.metal>
0.0000

> <Gold.PLP.part.buried>
-4.4629

> <Gold.PLP.part.nonpolar>
-25.6091

> <Gold.PLP.part.repulsive>
0.1018

> <Gold.PLP.ligand.clash>
0.0000

> <Gold.PLP.ligand.torsion>
0.4325

> <Gold.PLP.Chemscore.Hbond>
1.8480

> <Gold.PLP.Chemscore.CHOScore>
1.9398

> <Gold.PLP.Chemscore.Metal>
0.0000

> <Gold.Chemscore.Hbonds>
donor molecule, donor type, donor heavy atom, donor atom, acceptor molecule, acceptor atom, score
      L1  H    10    36       P1  7948  0.81
      L1  H    13    37       P1  7948  0.94
      L1  C    16    38       P1 10957  0.81
      L1  C    17    39       P1 10186  1.00

> <Gold.PLP.Chemscore.Internal.Correction>
0.0537

> <Gold.Rescore>
     Score         DG    S(hbond)    S(metal)    S(lipo)     H(rot)  DE(clash)    DE(int)     intcor
     16.33     -16.90       1.94        0.00      80.46       1.75       0.01       0.55       ----

> <Gold.Chemscore.Fitness>
16.3323

> <Gold.Chemscore.DG>
-16.8981

> <Gold.Chemscore.ZeroCoef>
-5.4800

> <Gold.Chemscore.Hbond>
1.9394

> <Gold.Chemscore.Metal>
0.0000

> <Gold.Chemscore.Lipo>
80.4567

> <Gold.Chemscore.Internal_Hbond>
0.0000

> <Gold.Chemscore.DEClash>
0.0109

> <Gold.Chemscore.DEInternal>
0.5549

> <Gold.Chemscore.Rot>
1.7473

> <Gold.Chemscore.Internal.Correction>
   9.000000E+99

> <Gold.Chemscore.Hbonds>
donor molecule, donor type, donor heavy atom, donor atom, acceptor molecule, acceptor atom, score
      L1  H    10    36       P1  7948  0.75
      L1  H    13    37       P1  7948  0.90

> <Gold.Chemscore.Hbond.Weighted>
-6.4777

> <Gold.Chemscore.Metal.Weighted>
-0.0000

> <Gold.Chemscore.Lipo.Weighted>
-9.4134

> <Gold.Chemscore.Internal_Hbond.Weighted>
0.0000

> <Gold.Chemscore.DEClash.Weighted>
0.0109

> <Gold.Chemscore.DEInternal.Weighted>
0.5549

> <Gold.Chemscore.Rot.Weighted>
4.4731

> <Gold.Chemscore.Internal.Correction.Weighted>
   9.000000E+99

> <Gold.Protein.RotatedTorsions>
[ 6907 6896 6895 6894 ] final   42.33 input  -60.11 | X-H torsion
[ 7974 7965 7964 7962 ] final  -90.81 input  175.53 | X-H torsion
[ 8008 7997 7996 7995 ] final   98.85 input   59.86 | X-H torsion
[ 10167 10162 10161 10158 ] final -110.42 input  -65.29 | X-H torsion
[ 10718 10713 10712 10709 ] final   77.75 input   66.30 | X-H torsion
[ 10763 10752 10751 10750 ] final   52.00 input  -60.55 | X-H torsion
[ 11005 11000 10999 10996 ] final  -63.42 input  -57.11 | X-H torsion

> <Gold.Protein.ActiveResidues>
 VAL166  LYS551  ARG553  GLY616  TRP617  ASP618  TYR619  PRO620  LYS621  CYS622 
 ASP623  PHE694  ASN695  SER759  ASP760  ASP761  ALA762  ILE779  LEU786  VAL792 
 PHE793  MET794  SER795  GLU796  ALA797  LYS798  CYS799  TRP800  GLU811  SER814 

> <Gold.Protein.RotatedAtoms>
  152.2065  134.8540  160.0501 H   0  0  0  0  0  0  0  0  0  0  0  0  # atno 6907 bound_to 6896
  151.9375  133.3623  159.3961 H   0  0  0  0  0  0  0  0  0  0  0  0  # atno 6908 bound_to 6896
  150.6966  134.4398  159.5331 H   0  0  0  0  0  0  0  0  0  0  0  0  # atno 6909 bound_to 6896
  145.4215  140.9551  143.2178 H   0  0  0  0  0  0  0  0  0  0  0  0  # atno 7974 bound_to 7965
  156.1046  140.3237  155.7988 H   0  0  0  0  0  0  0  0  0  0  0  0  # atno 8008 bound_to 7997
  155.4779  140.0551  157.2988 H   0  0  0  0  0  0  0  0  0  0  0  0  # atno 8009 bound_to 7997
  154.4719  140.2015  155.9989 H   0  0  0  0  0  0  0  0  0  0  0  0  # atno 8010 bound_to 7997
  140.1446  143.4250  152.1538 H   0  0  0  0  0  0  0  0  0  0  0  0  # atno 10167 bound_to 10162
  157.6721  130.9836  150.1686 H   0  0  0  0  0  0  0  0  0  0  0  0  # atno 10718 bound_to 10713
  152.9787  135.5827  154.4508 H   0  0  0  0  0  0  0  0  0  0  0  0  # atno 10763 bound_to 10752
  154.4097  135.2770  155.2046 H   0  0  0  0  0  0  0  0  0  0  0  0  # atno 10764 bound_to 10752
  154.3842  135.6140  153.5861 H   0  0  0  0  0  0  0  0  0  0  0  0  # atno 10765 bound_to 10752
  141.1392  133.6652  156.5678 H   0  0  0  0  0  0  0  0  0  0  0  0  # atno 11005 bound_to 11000
  144.8242  139.5739  143.6973 LP  0  0  0  0  0  0  0  0  0  0  0  0  # atno 17320 bound_to 7965
  146.2654  139.6507  142.9333 LP  0  0  0  0  0  0  0  0  0  0  0  0  # atno 17321 bound_to 7965
  139.5455  144.7294  151.4597 LP  0  0  0  0  0  0  0  0  0  0  0  0  # atno 17342 bound_to 10162
  140.6739  143.8232  150.7034 LP  0  0  0  0  0  0  0  0  0  0  0  0  # atno 17343 bound_to 10162
  156.2445  130.3694  149.8300 LP  0  0  0  0  0  0  0  0  0  0  0  0  # atno 17370 bound_to 10713
  156.6090  130.8578  151.3450 LP  0  0  0  0  0  0  0  0  0  0  0  0  # atno 17371 bound_to 10713
  140.3937  134.7417  157.4737 LP  0  0  0  0  0  0  0  0  0  0  0  0  # atno 17394 bound_to 11000
  140.0547  134.6081  155.8819 LP  0  0  0  0  0  0  0  0  0  0  0  0  # atno 17395 bound_to 11000

$$$$
