AV-unprocessed.smi:2720|AV-procd|sdf|10499|dock2
  -GOLD-   2272014543D 1   1.00000     0.00000
 Structure written by MMmdl.
 32 33  0  0  0  0  0  0  0  0  3 V2000
  148.6035  131.0514  153.1159 O   0  0  0  0  0  0  0  0  0  0  0  0
  147.2250  131.3605  153.0079 C   0  0  0  0  0  0  0  0  0  0  0  0
  147.1075  132.5642  152.0347 C   0  0  0  0  0  0  0  0  0  0  0  0
  145.7265  132.7793  151.4317 C   0  0  0  0  0  0  0  0  0  0  0  0
  145.4743  132.4733  150.0750 C   0  0  0  0  0  0  0  0  0  0  0  0
  144.1838  132.6878  149.5487 C   0  0  0  0  0  0  0  0  0  0  0  0
  143.2075  133.1819  150.3410 N   0  3  0  0  0  0  0  0  0  0  0  0
  143.4061  133.4901  151.6411 C   0  0  0  0  0  0  0  0  0  0  0  0
  144.6762  133.2975  152.2218 C   0  0  0  0  0  0  0  0  0  0  0  0
  146.5016  130.1246  152.4235 C   0  0  0  0  0  0  0  0  0  0  0  0
  146.5100  128.9191  153.3822 C   0  0  0  0  0  0  0  0  0  0  0  0
  145.9465  129.2900  154.6967 N   0  3  0  0  0  0  0  0  0  0  0  0
  146.6739  130.4073  155.3337 C   0  0  0  0  0  0  0  0  0  0  0  0
  146.6770  131.6540  154.4280 C   0  0  0  0  0  0  0  0  0  0  0  0
  148.9997  131.1239  152.2604 H   0  0  0  0  0  0  0  0  0  0  0  0
  147.4370  133.4849  152.5192 H   0  0  0  0  0  0  0  0  0  0  0  0
  147.7969  132.4175  151.2021 H   0  0  0  0  0  0  0  0  0  0  0  0
  146.2565  132.0781  149.4431 H   0  0  0  0  0  0  0  0  0  0  0  0
  143.9055  132.4816  148.5254 H   0  0  0  0  0  0  0  0  0  0  0  0
  142.5500  133.8791  152.1729 H   0  0  0  0  0  0  0  0  0  0  0  0
  144.8397  133.5436  153.2612 H   0  0  0  0  0  0  0  0  0  0  0  0
  145.4644  130.3828  152.2040 H   0  0  0  0  0  0  0  0  0  0  0  0
  146.9482  129.8396  151.4699 H   0  0  0  0  0  0  0  0  0  0  0  0
  145.9228  128.1013  152.9641 H   0  0  0  0  0  0  0  0  0  0  0  0
  147.5243  128.5415  153.5183 H   0  0  0  0  0  0  0  0  0  0  0  0
  144.9813  129.5603  154.5716 H   0  0  0  0  0  0  0  0  0  0  0  0
  146.2022  130.6374  156.2893 H   0  0  0  0  0  0  0  0  0  0  0  0
  147.6945  130.0915  155.5540 H   0  0  0  0  0  0  0  0  0  0  0  0
  147.2562  132.4407  154.9131 H   0  0  0  0  0  0  0  0  0  0  0  0
  145.6565  132.0317  154.3482 H   0  0  0  0  0  0  0  0  0  0  0  0
  145.9826  128.4855  155.3067 H   0  0  0  0  0  0  0  0  0  0  0  0
  142.2809  133.3302  149.9400 H   0  0  0  0  0  0  0  0  0  0  0  0
  1  2  1  0  0  0  0
  1 15  1  0  0  0  0
  2 14  1  0  0  0  0
  2  3  1  0  0  0  0
  2 10  1  0  0  0  0
  3  4  1  0  0  0  0
  3 16  1  0  0  0  0
  3 17  1  0  0  0  0
  4  9  1  0  0  0  0
  4  5  2  0  0  0  0
  5  6  1  0  0  0  0
  5 18  1  0  0  0  0
  6  7  2  0  0  0  0
  6 19  1  0  0  0  0
  7  8  1  0  0  0  0
  7 32  1  0  0  0  0
  8  9  2  0  0  0  0
  8 20  1  0  0  0  0
  9 21  1  0  0  0  0
 10 11  1  0  0  0  0
 10 22  1  0  0  0  0
 10 23  1  0  0  0  0
 11 12  1  0  0  0  0
 11 24  1  0  0  0  0
 11 25  1  0  0  0  0
 12 13  1  0  0  0  0
 12 26  1  0  0  0  0
 12 31  1  0  0  0  0
 13 14  1  0  0  0  0
 13 27  1  0  0  0  0
 13 28  1  0  0  0  0
 14 29  1  0  0  0  0
 14 30  1  0  0  0  0
M  CHG  1   7   1
M  CHG  1  12   1
M  END
> <s_m_source_file>
AV-unprocessed.smi

> <i_m_source_file_index>
2720

> <i_lp_mmshare_version>
43012

> <i_f3d_flags>
0

> <s_epik_input>
W0NIMl0xW0NIMl1bTkhdW0NIMl1bQ0gyXUMxKFtPSF0pW0NIMl1jMltjSF1bY0hdbltjSF1bY0hdMg==

> <s_epik_cmdline>
J2VwaWtfcHl0aG9uJywgJy1waCcsICc3LjAnLCAnLXRuJywgJzgnLCAnLW1hJywgJzIwMCcsICctbWV0YWxfYmluZGluZycsICctaW1hZScsICc8aW5maWxlLm1hZT4nLCAnLW9tYWUnLCAnPG91dGZpbGUubWFlPic=

> <r_epik_Ionization_Penalty>
1.30405

> <r_epik_Ionization_Penalty_Charging>
1.30405

> <r_epik_Ionization_Penalty_Neutral>
5.30574e-07

> <r_epik_State_Penalty>
1.37793

> <r_epik_Charging_Adjusted_Penalty>
2.68198

> <i_epik_Tot_Q>
2

> <i_epik_Tot_abs_Q>
2

> <r_epik_Metal_State_Penalty>
5.40982

> <b_epik_Metal_Only>
0

> <s_lp_Force_Field>
OPLS_2005

> <r_lp_Energy>
28.3784

> <b_lp_Chiralities_Consistent>
1

> <s_lp_Variant>
AV-unprocessed.smi:2720-2

> <Gold.Version>
5.8.1

> <Gold.Id.Protein>
6NUR|6NUR_protein|mol2

> <Gold.PLP.Fitness>
39.3957

> <Gold.PLP.PLP>
-25.1533

> <Gold.PLP.part.hbond>
-3.0000

> <Gold.PLP.part.metal>
0.0000

> <Gold.PLP.part.buried>
-3.4777

> <Gold.PLP.part.nonpolar>
-18.6779

> <Gold.PLP.part.repulsive>
0.0330

> <Gold.PLP.ligand.clash>
0.0000

> <Gold.PLP.ligand.torsion>
0.3805

> <Gold.PLP.Chemscore.Hbond>
5.0000

> <Gold.PLP.Chemscore.CHOScore>
0.0000

> <Gold.PLP.Chemscore.Metal>
0.0000

> <Gold.Chemscore.Hbonds>
donor molecule, donor type, donor heavy atom, donor atom, acceptor molecule, acceptor atom, score
      L1  H     1    15       P1 10747  1.00
      L1  H     7    32       P1 10186  1.95
      L1  H    12    26       P1 10956  2.00

> <Gold.PLP.Chemscore.Internal.Correction>
0.0035

> <Gold.Rescore>
     Score         DG    S(hbond)    S(metal)    S(lipo)     H(rot)  DE(clash)    DE(int)     intcor
     17.66     -18.06       2.60        0.00      69.75       1.67       0.04       0.36       ----

> <Gold.Chemscore.Fitness>
17.6582

> <Gold.Chemscore.DG>
-18.0561

> <Gold.Chemscore.ZeroCoef>
-5.4800

> <Gold.Chemscore.Hbond>
2.6012

> <Gold.Chemscore.Metal>
0.0000

> <Gold.Chemscore.Lipo>
69.7528

> <Gold.Chemscore.Internal_Hbond>
0.0000

> <Gold.Chemscore.DEClash>
0.0402

> <Gold.Chemscore.DEInternal>
0.3577

> <Gold.Chemscore.Rot>
1.6691

> <Gold.Chemscore.Internal.Correction>
   9.000000E+99

> <Gold.Chemscore.Hbonds>
donor molecule, donor type, donor heavy atom, donor atom, acceptor molecule, acceptor atom, score
      L1  H     1    15       P1 10747  0.52
      L1  H     7    32       P1 10186  0.93
      L1  H    12    26       P1 10956  0.96

> <Gold.Chemscore.Hbond.Weighted>
-8.6879

> <Gold.Chemscore.Metal.Weighted>
-0.0000

> <Gold.Chemscore.Lipo.Weighted>
-8.1611

> <Gold.Chemscore.Internal_Hbond.Weighted>
0.0000

> <Gold.Chemscore.DEClash.Weighted>
0.0402

> <Gold.Chemscore.DEInternal.Weighted>
0.3577

> <Gold.Chemscore.Rot.Weighted>
4.2728

> <Gold.Chemscore.Internal.Correction.Weighted>
   9.000000E+99

> <Gold.Protein.RotatedTorsions>
[ 6907 6896 6895 6894 ] final  -95.03 input  -60.11 | X-H torsion
[ 7974 7965 7964 7962 ] final -114.67 input  175.53 | X-H torsion
[ 8008 7997 7996 7995 ] final  138.75 input   59.86 | X-H torsion
[ 10167 10162 10161 10158 ] final  132.44 input  -65.29 | X-H torsion
[ 10718 10713 10712 10709 ] final   19.25 input   66.30 | X-H torsion
[ 10763 10752 10751 10750 ] final   87.33 input  -60.55 | X-H torsion
[ 11005 11000 10999 10996 ] final  -59.24 input  -57.11 | X-H torsion

> <Gold.Protein.ActiveResidues>
 VAL166  LYS551  ARG553  GLY616  TRP617  ASP618  TYR619  PRO620  LYS621  CYS622 
 ASP623  PHE694  ASN695  SER759  ASP760  ASP761  ALA762  ILE779  LEU786  VAL792 
 PHE793  MET794  SER795  GLU796  ALA797  LYS798  CYS799  TRP800  GLU811  SER814 

> <Gold.Protein.RotatedAtoms>
  150.6954  134.1721  159.4215 H   0  0  0  0  0  0  0  0  0  0  0  0  # atno 6907 bound_to 6896
  151.9698  135.0080  160.0561 H   0  0  0  0  0  0  0  0  0  0  0  0  # atno 6908 bound_to 6896
  152.1852  133.4699  159.5015 H   0  0  0  0  0  0  0  0  0  0  0  0  # atno 6909 bound_to 6896
  145.1174  140.8648  143.3834 H   0  0  0  0  0  0  0  0  0  0  0  0  # atno 7974 bound_to 7965
  156.2995  140.2385  156.4124 H   0  0  0  0  0  0  0  0  0  0  0  0  # atno 8008 bound_to 7997
  154.8429  140.0427  157.1573 H   0  0  0  0  0  0  0  0  0  0  0  0  # atno 8009 bound_to 7997
  154.9083  140.2986  155.5284 H   0  0  0  0  0  0  0  0  0  0  0  0  # atno 8010 bound_to 7997
  139.5339  144.6662  151.4852 H   0  0  0  0  0  0  0  0  0  0  0  0  # atno 10167 bound_to 10162
  157.1078  130.6496  149.5889 H   0  0  0  0  0  0  0  0  0  0  0  0  # atno 10718 bound_to 10713
  153.1658  135.4547  154.9835 H   0  0  0  0  0  0  0  0  0  0  0  0  # atno 10763 bound_to 10752
  154.7930  135.3227  154.7734 H   0  0  0  0  0  0  0  0  0  0  0  0  # atno 10764 bound_to 10752
  153.8217  135.6946  153.4881 H   0  0  0  0  0  0  0  0  0  0  0  0  # atno 10765 bound_to 10752
  141.1240  133.6615  156.5041 H   0  0  0  0  0  0  0  0  0  0  0  0  # atno 11005 bound_to 11000
  145.0779  139.2982  143.5799 LP  0  0  0  0  0  0  0  0  0  0  0  0  # atno 17320 bound_to 7965
  146.3523  140.0275  142.8653 LP  0  0  0  0  0  0  0  0  0  0  0  0  # atno 17321 bound_to 7965
  140.6535  143.8648  150.6810 LP  0  0  0  0  0  0  0  0  0  0  0  0  # atno 17342 bound_to 10162
  140.2020  143.3951  152.1784 LP  0  0  0  0  0  0  0  0  0  0  0  0  # atno 17343 bound_to 10162
  155.9857  130.4889  150.7047 LP  0  0  0  0  0  0  0  0  0  0  0  0  # atno 17370 bound_to 10713
  157.4585  131.0880  151.0771 LP  0  0  0  0  0  0  0  0  0  0  0  0  # atno 17371 bound_to 10713
  140.4422  134.7005  157.4997 LP  0  0  0  0  0  0  0  0  0  0  0  0  # atno 17394 bound_to 11000
  140.0221  134.6531  155.9224 LP  0  0  0  0  0  0  0  0  0  0  0  0  # atno 17395 bound_to 11000

$$$$
