AV-unprocessed.smi:1921|AV-procd|sdf|7786|dock2
  -GOLD-   22720 9533D 1   1.00000     0.00000
 Structure written by MMmdl.
 27 28  0  0  0  0  0  0  0  0  1 V2000
  151.9939  141.9985  158.6166 C   0  0  0  0  0  0  0  0  0  0  0  0
  151.8762  143.1639  157.6247 C   0  0  1  0  0  0  0  0  0  0  0  0
  150.6478  142.9980  156.8541 N   0  0  0  0  0  0  0  0  0  0  0  0
  150.3458  141.9379  156.0903 C   0  0  0  0  0  0  0  0  0  0  0  0
  151.0864  140.9636  155.9543 O   0  0  0  0  0  0  0  0  0  0  0  0
  149.1435  142.0872  155.5072 N   0  0  0  0  0  0  0  0  0  0  0  0
  148.4739  141.1917  154.6327 C   0  0  0  0  0  0  0  0  0  0  0  0
  148.9981  140.0484  154.1757 N   0  0  0  0  0  0  0  0  0  0  0  0
  148.1163  139.3669  153.3332 C   0  0  0  0  0  0  0  0  0  0  0  0
  146.9166  140.0105  153.1578 C   0  0  0  0  0  0  0  0  0  0  0  0
  146.8467  141.5077  154.0484 S   0  0  0  0  0  0  0  0  0  0  0  0
  151.9623  144.4990  158.3456 C   0  0  0  0  0  0  0  0  0  0  0  0
  152.1957  144.5761  159.8362 C   0  0  0  0  0  0  0  0  0  0  0  0
  150.8525  144.9609  159.2602 C   0  0  0  0  0  0  0  0  0  0  0  0
  152.9283  142.0514  159.1757 H   0  0  0  0  0  0  0  0  0  0  0  0
  151.9759  141.0381  158.1001 H   0  0  0  0  0  0  0  0  0  0  0  0
  151.1752  142.0057  159.3371 H   0  0  0  0  0  0  0  0  0  0  0  0
  152.7252  143.0933  156.9417 H   0  0  0  0  0  0  0  0  0  0  0  0
  149.9779  143.7514  156.9050 H   0  0  0  0  0  0  0  0  0  0  0  0
  148.6475  142.9414  155.7146 H   0  0  0  0  0  0  0  0  0  0  0  0
  148.4251  138.4271  152.9000 H   0  0  0  0  0  0  0  0  0  0  0  0
  146.0734  139.6959  152.5610 H   0  0  0  0  0  0  0  0  0  0  0  0
  152.4304  145.2820  157.7515 H   0  0  0  0  0  0  0  0  0  0  0  0
  152.2521  143.6426  160.3924 H   0  0  0  0  0  0  0  0  0  0  0  0
  152.8363  145.3757  160.2019 H   0  0  0  0  0  0  0  0  0  0  0  0
  150.5957  146.0179  159.2437 H   0  0  0  0  0  0  0  0  0  0  0  0
  150.0205  144.2809  159.4332 H   0  0  0  0  0  0  0  0  0  0  0  0
  1  2  1  0  0  0  0
  1 15  1  0  0  0  0
  1 16  1  0  0  0  0
  1 17  1  0  0  0  0
  2  3  1  0  0  0  0
  2 12  1  0  0  0  0
  2 18  1  0  0  0  0
  3  4  1  0  0  0  0
  3 19  1  0  0  0  0
  4  5  2  0  0  0  0
  4  6  1  0  0  0  0
  6  7  1  0  0  0  0
  6 20  1  0  0  0  0
  7 11  1  0  0  0  0
  7  8  2  0  0  0  0
  8  9  1  0  0  0  0
  9 10  2  0  0  0  0
  9 21  1  0  0  0  0
 10 11  1  0  0  0  0
 10 22  1  0  0  0  0
 12 14  1  0  0  0  0
 12 13  1  0  0  0  0
 12 23  1  0  0  0  0
 13 14  1  0  0  0  0
 13 24  1  0  0  0  0
 13 25  1  0  0  0  0
 14 26  1  0  0  0  0
 14 27  1  0  0  0  0
M  END
> <s_m_source_file>
AV-unprocessed.smi

> <i_m_source_file_index>
1921

> <i_lp_mmshare_version>
43012

> <i_f3d_flags>
0

> <s_epik_input>
W0NIMl0xW0NIMl1bQ0hdMVtDQEhdKFtDSDNdKVtOSF1DKD1PKVtOSF1jMm5bY0hdW2NIXXMy

> <s_epik_cmdline>
J2VwaWtfcHl0aG9uJywgJy1waCcsICc3LjAnLCAnLXRuJywgJzgnLCAnLW1hJywgJzIwMCcsICctbWV0YWxfYmluZGluZycsICctaW1hZScsICc8aW5maWxlLm1hZT4nLCAnLW9tYWUnLCAnPG91dGZpbGUubWFlPic=

> <r_lp_tautomer_probability>
0.999

> <r_epik_Ionization_Penalty>
0.000426276

> <r_epik_Ionization_Penalty_Charging>
0

> <r_epik_Ionization_Penalty_Neutral>
0.000426276

> <r_epik_State_Penalty>
0.000177984

> <r_epik_Charging_Adjusted_Penalty>
0.000177984

> <i_epik_Tot_Q>
0

> <i_epik_Tot_abs_Q>
0

> <r_epik_Metal_State_Penalty>
-0

> <b_epik_Metal_Only>
0

> <s_lp_Force_Field>
OPLS_2005

> <r_lp_Energy>
11.4046

> <b_lp_Chiralities_Consistent>
1

> <s_lp_Variant>
AV-unprocessed.smi:1921-2

> <Gold.Version>
5.8.1

> <Gold.Id.Protein>
6NUR|6NUR_protein|mol2

> <Gold.PLP.Fitness>
42.7119

> <Gold.PLP.PLP>
-31.2397

> <Gold.PLP.part.hbond>
-2.0000

> <Gold.PLP.part.metal>
0.0000

> <Gold.PLP.part.buried>
-4.1847

> <Gold.PLP.part.nonpolar>
-26.1161

> <Gold.PLP.part.repulsive>
0.3580

> <Gold.PLP.ligand.clash>
0.0000

> <Gold.PLP.ligand.torsion>
0.7826

> <Gold.PLP.Chemscore.Hbond>
1.9920

> <Gold.PLP.Chemscore.CHOScore>
2.0000

> <Gold.PLP.Chemscore.Metal>
0.0000

> <Gold.Chemscore.Hbonds>
donor molecule, donor type, donor heavy atom, donor atom, acceptor molecule, acceptor atom, score
      L1  H     3    19       P1  8028  0.74
      L1  H     6    20       P1  8028  0.82
      L1  C     9    21       P1  7948  1.00
      L1  C     9    21       P1  7957  0.04
      L1  C    10    22       P1 10175  1.00

> <Gold.PLP.Chemscore.Internal.Correction>
1.0614

> <Gold.Rescore>
     Score         DG    S(hbond)    S(metal)    S(lipo)     H(rot)  DE(clash)    DE(int)     intcor
     14.39     -18.37       1.94        0.00      82.19       1.26       1.32       2.66       ----

> <Gold.Chemscore.Fitness>
14.3881

> <Gold.Chemscore.DG>
-18.3689

> <Gold.Chemscore.ZeroCoef>
-5.4800

> <Gold.Chemscore.Hbond>
1.9447

> <Gold.Chemscore.Metal>
0.0000

> <Gold.Chemscore.Lipo>
82.1950

> <Gold.Chemscore.Internal_Hbond>
0.0000

> <Gold.Chemscore.DEClash>
1.3244

> <Gold.Chemscore.DEInternal>
2.6564

> <Gold.Chemscore.Rot>
1.2591

> <Gold.Chemscore.Internal.Correction>
   9.000000E+99

> <Gold.Chemscore.Hbonds>
donor molecule, donor type, donor heavy atom, donor atom, acceptor molecule, acceptor atom, score
      L1  H     3    19       P1  8028  0.73
      L1  H     6    20       P1  8028  0.81

> <Gold.Chemscore.Hbond.Weighted>
-6.4954

> <Gold.Chemscore.Metal.Weighted>
-0.0000

> <Gold.Chemscore.Lipo.Weighted>
-9.6168

> <Gold.Chemscore.Internal_Hbond.Weighted>
0.0000

> <Gold.Chemscore.DEClash.Weighted>
1.3244

> <Gold.Chemscore.DEInternal.Weighted>
2.6564

> <Gold.Chemscore.Rot.Weighted>
3.2233

> <Gold.Chemscore.Internal.Correction.Weighted>
   9.000000E+99

> <Gold.Protein.RotatedTorsions>
[ 6907 6896 6895 6894 ] final   62.49 input  -60.11 | X-H torsion
[ 7974 7965 7964 7962 ] final  -65.62 input  175.53 | X-H torsion
[ 8008 7997 7996 7995 ] final  102.40 input   59.86 | X-H torsion
[ 10167 10162 10161 10158 ] final   34.12 input  -65.29 | X-H torsion
[ 10718 10713 10712 10709 ] final   48.83 input   66.30 | X-H torsion
[ 10763 10752 10751 10750 ] final   -8.26 input  -60.55 | X-H torsion
[ 11005 11000 10999 10996 ] final   44.37 input  -57.11 | X-H torsion

> <Gold.Protein.ActiveResidues>
 VAL166  LYS551  ARG553  GLY616  TRP617  ASP618  TYR619  PRO620  LYS621  CYS622 
 ASP623  PHE694  ASN695  SER759  ASP760  ASP761  ALA762  ILE779  LEU786  VAL792 
 PHE793  MET794  SER795  GLU796  ALA797  LYS798  CYS799  TRP800  GLU811  SER814 

> <Gold.Protein.RotatedAtoms>
  152.4176  134.6013  160.0000 H   0  0  0  0  0  0  0  0  0  0  0  0  # atno 6907 bound_to 6896
  151.6172  133.3336  159.3088 H   0  0  0  0  0  0  0  0  0  0  0  0  # atno 6908 bound_to 6896
  150.8064  134.7231  159.6714 H   0  0  0  0  0  0  0  0  0  0  0  0  # atno 6909 bound_to 6896
  145.7520  140.8904  143.0475 H   0  0  0  0  0  0  0  0  0  0  0  0  # atno 7974 bound_to 7965
  156.1389  140.3182  155.8464 H   0  0  0  0  0  0  0  0  0  0  0  0  # atno 8008 bound_to 7997
  155.4192  140.0511  157.3044 H   0  0  0  0  0  0  0  0  0  0  0  0  # atno 8009 bound_to 7997
  154.4960  140.2111  155.9459 H   0  0  0  0  0  0  0  0  0  0  0  0  # atno 8010 bound_to 7997
  140.4345  144.1277  150.6164 H   0  0  0  0  0  0  0  0  0  0  0  0  # atno 10167 bound_to 10162
  157.4726  130.8265  149.8005 H   0  0  0  0  0  0  0  0  0  0  0  0  # atno 10718 bound_to 10713
  153.4380  135.7013  153.6187 H   0  0  0  0  0  0  0  0  0  0  0  0  # atno 10763 bound_to 10752
  153.4574  135.3744  155.2319 H   0  0  0  0  0  0  0  0  0  0  0  0  # atno 10764 bound_to 10752
  154.8727  135.4011  154.3774 H   0  0  0  0  0  0  0  0  0  0  0  0  # atno 10765 bound_to 10752
  140.1558  134.4403  155.8350 H   0  0  0  0  0  0  0  0  0  0  0  0  # atno 11005 bound_to 11000
  144.6848  139.9604  143.7480 LP  0  0  0  0  0  0  0  0  0  0  0  0  # atno 17320 bound_to 7965
  146.0348  139.3367  143.0733 LP  0  0  0  0  0  0  0  0  0  0  0  0  # atno 17321 bound_to 7965
  140.4390  143.2535  151.9498 LP  0  0  0  0  0  0  0  0  0  0  0  0  # atno 17342 bound_to 10162
  139.4786  144.5673  151.8145 LP  0  0  0  0  0  0  0  0  0  0  0  0  # atno 17343 bound_to 10162
  156.0081  130.3846  150.2360 LP  0  0  0  0  0  0  0  0  0  0  0  0  # atno 17370 bound_to 10713
  157.0543  131.0071  151.3243 LP  0  0  0  0  0  0  0  0  0  0  0  0  # atno 17371 bound_to 10713
  141.2204  133.6892  156.7505 LP  0  0  0  0  0  0  0  0  0  0  0  0  # atno 17394 bound_to 11000
  140.2549  134.8512  157.3703 LP  0  0  0  0  0  0  0  0  0  0  0  0  # atno 17395 bound_to 11000

$$$$
