AV-unprocessed.smi:2750|AV-procd|sdf|10593|dock10
  -GOLD-   2272015 43D 1   1.00000     0.00000
 Structure written by MMmdl.
 24 25  0  0  0  0  0  0  0  0  3 V2000
  148.3970  136.7922  161.1425 O   0  0  0  0  0  0  0  0  0  0  0  0
  147.5696  136.9208  160.2134 C   0  0  0  0  0  0  0  0  0  0  0  0
  146.5017  137.5695  160.2730 O   0  5  0  0  0  0  0  0  0  0  0  0
  147.8984  136.2388  158.8853 C   0  0  0  0  0  0  0  0  0  0  0  0
  149.1872  136.6521  158.3603 N   0  0  0  0  0  0  0  0  0  0  0  0
  149.5781  137.9025  157.9276 C   0  0  0  0  0  0  0  0  0  0  0  0
  150.8796  137.7187  157.5554 C   0  0  0  0  0  0  0  0  0  0  0  0
  151.8526  138.7194  157.0023 C   0  0  0  0  0  0  0  0  0  0  0  0
  151.5448  139.1343  155.5459 C   0  0  2  0  0  0  0  0  0  0  0  0
  150.1899  139.6395  155.3953 N   0  5  0  0  0  0  0  0  0  0  0  0
  149.5432  138.8751  154.4851 C   0  0  0  0  0  0  0  0  0  0  0  0
  148.3877  138.9980  154.0850 O   0  0  0  0  0  0  0  0  0  0  0  0
  150.3403  137.9013  154.0338 N   0  0  0  0  0  0  0  0  0  0  0  0
  151.5416  137.9475  154.6010 C   0  0  0  0  0  0  0  0  0  0  0  0
  152.4873  137.1839  154.4096 O   0  0  0  0  0  0  0  0  0  0  0  0
  151.2208  136.3833  157.7723 N   0  0  0  0  0  0  0  0  0  0  0  0
  150.1945  135.7526  158.2509 N   0  0  0  0  0  0  0  0  0  0  0  0
  147.9093  135.1567  159.0226 H   0  0  0  0  0  0  0  0  0  0  0  0
  147.1213  136.4564  158.1506 H   0  0  0  0  0  0  0  0  0  0  0  0
  148.9280  138.7645  157.9219 H   0  0  0  0  0  0  0  0  0  0  0  0
  151.8409  139.6052  157.6389 H   0  0  0  0  0  0  0  0  0  0  0  0
  152.8690  138.3280  157.0727 H   0  0  0  0  0  0  0  0  0  0  0  0
  152.2972  139.8425  155.1953 H   0  0  0  0  0  0  0  0  0  0  0  0
  150.0598  137.2106  153.3539 H   0  0  0  0  0  0  0  0  0  0  0  0
  1  2  2  0  0  0  0
  2  3  1  0  0  0  0
  2  4  1  0  0  0  0
  4  5  1  0  0  0  0
  4 18  1  0  0  0  0
  4 19  1  0  0  0  0
  5 17  1  0  0  0  0
  5  6  1  0  0  0  0
  6  7  2  0  0  0  0
  6 20  1  0  0  0  0
  7  8  1  0  0  0  0
  7 16  1  0  0  0  0
  8  9  1  0  0  0  0
  8 21  1  0  0  0  0
  8 22  1  0  0  0  0
  9 14  1  0  0  0  0
  9 10  1  0  0  0  0
  9 23  1  0  0  0  0
 10 11  1  0  0  0  0
 11 12  2  0  0  0  0
 11 13  1  0  0  0  0
 13 14  1  0  0  0  0
 13 24  1  0  0  0  0
 14 15  2  0  0  0  0
 16 17  2  0  0  0  0
M  CHG  1   3  -1
M  CHG  1  10  -1
M  END
> <s_m_source_file>
AV-unprocessed.smi

> <i_m_source_file_index>
2750

> <i_lp_mmshare_version>
43012

> <i_f3d_flags>
0

> <s_epik_input>
Tz1DKFtPSF0pW0NIMl1uMVtjSF1jKG5uMSlbQ0gyXVtDQEBIXTJbTkhdQyg9TylbTkhdQzI9Tw==

> <s_epik_cmdline>
J2VwaWtfcHl0aG9uJywgJy1waCcsICc3LjAnLCAnLXRuJywgJzgnLCAnLW1hJywgJzIwMCcsICctbWV0YWxfYmluZGluZycsICctaW1hZScsICc8aW5maWxlLm1hZT4nLCAnLW9tYWUnLCAnPG91dGZpbGUubWFlPic=

> <r_lp_tautomer_probability>
1

> <r_epik_Ionization_Penalty>
5.10791

> <r_epik_Ionization_Penalty_Charging>
5.10788

> <r_epik_Ionization_Penalty_Neutral>
2.55687e-05

> <r_epik_State_Penalty>
5.12334

> <r_epik_Charging_Adjusted_Penalty>
10.2312

> <i_epik_Tot_Q>
-2

> <i_epik_Tot_abs_Q>
2

> <r_epik_Metal_State_Penalty>
1.50935

> <b_epik_Metal_Only>
1

> <s_lp_Force_Field>
OPLS_2005

> <r_lp_Energy>
16.0951

> <b_lp_Chiralities_Consistent>
1

> <s_lp_Variant>
AV-unprocessed.smi:2750-5

> <Gold.Version>
5.8.1

> <Gold.Id.Protein>
6NUR|6NUR_protein|mol2

> <Gold.PLP.Fitness>
40.7643

> <Gold.PLP.PLP>
-20.7347

> <Gold.PLP.part.hbond>
-5.5849

> <Gold.PLP.part.metal>
0.0000

> <Gold.PLP.part.buried>
-4.9404

> <Gold.PLP.part.nonpolar>
-11.2838

> <Gold.PLP.part.repulsive>
0.3695

> <Gold.PLP.ligand.clash>
0.0000

> <Gold.PLP.ligand.torsion>
0.1790

> <Gold.PLP.Chemscore.Hbond>
6.7920

> <Gold.PLP.Chemscore.CHOScore>
0.0000

> <Gold.PLP.Chemscore.Metal>
0.0000

> <Gold.Chemscore.Hbonds>
donor molecule, donor type, donor heavy atom, donor atom, acceptor molecule, acceptor atom, score
      L1  H    13    24       P1  7948  0.90
      P1  H  6896  6907       L1    17  0.88
      P1  H  6931  6943       L1     1  2.00
      P1  H  6934  6947       L1     3  1.80
      P1  H 10752 10765       L1    15  0.69

> <Gold.PLP.Chemscore.Internal.Correction>
0.0116

> <Gold.Rescore>
     Score         DG    S(hbond)    S(metal)    S(lipo)     H(rot)  DE(clash)    DE(int)     intcor
     12.21     -12.90       3.70        0.00      18.98       2.80       0.49       0.19       ----

> <Gold.Chemscore.Fitness>
12.2067

> <Gold.Chemscore.DG>
-12.8952

> <Gold.Chemscore.ZeroCoef>
-5.4800

> <Gold.Chemscore.Hbond>
3.6992

> <Gold.Chemscore.Metal>
0.0000

> <Gold.Chemscore.Lipo>
18.9832

> <Gold.Chemscore.Internal_Hbond>
0.0000

> <Gold.Chemscore.DEClash>
0.4935

> <Gold.Chemscore.DEInternal>
0.1950

> <Gold.Chemscore.Rot>
2.7973

> <Gold.Chemscore.Internal.Correction>
   9.000000E+99

> <Gold.Chemscore.Hbonds>
donor molecule, donor type, donor heavy atom, donor atom, acceptor molecule, acceptor atom, score
      L1  H    13    24       P1  7948  0.19
      P1  H  6896  6907       L1    17  0.52
      P1  H  6931  6943       L1     1  0.96
      P1  H  6934  6947       L1     3  0.18
      P1  H 10752 10765       L1    15  0.68

> <Gold.Chemscore.Hbond.Weighted>
-12.3553

> <Gold.Chemscore.Metal.Weighted>
-0.0000

> <Gold.Chemscore.Lipo.Weighted>
-2.2210

> <Gold.Chemscore.Internal_Hbond.Weighted>
0.0000

> <Gold.Chemscore.DEClash.Weighted>
0.4935

> <Gold.Chemscore.DEInternal.Weighted>
0.1950

> <Gold.Chemscore.Rot.Weighted>
7.1611

> <Gold.Chemscore.Internal.Correction.Weighted>
   9.000000E+99

> <Gold.Protein.RotatedTorsions>
[ 6907 6896 6895 6894 ] final  -58.50 input  -60.11 | X-H torsion
[ 7974 7965 7964 7962 ] final -170.99 input  175.53 | X-H torsion
[ 8008 7997 7996 7995 ] final   91.17 input   59.86 | X-H torsion
[ 10167 10162 10161 10158 ] final  -51.41 input  -65.29 | X-H torsion
[ 10718 10713 10712 10709 ] final -150.45 input   66.30 | X-H torsion
[ 10763 10752 10751 10750 ] final  160.28 input  -60.55 | X-H torsion
[ 11005 11000 10999 10996 ] final  102.11 input  -57.11 | X-H torsion

> <Gold.Protein.ActiveResidues>
 VAL166  LYS551  ARG553  GLY616  TRP617  ASP618  TYR619  PRO620  LYS621  CYS622 
 ASP623  PHE694  ASN695  SER759  ASP760  ASP761  ALA762  ILE779  LEU786  VAL792 
 PHE793  MET794  SER795  GLU796  ALA797  LYS798  CYS799  TRP800  GLU811  SER814 

> <Gold.Protein.RotatedAtoms>
  150.8002  134.7090  159.6592 H   0  0  0  0  0  0  0  0  0  0  0  0  # atno 6907 bound_to 6896
  152.4118  134.6108  160.0035 H   0  0  0  0  0  0  0  0  0  0  0  0  # atno 6908 bound_to 6896
  151.6348  133.3292  159.3153 H   0  0  0  0  0  0  0  0  0  0  0  0  # atno 6909 bound_to 6896
  144.7162  140.1988  143.6340 H   0  0  0  0  0  0  0  0  0  0  0  0  # atno 7974 bound_to 7965
  156.0206  140.3341  155.7034 H   0  0  0  0  0  0  0  0  0  0  0  0  # atno 8008 bound_to 7997
  155.6028  140.0657  157.2746 H   0  0  0  0  0  0  0  0  0  0  0  0  # atno 8009 bound_to 7997
  154.4314  140.1807  156.1179 H   0  0  0  0  0  0  0  0  0  0  0  0  # atno 8010 bound_to 7997
  140.6589  143.2621  151.4500 H   0  0  0  0  0  0  0  0  0  0  0  0  # atno 10167 bound_to 10162
  156.4463  130.8146  151.2376 H   0  0  0  0  0  0  0  0  0  0  0  0  # atno 10718 bound_to 10713
  154.2449  135.2773  155.2839 H   0  0  0  0  0  0  0  0  0  0  0  0  # atno 10763 bound_to 10752
  154.5513  135.5674  153.6928 H   0  0  0  0  0  0  0  0  0  0  0  0  # atno 10764 bound_to 10752
  152.9992  135.6275  154.2595 H   0  0  0  0  0  0  0  0  0  0  0  0  # atno 10765 bound_to 10752
  139.8776  134.9211  156.5008 H   0  0  0  0  0  0  0  0  0  0  0  0  # atno 11005 bound_to 11000
  145.8699  139.2266  143.1667 LP  0  0  0  0  0  0  0  0  0  0  0  0  # atno 17320 bound_to 7965
  146.0095  140.8448  142.9978 LP  0  0  0  0  0  0  0  0  0  0  0  0  # atno 17321 bound_to 7965
  139.5818  144.1692  152.1978 LP  0  0  0  0  0  0  0  0  0  0  0  0  # atno 17342 bound_to 10162
  140.1019  144.5532  150.6983 LP  0  0  0  0  0  0  0  0  0  0  0  0  # atno 17343 bound_to 10162
  157.7504  131.0152  150.3495 LP  0  0  0  0  0  0  0  0  0  0  0  0  # atno 17370 bound_to 10713
  156.3864  130.3890  149.7063 LP  0  0  0  0  0  0  0  0  0  0  0  0  # atno 17371 bound_to 10713
  140.8591  133.8074  155.9246 LP  0  0  0  0  0  0  0  0  0  0  0  0  # atno 17394 bound_to 11000
  140.9068  134.2310  157.5009 LP  0  0  0  0  0  0  0  0  0  0  0  0  # atno 17395 bound_to 11000

$$$$
