AV-unprocessed.smi:2839|AV-procd|sdf|10930|dock1
  -GOLD-   2272015373D 1   1.00000     0.00000
 Structure written by MMmdl.
 32 33  0  0  0  0  0  0  0  0  1 V2000
  151.5525  137.2099  154.4781 C   0  0  0  0  0  0  0  0  0  0  0  0
  150.8312  138.4611  154.6722 N   0  0  0  0  0  0  0  0  0  0  0  0
  149.5452  138.6709  154.2304 C   0  0  0  0  0  0  0  0  0  0  0  0
  149.1311  139.8596  154.5079 N   0  0  0  0  0  0  0  0  0  0  0  0
  150.1970  140.4116  155.1464 N   0  0  0  0  0  0  0  0  0  0  0  0
  150.1041  141.7857  155.6429 C   0  0  0  0  0  0  0  0  0  0  0  0
  150.5228  141.9305  157.1124 C   0  0  0  0  0  0  0  0  0  0  0  0
  151.0476  140.9944  157.7175 O   0  0  0  0  0  0  0  0  0  0  0  0
  150.2671  143.1191  157.6793 N   0  0  0  0  0  0  0  0  0  0  0  0
  150.5792  143.4755  159.0610 C   0  0  0  0  0  0  0  0  0  0  0  0
  150.4411  144.9946  159.2799 C   0  0  0  0  0  0  0  0  0  0  0  0
  151.7197  145.4393  159.9924 C   0  0  0  0  0  0  0  0  0  0  0  0
  152.7808  144.4532  159.5151 C   0  0  0  0  0  0  0  0  0  0  0  0
  152.0364  143.1215  159.4197 C   0  0  0  0  0  0  0  0  0  0  0  0
  151.2458  139.5829  155.2505 C   0  0  0  0  0  0  0  0  0  0  0  0
  152.3418  139.8090  155.7628 O   0  0  0  0  0  0  0  0  0  0  0  0
  150.8730  136.3748  154.3016 H   0  0  0  0  0  0  0  0  0  0  0  0
  152.1515  136.9708  155.3579 H   0  0  0  0  0  0  0  0  0  0  0  0
  152.2230  137.2914  153.6221 H   0  0  0  0  0  0  0  0  0  0  0  0
  149.0123  137.8706  153.7140 H   0  0  0  0  0  0  0  0  0  0  0  0
  150.7312  142.4290  155.0234 H   0  0  0  0  0  0  0  0  0  0  0  0
  149.0826  142.1532  155.5351 H   0  0  0  0  0  0  0  0  0  0  0  0
  149.8299  143.8311  157.1125 H   0  0  0  0  0  0  0  0  0  0  0  0
  149.9007  142.9496  159.7356 H   0  0  0  0  0  0  0  0  0  0  0  0
  150.3686  145.5171  158.3246 H   0  0  0  0  0  0  0  0  0  0  0  0
  149.5481  145.2481  159.8520 H   0  0  0  0  0  0  0  0  0  0  0  0
  151.9820  146.4757  159.7780 H   0  0  0  0  0  0  0  0  0  0  0  0
  151.5917  145.3444  161.0714 H   0  0  0  0  0  0  0  0  0  0  0  0
  153.1376  144.7465  158.5267 H   0  0  0  0  0  0  0  0  0  0  0  0
  153.6423  144.4061  160.1817 H   0  0  0  0  0  0  0  0  0  0  0  0
  152.0553  142.6295  160.3929 H   0  0  0  0  0  0  0  0  0  0  0  0
  152.5081  142.4406  158.7097 H   0  0  0  0  0  0  0  0  0  0  0  0
  1  2  1  0  0  0  0
  1 17  1  0  0  0  0
  1 18  1  0  0  0  0
  1 19  1  0  0  0  0
  2 15  1  0  0  0  0
  2  3  1  0  0  0  0
  3  4  2  0  0  0  0
  3 20  1  0  0  0  0
  4  5  1  0  0  0  0
  5  6  1  0  0  0  0
  5 15  1  0  0  0  0
  6  7  1  0  0  0  0
  6 21  1  0  0  0  0
  6 22  1  0  0  0  0
  7  8  2  0  0  0  0
  7  9  1  0  0  0  0
  9 10  1  0  0  0  0
  9 23  1  0  0  0  0
 10 14  1  0  0  0  0
 10 11  1  0  0  0  0
 10 24  1  0  0  0  0
 11 12  1  0  0  0  0
 11 25  1  0  0  0  0
 11 26  1  0  0  0  0
 12 13  1  0  0  0  0
 12 27  1  0  0  0  0
 12 28  1  0  0  0  0
 13 14  1  0  0  0  0
 13 29  1  0  0  0  0
 13 30  1  0  0  0  0
 14 31  1  0  0  0  0
 14 32  1  0  0  0  0
 15 16  2  0  0  0  0
M  END
> <s_m_source_file>
AV-unprocessed.smi

> <i_m_source_file_index>
2839

> <i_lp_mmshare_version>
43012

> <i_f3d_flags>
0

> <s_epik_input>
W0NIM11uMVtjSF1ubihjMT1PKVtDSDJdQyg9TylbTkhdW0NIXTJbQ0gyXVtDSDJdW0NIMl1bQ0gyXTI=

> <s_epik_cmdline>
J2VwaWtfcHl0aG9uJywgJy1waCcsICc3LjAnLCAnLXRuJywgJzgnLCAnLW1hJywgJzIwMCcsICctbWV0YWxfYmluZGluZycsICctaW1hZScsICc8aW5maWxlLm1hZT4nLCAnLW9tYWUnLCAnPG91dGZpbGUubWFlPic=

> <r_lp_tautomer_probability>
1

> <r_epik_Ionization_Penalty>
1.58668e-07

> <r_epik_Ionization_Penalty_Charging>
8.23952e-09

> <r_epik_Ionization_Penalty_Neutral>
1.50429e-07

> <r_epik_State_Penalty>
-0

> <r_epik_Charging_Adjusted_Penalty>
8.23952e-09

> <i_epik_Tot_Q>
0

> <i_epik_Tot_abs_Q>
0

> <r_epik_Metal_State_Penalty>
-0

> <b_epik_Metal_Only>
0

> <s_lp_Force_Field>
OPLS_2005

> <r_lp_Energy>
35.3478

> <b_lp_Chiralities_Consistent>
1

> <s_lp_Variant>
AV-unprocessed.smi:2839-1

> <Gold.Version>
5.8.1

> <Gold.Id.Protein>
6NUR|6NUR_protein|mol2

> <Gold.PLP.Fitness>
41.6856

> <Gold.PLP.PLP>
-33.2744

> <Gold.PLP.part.hbond>
-2.0588

> <Gold.PLP.part.metal>
0.0000

> <Gold.PLP.part.buried>
0.3668

> <Gold.PLP.part.nonpolar>
-30.4850

> <Gold.PLP.part.repulsive>
0.1488

> <Gold.PLP.ligand.clash>
0.0000

> <Gold.PLP.ligand.torsion>
0.2964

> <Gold.PLP.Chemscore.Hbond>
2.0000

> <Gold.PLP.Chemscore.CHOScore>
1.0000

> <Gold.PLP.Chemscore.Metal>
0.0000

> <Gold.Chemscore.Hbonds>
donor molecule, donor type, donor heavy atom, donor atom, acceptor molecule, acceptor atom, score
      L1  H     9    23       P1  8028  1.00
      P1  H  7997  8010       L1    16  0.84
      L1  C     3    20       P1  7948  1.00

> <Gold.PLP.Chemscore.Internal.Correction>
0.0039

> <Gold.Rescore>
     Score         DG    S(hbond)    S(metal)    S(lipo)     H(rot)  DE(clash)    DE(int)     intcor
     12.82     -15.57       1.91        0.00      69.27       1.72       0.28       2.46       ----

> <Gold.Chemscore.Fitness>
12.8199

> <Gold.Chemscore.DG>
-15.5658

> <Gold.Chemscore.ZeroCoef>
-5.4800

> <Gold.Chemscore.Hbond>
1.9117

> <Gold.Chemscore.Metal>
0.0000

> <Gold.Chemscore.Lipo>
69.2660

> <Gold.Chemscore.Internal_Hbond>
0.0000

> <Gold.Chemscore.DEClash>
0.2842

> <Gold.Chemscore.DEInternal>
2.4616

> <Gold.Chemscore.Rot>
1.7201

> <Gold.Chemscore.Internal.Correction>
   9.000000E+99

> <Gold.Chemscore.Hbonds>
donor molecule, donor type, donor heavy atom, donor atom, acceptor molecule, acceptor atom, score
      L1  H     9    23       P1  8028  0.90
      P1  H  7997  8010       L1    16  0.82

> <Gold.Chemscore.Hbond.Weighted>
-6.3850

> <Gold.Chemscore.Metal.Weighted>
-0.0000

> <Gold.Chemscore.Lipo.Weighted>
-8.1041

> <Gold.Chemscore.Internal_Hbond.Weighted>
0.0000

> <Gold.Chemscore.DEClash.Weighted>
0.2842

> <Gold.Chemscore.DEInternal.Weighted>
2.4616

> <Gold.Chemscore.Rot.Weighted>
4.4033

> <Gold.Chemscore.Internal.Correction.Weighted>
   9.000000E+99

> <Gold.Protein.RotatedTorsions>
[ 6907 6896 6895 6894 ] final  134.58 input  -60.11 | X-H torsion
[ 7974 7965 7964 7962 ] final -106.00 input  175.53 | X-H torsion
[ 8008 7997 7996 7995 ] final   78.20 input   59.86 | X-H torsion
[ 10167 10162 10161 10158 ] final  -74.12 input  -65.29 | X-H torsion
[ 10718 10713 10712 10709 ] final -139.38 input   66.30 | X-H torsion
[ 10763 10752 10751 10750 ] final  143.70 input  -60.55 | X-H torsion
[ 11005 11000 10999 10996 ] final   50.14 input  -57.11 | X-H torsion

> <Gold.Protein.ActiveResidues>
 VAL166  LYS551  ARG553  GLY616  TRP617  ASP618  TYR619  PRO620  LYS621  CYS622 
 ASP623  PHE694  ASN695  SER759  ASP760  ASP761  ALA762  ILE779  LEU786  VAL792 
 PHE793  MET794  SER795  GLU796  ALA797  LYS798  CYS799  TRP800  GLU811  SER814 

> <Gold.Protein.RotatedAtoms>
  152.3098  133.5741  159.5672 H   0  0  0  0  0  0  0  0  0  0  0  0  # atno 6907 bound_to 6896
  150.7317  134.0169  159.3697 H   0  0  0  0  0  0  0  0  0  0  0  0  # atno 6908 bound_to 6896
  151.8063  135.0694  160.0458 H   0  0  0  0  0  0  0  0  0  0  0  0  # atno 6909 bound_to 6896
  145.2233  140.9143  143.3247 H   0  0  0  0  0  0  0  0  0  0  0  0  # atno 7974 bound_to 7965
  155.8524  140.3457  155.5702 H   0  0  0  0  0  0  0  0  0  0  0  0  # atno 8008 bound_to 7997
  155.8023  140.0887  157.1970 H   0  0  0  0  0  0  0  0  0  0  0  0  # atno 8009 bound_to 7997
  154.4008  140.1463  156.3276 H   0  0  0  0  0  0  0  0  0  0  0  0  # atno 8010 bound_to 7997
  140.5054  143.2354  151.7683 H   0  0  0  0  0  0  0  0  0  0  0  0  # atno 10167 bound_to 10162
  156.3101  130.7477  151.1551 H   0  0  0  0  0  0  0  0  0  0  0  0  # atno 10718 bound_to 10713
  153.9767  135.2945  155.3423 H   0  0  0  0  0  0  0  0  0  0  0  0  # atno 10763 bound_to 10752
  154.7292  135.5075  153.8939 H   0  0  0  0  0  0  0  0  0  0  0  0  # atno 10764 bound_to 10752
  153.0874  135.6697  154.0035 H   0  0  0  0  0  0  0  0  0  0  0  0  # atno 10765 bound_to 10752
  140.1043  134.5039  155.8734 H   0  0  0  0  0  0  0  0  0  0  0  0  # atno 11005 bound_to 11000
  144.9745  139.3846  143.6293 LP  0  0  0  0  0  0  0  0  0  0  0  0  # atno 17320 bound_to 7965
  146.3371  139.8857  142.8817 LP  0  0  0  0  0  0  0  0  0  0  0  0  # atno 17321 bound_to 7965
  139.4882  144.4465  151.9704 LP  0  0  0  0  0  0  0  0  0  0  0  0  # atno 17342 bound_to 10162
  140.3555  144.3036  150.5942 LP  0  0  0  0  0  0  0  0  0  0  0  0  # atno 17343 bound_to 10162
  157.7389  131.0535  150.5266 LP  0  0  0  0  0  0  0  0  0  0  0  0  # atno 17370 bound_to 10713
  156.5404  130.4207  149.6156 LP  0  0  0  0  0  0  0  0  0  0  0  0  # atno 17371 bound_to 10713
  141.2114  133.6706  156.6580 LP  0  0  0  0  0  0  0  0  0  0  0  0  # atno 17394 bound_to 11000
  140.3177  134.8034  157.4227 LP  0  0  0  0  0  0  0  0  0  0  0  0  # atno 17395 bound_to 11000

$$$$
