AV-unprocessed.smi:3331|AV-procd|sdf|12823|dock5
  -GOLD-   2272019203D 1   1.00000     0.00000
 Structure written by MMmdl.
 46 47  0  0  0  0  0  0  0  0  1 V2000
  146.9742  142.4049  154.0034 C   0  0  0  0  0  0  0  0  0  0  0  0
  147.8619  141.2588  154.5077 C   0  0  2  0  0  0  0  0  0  0  0  0
  149.2966  141.7474  154.8163 C   0  0  0  0  0  0  0  0  0  0  0  0
  150.2598  140.5973  155.1903 C   0  0  1  0  0  0  0  0  0  0  0  0
  150.0488  140.1111  156.6352 C   0  0  0  0  0  0  0  0  0  0  0  0
  150.1462  139.4603  154.1511 C   0  0  0  0  0  0  0  0  0  0  0  0
  148.7478  139.0185  154.0532 N   0  0  0  0  0  0  0  0  0  0  0  0
  148.2413  137.8337  154.4806 C   0  0  0  0  0  0  0  0  0  0  0  0
  148.9446  136.9925  155.0444 O   0  0  0  0  0  0  0  0  0  0  0  0
  146.7471  137.4953  154.2629 C   0  0  2  0  0  0  0  0  0  0  0  0
  146.1049  137.0763  155.5945 C   0  0  0  0  0  0  0  0  0  0  0  0
  146.5289  136.4398  153.2559 N   0  0  0  0  0  0  0  0  0  0  0  0
  145.3330  136.6464  152.4456 C   0  0  0  0  0  0  0  0  0  0  0  0
  145.4336  135.8093  151.1636 C   0  0  0  0  0  0  0  0  0  0  0  0
  144.6889  134.5709  151.2799 N   0  0  0  0  0  0  0  0  0  0  0  0
  144.6311  133.5200  150.3893 C   0  0  0  0  0  0  0  0  0  0  0  0
  143.7956  132.5811  150.9231 C   0  0  0  0  0  0  0  0  0  0  0  0
  143.3849  133.1574  152.1578 C   0  0  0  0  0  0  0  0  0  0  0  0
  143.9205  134.3492  152.3681 N   0  0  0  0  0  0  0  0  0  0  0  0
  147.8982  140.0852  153.5058 C   0  0  0  0  0  0  0  0  0  0  0  0
  147.3501  142.8155  153.0657 H   0  0  0  0  0  0  0  0  0  0  0  0
  146.9319  143.2170  154.7298 H   0  0  0  0  0  0  0  0  0  0  0  0
  145.9528  142.0642  153.8313 H   0  0  0  0  0  0  0  0  0  0  0  0
  147.4206  140.8926  155.4359 H   0  0  0  0  0  0  0  0  0  0  0  0
  149.6906  142.2518  153.9328 H   0  0  0  0  0  0  0  0  0  0  0  0
  149.2802  142.4990  155.6065 H   0  0  0  0  0  0  0  0  0  0  0  0
  151.2760  140.9902  155.1395 H   0  0  0  0  0  0  0  0  0  0  0  0
  149.0460  139.7137  156.7897 H   0  0  0  0  0  0  0  0  0  0  0  0
  150.1921  140.9248  157.3461 H   0  0  0  0  0  0  0  0  0  0  0  0
  150.7597  139.3254  156.8915 H   0  0  0  0  0  0  0  0  0  0  0  0
  150.4573  139.8351  153.1748 H   0  0  0  0  0  0  0  0  0  0  0  0
  150.8532  138.6618  154.3662 H   0  0  0  0  0  0  0  0  0  0  0  0
  146.2161  138.3701  153.8938 H   0  0  0  0  0  0  0  0  0  0  0  0
  146.2059  137.8569  156.3495 H   0  0  0  0  0  0  0  0  0  0  0  0
  146.5623  136.1690  155.9914 H   0  0  0  0  0  0  0  0  0  0  0  0
  145.0392  136.8819  155.4699 H   0  0  0  0  0  0  0  0  0  0  0  0
  147.3359  136.3258  152.6591 H   0  0  0  0  0  0  0  0  0  0  0  0
  144.4495  136.3527  153.0145 H   0  0  0  0  0  0  0  0  0  0  0  0
  145.2162  137.6980  152.1822 H   0  0  0  0  0  0  0  0  0  0  0  0
  145.0416  136.3671  150.3117 H   0  0  0  0  0  0  0  0  0  0  0  0
  146.4747  135.5732  150.9370 H   0  0  0  0  0  0  0  0  0  0  0  0
  145.1814  133.5289  149.4601 H   0  0  0  0  0  0  0  0  0  0  0  0
  143.5190  131.6287  150.4963 H   0  0  0  0  0  0  0  0  0  0  0  0
  142.7177  132.7482  152.9020 H   0  0  0  0  0  0  0  0  0  0  0  0
  146.8824  139.7494  153.2927 H   0  0  0  0  0  0  0  0  0  0  0  0
  148.3028  140.4164  152.5482 H   0  0  0  0  0  0  0  0  0  0  0  0
  1  2  1  0  0  0  0
  1 21  1  0  0  0  0
  1 22  1  0  0  0  0
  1 23  1  0  0  0  0
  2 20  1  0  0  0  0
  2  3  1  0  0  0  0
  2 24  1  0  0  0  0
  3  4  1  0  0  0  0
  3 25  1  0  0  0  0
  3 26  1  0  0  0  0
  4  5  1  0  0  0  0
  4  6  1  0  0  0  0
  4 27  1  0  0  0  0
  5 28  1  0  0  0  0
  5 29  1  0  0  0  0
  5 30  1  0  0  0  0
  6  7  1  0  0  0  0
  6 31  1  0  0  0  0
  6 32  1  0  0  0  0
  7  8  1  0  0  0  0
  7 20  1  0  0  0  0
  8  9  2  0  0  0  0
  8 10  1  0  0  0  0
 10 11  1  0  0  0  0
 10 12  1  0  0  0  0
 10 33  1  0  0  0  0
 11 34  1  0  0  0  0
 11 35  1  0  0  0  0
 11 36  1  0  0  0  0
 12 13  1  0  0  0  0
 12 37  1  0  0  0  0
 13 14  1  0  0  0  0
 13 38  1  0  0  0  0
 13 39  1  0  0  0  0
 14 15  1  0  0  0  0
 14 40  1  0  0  0  0
 14 41  1  0  0  0  0
 15 19  1  0  0  0  0
 15 16  1  0  0  0  0
 16 17  2  0  0  0  0
 16 42  1  0  0  0  0
 17 18  1  0  0  0  0
 17 43  1  0  0  0  0
 18 19  2  0  0  0  0
 18 44  1  0  0  0  0
 20 45  1  0  0  0  0
 20 46  1  0  0  0  0
M  END
> <s_m_source_file>
AV-unprocessed.smi

> <i_m_source_file_index>
3331

> <i_lp_mmshare_version>
43012

> <i_f3d_flags>
0

> <s_epik_input>
W0NIM11bQ0BASF0xW0NIMl1bQ0BASF0oW0NIM10pW0NIMl1OKFtDSDJdMSlDKD1PKVtDQEhdKFtDSDNdKVtOSF1bQ0gyXVtDSDJdbjJbY0hdW2NIXVtjSF1uMg==

> <s_epik_cmdline>
J2VwaWtfcHl0aG9uJywgJy1waCcsICc3LjAnLCAnLXRuJywgJzgnLCAnLW1hJywgJzIwMCcsICctbWV0YWxfYmluZGluZycsICctaW1hZScsICc8aW5maWxlLm1hZT4nLCAnLW9tYWUnLCAnPG91dGZpbGUubWFlPic=

> <r_lp_tautomer_probability>
1

> <r_epik_Ionization_Penalty>
0.767994

> <r_epik_Ionization_Penalty_Charging>
0

> <r_epik_Ionization_Penalty_Neutral>
0.767994

> <r_epik_State_Penalty>
0.795453

> <r_epik_Charging_Adjusted_Penalty>
0.795453

> <i_epik_Tot_Q>
0

> <i_epik_Tot_abs_Q>
0

> <r_epik_Metal_State_Penalty>
0.794784

> <b_epik_Metal_Only>
0

> <s_lp_Force_Field>
OPLS_2005

> <r_lp_Energy>
29.1229

> <b_lp_Chiralities_Consistent>
1

> <s_lp_Variant>
AV-unprocessed.smi:3331-7

> <Gold.Version>
5.8.1

> <Gold.Id.Protein>
6NUR|6NUR_protein|mol2

> <Gold.PLP.Fitness>
40.3648

> <Gold.PLP.PLP>
-33.6253

> <Gold.PLP.part.hbond>
-1.0000

> <Gold.PLP.part.metal>
0.0000

> <Gold.PLP.part.buried>
-1.2063

> <Gold.PLP.part.nonpolar>
-32.3273

> <Gold.PLP.part.repulsive>
0.2398

> <Gold.PLP.ligand.clash>
0.0000

> <Gold.PLP.ligand.torsion>
1.0149

> <Gold.PLP.Chemscore.Hbond>
1.0000

> <Gold.PLP.Chemscore.CHOScore>
1.9075

> <Gold.PLP.Chemscore.Metal>
0.0000

> <Gold.Chemscore.Hbonds>
donor molecule, donor type, donor heavy atom, donor atom, acceptor molecule, acceptor atom, score
      L1  H    12    37       P1  7948  1.00
      L1  C    16    42       P1  7921  1.00
      L1  C    18    44       P1 10957  0.92

> <Gold.PLP.Chemscore.Internal.Correction>
0.0470

> <Gold.Rescore>
     Score         DG    S(hbond)    S(metal)    S(lipo)     H(rot)  DE(clash)    DE(int)     intcor
     12.88     -13.91       1.00        0.00      79.91       1.66       0.23       0.79       ----

> <Gold.Chemscore.Fitness>
12.8847

> <Gold.Chemscore.DG>
-13.9078

> <Gold.Chemscore.ZeroCoef>
-5.4800

> <Gold.Chemscore.Hbond>
1.0000

> <Gold.Chemscore.Metal>
0.0000

> <Gold.Chemscore.Lipo>
79.9134

> <Gold.Chemscore.Internal_Hbond>
0.0000

> <Gold.Chemscore.DEClash>
0.2314

> <Gold.Chemscore.DEInternal>
0.7917

> <Gold.Chemscore.Rot>
1.6649

> <Gold.Chemscore.Internal.Correction>
   9.000000E+99

> <Gold.Chemscore.Hbonds>
donor molecule, donor type, donor heavy atom, donor atom, acceptor molecule, acceptor atom, score
      L1  H    12    37       P1  7948  1.00

> <Gold.Chemscore.Hbond.Weighted>
-3.3400

> <Gold.Chemscore.Metal.Weighted>
-0.0000

> <Gold.Chemscore.Lipo.Weighted>
-9.3499

> <Gold.Chemscore.Internal_Hbond.Weighted>
0.0000

> <Gold.Chemscore.DEClash.Weighted>
0.2314

> <Gold.Chemscore.DEInternal.Weighted>
0.7917

> <Gold.Chemscore.Rot.Weighted>
4.2621

> <Gold.Chemscore.Internal.Correction.Weighted>
   9.000000E+99

> <Gold.Protein.RotatedTorsions>
[ 6907 6896 6895 6894 ] final  -76.08 input  -60.11 | X-H torsion
[ 7974 7965 7964 7962 ] final -149.20 input  175.53 | X-H torsion
[ 8008 7997 7996 7995 ] final  -95.13 input   59.86 | X-H torsion
[ 10167 10162 10161 10158 ] final   13.54 input  -65.29 | X-H torsion
[ 10718 10713 10712 10709 ] final -104.96 input   66.30 | X-H torsion
[ 10763 10752 10751 10750 ] final   94.90 input  -60.55 | X-H torsion
[ 11005 11000 10999 10996 ] final  126.34 input  -57.11 | X-H torsion

> <Gold.Protein.ActiveResidues>
 VAL166  LYS551  ARG553  GLY616  TRP617  ASP618  TYR619  PRO620  LYS621  CYS622 
 ASP623  PHE694  ASN695  SER759  ASP760  ASP761  ALA762  ILE779  LEU786  VAL792 
 PHE793  MET794  SER795  GLU796  ALA797  LYS798  CYS799  TRP800  GLU811  SER814 

> <Gold.Protein.RotatedAtoms>
  150.7038  134.4626  159.5387 H   0  0  0  0  0  0  0  0  0  0  0  0  # atno 6907 bound_to 6896
  152.2298  134.8330  160.0484 H   0  0  0  0  0  0  0  0  0  0  0  0  # atno 6908 bound_to 6896
  151.9150  133.3536  159.3914 H   0  0  0  0  0  0  0  0  0  0  0  0  # atno 6909 bound_to 6896
  144.7982  140.5096  143.5725 H   0  0  0  0  0  0  0  0  0  0  0  0  # atno 7974 bound_to 7965
  154.7574  140.0483  157.0945 H   0  0  0  0  0  0  0  0  0  0  0  0  # atno 8008 bound_to 7997
  154.9981  140.3121  155.4859 H   0  0  0  0  0  0  0  0  0  0  0  0  # atno 8009 bound_to 7997
  156.2897  140.2206  156.5089 H   0  0  0  0  0  0  0  0  0  0  0  0  # atno 8010 bound_to 7997
  140.5996  143.8632  150.6952 H   0  0  0  0  0  0  0  0  0  0  0  0  # atno 10167 bound_to 10162
  156.0326  130.5540  150.7470 H   0  0  0  0  0  0  0  0  0  0  0  0  # atno 10718 bound_to 10713
  153.2470  135.4273  155.0758 H   0  0  0  0  0  0  0  0  0  0  0  0  # atno 10763 bound_to 10752
  154.8365  135.3416  154.6567 H   0  0  0  0  0  0  0  0  0  0  0  0  # atno 10764 bound_to 10752
  153.6990  135.7029  153.5125 H   0  0  0  0  0  0  0  0  0  0  0  0  # atno 10765 bound_to 10752
  139.9451  134.9630  156.8693 H   0  0  0  0  0  0  0  0  0  0  0  0  # atno 11005 bound_to 11000
  145.5619  139.1480  143.3336 LP  0  0  0  0  0  0  0  0  0  0  0  0  # atno 17320 bound_to 7965
  146.2256  140.5755  142.8998 LP  0  0  0  0  0  0  0  0  0  0  0  0  # atno 17321 bound_to 7965
  140.2174  143.3835  152.1670 LP  0  0  0  0  0  0  0  0  0  0  0  0  # atno 17342 bound_to 10162
  139.5282  144.7127  151.5153 LP  0  0  0  0  0  0  0  0  0  0  0  0  # atno 17343 bound_to 10162
  157.5024  131.0919  151.0298 LP  0  0  0  0  0  0  0  0  0  0  0  0  # atno 17370 bound_to 10713
  157.0675  130.5850  149.5396 LP  0  0  0  0  0  0  0  0  0  0  0  0  # atno 17371 bound_to 10713
  140.5854  134.0312  155.7479 LP  0  0  0  0  0  0  0  0  0  0  0  0  # atno 17394 bound_to 11000
  141.1099  133.9633  157.2929 LP  0  0  0  0  0  0  0  0  0  0  0  0  # atno 17395 bound_to 11000

$$$$
