#       Name:                AV-unprocessed.smi:3348
#       Creating user name   scv26
#       Creation time:       Fri Mar 27 19:34:29 2020


#       File generated by GOLD software.
#

@<TRIPOS>MOLECULE
AV-unprocessed.smi:3348
    50    51     1
SMALL
NO_CHARGES


@<TRIPOS>ATOM
      1 ****        -0.6840   3.9245  -0.6796 C.3            1 S1                 0.0000
      2 ****        -1.0782   3.1376   0.5813 C.3            1 S1                 0.0000
      3 ****        -2.6121   3.1033   0.7439 C.3            1 S1                 0.0000
      4 ****        -3.0459   2.4120   1.9474 N.pl3          1 S1                 0.0000
      5 ****        -3.9346   1.3628   2.0569 C.2            1 S1                 0.0000
      6 ****        -4.0484   1.0617   3.3838 C.2            1 S1                 0.0000
      7 ****        -3.1908   2.0026   4.0189 C.2            1 S1                 0.0000
      8 ****        -2.5966   2.8120   3.1571 N.2            1 S1                 0.0000
      9 ****        -0.5400   1.7588   0.5376 N.4            1 S1                 1.0000
     10 ****         0.9066   1.6352   0.8125 C.3            1 S1                 0.0000
     11 ****         1.3358   0.1652   0.8185 C.3            1 S1                 0.0000
     12 ****         1.2320  -0.3386  -0.5049 O.3            1 S1                 0.0000
     13 ****         1.6288  -1.6965  -0.6540 C.3            1 S1                 0.0000
     14 ****         0.4616  -2.6253  -0.2563 C.3            1 S1                 0.0000
     15 ****         0.7943  -4.0992  -0.5306 C.3            1 S1                 0.0000
     16 ****         1.1839  -4.3120  -1.9996 C.3            1 S1                 0.0000
     17 ****         2.3513  -3.3967  -2.3975 C.3            1 S1                 0.0000
     18 ****         2.0315  -1.9122  -2.1305 C.3            1 S1                 0.0000
     19 ****         3.2188  -1.0220  -2.5327 C.3            1 S1                 0.0000
     20 ****        -1.1019   4.9314  -0.6563 H              1 S1                 0.0000
     21 ****        -1.0501   3.4360  -1.5833 H              1 S1                 0.0000
     22 ****         0.3967   4.0294  -0.7716 H              1 S1                 0.0000
     23 ****        -0.6531   3.6465   1.4477 H              1 S1                 0.0000
     24 ****        -3.0101   4.1183   0.7802 H              1 S1                 0.0000
     25 ****        -3.0728   2.6191  -0.1186 H              1 S1                 0.0000
     26 ****        -4.4071   0.9212   1.1917 H              1 S1                 0.0000
     27 ****        -4.6573   0.2914   3.8335 H              1 S1                 0.0000
     28 ****        -2.9862   2.1226   5.0726 H              1 S1                 0.0000
     29 ****        -1.0241   1.2231   1.2442 H              1 S1                 0.0000
     30 ****         1.4867   2.1875   0.0734 H              1 S1                 0.0000
     31 ****         1.1190   2.0779   1.7864 H              1 S1                 0.0000
     32 ****         2.3702   0.0903   1.1570 H              1 S1                 0.0000
     33 ****         0.7211  -0.4060   1.5144 H              1 S1                 0.0000
     34 ****         2.4965  -1.9072  -0.0258 H              1 S1                 0.0000
     35 ****         0.2162  -2.5066   0.7986 H              1 S1                 0.0000
     36 ****        -0.4333  -2.3469  -0.8140 H              1 S1                 0.0000
     37 ****         1.6140  -4.4159   0.1157 H              1 S1                 0.0000
     38 ****        -0.0603  -4.7274  -0.2777 H              1 S1                 0.0000
     39 ****         1.4561  -5.3548  -2.1651 H              1 S1                 0.0000
     40 ****         0.3246  -4.1107  -2.6406 H              1 S1                 0.0000
     41 ****         3.2438  -3.6871  -1.8416 H              1 S1                 0.0000
     42 ****         2.5844  -3.5446  -3.4525 H              1 S1                 0.0000
     43 ****         1.1828  -1.6362  -2.7583 H              1 S1                 0.0000
     44 ****         4.0955  -1.2288  -1.9182 H              1 S1                 0.0000
     45 ****         2.9783   0.0357  -2.4235 H              1 S1                 0.0000
     46 ****         3.4970  -1.1862  -3.5740 H              1 S1                 0.0000
     47 ****        -0.7426   1.3535  -0.3653 H              1 S1                 0.0000
     48 ****        -1.9572   3.5546   3.3568 LP             1 S1                 0.0000
     49 ****         1.8094   0.2221  -1.0984 LP             1 S1                 0.0000
     50 ****         0.2785  -0.2585  -0.7953 LP             1 S1                 0.0000
@<TRIPOS>BOND
    1    1    2 1     
    2    1   20 1     
    3    1   21 1     
    4    1   22 1     
    5    2    3 1     
    6    2    9 1     
    7    2   23 1     
    8    3    4 1     
    9    3   24 1     
   10    3   25 1     
   11    4    8 1     
   12    4    5 1     
   13    5    6 2     
   14    5   26 1     
   15    6    7 1     
   16    6   27 1     
   17    7    8 2     
   18    7   28 1     
   19    9   10 1     
   20    9   29 1     
   21    9   47 1     
   22   10   11 1     
   23   10   30 1     
   24   10   31 1     
   25   11   12 1     
   26   11   32 1     
   27   11   33 1     
   28   12   13 1     
   29   13   18 1     
   30   13   14 1     
   31   13   34 1     
   32   14   15 1     
   33   14   35 1     
   34   14   36 1     
   35   15   16 1     
   36   15   37 1     
   37   15   38 1     
   38   16   17 1     
   39   16   39 1     
   40   16   40 1     
   41   17   18 1     
   42   17   41 1     
   43   17   42 1     
   44   18   19 1     
   45   18   43 1     
   46   19   44 1     
   47   19   45 1     
   48   19   46 1     
   49    8   48 1     
   50   12   49 1     
   51   12   50 1     
@<TRIPOS>SUBSTRUCTURE
      1 S1             1
@<TRIPOS>SET
LONE_PAIRS      STATIC     ATOMS    <user>   **** ""
3 48 49 50
DONOR_HYDROGENS      STATIC     ATOMS    <user>   **** ""
2 29 47
ATOM$BLUE        STATIC     ATOMS    COLORGROUP SYSTEM
3 48 49 50
ATOM$RED        STATIC     ATOMS    COLORGROUP SYSTEM
2 29 47
