AV-unprocessed.smi:1072|AV-procd|sdf|4688|dock7
  -GOLD-   22720 3203D 1   1.00000     0.00000
 Structure written by MMmdl.
 45 46  0  0  0  0  0  0  0  0  2 V2000
  150.0225  133.9255  155.6286 C   0  0  0  0  0  0  0  0  0  0  0  0
  149.9511  135.4195  155.3962 C   0  0  0  0  0  0  0  0  0  0  0  0
  150.9381  136.0130  154.8411 N   0  0  0  0  0  0  0  0  0  0  0  0
  150.8771  137.3998  154.6229 C   0  0  0  0  0  0  0  0  0  0  0  0
  152.0945  138.0213  153.9605 C   0  0  0  0  0  0  0  0  0  0  0  0
  149.7820  138.1249  154.9910 C   0  0  0  0  0  0  0  0  0  0  0  0
  149.6714  139.6346  154.7781 C   0  0  0  0  0  0  0  0  0  0  0  0
  150.7181  140.4906  155.4956 C   0  0  0  0  0  0  0  0  0  0  0  0
  151.8781  140.5222  155.0852 O   0  0  0  0  0  0  0  0  0  0  0  0
  150.2793  141.1696  156.5713 N   0  0  0  0  0  0  0  0  0  0  0  0
  151.0203  142.0478  157.4879 C   0  0  1  0  0  0  0  0  0  0  0  0
  152.1534  141.1720  158.0647 C   0  0  0  0  0  0  0  0  0  0  0  0
  151.6182  143.2550  156.7134 C   0  0  0  0  0  0  0  0  0  0  0  0
  152.2691  144.3032  157.6336 C   0  0  0  0  0  0  0  0  0  0  0  0
  151.2940  144.7908  158.7201 C   0  0  2  0  0  0  0  0  0  0  0  0
  151.9461  145.8444  159.6265 C   0  0  0  0  0  0  0  0  0  0  0  0
  150.7586  143.5997  159.5349 C   0  0  0  0  0  0  0  0  0  0  0  0
  150.0935  142.5459  158.6312 C   0  0  0  0  0  0  0  0  0  0  0  0
  148.6641  137.4023  155.6243 C   0  0  0  0  0  0  0  0  0  0  0  0
  147.6474  138.0057  155.9652 O   0  0  0  0  0  0  0  0  0  0  0  0
  148.8036  136.0584  155.8095 N   0  5  0  0  0  0  0  0  0  0  0  0
  150.8376  133.4782  155.0580 H   0  0  0  0  0  0  0  0  0  0  0  0
  149.0919  133.4458  155.3232 H   0  0  0  0  0  0  0  0  0  0  0  0
  150.1888  133.7178  156.6859 H   0  0  0  0  0  0  0  0  0  0  0  0
  152.5686  138.7394  154.6294 H   0  0  0  0  0  0  0  0  0  0  0  0
  151.8125  138.5347  153.0413 H   0  0  0  0  0  0  0  0  0  0  0  0
  152.8349  137.2625  153.7046 H   0  0  0  0  0  0  0  0  0  0  0  0
  149.7008  139.8812  153.7166 H   0  0  0  0  0  0  0  0  0  0  0  0
  148.6795  139.9483  155.1054 H   0  0  0  0  0  0  0  0  0  0  0  0
  149.3010  141.0540  156.7923 H   0  0  0  0  0  0  0  0  0  0  0  0
  152.7832  141.7129  158.7696 H   0  0  0  0  0  0  0  0  0  0  0  0
  152.8054  140.7984  157.2741 H   0  0  0  0  0  0  0  0  0  0  0  0
  151.7529  140.3054  158.5921 H   0  0  0  0  0  0  0  0  0  0  0  0
  152.3463  142.9077  155.9792 H   0  0  0  0  0  0  0  0  0  0  0  0
  150.8430  143.7641  156.1415 H   0  0  0  0  0  0  0  0  0  0  0  0
  153.1667  143.8914  158.0952 H   0  0  0  0  0  0  0  0  0  0  0  0
  152.6026  145.1496  157.0322 H   0  0  0  0  0  0  0  0  0  0  0  0
  150.4463  145.2646  158.2227 H   0  0  0  0  0  0  0  0  0  0  0  0
  152.8063  145.4343  160.1566 H   0  0  0  0  0  0  0  0  0  0  0  0
  151.2402  146.2127  160.3713 H   0  0  0  0  0  0  0  0  0  0  0  0
  152.2894  146.7016  159.0468 H   0  0  0  0  0  0  0  0  0  0  0  0
  151.5670  143.1462  160.1089 H   0  0  0  0  0  0  0  0  0  0  0  0
  150.0322  143.9523  160.2681 H   0  0  0  0  0  0  0  0  0  0  0  0
  149.1904  142.9970  158.2215 H   0  0  0  0  0  0  0  0  0  0  0  0
  149.7548  141.7037  159.2358 H   0  0  0  0  0  0  0  0  0  0  0  0
  1  2  1  0  0  0  0
  1 22  1  0  0  0  0
  1 23  1  0  0  0  0
  1 24  1  0  0  0  0
  2 21  1  0  0  0  0
  2  3  2  0  0  0  0
  3  4  1  0  0  0  0
  4  5  1  0  0  0  0
  4  6  2  0  0  0  0
  5 25  1  0  0  0  0
  5 26  1  0  0  0  0
  5 27  1  0  0  0  0
  6  7  1  0  0  0  0
  6 19  1  0  0  0  0
  7  8  1  0  0  0  0
  7 28  1  0  0  0  0
  7 29  1  0  0  0  0
  8  9  2  0  0  0  0
  8 10  1  0  0  0  0
 10 11  1  0  0  0  0
 10 30  1  0  0  0  0
 11 18  1  0  0  0  0
 11 12  1  0  0  0  0
 11 13  1  0  0  0  0
 12 31  1  0  0  0  0
 12 32  1  0  0  0  0
 12 33  1  0  0  0  0
 13 14  1  0  0  0  0
 13 34  1  0  0  0  0
 13 35  1  0  0  0  0
 14 15  1  0  0  0  0
 14 36  1  0  0  0  0
 14 37  1  0  0  0  0
 15 16  1  0  0  0  0
 15 17  1  0  0  0  0
 15 38  1  0  0  0  0
 16 39  1  0  0  0  0
 16 40  1  0  0  0  0
 16 41  1  0  0  0  0
 17 18  1  0  0  0  0
 17 42  1  0  0  0  0
 17 43  1  0  0  0  0
 18 44  1  0  0  0  0
 18 45  1  0  0  0  0
 19 20  2  0  0  0  0
 19 21  1  0  0  0  0
M  CHG  1  21  -1
M  END
> <s_m_source_file>
AV-unprocessed.smi

> <i_m_source_file_index>
1072

> <i_lp_mmshare_version>
43012

> <i_f3d_flags>
0

> <s_epik_input>
W0NIM11jMW5jKFtDSDNdKWMoYyg9TylbbkhdMSlbQ0gyXUMoPU8pW05IXVtDQEBdMihbQ0gzXSlbQ0gyXVtDSDJdW0NAQEhdKFtDSDNdKVtDSDJdW0NIMl0y

> <s_epik_cmdline>
J2VwaWtfcHl0aG9uJywgJy1waCcsICc3LjAnLCAnLXRuJywgJzgnLCAnLW1hJywgJzIwMCcsICctbWV0YWxfYmluZGluZycsICctaW1hZScsICc8aW5maWxlLm1hZT4nLCAnLW9tYWUnLCAnPG91dGZpbGUubWFlPic=

> <r_lp_tautomer_probability>
0.839158

> <r_epik_Ionization_Penalty>
6.73882

> <r_epik_Ionization_Penalty_Charging>
8.02239e-08

> <r_epik_Ionization_Penalty_Neutral>
6.73882

> <r_epik_State_Penalty>
4.55873

> <r_epik_Charging_Adjusted_Penalty>
4.55873

> <i_epik_Tot_Q>
-1

> <i_epik_Tot_abs_Q>
1

> <r_epik_Metal_State_Penalty>
0.872514

> <b_epik_Metal_Only>
1

> <s_lp_Force_Field>
OPLS_2005

> <r_lp_Energy>
18.4266

> <b_lp_Chiralities_Consistent>
1

> <s_lp_Variant>
AV-unprocessed.smi:1072-6

> <Gold.Version>
5.8.1

> <Gold.Id.Protein>
6NUR|6NUR_protein|mol2

> <Gold.PLP.Fitness>
38.4233

> <Gold.PLP.PLP>
-33.7394

> <Gold.PLP.part.hbond>
-2.0000

> <Gold.PLP.part.metal>
0.0000

> <Gold.PLP.part.buried>
-1.6990

> <Gold.PLP.part.nonpolar>
-29.8655

> <Gold.PLP.part.repulsive>
0.2859

> <Gold.PLP.ligand.clash>
0.0000

> <Gold.PLP.ligand.torsion>
0.1786

> <Gold.PLP.Chemscore.Hbond>
1.6793

> <Gold.PLP.Chemscore.CHOScore>
0.0000

> <Gold.PLP.Chemscore.Metal>
0.0000

> <Gold.Chemscore.Hbonds>
donor molecule, donor type, donor heavy atom, donor atom, acceptor molecule, acceptor atom, score
      P1  H  7989  7998       L1     9  0.70
      P1  H 10752 10765       L1     3  0.86

> <Gold.PLP.Chemscore.Internal.Correction>
0.0033

> <Gold.Rescore>
     Score         DG    S(hbond)    S(metal)    S(lipo)     H(rot)  DE(clash)    DE(int)     intcor
     16.60     -18.83       1.55        0.00     101.31       1.43       0.63       1.60       ----

> <Gold.Chemscore.Fitness>
16.6003

> <Gold.Chemscore.DG>
-18.8284

> <Gold.Chemscore.ZeroCoef>
-5.4800

> <Gold.Chemscore.Hbond>
1.5465

> <Gold.Chemscore.Metal>
0.0000

> <Gold.Chemscore.Lipo>
101.3141

> <Gold.Chemscore.Internal_Hbond>
0.0000

> <Gold.Chemscore.DEClash>
0.6285

> <Gold.Chemscore.DEInternal>
1.5996

> <Gold.Chemscore.Rot>
1.4339

> <Gold.Chemscore.Internal.Correction>
   9.000000E+99

> <Gold.Chemscore.Hbonds>
donor molecule, donor type, donor heavy atom, donor atom, acceptor molecule, acceptor atom, score
      P1  H  7989  7998       L1     9  0.24
      P1  H 10752 10765       L1     3  0.41

> <Gold.Chemscore.Hbond.Weighted>
-5.1655

> <Gold.Chemscore.Metal.Weighted>
-0.0000

> <Gold.Chemscore.Lipo.Weighted>
-11.8537

> <Gold.Chemscore.Internal_Hbond.Weighted>
0.0000

> <Gold.Chemscore.DEClash.Weighted>
0.6285

> <Gold.Chemscore.DEInternal.Weighted>
1.5996

> <Gold.Chemscore.Rot.Weighted>
3.6708

> <Gold.Chemscore.Internal.Correction.Weighted>
   9.000000E+99

> <Gold.Protein.RotatedTorsions>
[ 6907 6896 6895 6894 ] final   41.82 input  -60.11 | X-H torsion
[ 7974 7965 7964 7962 ] final  170.01 input  175.53 | X-H torsion
[ 8008 7997 7996 7995 ] final  115.09 input   59.86 | X-H torsion
[ 10167 10162 10161 10158 ] final   -2.97 input  -65.29 | X-H torsion
[ 10718 10713 10712 10709 ] final   76.28 input   66.30 | X-H torsion
[ 10763 10752 10751 10750 ] final -169.66 input  -60.55 | X-H torsion
[ 11005 11000 10999 10996 ] final  111.35 input  -57.11 | X-H torsion

> <Gold.Protein.ActiveResidues>
 VAL166  LYS551  ARG553  GLY616  TRP617  ASP618  TYR619  PRO620  LYS621  CYS622 
 ASP623  PHE694  ASN695  SER759  ASP760  ASP761  ALA762  ILE779  LEU786  VAL792 
 PHE793  MET794  SER795  GLU796  ALA797  LYS798  CYS799  TRP800  GLU811  SER814 

> <Gold.Protein.RotatedAtoms>
  152.2001  134.8595  160.0508 H   0  0  0  0  0  0  0  0  0  0  0  0  # atno 6907 bound_to 6896
  151.9452  133.3644  159.3988 H   0  0  0  0  0  0  0  0  0  0  0  0  # atno 6908 bound_to 6896
  150.6953  134.4322  159.5298 H   0  0  0  0  0  0  0  0  0  0  0  0  # atno 6909 bound_to 6896
  144.7337  139.9138  143.6416 H   0  0  0  0  0  0  0  0  0  0  0  0  # atno 7974 bound_to 7965
  156.2361  140.2945  156.0315 H   0  0  0  0  0  0  0  0  0  0  0  0  # atno 8008 bound_to 7997
  155.2088  140.0412  157.2947 H   0  0  0  0  0  0  0  0  0  0  0  0  # atno 8009 bound_to 7997
  154.6081  140.2444  155.7712 H   0  0  0  0  0  0  0  0  0  0  0  0  # atno 8010 bound_to 7997
  140.6872  143.6594  150.8280 H   0  0  0  0  0  0  0  0  0  0  0  0  # atno 10167 bound_to 10162
  157.6667  130.9767  150.1475 H   0  0  0  0  0  0  0  0  0  0  0  0  # atno 10718 bound_to 10713
  154.6499  135.2910  154.9999 H   0  0  0  0  0  0  0  0  0  0  0  0  # atno 10763 bound_to 10752
  154.1096  135.6564  153.4886 H   0  0  0  0  0  0  0  0  0  0  0  0  # atno 10764 bound_to 10752
  153.0371  135.5262  154.7403 H   0  0  0  0  0  0  0  0  0  0  0  0  # atno 10765 bound_to 10752
  139.8902  134.9506  156.6419 H   0  0  0  0  0  0  0  0  0  0  0  0  # atno 11005 bound_to 11000
  146.0980  139.3974  143.0364 LP  0  0  0  0  0  0  0  0  0  0  0  0  # atno 17320 bound_to 7965
  145.7618  140.9932  143.1196 LP  0  0  0  0  0  0  0  0  0  0  0  0  # atno 17321 bound_to 7965
  140.0302  143.5451  152.2763 LP  0  0  0  0  0  0  0  0  0  0  0  0  # atno 17342 bound_to 10162
  139.6241  144.7634  151.2676 LP  0  0  0  0  0  0  0  0  0  0  0  0  # atno 17343 bound_to 10162
  156.2282  130.3680  149.8475 LP  0  0  0  0  0  0  0  0  0  0  0  0  # atno 17370 bound_to 10713
  156.6309  130.8665  151.3495 LP  0  0  0  0  0  0  0  0  0  0  0  0  # atno 17371 bound_to 10713
  140.7587  133.8836  155.8401 LP  0  0  0  0  0  0  0  0  0  0  0  0  # atno 17394 bound_to 11000
  140.9940  134.1240  157.4381 LP  0  0  0  0  0  0  0  0  0  0  0  0  # atno 17395 bound_to 11000

$$$$
