AV-unprocessed.smi:3185|AV-procd|sdf|12170|dock6
  -GOLD-   2272018 03D 1   1.00000     0.00000
 Structure written by MMmdl.
 37 38  0  0  0  0  0  0  0  0  1 V2000
  151.2990  135.8152  155.2835 N   0  0  0  0  0  0  0  0  0  0  0  0
  150.3198  135.2573  155.0218 C   0  0  0  0  0  0  0  0  0  0  0  0
  149.0754  134.5479  154.6891 C   0  0  0  0  0  0  0  0  0  0  0  0
  149.2899  133.4181  153.6762 C   0  0  0  0  0  0  0  0  0  0  0  0
  147.9638  132.8065  153.2086 C   0  0  0  0  0  0  0  0  0  0  0  0
  147.1196  133.8510  152.6475 N   0  0  0  0  0  0  0  0  0  0  0  0
  146.3733  133.3957  151.4764 C   0  0  1  0  0  0  0  0  0  0  0  0
  145.7376  132.0036  151.7002 C   0  0  0  0  0  0  0  0  0  0  0  0
  144.9431  131.5536  150.4633 C   0  0  0  0  0  0  0  0  0  0  0  0
  143.8737  132.5812  150.0632 C   0  0  0  0  0  0  0  0  0  0  0  0
  144.4842  133.9804  149.8592 C   0  0  0  0  0  0  0  0  0  0  0  0
  145.3296  134.4699  151.0582 C   0  0  1  0  0  0  0  0  0  0  0  0
  144.5049  134.9822  152.1569 N   0  0  0  0  0  0  0  0  0  0  0  0
  143.5870  136.0122  152.1008 C   0  0  0  0  0  0  0  0  0  0  0  0
  143.0479  136.1588  153.3465 C   0  0  0  0  0  0  0  0  0  0  0  0
  143.7057  135.1605  154.1156 C   0  0  0  0  0  0  0  0  0  0  0  0
  144.5730  134.4617  153.4034 N   0  0  0  0  0  0  0  0  0  0  0  0
  148.6585  134.1542  155.6162 H   0  0  0  0  0  0  0  0  0  0  0  0
  148.3677  135.2800  154.2997 H   0  0  0  0  0  0  0  0  0  0  0  0
  149.8410  133.8042  152.8175 H   0  0  0  0  0  0  0  0  0  0  0  0
  149.9149  132.6452  154.1257 H   0  0  0  0  0  0  0  0  0  0  0  0
  148.1554  132.0417  152.4549 H   0  0  0  0  0  0  0  0  0  0  0  0
  147.4666  132.3238  154.0494 H   0  0  0  0  0  0  0  0  0  0  0  0
  147.7026  134.6319  152.3828 H   0  0  0  0  0  0  0  0  0  0  0  0
  147.0774  133.3107  150.6470 H   0  0  0  0  0  0  0  0  0  0  0  0
  146.5058  131.2578  151.9019 H   0  0  0  0  0  0  0  0  0  0  0  0
  145.0897  132.0087  152.5762 H   0  0  0  0  0  0  0  0  0  0  0  0
  145.6291  131.4032  149.6289 H   0  0  0  0  0  0  0  0  0  0  0  0
  144.4748  130.5877  150.6544 H   0  0  0  0  0  0  0  0  0  0  0  0
  143.3847  132.2598  149.1433 H   0  0  0  0  0  0  0  0  0  0  0  0
  143.0900  132.6115  150.8191 H   0  0  0  0  0  0  0  0  0  0  0  0
  145.1226  133.9486  148.9754 H   0  0  0  0  0  0  0  0  0  0  0  0
  143.6978  134.7015  149.6332 H   0  0  0  0  0  0  0  0  0  0  0  0
  145.8970  135.3293  150.6973 H   0  0  0  0  0  0  0  0  0  0  0  0
  143.3944  136.5527  151.1857 H   0  0  0  0  0  0  0  0  0  0  0  0
  142.2987  136.8703  153.6601 H   0  0  0  0  0  0  0  0  0  0  0  0
  143.5799  134.9240  155.1617 H   0  0  0  0  0  0  0  0  0  0  0  0
  1  2  3  0  0  0  0
  2  3  1  0  0  0  0
  3  4  1  0  0  0  0
  3 18  1  0  0  0  0
  3 19  1  0  0  0  0
  4  5  1  0  0  0  0
  4 20  1  0  0  0  0
  4 21  1  0  0  0  0
  5  6  1  0  0  0  0
  5 22  1  0  0  0  0
  5 23  1  0  0  0  0
  6  7  1  0  0  0  0
  6 24  1  0  0  0  0
  7 12  1  0  0  0  0
  7  8  1  0  0  0  0
  7 25  1  0  0  0  0
  8  9  1  0  0  0  0
  8 26  1  0  0  0  0
  8 27  1  0  0  0  0
  9 10  1  0  0  0  0
  9 28  1  0  0  0  0
  9 29  1  0  0  0  0
 10 11  1  0  0  0  0
 10 30  1  0  0  0  0
 10 31  1  0  0  0  0
 11 12  1  0  0  0  0
 11 32  1  0  0  0  0
 11 33  1  0  0  0  0
 12 13  1  0  0  0  0
 12 34  1  0  0  0  0
 13 17  1  0  0  0  0
 13 14  1  0  0  0  0
 14 15  2  0  0  0  0
 14 35  1  0  0  0  0
 15 16  1  0  0  0  0
 15 36  1  0  0  0  0
 16 17  2  0  0  0  0
 16 37  1  0  0  0  0
M  END
> <s_m_source_file>
AV-unprocessed.smi

> <i_m_source_file_index>
3185

> <i_lp_mmshare_version>
43012

> <i_f3d_flags>
0

> <s_epik_input>
TiNDW0NIMl1bQ0gyXVtDSDJdW05IXVtDQEBIXTFbQ0gyXVtDSDJdW0NIMl1bQ0gyXVtDQEhdMW4yW2NIXVtjSF1bY0hdbjI=

> <s_epik_cmdline>
J2VwaWtfcHl0aG9uJywgJy1waCcsICc3LjAnLCAnLXRuJywgJzgnLCAnLW1hJywgJzIwMCcsICctbWV0YWxfYmluZGluZycsICctaW1hZScsICc8aW5maWxlLm1hZT4nLCAnLW9tYWUnLCAnPG91dGZpbGUubWFlPic=

> <r_lp_tautomer_probability>
1

> <r_epik_Ionization_Penalty>
2.21326

> <r_epik_Ionization_Penalty_Charging>
0

> <r_epik_Ionization_Penalty_Neutral>
2.21326

> <r_epik_State_Penalty>
2.35651

> <r_epik_Charging_Adjusted_Penalty>
2.35651

> <i_epik_Tot_Q>
0

> <i_epik_Tot_abs_Q>
0

> <r_epik_Metal_State_Penalty>
2.3555

> <b_epik_Metal_Only>
0

> <s_lp_Force_Field>
OPLS_2005

> <r_lp_Energy>
19.4285

> <b_lp_Chiralities_Consistent>
1

> <s_lp_Variant>
AV-unprocessed.smi:3185-6

> <Gold.Version>
5.8.1

> <Gold.Id.Protein>
6NUR|6NUR_protein|mol2

> <Gold.PLP.Fitness>
40.0440

> <Gold.PLP.PLP>
-31.7282

> <Gold.PLP.part.hbond>
-1.9727

> <Gold.PLP.part.metal>
0.0000

> <Gold.PLP.part.buried>
-3.4126

> <Gold.PLP.part.nonpolar>
-26.8364

> <Gold.PLP.part.repulsive>
0.1810

> <Gold.PLP.ligand.clash>
0.0000

> <Gold.PLP.ligand.torsion>
0.3975

> <Gold.PLP.Chemscore.Hbond>
2.0000

> <Gold.PLP.Chemscore.CHOScore>
1.0000

> <Gold.PLP.Chemscore.Metal>
0.0000

> <Gold.Chemscore.Hbonds>
donor molecule, donor type, donor heavy atom, donor atom, acceptor molecule, acceptor atom, score
      L1  H     6    24       P1  7948  0.94
      P1  H 10752 10765       L1     1  1.00
      L1  C    14    35       P1 10171  1.00

> <Gold.PLP.Chemscore.Internal.Correction>
0.1107

> <Gold.Rescore>
     Score         DG    S(hbond)    S(metal)    S(lipo)     H(rot)  DE(clash)    DE(int)     intcor
     13.03     -15.42       1.84        0.00      72.13       1.81       0.53       1.86       ----

> <Gold.Chemscore.Fitness>
13.0343

> <Gold.Chemscore.DG>
-15.4195

> <Gold.Chemscore.ZeroCoef>
-5.4800

> <Gold.Chemscore.Hbond>
1.8374

> <Gold.Chemscore.Metal>
0.0000

> <Gold.Chemscore.Lipo>
72.1266

> <Gold.Chemscore.Internal_Hbond>
0.0000

> <Gold.Chemscore.DEClash>
0.5292

> <Gold.Chemscore.DEInternal>
1.8560

> <Gold.Chemscore.Rot>
1.8110

> <Gold.Chemscore.Internal.Correction>
   9.000000E+99

> <Gold.Chemscore.Hbonds>
donor molecule, donor type, donor heavy atom, donor atom, acceptor molecule, acceptor atom, score
      L1  H     6    24       P1  7948  0.67
      P1  H 10752 10765       L1     1  1.00

> <Gold.Chemscore.Hbond.Weighted>
-6.1369

> <Gold.Chemscore.Metal.Weighted>
-0.0000

> <Gold.Chemscore.Lipo.Weighted>
-8.4388

> <Gold.Chemscore.Internal_Hbond.Weighted>
0.0000

> <Gold.Chemscore.DEClash.Weighted>
0.5292

> <Gold.Chemscore.DEInternal.Weighted>
1.8560

> <Gold.Chemscore.Rot.Weighted>
4.6362

> <Gold.Chemscore.Internal.Correction.Weighted>
   9.000000E+99

> <Gold.Protein.RotatedTorsions>
[ 6907 6896 6895 6894 ] final   -2.00 input  -60.11 | X-H torsion
[ 7974 7965 7964 7962 ] final  -25.16 input  175.53 | X-H torsion
[ 8008 7997 7996 7995 ] final  -45.16 input   59.86 | X-H torsion
[ 10167 10162 10161 10158 ] final  146.83 input  -65.29 | X-H torsion
[ 10718 10713 10712 10709 ] final -177.61 input   66.30 | X-H torsion
[ 10763 10752 10751 10750 ] final -164.75 input  -60.55 | X-H torsion
[ 11005 11000 10999 10996 ] final  167.63 input  -57.11 | X-H torsion

> <Gold.Protein.ActiveResidues>
 VAL166  LYS551  ARG553  GLY616  TRP617  ASP618  TYR619  PRO620  LYS621  CYS622 
 ASP623  PHE694  ASN695  SER759  ASP760  ASP761  ALA762  ILE779  LEU786  VAL792 
 PHE793  MET794  SER795  GLU796  ALA797  LYS798  CYS799  TRP800  GLU811  SER814 

> <Gold.Protein.RotatedAtoms>
  151.5369  135.1068  159.9916 H   0  0  0  0  0  0  0  0  0  0  0  0  # atno 6907 bound_to 6896
  152.4553  133.7707  159.6807 H   0  0  0  0  0  0  0  0  0  0  0  0  # atno 6908 bound_to 6896
  150.8495  133.7744  159.3055 H   0  0  0  0  0  0  0  0  0  0  0  0  # atno 6909 bound_to 6896
  146.1509  140.4849  142.8612 H   0  0  0  0  0  0  0  0  0  0  0  0  # atno 7974 bound_to 7965
  154.4000  140.1404  156.3801 H   0  0  0  0  0  0  0  0  0  0  0  0  # atno 8008 bound_to 7997
  155.8011  140.3476  155.5383 H   0  0  0  0  0  0  0  0  0  0  0  0  # atno 8009 bound_to 7997
  155.8482  140.0937  157.1682 H   0  0  0  0  0  0  0  0  0  0  0  0  # atno 8010 bound_to 7997
  139.4900  144.5800  151.6890 H   0  0  0  0  0  0  0  0  0  0  0  0  # atno 10167 bound_to 10162
  156.8320  130.9656  151.3106 H   0  0  0  0  0  0  0  0  0  0  0  0  # atno 10718 bound_to 10713
  154.6999  135.2986  154.9357 H   0  0  0  0  0  0  0  0  0  0  0  0  # atno 10763 bound_to 10752
  154.0293  135.6672  153.4783 H   0  0  0  0  0  0  0  0  0  0  0  0  # atno 10764 bound_to 10752
  153.0673  135.5081  154.8137 H   0  0  0  0  0  0  0  0  0  0  0  0  # atno 10765 bound_to 10752
  140.2788  134.7767  157.3740 H   0  0  0  0  0  0  0  0  0  0  0  0  # atno 11005 bound_to 11000
  144.7902  140.6017  143.6546 LP  0  0  0  0  0  0  0  0  0  0  0  0  # atno 17320 bound_to 7965
  145.4826  139.1494  143.3753 LP  0  0  0  0  0  0  0  0  0  0  0  0  # atno 17321 bound_to 7965
  140.5404  144.0588  150.6086 LP  0  0  0  0  0  0  0  0  0  0  0  0  # atno 17342 bound_to 10162
  140.3608  143.2909  152.0386 LP  0  0  0  0  0  0  0  0  0  0  0  0  # atno 17343 bound_to 10162
  157.6401  130.8799  149.9433 LP  0  0  0  0  0  0  0  0  0  0  0  0  # atno 17370 bound_to 10713
  156.0929  130.3662  150.0362 LP  0  0  0  0  0  0  0  0  0  0  0  0  # atno 17371 bound_to 10713
  140.1303  134.5104  155.8111 LP  0  0  0  0  0  0  0  0  0  0  0  0  # atno 17394 bound_to 11000
  141.2166  133.6787  156.7027 LP  0  0  0  0  0  0  0  0  0  0  0  0  # atno 17395 bound_to 11000

$$$$
