#       Name:                AV-unprocessed.smi:2593
#       Creating user name   scv26
#       Creation time:       Fri Mar 27 14:17:55 2020


#       File generated by GOLD software.
#

@<TRIPOS>MOLECULE
AV-unprocessed.smi:2593
    44    46     1
SMALL
NO_CHARGES


@<TRIPOS>ATOM
      1 ****        -3.6587   3.2938   1.5116 C.3            1 S1                 0.0000
      2 ****        -2.9009   2.1434   1.1818 O.3            1 S1                 0.0000
      3 ****        -3.0520   1.7623  -0.1762 C.3            1 S1                 0.0000
      4 ****        -2.2049   0.5128  -0.4546 C.3            1 S1                 0.0000
      5 ****        -0.7888   0.7154  -0.1172 N.pl3          1 S1                 0.0000
      6 ****        -0.0897   0.4015   1.0095 C.2            1 S1                 0.0000
      7 ****        -0.7032  -0.4207   2.4428 S.3            1 S1                 0.0000
      8 ****        -0.8720  -2.1562   1.9365 C.3            1 S1                 0.0000
      9 ****         0.4541  -2.6702   1.4096 C.ar           1 S1                 0.0000
     10 ****         1.4526  -3.1241   2.2966 C.ar           1 S1                 0.0000
     11 ****         2.6782  -3.5613   1.7585 C.ar           1 S1                 0.0000
     12 ****         2.8591  -3.5217   0.3622 C.ar           1 S1                 0.0000
     13 ****         1.7996  -3.0501  -0.4394 C.ar           1 S1                 0.0000
     14 ****         1.9426  -2.9884  -1.8229 N.pl3          1 S1                 0.0000
     15 ****         0.6197  -2.6349   0.0676 N.ar           1 S1                 0.0000
     16 ****         1.1953   0.8115   0.8288 N.pl3          1 S1                 1.0000
     17 ****         1.3248   1.3913  -0.4339 C.ar           1 S1                 0.0000
     18 ****         2.4294   1.9466  -1.0722 C.ar           1 S1                 0.0000
     19 ****         2.2194   2.4586  -2.3694 C.ar           1 S1                 0.0000
     20 ****         0.9508   2.4081  -2.9828 C.ar           1 S1                 0.0000
     21 ****        -0.1623   1.8424  -2.3264 C.ar           1 S1                 0.0000
     22 ****         0.0542   1.3359  -1.0454 C.ar           1 S1                 0.0000
     23 ****        -3.5032   3.5465   2.5604 H              1 S1                 0.0000
     24 ****        -4.7249   3.1196   1.3617 H              1 S1                 0.0000
     25 ****        -3.3554   4.1516   0.9102 H              1 S1                 0.0000
     26 ****        -4.1005   1.5529  -0.3930 H              1 S1                 0.0000
     27 ****        -2.7411   2.5796  -0.8285 H              1 S1                 0.0000
     28 ****        -2.5752  -0.3236   0.1372 H              1 S1                 0.0000
     29 ****        -2.2808   0.2088  -1.4989 H              1 S1                 0.0000
     30 ****        -1.1904  -2.7530   2.7915 H              1 S1                 0.0000
     31 ****        -1.6462  -2.2455   1.1739 H              1 S1                 0.0000
     32 ****         1.2859  -3.1329   3.3640 H              1 S1                 0.0000
     33 ****         3.4672  -3.9156   2.4052 H              1 S1                 0.0000
     34 ****         3.7903  -3.8471  -0.0785 H              1 S1                 0.0000
     35 ****         2.7977  -3.2765  -2.2764 H              1 S1                 0.0000
     36 ****         1.1600  -2.7648  -2.4205 H              1 S1                 0.0000
     37 ****         3.4022   1.9877  -0.6042 H              1 S1                 0.0000
     38 ****         3.0479   2.8998  -2.9044 H              1 S1                 0.0000
     39 ****         0.8285   2.8114  -3.9776 H              1 S1                 0.0000
     40 ****        -1.1302   1.8093  -2.8044 H              1 S1                 0.0000
     41 ****         1.9281   0.6926   1.5162 H              1 S1                 0.0000
     42 ****        -3.1994   1.3858   1.7623 LP             1 S1                 0.0000
     43 ****        -1.9349   2.3355   1.3551 LP             1 S1                 0.0000
     44 ****        -0.1117  -2.3102  -0.5321 LP             1 S1                 0.0000
@<TRIPOS>BOND
    1    1    2 1     
    2    1   23 1     
    3    1   24 1     
    4    1   25 1     
    5    2    3 1     
    6    3    4 1     
    7    3   26 1     
    8    3   27 1     
    9    4    5 1     
   10    4   28 1     
   11    4   29 1     
   12    5   22 1     
   13    5    6 1     
   14    6    7 1     
   15    6   16 2     
   16    7    8 1     
   17    8    9 1     
   18    8   30 1     
   19    8   31 1     
   20    9   15 ar    
   21    9   10 ar    
   22   10   11 ar    
   23   10   32 1     
   24   11   12 ar    
   25   11   33 1     
   26   12   13 ar    
   27   12   34 1     
   28   13   14 1     
   29   13   15 ar    
   30   14   35 1     
   31   14   36 1     
   32   16   17 1     
   33   16   41 1     
   34   17   22 ar    
   35   17   18 ar    
   36   18   19 ar    
   37   18   37 1     
   38   19   20 ar    
   39   19   38 1     
   40   20   21 ar    
   41   20   39 1     
   42   21   22 ar    
   43   21   40 1     
   44    2   42 1     
   45    2   43 1     
   46   15   44 1     
@<TRIPOS>SUBSTRUCTURE
      1 S1             1
@<TRIPOS>SET
LONE_PAIRS      STATIC     ATOMS    <user>   **** ""
3 42 43 44
DONOR_HYDROGENS      STATIC     ATOMS    <user>   **** ""
3 35 36 41
ATOM$BLUE        STATIC     ATOMS    COLORGROUP SYSTEM
3 42 43 44
ATOM$RED        STATIC     ATOMS    COLORGROUP SYSTEM
3 35 36 41
