AV-unprocessed.smi:2459|AV-procd|sdf|9712|dock9
  -GOLD-   2272013353D 1   1.00000     0.00000
 Structure written by MMmdl.
 47 48  0  0  0  0  0  0  0  0  2 V2000
  138.3186  140.4850  153.2063 C   0  0  0  0  0  0  0  0  0  0  0  0
  139.0898  139.2854  153.2235 O   0  0  0  0  0  0  0  0  0  0  0  0
  139.4500  138.7203  154.4905 C   0  0  0  0  0  0  0  0  0  0  0  0
  140.4097  139.7515  155.1157 C   0  0  0  0  0  0  0  0  0  0  0  0
  138.1942  138.5960  155.3893 C   0  0  0  0  0  0  0  0  0  0  0  0
  140.2022  137.3812  154.2772 C   0  0  0  0  0  0  0  0  0  0  0  0
  139.7512  136.3565  154.7886 O   0  0  0  0  0  0  0  0  0  0  0  0
  141.3285  137.4153  153.5376 N   0  0  0  0  0  0  0  0  0  0  0  0
  142.2206  136.3596  153.2053 C   0  0  0  0  0  0  0  0  0  0  0  0
  142.1000  135.0341  153.6855 C   0  0  0  0  0  0  0  0  0  0  0  0
  143.0120  134.1041  153.3314 N   0  3  0  0  0  0  0  0  0  0  0  0
  144.0731  134.3551  152.5265 C   0  0  0  0  0  0  0  0  0  0  0  0
  144.9726  133.3091  152.2472 N   0  0  0  0  0  0  0  0  0  0  0  0
  145.8245  132.9614  153.3828 C   0  0  0  0  0  0  0  0  0  0  0  0
  146.9895  132.0600  152.9392 C   0  0  0  0  0  0  0  0  0  0  0  0
  146.4731  130.8218  152.1892 C   0  0  0  0  0  0  0  0  0  0  0  0
  145.5659  131.2466  151.0235 C   0  0  0  0  0  0  0  0  0  0  0  0
  144.4327  132.1633  151.5153 C   0  0  0  0  0  0  0  0  0  0  0  0
  144.2462  135.6681  152.0167 C   0  0  0  0  0  0  0  0  0  0  0  0
  145.3976  136.0256  151.0913 C   0  0  0  0  0  0  0  0  0  0  0  0
  143.3133  136.6684  152.3685 C   0  0  0  0  0  0  0  0  0  0  0  0
  138.1379  140.7717  152.1704 H   0  0  0  0  0  0  0  0  0  0  0  0
  138.8412  141.3138  153.6825 H   0  0  0  0  0  0  0  0  0  0  0  0
  137.3442  140.3649  153.6800 H   0  0  0  0  0  0  0  0  0  0  0  0
  140.7742  139.4196  156.0887 H   0  0  0  0  0  0  0  0  0  0  0  0
  139.9122  140.7108  155.2628 H   0  0  0  0  0  0  0  0  0  0  0  0
  141.2780  139.9364  154.4818 H   0  0  0  0  0  0  0  0  0  0  0  0
  138.4621  138.2974  156.4037 H   0  0  0  0  0  0  0  0  0  0  0  0
  137.4762  137.8662  155.0150 H   0  0  0  0  0  0  0  0  0  0  0  0
  137.6733  139.5512  155.4618 H   0  0  0  0  0  0  0  0  0  0  0  0
  141.5512  138.3122  153.1306 H   0  0  0  0  0  0  0  0  0  0  0  0
  141.3275  134.6759  154.3488 H   0  0  0  0  0  0  0  0  0  0  0  0
  146.2174  133.8577  153.8621 H   0  0  0  0  0  0  0  0  0  0  0  0
  145.2206  132.4456  154.1307 H   0  0  0  0  0  0  0  0  0  0  0  0
  147.6618  132.6251  152.2921 H   0  0  0  0  0  0  0  0  0  0  0  0
  147.5770  131.7550  153.8057 H   0  0  0  0  0  0  0  0  0  0  0  0
  147.3098  130.2276  151.8205 H   0  0  0  0  0  0  0  0  0  0  0  0
  145.9147  130.1835  152.8751 H   0  0  0  0  0  0  0  0  0  0  0  0
  146.1584  131.7695  150.2714 H   0  0  0  0  0  0  0  0  0  0  0  0
  145.1490  130.3668  150.5327 H   0  0  0  0  0  0  0  0  0  0  0  0
  143.7607  131.5999  152.1643 H   0  0  0  0  0  0  0  0  0  0  0  0
  143.8446  132.5111  150.6650 H   0  0  0  0  0  0  0  0  0  0  0  0
  145.1459  136.8886  150.4743 H   0  0  0  0  0  0  0  0  0  0  0  0
  145.6390  135.2017  150.4193 H   0  0  0  0  0  0  0  0  0  0  0  0
  146.2874  136.2736  151.6697 H   0  0  0  0  0  0  0  0  0  0  0  0
  143.4341  137.6739  151.9912 H   0  0  0  0  0  0  0  0  0  0  0  0
  142.8998  133.1597  153.7003 H   0  0  0  0  0  0  0  0  0  0  0  0
  1  2  1  0  0  0  0
  1 22  1  0  0  0  0
  1 23  1  0  0  0  0
  1 24  1  0  0  0  0
  2  3  1  0  0  0  0
  3  4  1  0  0  0  0
  3  5  1  0  0  0  0
  3  6  1  0  0  0  0
  4 25  1  0  0  0  0
  4 26  1  0  0  0  0
  4 27  1  0  0  0  0
  5 28  1  0  0  0  0
  5 29  1  0  0  0  0
  5 30  1  0  0  0  0
  6  7  2  0  0  0  0
  6  8  1  0  0  0  0
  8  9  1  0  0  0  0
  8 31  1  0  0  0  0
  9 21  1  0  0  0  0
  9 10  2  0  0  0  0
 10 11  1  0  0  0  0
 10 32  1  0  0  0  0
 11 12  2  0  0  0  0
 11 47  1  0  0  0  0
 12 13  1  0  0  0  0
 12 19  1  0  0  0  0
 13 18  1  0  0  0  0
 13 14  1  0  0  0  0
 14 15  1  0  0  0  0
 14 33  1  0  0  0  0
 14 34  1  0  0  0  0
 15 16  1  0  0  0  0
 15 35  1  0  0  0  0
 15 36  1  0  0  0  0
 16 17  1  0  0  0  0
 16 37  1  0  0  0  0
 16 38  1  0  0  0  0
 17 18  1  0  0  0  0
 17 39  1  0  0  0  0
 17 40  1  0  0  0  0
 18 41  1  0  0  0  0
 18 42  1  0  0  0  0
 19 20  1  0  0  0  0
 19 21  2  0  0  0  0
 20 43  1  0  0  0  0
 20 44  1  0  0  0  0
 20 45  1  0  0  0  0
 21 46  1  0  0  0  0
M  CHG  1  11   1
M  END
> <s_m_source_file>
AV-unprocessed.smi

> <i_m_source_file_index>
2459

> <i_lp_mmshare_version>
43012

> <i_f3d_flags>
0

> <s_epik_input>
W0NIM11PQyhbQ0gzXSkoW0NIM10pQyg9TylbTkhdYzFbY0hdbmMoYyhbQ0gzXSlbY0hdMSlOMltDSDJdW0NIMl1bQ0gyXVtDSDJdW0NIMl0y

> <s_epik_cmdline>
J2VwaWtfcHl0aG9uJywgJy1waCcsICc3LjAnLCAnLXRuJywgJzgnLCAnLW1hJywgJzIwMCcsICctbWV0YWxfYmluZGluZycsICctaW1hZScsICc8aW5maWxlLm1hZT4nLCAnLW9tYWUnLCAnPG91dGZpbGUubWFlPic=

> <r_lp_tautomer_probability>
0.999994

> <r_epik_Ionization_Penalty>
1.22605

> <r_epik_Ionization_Penalty_Charging>
1.22604

> <r_epik_Ionization_Penalty_Neutral>
3.07462e-06

> <r_epik_State_Penalty>
0.10642

> <r_epik_Charging_Adjusted_Penalty>
1.33246

> <i_epik_Tot_Q>
1

> <i_epik_Tot_abs_Q>
1

> <r_epik_Metal_State_Penalty>
0.12082

> <b_epik_Metal_Only>
0

> <s_lp_Force_Field>
OPLS_2005

> <r_lp_Energy>
38.0416

> <b_lp_Chiralities_Consistent>
1

> <s_lp_Variant>
AV-unprocessed.smi:2459-1

> <Gold.Version>
5.8.1

> <Gold.Id.Protein>
6NUR|6NUR_protein|mol2

> <Gold.PLP.Fitness>
41.3711

> <Gold.PLP.PLP>
-32.5144

> <Gold.PLP.part.hbond>
-2.0000

> <Gold.PLP.part.metal>
0.0000

> <Gold.PLP.part.buried>
-5.9809

> <Gold.PLP.part.nonpolar>
-24.7164

> <Gold.PLP.part.repulsive>
0.5654

> <Gold.PLP.ligand.clash>
0.0000

> <Gold.PLP.ligand.torsion>
0.2236

> <Gold.PLP.Chemscore.Hbond>
3.0000

> <Gold.PLP.Chemscore.CHOScore>
0.0000

> <Gold.PLP.Chemscore.Metal>
0.0000

> <Gold.Chemscore.Hbonds>
donor molecule, donor type, donor heavy atom, donor atom, acceptor molecule, acceptor atom, score
      L1  H    11    47       P1 10957  2.00
      P1  H 11000 11005       L1     7  1.00

> <Gold.PLP.Chemscore.Internal.Correction>
0.3039

> <Gold.Rescore>
     Score         DG    S(hbond)    S(metal)    S(lipo)     H(rot)  DE(clash)    DE(int)     intcor
     16.42     -17.97       1.98        0.00      79.60       1.34       0.06       1.48       ----

> <Gold.Chemscore.Fitness>
16.4242

> <Gold.Chemscore.DG>
-17.9691

> <Gold.Chemscore.ZeroCoef>
-5.4800

> <Gold.Chemscore.Hbond>
1.9790

> <Gold.Chemscore.Metal>
0.0000

> <Gold.Chemscore.Lipo>
79.6041

> <Gold.Chemscore.Internal_Hbond>
0.0000

> <Gold.Chemscore.DEClash>
0.0628

> <Gold.Chemscore.DEInternal>
1.4821

> <Gold.Chemscore.Rot>
1.3416

> <Gold.Chemscore.Internal.Correction>
   9.000000E+99

> <Gold.Chemscore.Hbonds>
donor molecule, donor type, donor heavy atom, donor atom, acceptor molecule, acceptor atom, score
      L1  H    11    47       P1 10957  0.99
      P1  H 11000 11005       L1     7  0.93

> <Gold.Chemscore.Hbond.Weighted>
-6.6100

> <Gold.Chemscore.Metal.Weighted>
-0.0000

> <Gold.Chemscore.Lipo.Weighted>
-9.3137

> <Gold.Chemscore.Internal_Hbond.Weighted>
0.0000

> <Gold.Chemscore.DEClash.Weighted>
0.0628

> <Gold.Chemscore.DEInternal.Weighted>
1.4821

> <Gold.Chemscore.Rot.Weighted>
3.4346

> <Gold.Chemscore.Internal.Correction.Weighted>
   9.000000E+99

> <Gold.Protein.RotatedTorsions>
[ 6907 6896 6895 6894 ] final  -18.46 input  -60.11 | X-H torsion
[ 7974 7965 7964 7962 ] final  -91.62 input  175.53 | X-H torsion
[ 8008 7997 7996 7995 ] final  -50.72 input   59.86 | X-H torsion
[ 10167 10162 10161 10158 ] final -114.22 input  -65.29 | X-H torsion
[ 10718 10713 10712 10709 ] final  125.31 input   66.30 | X-H torsion
[ 10763 10752 10751 10750 ] final  138.95 input  -60.55 | X-H torsion
[ 11005 11000 10999 10996 ] final   68.61 input  -57.11 | X-H torsion

> <Gold.Protein.ActiveResidues>
 VAL166  LYS551  ARG553  GLY616  TRP617  ASP618  TYR619  PRO620  LYS621  CYS622 
 ASP623  PHE694  ASN695  SER759  ASP760  ASP761  ALA762  ILE779  LEU786  VAL792 
 PHE793  MET794  SER795  GLU796  ALA797  LYS798  CYS799  TRP800  GLU811  SER814 

> <Gold.Protein.RotatedAtoms>
  151.2779  135.0705  159.9158 H   0  0  0  0  0  0  0  0  0  0  0  0  # atno 6907 bound_to 6896
  152.5339  134.0062  159.7927 H   0  0  0  0  0  0  0  0  0  0  0  0  # atno 6908 bound_to 6896
  151.0311  133.5739  159.2691 H   0  0  0  0  0  0  0  0  0  0  0  0  # atno 6909 bound_to 6896
  145.4107  140.9545  143.2235 H   0  0  0  0  0  0  0  0  0  0  0  0  # atno 7974 bound_to 7965
  154.4067  140.1265  156.4711 H   0  0  0  0  0  0  0  0  0  0  0  0  # atno 8008 bound_to 7997
  155.7178  140.3493  155.4983 H   0  0  0  0  0  0  0  0  0  0  0  0  # atno 8009 bound_to 7997
  155.9242  140.1058  157.1173 H   0  0  0  0  0  0  0  0  0  0  0  0  # atno 8010 bound_to 7997
  140.1034  143.4592  152.1798 H   0  0  0  0  0  0  0  0  0  0  0  0  # atno 10167 bound_to 10162
  157.5513  131.1094  150.8697 H   0  0  0  0  0  0  0  0  0  0  0  0  # atno 10718 bound_to 10713
  153.8980  135.3025  155.3448 H   0  0  0  0  0  0  0  0  0  0  0  0  # atno 10763 bound_to 10752
  154.7684  135.4898  153.9603 H   0  0  0  0  0  0  0  0  0  0  0  0  # atno 10764 bound_to 10752
  153.1260  135.6793  153.9355 H   0  0  0  0  0  0  0  0  0  0  0  0  # atno 10765 bound_to 10752
  139.9702  134.6914  156.0463 H   0  0  0  0  0  0  0  0  0  0  0  0  # atno 11005 bound_to 11000
  144.8311  139.5627  143.6943 LP  0  0  0  0  0  0  0  0  0  0  0  0  # atno 17320 bound_to 7965
  146.2706  139.6626  142.9298 LP  0  0  0  0  0  0  0  0  0  0  0  0  # atno 17321 bound_to 7965
  139.5659  144.7434  151.4025 LP  0  0  0  0  0  0  0  0  0  0  0  0  # atno 17342 bound_to 10162
  140.6965  143.7735  150.7335 LP  0  0  0  0  0  0  0  0  0  0  0  0  # atno 17343 bound_to 10162
  156.9221  130.5319  149.5279 LP  0  0  0  0  0  0  0  0  0  0  0  0  # atno 17370 bound_to 10713
  156.0579  130.5637  150.9131 LP  0  0  0  0  0  0  0  0  0  0  0  0  # atno 17371 bound_to 10713
  141.1381  133.6570  156.3652 LP  0  0  0  0  0  0  0  0  0  0  0  0  # atno 17394 bound_to 11000
  140.5311  134.6212  157.5350 LP  0  0  0  0  0  0  0  0  0  0  0  0  # atno 17395 bound_to 11000

$$$$
