AV-unprocessed.smi:459|AV-procd|sdf|2624|dock6
  -GOLD-   2262023 23D 1   1.00000     0.00000
 Structure written by MMmdl.
 43 45  0  0  0  0  0  0  0  0  1 V2000
  155.6454  138.0618  165.3123 C   0  0  0  0  0  0  0  0  0  0  0  0
  156.0335  137.1407  164.3032 O   0  0  0  0  0  0  0  0  0  0  0  0
  155.2439  137.0414  163.1777 C   0  0  0  0  0  0  0  0  0  0  0  0
  155.0932  135.8600  162.4110 C   0  0  0  0  0  0  0  0  0  0  0  0
  154.2630  135.8506  161.2737 C   0  0  0  0  0  0  0  0  0  0  0  0
  153.5681  137.0088  160.8738 C   0  0  0  0  0  0  0  0  0  0  0  0
  152.7792  136.9081  159.7490 O   0  0  0  0  0  0  0  0  0  0  0  0
  152.0456  138.0526  159.3332 C   0  0  0  0  0  0  0  0  0  0  0  0
  152.6673  138.6225  158.0504 C   0  0  0  0  0  0  0  0  0  0  0  0
  152.1173  139.9278  157.7127 N   0  0  0  0  0  0  0  0  0  0  0  0
  151.4490  140.3075  156.5925 C   0  0  0  0  0  0  0  0  0  0  0  0
  151.1462  139.3659  155.4625 C   0  0  0  0  0  0  0  0  0  0  0  0
  152.3972  138.6818  154.8887 C   0  0  0  0  0  0  0  0  0  0  0  0
  153.4492  139.6087  154.7194 O   0  0  0  0  0  0  0  0  0  0  0  0
  151.0620  141.5837  156.5553 N   0  0  0  0  0  0  0  0  0  0  0  0
  151.5252  142.0792  157.7580 C   0  0  0  0  0  0  0  0  0  0  0  0
  151.4342  143.3757  158.3133 C   0  0  0  0  0  0  0  0  0  0  0  0
  151.9936  143.6510  159.5784 C   0  0  0  0  0  0  0  0  0  0  0  0
  152.6509  142.6366  160.3042 C   0  0  0  0  0  0  0  0  0  0  0  0
  152.7521  141.3381  159.7688 C   0  0  0  0  0  0  0  0  0  0  0  0
  152.1911  141.0681  158.5061 C   0  0  0  0  0  0  0  0  0  0  0  0
  153.7186  138.1902  161.6403 C   0  0  0  0  0  0  0  0  0  0  0  0
  154.5484  138.1994  162.7778 C   0  0  0  0  0  0  0  0  0  0  0  0
  156.3675  138.0269  166.1281 H   0  0  0  0  0  0  0  0  0  0  0  0
  154.6679  137.8105  165.7264 H   0  0  0  0  0  0  0  0  0  0  0  0
  155.6258  139.0845  164.9332 H   0  0  0  0  0  0  0  0  0  0  0  0
  155.6042  134.9465  162.6740 H   0  0  0  0  0  0  0  0  0  0  0  0
  154.1594  134.9415  160.6995 H   0  0  0  0  0  0  0  0  0  0  0  0
  151.0046  137.7864  159.1447 H   0  0  0  0  0  0  0  0  0  0  0  0
  152.0629  138.8142  160.1145 H   0  0  0  0  0  0  0  0  0  0  0  0
  153.7497  138.6904  158.1472 H   0  0  0  0  0  0  0  0  0  0  0  0
  152.4835  137.9442  157.2166 H   0  0  0  0  0  0  0  0  0  0  0  0
  150.4755  138.5975  155.8488 H   0  0  0  0  0  0  0  0  0  0  0  0
  150.5840  139.8670  154.6755 H   0  0  0  0  0  0  0  0  0  0  0  0
  152.7229  137.8591  155.5258 H   0  0  0  0  0  0  0  0  0  0  0  0
  152.1678  138.2586  153.9106 H   0  0  0  0  0  0  0  0  0  0  0  0
  153.2533  140.1517  153.9710 H   0  0  0  0  0  0  0  0  0  0  0  0
  150.9339  144.1594  157.7643 H   0  0  0  0  0  0  0  0  0  0  0  0
  151.9180  144.6454  159.9933 H   0  0  0  0  0  0  0  0  0  0  0  0
  153.0773  142.8557  161.2722 H   0  0  0  0  0  0  0  0  0  0  0  0
  153.2551  140.5588  160.3219 H   0  0  0  0  0  0  0  0  0  0  0  0
  153.2077  139.1037  161.3775 H   0  0  0  0  0  0  0  0  0  0  0  0
  154.6519  139.1090  163.3513 H   0  0  0  0  0  0  0  0  0  0  0  0
  1  2  1  0  0  0  0
  1 24  1  0  0  0  0
  1 25  1  0  0  0  0
  1 26  1  0  0  0  0
  2  3  1  0  0  0  0
  3 23  1  0  0  0  0
  3  4  2  0  0  0  0
  4  5  1  0  0  0  0
  4 27  1  0  0  0  0
  5  6  2  0  0  0  0
  5 28  1  0  0  0  0
  6  7  1  0  0  0  0
  6 22  1  0  0  0  0
  7  8  1  0  0  0  0
  8  9  1  0  0  0  0
  8 29  1  0  0  0  0
  8 30  1  0  0  0  0
  9 10  1  0  0  0  0
  9 31  1  0  0  0  0
  9 32  1  0  0  0  0
 10 21  1  0  0  0  0
 10 11  1  0  0  0  0
 11 12  1  0  0  0  0
 11 15  2  0  0  0  0
 12 13  1  0  0  0  0
 12 33  1  0  0  0  0
 12 34  1  0  0  0  0
 13 14  1  0  0  0  0
 13 35  1  0  0  0  0
 13 36  1  0  0  0  0
 14 37  1  0  0  0  0
 15 16  1  0  0  0  0
 16 21  2  0  0  0  0
 16 17  1  0  0  0  0
 17 18  2  0  0  0  0
 17 38  1  0  0  0  0
 18 19  1  0  0  0  0
 18 39  1  0  0  0  0
 19 20  2  0  0  0  0
 19 40  1  0  0  0  0
 20 21  1  0  0  0  0
 20 41  1  0  0  0  0
 22 23  2  0  0  0  0
 22 42  1  0  0  0  0
 23 43  1  0  0  0  0
M  END
> <s_m_source_file>
AV-unprocessed.smi

> <i_m_source_file_index>
459

> <i_lp_mmshare_version>
43012

> <i_f3d_flags>
0

> <s_epik_input>
W0NIM11PYzFbY0hdW2NIXWMoW2NIXVtjSF0xKU9bQ0gyXVtDSDJdbihjKG4yKVtDSDJdW0NIMl1bT0hdKWMoYzIzKVtjSF1bY0hdW2NIXVtjSF0z

> <s_epik_cmdline>
J2VwaWtfcHl0aG9uJywgJy1waCcsICc3LjAnLCAnLXRuJywgJzgnLCAnLW1hJywgJzIwMCcsICctbWV0YWxfYmluZGluZycsICctaW1hZScsICc8aW5maWxlLm1hZT4nLCAnLW9tYWUnLCAnPG91dGZpbGUubWFlPic=

> <r_lp_tautomer_probability>
1

> <r_epik_Ionization_Penalty>
0.207087

> <r_epik_Ionization_Penalty_Charging>
0

> <r_epik_Ionization_Penalty_Neutral>
0.207087

> <r_epik_State_Penalty>
0.197081

> <r_epik_Charging_Adjusted_Penalty>
0.197081

> <i_epik_Tot_Q>
0

> <i_epik_Tot_abs_Q>
0

> <r_epik_Metal_State_Penalty>
0.00023377

> <b_epik_Metal_Only>
0

> <s_lp_Force_Field>
OPLS_2005

> <r_lp_Energy>
17.9825

> <b_lp_Chiralities_Consistent>
1

> <s_lp_Variant>
AV-unprocessed.smi:459-1

> <Gold.Version>
5.8.1

> <Gold.Id.Protein>
6NUR|6NUR_protein|mol2

> <Gold.PLP.Fitness>
48.5376

> <Gold.PLP.PLP>
-44.1642

> <Gold.PLP.part.hbond>
-3.0000

> <Gold.PLP.part.metal>
0.0000

> <Gold.PLP.part.buried>
-5.2272

> <Gold.PLP.part.nonpolar>
-36.5578

> <Gold.PLP.part.repulsive>
0.1028

> <Gold.PLP.ligand.clash>
0.0000

> <Gold.PLP.ligand.torsion>
0.8265

> <Gold.PLP.Chemscore.Hbond>
1.9913

> <Gold.PLP.Chemscore.CHOScore>
0.0000

> <Gold.PLP.Chemscore.Metal>
0.0000

> <Gold.Chemscore.Hbonds>
donor molecule, donor type, donor heavy atom, donor atom, acceptor molecule, acceptor atom, score
      P1  H  6896  6908       L1     7  1.00
      P1  H  7997  8010       L1    14  0.98

> <Gold.PLP.Chemscore.Internal.Correction>
0.0527

> <Gold.Rescore>
     Score         DG    S(hbond)    S(metal)    S(lipo)     H(rot)  DE(clash)    DE(int)     intcor
     18.95     -19.75       1.83        0.00     126.43       2.59       0.01       0.78       ----

> <Gold.Chemscore.Fitness>
18.9535

> <Gold.Chemscore.DG>
-19.7487

> <Gold.Chemscore.ZeroCoef>
-5.4800

> <Gold.Chemscore.Hbond>
1.8298

> <Gold.Chemscore.Metal>
0.0000

> <Gold.Chemscore.Lipo>
126.4255

> <Gold.Chemscore.Internal_Hbond>
0.0000

> <Gold.Chemscore.DEClash>
0.0149

> <Gold.Chemscore.DEInternal>
0.7803

> <Gold.Chemscore.Rot>
2.5916

> <Gold.Chemscore.Internal.Correction>
   9.000000E+99

> <Gold.Chemscore.Hbonds>
donor molecule, donor type, donor heavy atom, donor atom, acceptor molecule, acceptor atom, score
      P1  H  6896  6908       L1     7  0.28
      P1  H  7997  8010       L1    14  0.92

> <Gold.Chemscore.Hbond.Weighted>
-6.1115

> <Gold.Chemscore.Metal.Weighted>
-0.0000

> <Gold.Chemscore.Lipo.Weighted>
-14.7918

> <Gold.Chemscore.Internal_Hbond.Weighted>
0.0000

> <Gold.Chemscore.DEClash.Weighted>
0.0149

> <Gold.Chemscore.DEInternal.Weighted>
0.7803

> <Gold.Chemscore.Rot.Weighted>
6.6346

> <Gold.Chemscore.Internal.Correction.Weighted>
   9.000000E+99

> <Gold.Protein.RotatedTorsions>
[ 6907 6896 6895 6894 ] final -101.14 input  -60.11 | X-H torsion
[ 7974 7965 7964 7962 ] final  -34.78 input  175.53 | X-H torsion
[ 8008 7997 7996 7995 ] final   93.91 input   59.86 | X-H torsion
[ 10167 10162 10161 10158 ] final   68.37 input  -65.29 | X-H torsion
[ 10718 10713 10712 10709 ] final  -56.47 input   66.30 | X-H torsion
[ 10763 10752 10751 10750 ] final  162.45 input  -60.55 | X-H torsion
[ 11005 11000 10999 10996 ] final  127.43 input  -57.11 | X-H torsion

> <Gold.Protein.ActiveResidues>
 VAL166  LYS551  ARG553  GLY616  TRP617  ASP618  TYR619  PRO620  LYS621  CYS622 
 ASP623  PHE694  ASN695  SER759  ASP760  ASP761  ALA762  ILE779  LEU786  VAL792 
 PHE793  MET794  SER795  GLU796  ALA797  LYS798  CYS799  TRP800  GLU811  SER814 

> <Gold.Protein.RotatedAtoms>
  150.7143  134.0779  159.3887 H   0  0  0  0  0  0  0  0  0  0  0  0  # atno 6907 bound_to 6896
  151.8763  135.0468  160.0493 H   0  0  0  0  0  0  0  0  0  0  0  0  # atno 6908 bound_to 6896
  152.2603  133.5256  159.5414 H   0  0  0  0  0  0  0  0  0  0  0  0  # atno 6909 bound_to 6896
  146.0801  140.6080  142.8912 H   0  0  0  0  0  0  0  0  0  0  0  0  # atno 7974 bound_to 7965
  156.0521  140.3306  155.7363 H   0  0  0  0  0  0  0  0  0  0  0  0  # atno 8008 bound_to 7997
  155.5585  140.0617  157.2851 H   0  0  0  0  0  0  0  0  0  0  0  0  # atno 8009 bound_to 7997
  154.4440  140.1881  156.0747 H   0  0  0  0  0  0  0  0  0  0  0  0  # atno 8010 bound_to 7997
  140.0794  144.5084  150.7172 H   0  0  0  0  0  0  0  0  0  0  0  0  # atno 10167 bound_to 10162
  156.1286  130.4161  150.0309 H   0  0  0  0  0  0  0  0  0  0  0  0  # atno 10718 bound_to 10713
  154.2786  135.2764  155.2707 H   0  0  0  0  0  0  0  0  0  0  0  0  # atno 10763 bound_to 10752
  154.5238  135.5749  153.6706 H   0  0  0  0  0  0  0  0  0  0  0  0  # atno 10764 bound_to 10752
  152.9933  135.6211  154.2944 H   0  0  0  0  0  0  0  0  0  0  0  0  # atno 10765 bound_to 10752
  139.9507  134.9622  156.8854 H   0  0  0  0  0  0  0  0  0  0  0  0  # atno 11005 bound_to 11000
  144.7288  140.4607  143.6953 LP  0  0  0  0  0  0  0  0  0  0  0  0  # atno 17320 bound_to 7965
  145.6233  139.1527  143.3010 LP  0  0  0  0  0  0  0  0  0  0  0  0  # atno 17321 bound_to 7965
  140.7085  143.2487  151.4652 LP  0  0  0  0  0  0  0  0  0  0  0  0  # atno 17342 bound_to 10162
  139.5789  144.1756  152.1941 LP  0  0  0  0  0  0  0  0  0  0  0  0  # atno 17343 bound_to 10162
  156.8228  130.9364  151.3640 LP  0  0  0  0  0  0  0  0  0  0  0  0  # atno 17370 bound_to 10713
  157.6466  130.8849  149.9550 LP  0  0  0  0  0  0  0  0  0  0  0  0  # atno 17371 bound_to 10713
  140.5726  134.0429  155.7435 LP  0  0  0  0  0  0  0  0  0  0  0  0  # atno 17394 bound_to 11000
  141.1169  133.9525  157.2805 LP  0  0  0  0  0  0  0  0  0  0  0  0  # atno 17395 bound_to 11000

$$$$
