AV-unprocessed.smi:1762|AV-procd|sdf|7107|dock6
  -GOLD-   22720 8333D 1   1.00000     0.00000
 Structure written by MMmdl.
 53 54  0  0  0  0  0  0  0  0  2 V2000
  152.1672  138.9337  155.5268 C   0  0  0  0  0  0  0  0  0  0  0  0
  151.7605  138.2120  154.2300 C   0  0  2  0  0  0  0  0  0  0  0  0
  150.4436  138.7376  153.6255 C   0  0  0  0  0  0  0  0  0  0  0  0
  149.2463  138.3116  154.3625 N   0  0  0  0  0  0  0  0  0  0  0  0
  147.9899  138.8681  153.7847 C   0  0  1  0  0  0  0  0  0  0  0  0
  146.7606  137.9424  153.9604 C   0  0  0  0  0  0  0  0  0  0  0  0
  146.2443  137.7880  155.0669 O   0  0  0  0  0  0  0  0  0  0  0  0
  146.3260  137.3043  152.8614 N   0  0  0  0  0  0  0  0  0  0  0  0
  145.2345  136.3352  152.8316 C   0  0  0  0  0  0  0  0  0  0  0  0
  144.8284  135.9155  151.4054 C   0  0  0  0  0  0  0  0  0  0  0  0
  144.9119  134.4187  151.1630 C   0  0  0  0  0  0  0  0  0  0  0  0
  146.1120  133.6975  151.3446 C   0  0  0  0  0  0  0  0  0  0  0  0
  146.1278  132.3099  151.0909 C   0  0  0  0  0  0  0  0  0  0  0  0
  144.9450  131.6731  150.6612 C   0  0  0  0  0  0  0  0  0  0  0  0
  143.7746  132.4414  150.4964 C   0  0  0  0  0  0  0  0  0  0  0  0
  143.8007  133.7684  150.7487 N   0  3  0  0  0  0  0  0  0  0  0  0
  147.6720  140.3377  154.2259 C   0  0  0  0  0  0  0  0  0  0  0  0
  146.6294  141.0481  153.3388 C   0  0  0  0  0  0  0  0  0  0  0  0
  148.9237  141.2199  154.3963 C   0  0  0  0  0  0  0  0  0  0  0  0
  149.2773  136.8460  154.4950 C   0  0  0  0  0  0  0  0  0  0  0  0
  150.5767  136.3348  155.1439 C   0  0  1  0  0  0  0  0  0  0  0  0
  150.6373  134.8036  155.1856 C   0  0  0  0  0  0  0  0  0  0  0  0
  151.6989  136.7981  154.4010 O   0  0  0  0  0  0  0  0  0  0  0  0
  152.3317  139.9958  155.3432 H   0  0  0  0  0  0  0  0  0  0  0  0
  153.0933  138.5210  155.9269 H   0  0  0  0  0  0  0  0  0  0  0  0
  151.4027  138.8538  156.2993 H   0  0  0  0  0  0  0  0  0  0  0  0
  152.5555  138.3946  153.5063 H   0  0  0  0  0  0  0  0  0  0  0  0
  150.5185  139.8222  153.5859 H   0  0  0  0  0  0  0  0  0  0  0  0
  150.3725  138.3972  152.5910 H   0  0  0  0  0  0  0  0  0  0  0  0
  148.1436  138.9220  152.7048 H   0  0  0  0  0  0  0  0  0  0  0  0
  146.8140  137.4715  151.9929 H   0  0  0  0  0  0  0  0  0  0  0  0
  145.5561  135.4564  153.3914 H   0  0  0  0  0  0  0  0  0  0  0  0
  144.3701  136.7352  153.3643 H   0  0  0  0  0  0  0  0  0  0  0  0
  143.8081  136.2455  151.2073 H   0  0  0  0  0  0  0  0  0  0  0  0
  145.4551  136.4289  150.6743 H   0  0  0  0  0  0  0  0  0  0  0  0
  147.0107  134.2001  151.6717 H   0  0  0  0  0  0  0  0  0  0  0  0
  147.0368  131.7411  151.2232 H   0  0  0  0  0  0  0  0  0  0  0  0
  144.9362  130.6115  150.4614 H   0  0  0  0  0  0  0  0  0  0  0  0
  142.8262  132.0388  150.1718 H   0  0  0  0  0  0  0  0  0  0  0  0
  147.2493  140.2937  155.2282 H   0  0  0  0  0  0  0  0  0  0  0  0
  146.9980  141.2200  152.3282 H   0  0  0  0  0  0  0  0  0  0  0  0
  146.3655  142.0205  153.7552 H   0  0  0  0  0  0  0  0  0  0  0  0
  145.7070  140.4722  153.2625 H   0  0  0  0  0  0  0  0  0  0  0  0
  149.3922  141.4547  153.4404 H   0  0  0  0  0  0  0  0  0  0  0  0
  149.6645  140.7307  155.0288 H   0  0  0  0  0  0  0  0  0  0  0  0
  148.6679  142.1681  154.8701 H   0  0  0  0  0  0  0  0  0  0  0  0
  148.4607  136.4869  155.1206 H   0  0  0  0  0  0  0  0  0  0  0  0
  149.1490  136.3849  153.5141 H   0  0  0  0  0  0  0  0  0  0  0  0
  150.6418  136.7050  156.1674 H   0  0  0  0  0  0  0  0  0  0  0  0
  149.8085  134.3934  155.7631 H   0  0  0  0  0  0  0  0  0  0  0  0
  151.5641  134.4628  155.6472 H   0  0  0  0  0  0  0  0  0  0  0  0
  150.5889  134.3789  154.1823 H   0  0  0  0  0  0  0  0  0  0  0  0
  142.9428  134.3059  150.6199 H   0  0  0  0  0  0  0  0  0  0  0  0
  1  2  1  0  0  0  0
  1 24  1  0  0  0  0
  1 25  1  0  0  0  0
  1 26  1  0  0  0  0
  2 23  1  0  0  0  0
  2  3  1  0  0  0  0
  2 27  1  0  0  0  0
  3  4  1  0  0  0  0
  3 28  1  0  0  0  0
  3 29  1  0  0  0  0
  4  5  1  0  0  0  0
  4 20  1  0  0  0  0
  5  6  1  0  0  0  0
  5 17  1  0  0  0  0
  5 30  1  0  0  0  0
  6  7  2  0  0  0  0
  6  8  1  0  0  0  0
  8  9  1  0  0  0  0
  8 31  1  0  0  0  0
  9 10  1  0  0  0  0
  9 32  1  0  0  0  0
  9 33  1  0  0  0  0
 10 11  1  0  0  0  0
 10 34  1  0  0  0  0
 10 35  1  0  0  0  0
 11 16  1  0  0  0  0
 11 12  2  0  0  0  0
 12 13  1  0  0  0  0
 12 36  1  0  0  0  0
 13 14  2  0  0  0  0
 13 37  1  0  0  0  0
 14 15  1  0  0  0  0
 14 38  1  0  0  0  0
 15 16  2  0  0  0  0
 15 39  1  0  0  0  0
 16 53  1  0  0  0  0
 17 18  1  0  0  0  0
 17 19  1  0  0  0  0
 17 40  1  0  0  0  0
 18 41  1  0  0  0  0
 18 42  1  0  0  0  0
 18 43  1  0  0  0  0
 19 44  1  0  0  0  0
 19 45  1  0  0  0  0
 19 46  1  0  0  0  0
 20 21  1  0  0  0  0
 20 47  1  0  0  0  0
 20 48  1  0  0  0  0
 21 22  1  0  0  0  0
 21 23  1  0  0  0  0
 21 49  1  0  0  0  0
 22 50  1  0  0  0  0
 22 51  1  0  0  0  0
 22 52  1  0  0  0  0
M  CHG  1  16   1
M  END
> <s_m_source_file>
AV-unprocessed.smi

> <i_m_source_file_index>
1762

> <i_lp_mmshare_version>
43012

> <i_f3d_flags>
0

> <s_epik_input>
W0NIM11bQ0BASF0xW0NIMl1OKFtDSDJdW0NASF0oTzEpW0NIM10pW0NAQEhdKFtDSF0oW0NIM10pW0NIM10pQyg9TylbTkhdW0NIMl1bQ0gyXWMyW2NIXVtjSF1bY0hdW2NIXW4y

> <s_epik_cmdline>
J2VwaWtfcHl0aG9uJywgJy1waCcsICc3LjAnLCAnLXRuJywgJzgnLCAnLW1hJywgJzIwMCcsICctbWV0YWxfYmluZGluZycsICctaW1hZScsICc8aW5maWxlLm1hZT4nLCAnLW9tYWUnLCAnPG91dGZpbGUubWFlPic=

> <r_epik_Ionization_Penalty>
1.86475

> <r_epik_Ionization_Penalty_Charging>
1.85347

> <r_epik_Ionization_Penalty_Neutral>
0.0112771

> <r_epik_State_Penalty>
1.99714

> <r_epik_Charging_Adjusted_Penalty>
3.85061

> <i_epik_Tot_Q>
1

> <i_epik_Tot_abs_Q>
1

> <r_epik_Metal_State_Penalty>
2.02271

> <b_epik_Metal_Only>
0

> <s_lp_Force_Field>
OPLS_2005

> <r_lp_Energy>
36.6316

> <b_lp_Chiralities_Consistent>
1

> <s_lp_Variant>
AV-unprocessed.smi:1762-9

> <Gold.Version>
5.8.1

> <Gold.Id.Protein>
6NUR|6NUR_protein|mol2

> <Gold.PLP.Fitness>
42.6104

> <Gold.PLP.PLP>
-37.7947

> <Gold.PLP.part.hbond>
-3.0000

> <Gold.PLP.part.metal>
0.0000

> <Gold.PLP.part.buried>
-2.6636

> <Gold.PLP.part.nonpolar>
-33.7317

> <Gold.PLP.part.repulsive>
0.4377

> <Gold.PLP.ligand.clash>
0.0000

> <Gold.PLP.ligand.torsion>
1.5219

> <Gold.PLP.Chemscore.Hbond>
2.4914

> <Gold.PLP.Chemscore.CHOScore>
0.0000

> <Gold.PLP.Chemscore.Metal>
0.0000

> <Gold.Chemscore.Hbonds>
donor molecule, donor type, donor heavy atom, donor atom, acceptor molecule, acceptor atom, score
      L1  H    16    53       P1 10186  1.03
      P1  H 10752 10764       L1    23  1.00

> <Gold.PLP.Chemscore.Internal.Correction>
0.3854

> <Gold.Rescore>
     Score         DG    S(hbond)    S(metal)    S(lipo)     H(rot)  DE(clash)    DE(int)     intcor
     15.44     -17.74       1.12        0.00     110.32       1.72       0.84       1.46       ----

> <Gold.Chemscore.Fitness>
15.4434

> <Gold.Chemscore.DG>
-17.7437

> <Gold.Chemscore.ZeroCoef>
-5.4800

> <Gold.Chemscore.Hbond>
1.1238

> <Gold.Chemscore.Metal>
0.0000

> <Gold.Chemscore.Lipo>
110.3153

> <Gold.Chemscore.Internal_Hbond>
0.0000

> <Gold.Chemscore.DEClash>
0.8417

> <Gold.Chemscore.DEInternal>
1.4586

> <Gold.Chemscore.Rot>
1.7174

> <Gold.Chemscore.Internal.Correction>
   9.000000E+99

> <Gold.Chemscore.Hbonds>
donor molecule, donor type, donor heavy atom, donor atom, acceptor molecule, acceptor atom, score
      L1  H     8    31       P1  7948  0.01
      L1  H    16    53       P1 10186  0.33
      P1  H 10752 10764       L1    23  0.93

> <Gold.Chemscore.Hbond.Weighted>
-3.7534

> <Gold.Chemscore.Metal.Weighted>
-0.0000

> <Gold.Chemscore.Lipo.Weighted>
-12.9069

> <Gold.Chemscore.Internal_Hbond.Weighted>
0.0000

> <Gold.Chemscore.DEClash.Weighted>
0.8417

> <Gold.Chemscore.DEInternal.Weighted>
1.4586

> <Gold.Chemscore.Rot.Weighted>
4.3966

> <Gold.Chemscore.Internal.Correction.Weighted>
   9.000000E+99

> <Gold.Protein.RotatedTorsions>
[ 6907 6896 6895 6894 ] final  166.67 input  -60.11 | X-H torsion
[ 7974 7965 7964 7962 ] final   23.91 input  175.53 | X-H torsion
[ 8008 7997 7996 7995 ] final -154.69 input   59.86 | X-H torsion
[ 10167 10162 10161 10158 ] final   17.40 input  -65.29 | X-H torsion
[ 10718 10713 10712 10709 ] final   87.31 input   66.30 | X-H torsion
[ 10763 10752 10751 10750 ] final  -86.42 input  -60.55 | X-H torsion
[ 11005 11000 10999 10996 ] final   76.26 input  -57.11 | X-H torsion

> <Gold.Protein.ActiveResidues>
 VAL166  LYS551  ARG553  GLY616  TRP617  ASP618  TYR619  PRO620  LYS621  CYS622 
 ASP623  PHE694  ASN695  SER759  ASP760  ASP761  ALA762  ILE779  LEU786  VAL792 
 PHE793  MET794  SER795  GLU796  ALA797  LYS798  CYS799  TRP800  GLU811  SER814 

> <Gold.Protein.RotatedAtoms>
  151.8752  133.3484  159.3747 H   0  0  0  0  0  0  0  0  0  0  0  0  # atno 6907 bound_to 6896
  150.7142  134.5073  159.5599 H   0  0  0  0  0  0  0  0  0  0  0  0  # atno 6908 bound_to 6896
  152.2613  134.8031  160.0481 H   0  0  0  0  0  0  0  0  0  0  0  0  # atno 6909 bound_to 6896
  146.1962  139.7678  142.8795 H   0  0  0  0  0  0  0  0  0  0  0  0  # atno 7974 bound_to 7965
  155.6903  140.0754  157.2451 H   0  0  0  0  0  0  0  0  0  0  0  0  # atno 8008 bound_to 7997
  154.4090  140.1666  156.2131 H   0  0  0  0  0  0  0  0  0  0  0  0  # atno 8009 bound_to 7997
  155.9458  140.3381  155.6369 H   0  0  0  0  0  0  0  0  0  0  0  0  # atno 8010 bound_to 7997
  140.5729  143.9128  150.6727 H   0  0  0  0  0  0  0  0  0  0  0  0  # atno 10167 bound_to 10162
  157.6938  131.0250  150.3103 H   0  0  0  0  0  0  0  0  0  0  0  0  # atno 10718 bound_to 10713
  154.6223  135.5450  153.7588 H   0  0  0  0  0  0  0  0  0  0  0  0  # atno 10763 bound_to 10752
  153.0244  135.6415  154.1423 H   0  0  0  0  0  0  0  0  0  0  0  0  # atno 10764 bound_to 10752
  154.1357  135.2911  155.3154 H   0  0  0  0  0  0  0  0  0  0  0  0  # atno 10765 bound_to 10752
  139.9306  134.7586  156.1374 H   0  0  0  0  0  0  0  0  0  0  0  0  # atno 11005 bound_to 11000
  145.3634  141.0330  143.3272 LP  0  0  0  0  0  0  0  0  0  0  0  0  # atno 17320 bound_to 7965
  144.8586  139.5211  143.6823 LP  0  0  0  0  0  0  0  0  0  0  0  0  # atno 17321 bound_to 7965
  140.2608  143.3525  152.1324 LP  0  0  0  0  0  0  0  0  0  0  0  0  # atno 17342 bound_to 10162
  139.5127  144.6920  151.5733 LP  0  0  0  0  0  0  0  0  0  0  0  0  # atno 17343 bound_to 10162
  156.3606  130.3846  149.7254 LP  0  0  0  0  0  0  0  0  0  0  0  0  # atno 17370 bound_to 10713
  156.4702  130.7993  151.3011 LP  0  0  0  0  0  0  0  0  0  0  0  0  # atno 17371 bound_to 10713
  141.0892  133.6721  156.2503 LP  0  0  0  0  0  0  0  0  0  0  0  0  # atno 17394 bound_to 11000
  140.6213  134.5359  157.5548 LP  0  0  0  0  0  0  0  0  0  0  0  0  # atno 17395 bound_to 11000

$$$$
