#       Name:                AV-unprocessed.smi:1033
#       Creating user name   scv26
#       Creation time:       Fri Mar 27 02:47:25 2020


#       File generated by GOLD software.
#

@<TRIPOS>MOLECULE
AV-unprocessed.smi:1033
    62    64     1
SMALL
NO_CHARGES


@<TRIPOS>ATOM
      1 ****        -6.7509   2.2595   3.5473 C.3            1 S1                 0.0000
      2 ****        -5.5406   2.2470   2.6301 C.ar           1 S1                 0.0000
      3 ****        -5.7368   2.1339   1.2354 C.ar           1 S1                 0.0000
      4 ****        -4.6379   2.1149   0.3491 C.ar           1 S1                 0.0000
      5 ****        -4.5979   2.0076  -1.0304 N.2            1 S1                 0.0000
      6 ****        -3.2898   2.0446  -1.2646 C.2            1 S1                 0.0000
      7 ****        -2.4749   2.1596  -0.1983 N.pl3          1 S1                 0.0000
      8 ****        -1.0236   2.2091  -0.2132 C.3            1 S1                 0.0000
      9 ****        -0.3903   0.8062  -0.1440 C.3            1 S1                 0.0000
     10 ****        -0.7228   0.2048   1.0928 O.3            1 S1                 0.0000
     11 ****         1.1452   0.8639  -0.2680 C.3            1 S1                 0.0000
     12 ****         1.7739  -0.4817  -0.2684 N.4            1 S1                 1.0000
     13 ****         3.2054  -0.4387   0.1263 C.3            1 S1                 0.0000
     14 ****         3.7872  -1.8656   0.1936 C.3            1 S1                 0.0000
     15 ****         3.6493  -2.6055  -1.0605 N.3            1 S1                 0.0000
     16 ****         4.5515  -2.1167  -2.1101 C.3            1 S1                 0.0000
     17 ****         4.6565  -3.0082  -3.3637 C.3            1 S1                 0.0000
     18 ****         5.2475  -4.3938  -3.0655 C.3            1 S1                 0.0000
     19 ****         5.5030  -2.3594  -4.2885 O.3            1 S1                 0.0000
     20 ****         2.2325  -2.6294  -1.4331 C.3            1 S1                 0.0000
     21 ****         1.6052  -1.2250  -1.5460 C.3            1 S1                 0.0000
     22 ****        -3.3267   2.2142   0.9001 C.ar           1 S1                 0.0000
     23 ****        -3.1189   2.3301   2.2860 C.ar           1 S1                 0.0000
     24 ****        -4.2280   2.3458   3.1576 C.ar           1 S1                 0.0000
     25 ****        -3.9940   2.4682   4.6530 C.3            1 S1                 0.0000
     26 ****        -7.6794   2.1698   2.9827 H              1 S1                 0.0000
     27 ****        -6.7920   3.1906   4.1131 H              1 S1                 0.0000
     28 ****        -6.7062   1.4277   4.2506 H              1 S1                 0.0000
     29 ****        -6.7367   2.0590   0.8337 H              1 S1                 0.0000
     30 ****        -2.9003   1.9802  -2.2701 H              1 S1                 0.0000
     31 ****        -0.7122   2.7164  -1.1273 H              1 S1                 0.0000
     32 ****        -0.6841   2.8300   0.6172 H              1 S1                 0.0000
     33 ****        -0.8132   0.1994  -0.9441 H              1 S1                 0.0000
     34 ****        -1.6645   0.1998   1.1817 H              1 S1                 0.0000
     35 ****         1.4371   1.3961  -1.1747 H              1 S1                 0.0000
     36 ****         1.5368   1.4478   0.5666 H              1 S1                 0.0000
     37 ****         3.7673   0.1800  -0.5748 H              1 S1                 0.0000
     38 ****         3.3000   0.0320   1.1057 H              1 S1                 0.0000
     39 ****         4.8369  -1.8249   0.4870 H              1 S1                 0.0000
     40 ****         3.2798  -2.4153   0.9876 H              1 S1                 0.0000
     41 ****         4.2606  -1.1115  -2.4148 H              1 S1                 0.0000
     42 ****         5.5536  -2.0144  -1.6912 H              1 S1                 0.0000
     43 ****         3.6844  -3.1179  -3.8434 H              1 S1                 0.0000
     44 ****         4.6136  -4.9512  -2.3754 H              1 S1                 0.0000
     45 ****         6.2387  -4.3165  -2.6169 H              1 S1                 0.0000
     46 ****         5.3387  -4.9871  -3.9757 H              1 S1                 0.0000
     47 ****         5.5635  -2.8921  -5.0671 H              1 S1                 0.0000
     48 ****         2.0888  -3.1778  -2.3631 H              1 S1                 0.0000
     49 ****         1.6826  -3.1950  -0.6796 H              1 S1                 0.0000
     50 ****         0.5477  -1.3348  -1.7818 H              1 S1                 0.0000
     51 ****         2.0509  -0.6641  -2.3682 H              1 S1                 0.0000
     52 ****        -2.1143   2.4035   2.6754 H              1 S1                 0.0000
     53 ****        -2.9307   2.5303   4.8860 H              1 S1                 0.0000
     54 ****        -4.4007   1.6022   5.1758 H              1 S1                 0.0000
     55 ****        -4.4747   3.3660   5.0423 H              1 S1                 0.0000
     56 ****         1.3016  -1.0152   0.4480 H              1 S1                 0.0000
     57 ****        -5.3538   1.9242  -1.6798 LP             1 S1                 0.0000
     58 ****        -0.3162   0.7278   1.8419 LP             1 S1                 0.0000
     59 ****        -0.3771  -0.7333   1.1151 LP             1 S1                 0.0000
     60 ****         3.9462  -3.5517  -0.9318 LP             1 S1                 0.0000
     61 ****         6.4122  -2.2426  -3.8887 LP             1 S1                 0.0000
     62 ****         5.1239  -1.4639  -4.5216 LP             1 S1                 0.0000
@<TRIPOS>BOND
    1    1    2 1     
    2    1   26 1     
    3    1   27 1     
    4    1   28 1     
    5    2   24 ar    
    6    2    3 ar    
    7    3    4 ar    
    8    3   29 1     
    9    4   22 ar    
   10    4    5 1     
   11    5    6 2     
   12    6    7 1     
   13    6   30 1     
   14    7    8 1     
   15    7   22 1     
   16    8    9 1     
   17    8   31 1     
   18    8   32 1     
   19    9   10 1     
   20    9   11 1     
   21    9   33 1     
   22   10   34 1     
   23   11   12 1     
   24   11   35 1     
   25   11   36 1     
   26   12   21 1     
   27   12   13 1     
   28   12   56 1     
   29   13   14 1     
   30   13   37 1     
   31   13   38 1     
   32   14   15 1     
   33   14   39 1     
   34   14   40 1     
   35   15   16 1     
   36   15   20 1     
   37   16   17 1     
   38   16   41 1     
   39   16   42 1     
   40   17   18 1     
   41   17   19 1     
   42   17   43 1     
   43   18   44 1     
   44   18   45 1     
   45   18   46 1     
   46   19   47 1     
   47   20   21 1     
   48   20   48 1     
   49   20   49 1     
   50   21   50 1     
   51   21   51 1     
   52   22   23 ar    
   53   23   24 ar    
   54   23   52 1     
   55   24   25 1     
   56   25   53 1     
   57   25   54 1     
   58   25   55 1     
   59    5   57 1     
   60   10   58 1     
   61   10   59 1     
   62   15   60 1     
   63   19   61 1     
   64   19   62 1     
@<TRIPOS>SUBSTRUCTURE
      1 S1             1
@<TRIPOS>SET
LONE_PAIRS      STATIC     ATOMS    <user>   **** ""
6 57 58 59 60 61 62
DONOR_HYDROGENS      STATIC     ATOMS    <user>   **** ""
3 34 56 47
ATOM$BLUE        STATIC     ATOMS    COLORGROUP SYSTEM
6 57 58 59 60 61 62
ATOM$RED        STATIC     ATOMS    COLORGROUP SYSTEM
3 34 56 47
