AV-unprocessed.smi:557|AV-procd|sdf|2921|dock4
  -GOLD-   2262023413D 1   1.00000     0.00000
 Structure written by MMmdl.
 47 49  0  0  0  0  0  0  0  0  2 V2000
  150.7660  141.7020  156.2734 C   0  0  0  0  0  0  0  0  0  0  0  0
  150.7701  140.3907  155.6608 N   0  0  0  0  0  0  0  0  0  0  0  0
  151.2149  139.1973  156.1869 C   0  0  0  0  0  0  0  0  0  0  0  0
  151.0160  138.2320  155.2404 C   0  0  0  0  0  0  0  0  0  0  0  0
  151.3342  136.7651  155.3158 C   0  0  0  0  0  0  0  0  0  0  0  0
  150.1030  135.9438  155.7205 C   0  0  0  0  0  0  0  0  0  0  0  0
  149.2036  135.7722  154.5832 N   0  0  0  0  0  0  0  0  0  0  0  0
  147.8652  135.6603  154.6177 C   0  0  0  0  0  0  0  0  0  0  0  0
  147.2356  135.7012  155.6726 O   0  0  0  0  0  0  0  0  0  0  0  0
  147.2868  135.5107  153.4134 N   0  0  0  0  0  0  0  0  0  0  0  0
  145.8544  135.3393  153.1781 C   0  0  1  0  0  0  0  0  0  0  0  0
  145.2327  136.4854  152.3577 C   0  0  0  0  0  0  0  0  0  0  0  0
  144.2479  135.7904  151.4117 C   0  0  0  0  0  0  0  0  0  0  0  0
  144.9138  134.5131  151.1323 N   0  3  2  0  0  0  0  0  0  0  0  0
  144.1575  133.4547  150.4337 C   0  0  0  0  0  0  0  0  0  0  0  0
  145.1335  132.3086  150.0897 C   0  0  0  0  0  0  0  0  0  0  0  0
  145.9286  131.8227  151.3237 C   0  0  0  0  0  0  0  0  0  0  0  0
  146.5816  132.9952  152.0882 C   0  0  0  0  0  0  0  0  0  0  0  0
  145.5044  134.0494  152.3997 C   0  0  1  0  0  0  0  0  0  0  0  0
  150.4323  138.9478  154.1562 C   0  0  0  0  0  0  0  0  0  0  0  0
  150.2886  140.2386  154.4102 N   0  0  0  0  0  0  0  0  0  0  0  0
  151.2193  141.6537  157.2639 H   0  0  0  0  0  0  0  0  0  0  0  0
  149.7408  142.0608  156.3698 H   0  0  0  0  0  0  0  0  0  0  0  0
  151.3343  142.3998  155.6578 H   0  0  0  0  0  0  0  0  0  0  0  0
  151.6333  139.1332  157.1806 H   0  0  0  0  0  0  0  0  0  0  0  0
  151.7065  136.4091  154.3543 H   0  0  0  0  0  0  0  0  0  0  0  0
  152.1388  136.5849  156.0301 H   0  0  0  0  0  0  0  0  0  0  0  0
  150.4128  134.9669  156.0953 H   0  0  0  0  0  0  0  0  0  0  0  0
  149.5701  136.4503  156.5272 H   0  0  0  0  0  0  0  0  0  0  0  0
  149.6328  135.8129  153.6697 H   0  0  0  0  0  0  0  0  0  0  0  0
  147.8876  135.5042  152.6019 H   0  0  0  0  0  0  0  0  0  0  0  0
  145.3361  135.3060  154.1388 H   0  0  0  0  0  0  0  0  0  0  0  0
  144.7509  137.2379  152.9829 H   0  0  0  0  0  0  0  0  0  0  0  0
  146.0010  136.9891  151.7686 H   0  0  0  0  0  0  0  0  0  0  0  0
  143.2952  135.6090  151.9120 H   0  0  0  0  0  0  0  0  0  0  0  0
  144.0611  136.3625  150.5025 H   0  0  0  0  0  0  0  0  0  0  0  0
  143.3406  133.0971  151.0628 H   0  0  0  0  0  0  0  0  0  0  0  0
  143.7137  133.8578  149.5229 H   0  0  0  0  0  0  0  0  0  0  0  0
  144.5898  131.4754  149.6434 H   0  0  0  0  0  0  0  0  0  0  0  0
  145.8358  132.6556  149.3306 H   0  0  0  0  0  0  0  0  0  0  0  0
  145.2550  131.2877  151.9945 H   0  0  0  0  0  0  0  0  0  0  0  0
  146.6901  131.1042  151.0187 H   0  0  0  0  0  0  0  0  0  0  0  0
  147.0365  132.6283  153.0087 H   0  0  0  0  0  0  0  0  0  0  0  0
  147.3815  133.4336  151.4895 H   0  0  0  0  0  0  0  0  0  0  0  0
  144.7132  133.5566  152.9694 H   0  0  0  0  0  0  0  0  0  0  0  0
  150.1120  138.5691  153.1967 H   0  0  0  0  0  0  0  0  0  0  0  0
  145.6928  134.7468  150.5337 H   0  0  0  0  0  0  0  0  0  0  0  0
  1  2  1  0  0  0  0
  1 22  1  0  0  0  0
  1 23  1  0  0  0  0
  1 24  1  0  0  0  0
  2 21  1  0  0  0  0
  2  3  1  0  0  0  0
  3  4  2  0  0  0  0
  3 25  1  0  0  0  0
  4  5  1  0  0  0  0
  4 20  1  0  0  0  0
  5  6  1  0  0  0  0
  5 26  1  0  0  0  0
  5 27  1  0  0  0  0
  6  7  1  0  0  0  0
  6 28  1  0  0  0  0
  6 29  1  0  0  0  0
  7  8  1  0  0  0  0
  7 30  1  0  0  0  0
  8  9  2  0  0  0  0
  8 10  1  0  0  0  0
 10 11  1  0  0  0  0
 10 31  1  0  0  0  0
 11 19  1  0  0  0  0
 11 12  1  0  0  0  0
 11 32  1  0  0  0  0
 12 13  1  0  0  0  0
 12 33  1  0  0  0  0
 12 34  1  0  0  0  0
 13 14  1  0  0  0  0
 13 35  1  0  0  0  0
 13 36  1  0  0  0  0
 14 19  1  0  0  0  0
 14 15  1  0  0  0  0
 14 47  1  0  0  0  0
 15 16  1  0  0  0  0
 15 37  1  0  0  0  0
 15 38  1  0  0  0  0
 16 17  1  0  0  0  0
 16 39  1  0  0  0  0
 16 40  1  0  0  0  0
 17 18  1  0  0  0  0
 17 41  1  0  0  0  0
 17 42  1  0  0  0  0
 18 19  1  0  0  0  0
 18 43  1  0  0  0  0
 18 44  1  0  0  0  0
 19 45  1  0  0  0  0
 20 21  2  0  0  0  0
 20 46  1  0  0  0  0
M  CHG  1  14   1
M  END
> <s_m_source_file>
AV-unprocessed.smi

> <i_m_source_file_index>
557

> <i_lp_mmshare_version>
43012

> <i_f3d_flags>
0

> <s_epik_input>
W0NIM11uMVtjSF1jKFtjSF1uMSlbQ0gyXVtDSDJdW05IXUMoPU8pW05IXVtDQEhdKFtDSDJdW0NIMl0yKVtDQEhdKE4yMylbQ0gyXVtDSDJdW0NIMl1bQ0gyXTM=

> <s_epik_cmdline>
J2VwaWtfcHl0aG9uJywgJy1waCcsICc3LjAnLCAnLXRuJywgJzgnLCAnLW1hJywgJzIwMCcsICctbWV0YWxfYmluZGluZycsICctaW1hZScsICc8aW5maWxlLm1hZT4nLCAnLW9tYWUnLCAnPG91dGZpbGUubWFlPic=

> <r_lp_tautomer_probability>
1

> <r_epik_Ionization_Penalty>
0.000956547

> <r_epik_Ionization_Penalty_Charging>
0.000435796

> <r_epik_Ionization_Penalty_Neutral>
0.000520752

> <r_epik_State_Penalty>
-0

> <r_epik_Charging_Adjusted_Penalty>
0.000435796

> <i_epik_Tot_Q>
1

> <i_epik_Tot_abs_Q>
1

> <r_epik_Metal_State_Penalty>
-0

> <b_epik_Metal_Only>
0

> <s_lp_Force_Field>
OPLS_2005

> <r_lp_Energy>
46.7552

> <b_lp_Chiralities_Consistent>
1

> <s_lp_Variant>
AV-unprocessed.smi:557-8

> <Gold.Version>
5.8.1

> <Gold.Id.Protein>
6NUR|6NUR_protein|mol2

> <Gold.PLP.Fitness>
43.6376

> <Gold.PLP.PLP>
-34.0549

> <Gold.PLP.part.hbond>
-2.7002

> <Gold.PLP.part.metal>
0.0000

> <Gold.PLP.part.buried>
-3.9134

> <Gold.PLP.part.nonpolar>
-26.9893

> <Gold.PLP.part.repulsive>
0.1751

> <Gold.PLP.ligand.clash>
0.0000

> <Gold.PLP.ligand.torsion>
0.6040

> <Gold.PLP.Chemscore.Hbond>
2.5640

> <Gold.PLP.Chemscore.CHOScore>
1.0282

> <Gold.PLP.Chemscore.Metal>
0.0000

> <Gold.Chemscore.Hbonds>
donor molecule, donor type, donor heavy atom, donor atom, acceptor molecule, acceptor atom, score
      L1  H     7    30       P1  7948  0.67
      L1  H    10    31       P1  7948  0.80
      P1  H  7989  7998       L1    21  1.00
      L1  C    20    46       P1  7948  0.12
      L1  C    20    46       P1  7957  0.87

> <Gold.PLP.Chemscore.Internal.Correction>
0.0141

> <Gold.Rescore>
     Score         DG    S(hbond)    S(metal)    S(lipo)     H(rot)  DE(clash)    DE(int)     intcor
     16.47     -17.35       1.97        0.00      80.26       1.60       0.26       0.63       ----

> <Gold.Chemscore.Fitness>
16.4650

> <Gold.Chemscore.DG>
-17.3550

> <Gold.Chemscore.ZeroCoef>
-5.4800

> <Gold.Chemscore.Hbond>
1.9715

> <Gold.Chemscore.Metal>
0.0000

> <Gold.Chemscore.Lipo>
80.2633

> <Gold.Chemscore.Internal_Hbond>
0.0000

> <Gold.Chemscore.DEClash>
0.2566

> <Gold.Chemscore.DEInternal>
0.6334

> <Gold.Chemscore.Rot>
1.6018

> <Gold.Chemscore.Internal.Correction>
   9.000000E+99

> <Gold.Chemscore.Hbonds>
donor molecule, donor type, donor heavy atom, donor atom, acceptor molecule, acceptor atom, score
      L1  H     7    30       P1  7948  0.15
      L1  H    10    31       P1  7948  0.75
      P1  H  7989  7998       L1    21  0.06

> <Gold.Chemscore.Hbond.Weighted>
-6.5848

> <Gold.Chemscore.Metal.Weighted>
-0.0000

> <Gold.Chemscore.Lipo.Weighted>
-9.3908

> <Gold.Chemscore.Internal_Hbond.Weighted>
0.0000

> <Gold.Chemscore.DEClash.Weighted>
0.2566

> <Gold.Chemscore.DEInternal.Weighted>
0.6334

> <Gold.Chemscore.Rot.Weighted>
4.1006

> <Gold.Chemscore.Internal.Correction.Weighted>
   9.000000E+99

> <Gold.Protein.RotatedTorsions>
[ 6907 6896 6895 6894 ] final -134.80 input  -60.11 | X-H torsion
[ 7974 7965 7964 7962 ] final   38.52 input  175.53 | X-H torsion
[ 8008 7997 7996 7995 ] final  174.69 input   59.86 | X-H torsion
[ 10167 10162 10161 10158 ] final   57.02 input  -65.29 | X-H torsion
[ 10718 10713 10712 10709 ] final  179.91 input   66.30 | X-H torsion
[ 10763 10752 10751 10750 ] final  -83.14 input  -60.55 | X-H torsion
[ 11005 11000 10999 10996 ] final -128.64 input  -57.11 | X-H torsion

> <Gold.Protein.ActiveResidues>
 VAL166  LYS551  ARG553  GLY616  TRP617  ASP618  TYR619  PRO620  LYS621  CYS622 
 ASP623  PHE694  ASN695  SER759  ASP760  ASP761  ALA762  ILE779  LEU786  VAL792 
 PHE793  MET794  SER795  GLU796  ALA797  LYS798  CYS799  TRP800  GLU811  SER814 

> <Gold.Protein.RotatedAtoms>
  150.9902  133.6157  159.2709 H   0  0  0  0  0  0  0  0  0  0  0  0  # atno 6907 bound_to 6896
  151.3381  135.0856  159.9371 H   0  0  0  0  0  0  0  0  0  0  0  0  # atno 6908 bound_to 6896
  152.5243  133.9518  159.7730 H   0  0  0  0  0  0  0  0  0  0  0  0  # atno 6909 bound_to 6896
  146.1056  139.5763  142.9386 H   0  0  0  0  0  0  0  0  0  0  0  0  # atno 7974 bound_to 7965
  156.0948  140.1428  156.9545 H   0  0  0  0  0  0  0  0  0  0  0  0  # atno 8008 bound_to 7997
  154.4664  140.0925  156.7078 H   0  0  0  0  0  0  0  0  0  0  0  0  # atno 8009 bound_to 7997
  155.4859  140.3446  155.4349 H   0  0  0  0  0  0  0  0  0  0  0  0  # atno 8010 bound_to 7997
  140.2024  144.3974  150.6523 H   0  0  0  0  0  0  0  0  0  0  0  0  # atno 10167 bound_to 10162
  156.8687  130.9776  151.3075 H   0  0  0  0  0  0  0  0  0  0  0  0  # atno 10718 bound_to 10713
  154.5841  135.5566  153.7214 H   0  0  0  0  0  0  0  0  0  0  0  0  # atno 10763 bound_to 10752
  153.0092  135.6327  154.1941 H   0  0  0  0  0  0  0  0  0  0  0  0  # atno 10764 bound_to 10752
  154.1882  135.2883  155.3010 H   0  0  0  0  0  0  0  0  0  0  0  0  # atno 10765 bound_to 10752
  140.9499  134.1080  157.4072 H   0  0  0  0  0  0  0  0  0  0  0  0  # atno 11005 bound_to 11000
  145.5768  141.0387  143.2144 LP  0  0  0  0  0  0  0  0  0  0  0  0  # atno 17320 bound_to 7965
  144.7468  139.7299  143.7289 LP  0  0  0  0  0  0  0  0  0  0  0  0  # atno 17321 bound_to 7965
  140.6381  143.2198  151.6351 LP  0  0  0  0  0  0  0  0  0  0  0  0  # atno 17342 bound_to 10162
  139.5212  144.3201  152.0918 LP  0  0  0  0  0  0  0  0  0  0  0  0  # atno 17343 bound_to 10162
  157.6208  130.8654  149.9106 LP  0  0  0  0  0  0  0  0  0  0  0  0  # atno 17370 bound_to 10713
  156.0738  130.3681  150.0720 LP  0  0  0  0  0  0  0  0  0  0  0  0  # atno 17371 bound_to 10713
  139.8844  135.0062  156.6367 LP  0  0  0  0  0  0  0  0  0  0  0  0  # atno 17394 bound_to 11000
  140.7617  133.8811  155.8424 LP  0  0  0  0  0  0  0  0  0  0  0  0  # atno 17395 bound_to 11000

$$$$
