#       Name:                AV-unprocessed.smi:498
#       Creating user name   scv26
#       Creation time:       Thu Mar 26 23:18:02 2020


#       File generated by GOLD software.
#

@<TRIPOS>MOLECULE
AV-unprocessed.smi:498
    49    51     1
SMALL
NO_CHARGES


@<TRIPOS>ATOM
      1 ****        -3.3657   0.8151  -1.5091 C.3            1 S1                 0.0000
      2 ****        -2.7499  -0.0811  -0.4329 C.3            1 S1                 0.0000
      3 ****        -1.5600  -0.6540  -0.9449 O.3            1 S1                 0.0000
      4 ****        -0.9162  -1.5085  -0.0140 C.3            1 S1                 0.0000
      5 ****         0.4204  -1.9994  -0.5925 C.3            1 S1                 0.0000
      6 ****         1.3005  -0.8962  -0.9925 N.pl3          1 S1                 0.0000
      7 ****         2.2440  -0.2067  -0.2786 C.2            1 S1                 0.0000
      8 ****         2.5793  -0.4656   1.1720 C.3            1 S1                 0.0000
      9 ****         1.5559   0.0769   2.0610 N.pl3          1 S1                -1.0000
     10 ****         1.2682  -0.4259   3.2927 C.2            1 S1                 0.0000
     11 ****         1.8285  -1.3220   3.9329 O.2            1 S1                 0.0000
     12 ****         0.1194   0.2691   3.9162 C.2            1 S1                 0.0000
     13 ****        -0.8747   1.0519   3.3854 C.2            1 S1                 0.0000
     14 ****        -1.7288   1.4177   4.4620 C.2            1 S1                 0.0000
     15 ****        -1.2034   0.8255   5.5738 C.2            1 S1                 0.0000
     16 ****        -0.0859   0.1165   5.2577 O.3            1 S1                 0.0000
     17 ****         2.8787   0.7552  -0.9540 N.2            1 S1                 0.0000
     18 ****         2.2997   0.6971  -2.2045 C.ar           1 S1                 0.0000
     19 ****         2.5437   1.4677  -3.3639 C.ar           1 S1                 0.0000
     20 ****         1.8162   1.2265  -4.5474 C.ar           1 S1                 0.0000
     21 ****         0.8369   0.2135  -4.5877 C.ar           1 S1                 0.0000
     22 ****         0.5806  -0.5662  -3.4436 C.ar           1 S1                 0.0000
     23 ****         1.3102  -0.3227  -2.2635 C.ar           1 S1                 0.0000
     24 ****        -4.2829   1.2817  -1.1499 H              1 S1                 0.0000
     25 ****        -3.6091   0.2410  -2.4032 H              1 S1                 0.0000
     26 ****        -2.6761   1.6085  -1.7978 H              1 S1                 0.0000
     27 ****        -2.5306   0.5075   0.4589 H              1 S1                 0.0000
     28 ****        -3.4542  -0.8642  -0.1489 H              1 S1                 0.0000
     29 ****        -0.7480  -0.9782   0.9228 H              1 S1                 0.0000
     30 ****        -1.5580  -2.3608   0.2121 H              1 S1                 0.0000
     31 ****         0.9290  -2.6505   0.1183 H              1 S1                 0.0000
     32 ****         0.2300  -2.6192  -1.4688 H              1 S1                 0.0000
     33 ****         2.7101  -1.5416   1.2940 H              1 S1                 0.0000
     34 ****         3.5577  -0.0331   1.3849 H              1 S1                 0.0000
     35 ****        -0.9746   1.3268   2.3456 H              1 S1                 0.0000
     36 ****        -2.6159   2.0323   4.4261 H              1 S1                 0.0000
     37 ****        -1.4851   0.8016   6.6160 H              1 S1                 0.0000
     38 ****         3.2909   2.2467  -3.3404 H              1 S1                 0.0000
     39 ****         2.0095   1.8221  -5.4274 H              1 S1                 0.0000
     40 ****         0.2816   0.0357  -5.4969 H              1 S1                 0.0000
     41 ****        -0.1724  -1.3396  -3.4706 H              1 S1                 0.0000
     42 ****        -0.9304   0.0831  -1.1903 LP             1 S1                 0.0000
     43 ****        -1.7866  -1.1845  -1.7617 LP             1 S1                 0.0000
     44 ****         1.0330   0.8684   1.7447 LP             1 S1                 0.0000
     45 ****         2.6216  -1.7923   3.5457 LP             1 S1                 0.0000
     46 ****         1.4889  -1.5770   4.8383 LP             1 S1                 0.0000
     47 ****         0.6993   0.4683   5.7673 LP             1 S1                 0.0000
     48 ****        -0.2193  -0.8501   5.4767 LP             1 S1                 0.0000
     49 ****         3.5992   1.3689  -0.6311 LP             1 S1                 0.0000
@<TRIPOS>BOND
    1    1    2 1     
    2    1   24 1     
    3    1   25 1     
    4    1   26 1     
    5    2    3 1     
    6    2   27 1     
    7    2   28 1     
    8    3    4 1     
    9    4    5 1     
   10    4   29 1     
   11    4   30 1     
   12    5    6 1     
   13    5   31 1     
   14    5   32 1     
   15    6   23 1     
   16    6    7 1     
   17    7    8 1     
   18    7   17 2     
   19    8    9 1     
   20    8   33 1     
   21    8   34 1     
   22    9   10 1     
   23   10   11 2     
   24   10   12 1     
   25   12   16 1     
   26   12   13 2     
   27   13   14 1     
   28   13   35 1     
   29   14   15 2     
   30   14   36 1     
   31   15   16 1     
   32   15   37 1     
   33   17   18 1     
   34   18   23 ar    
   35   18   19 ar    
   36   19   20 ar    
   37   19   38 1     
   38   20   21 ar    
   39   20   39 1     
   40   21   22 ar    
   41   21   40 1     
   42   22   23 ar    
   43   22   41 1     
   44    3   42 1     
   45    3   43 1     
   46    9   44 1     
   47   11   45 1     
   48   11   46 1     
   49   16   47 1     
   50   16   48 1     
   51   17   49 1     
@<TRIPOS>SUBSTRUCTURE
      1 S1             1
@<TRIPOS>SET
LONE_PAIRS      STATIC     ATOMS    <user>   **** ""
8 42 43 44 45 46 47 48 49
ATOM$BLUE        STATIC     ATOMS    COLORGROUP SYSTEM
8 42 43 44 45 46 47 48 49
