#       Name:                AV-unprocessed.smi:2150
#       Creating user name   scv26
#       Creation time:       Fri Mar 27 11:53:27 2020


#       File generated by GOLD software.
#

@<TRIPOS>MOLECULE
AV-unprocessed.smi:2150
    42    43     1
SMALL
NO_CHARGES


@<TRIPOS>ATOM
      1 ****         0.1692   1.6213   0.4222 O.2            1 S1                 0.0000
      2 ****         0.8812   0.6192   0.5000 C.2            1 S1                 0.0000
      3 ****         2.4011   0.7495   0.6687 C.3            1 S1                 0.0000
      4 ****         2.9427   1.9712   0.0519 N.am           1 S1                 0.0000
      5 ****         3.2008   3.0662   0.8937 C.2            1 S1                 0.0000
      6 ****         3.6826   4.2156   0.3995 C.2            1 S1                 0.0000
      7 ****         3.9177   4.2552  -1.0498 C.2            1 S1                 0.0000
      8 ****         3.6822   3.2596  -1.8201 N.2            1 S1                 0.0000
      9 ****         3.1738   2.0546  -1.2991 C.2            1 S1                 0.0000
     10 ****         2.9394   1.0953  -2.0346 O.2            1 S1                 0.0000
     11 ****         0.3966  -0.6321   0.4584 N.am           1 S1                 0.0000
     12 ****        -1.0096  -0.9889   0.2575 C.3            1 S1                 0.0000
     13 ****        -1.2323  -2.3911   0.8694 C.3            1 S1                 0.0000
     14 ****        -2.7003  -2.6851   1.2253 C.3            1 S1                 0.0000
     15 ****        -3.6605  -2.7478   0.0274 C.3            1 S1                 0.0000
     16 ****        -3.7708  -1.4240  -0.7486 C.3            1 S1                 0.0000
     17 ****        -2.6266  -1.2060  -1.6238 N.am           1 S1                 0.0000
     18 ****        -1.3496  -1.0334  -1.2512 C.2            1 S1                 0.0000
     19 ****        -0.4650  -0.9182  -2.0996 O.2            1 S1                 0.0000
     20 ****         2.6270   0.7248   1.7356 H              1 S1                 0.0000
     21 ****         2.8955  -0.1290   0.2493 H              1 S1                 0.0000
     22 ****         2.9788   2.9140   1.9400 H              1 S1                 0.0000
     23 ****         3.8991   5.0945   0.9883 H              1 S1                 0.0000
     24 ****         4.3108   5.2000  -1.4335 H              1 S1                 0.0000
     25 ****         1.0531  -1.3956   0.5289 H              1 S1                 0.0000
     26 ****        -1.6399  -0.2547   0.7627 H              1 S1                 0.0000
     27 ****        -0.8386  -3.1712   0.2152 H              1 S1                 0.0000
     28 ****        -0.6583  -2.4704   1.7941 H              1 S1                 0.0000
     29 ****        -2.7443  -3.6381   1.7531 H              1 S1                 0.0000
     30 ****        -3.0567  -1.9378   1.9352 H              1 S1                 0.0000
     31 ****        -3.3717  -3.5562  -0.6459 H              1 S1                 0.0000
     32 ****        -4.6504  -3.0109   0.4016 H              1 S1                 0.0000
     33 ****        -4.6577  -1.4526  -1.3818 H              1 S1                 0.0000
     34 ****        -3.9041  -0.5782  -0.0728 H              1 S1                 0.0000
     35 ****        -2.8159  -1.2184  -2.6157 H              1 S1                 0.0000
     36 ****         0.5804   2.5316   0.4688 LP             1 S1                 0.0000
     37 ****        -0.8200   1.5245   0.3123 LP             1 S1                 0.0000
     38 ****         3.8611   3.3388  -2.8008 LP             1 S1                 0.0000
     39 ****         2.5777   0.2464  -1.6492 LP             1 S1                 0.0000
     40 ****         3.1108   1.1651  -3.0174 LP             1 S1                 0.0000
     41 ****         0.4861  -0.7942  -1.8167 LP             1 S1                 0.0000
     42 ****        -0.6975  -0.9487  -3.0718 LP             1 S1                 0.0000
@<TRIPOS>BOND
    1    1    2 2     
    2    2    3 1     
    3    2   11 am    
    4    3    4 1     
    5    3   20 1     
    6    3   21 1     
    7    4    9 am    
    8    4    5 1     
    9    5    6 2     
   10    5   22 1     
   11    6    7 1     
   12    6   23 1     
   13    7    8 2     
   14    7   24 1     
   15    8    9 1     
   16    9   10 2     
   17   11   12 1     
   18   11   25 1     
   19   12   18 1     
   20   12   13 1     
   21   12   26 1     
   22   13   14 1     
   23   13   27 1     
   24   13   28 1     
   25   14   15 1     
   26   14   29 1     
   27   14   30 1     
   28   15   16 1     
   29   15   31 1     
   30   15   32 1     
   31   16   17 1     
   32   16   33 1     
   33   16   34 1     
   34   17   18 am    
   35   17   35 1     
   36   18   19 2     
   37    1   36 1     
   38    1   37 1     
   39    8   38 1     
   40   10   39 1     
   41   10   40 1     
   42   19   41 1     
   43   19   42 1     
@<TRIPOS>SUBSTRUCTURE
      1 S1             1
@<TRIPOS>SET
LONE_PAIRS      STATIC     ATOMS    <user>   **** ""
7 36 37 38 39 40 41 42
DONOR_HYDROGENS      STATIC     ATOMS    <user>   **** ""
2 25 35
ATOM$BLUE        STATIC     ATOMS    COLORGROUP SYSTEM
7 36 37 38 39 40 41 42
ATOM$RED        STATIC     ATOMS    COLORGROUP SYSTEM
2 25 35
