AV-unprocessed.smi:282|AV-procd|sdf|2119|dock3
  -GOLD-   2262021413D 1   1.00000     0.00000
 Structure written by MMmdl.
 65 69  0  0  0  0  0  0  0  0  2 V2000
  147.7520  130.1610  153.6313 C   0  0  0  0  0  0  0  0  0  0  0  0
  147.9409  131.6018  154.1255 C   0  0  0  0  0  0  0  0  0  0  0  0
  146.6260  132.4202  154.2292 C   0  0  2  0  0  0  0  0  0  0  0  0
  145.8282  132.3475  152.9059 C   0  0  0  0  0  0  0  0  0  0  0  0
  144.6080  133.1953  152.9332 N   0  3  2  0  0  0  0  0  0  0  0  0
  143.7850  133.0930  151.6993 C   0  0  0  0  0  0  0  0  0  0  0  0
  144.4075  133.8646  150.5191 C   0  0  0  0  0  0  0  0  0  0  0  0
  144.6839  135.3266  150.8976 C   0  0  0  0  0  0  0  0  0  0  0  0
  145.5336  135.3999  152.1748 C   0  0  0  0  0  0  0  0  0  0  0  0
  144.8711  134.6076  153.3232 C   0  0  2  0  0  0  0  0  0  0  0  0
  145.6734  134.6683  154.6333 C   0  0  0  0  0  0  0  0  0  0  0  0
  146.8653  133.8263  154.5828 N   0  0  0  0  0  0  0  0  0  0  0  0
  147.6499  134.0346  155.6640 C   0  0  0  0  0  0  0  0  0  0  0  0
  148.9568  134.3709  155.5034 N   0  0  0  0  0  0  0  0  0  0  0  0
  149.7230  134.5876  156.5775 C   0  0  0  0  0  0  0  0  0  0  0  0
  149.3887  134.5235  157.8690 N   0  0  0  0  0  0  0  0  0  0  0  0
  148.0760  134.1868  158.0275 C   0  0  0  0  0  0  0  0  0  0  0  0
  147.1443  133.9288  156.9848 C   0  0  0  0  0  0  0  0  0  0  0  0
  145.8979  133.6292  157.5167 N   0  0  0  0  0  0  0  0  0  0  0  0
  146.0807  133.7107  158.8064 C   0  0  0  0  0  0  0  0  0  0  0  0
  147.3627  134.0237  159.2031 N   0  0  0  0  0  0  0  0  0  0  0  0
  147.8381  134.1854  160.5699 C   0  0  0  0  0  0  0  0  0  0  0  0
  146.7420  134.5691  161.6139 C   0  0  0  0  0  0  0  0  0  0  0  0
  145.9408  133.2888  161.9810 C   0  0  0  0  0  0  0  0  0  0  0  0
  145.0392  133.4787  163.0539 O   0  0  0  0  0  0  0  0  0  0  0  0
  147.4310  135.1509  162.8753 C   0  0  0  0  0  0  0  0  0  0  0  0
  148.0256  136.5527  162.6356 C   0  0  0  0  0  0  0  0  0  0  0  0
  147.0226  137.4365  162.1491 O   0  0  0  0  0  0  0  0  0  0  0  0
  146.4689  137.0213  160.9065 C   0  0  0  0  0  0  0  0  0  0  0  0
  145.7772  135.6567  161.0738 C   0  0  0  0  0  0  0  0  0  0  0  0
  148.6912  129.6106  153.6899 H   0  0  0  0  0  0  0  0  0  0  0  0
  147.4239  130.1264  152.5929 H   0  0  0  0  0  0  0  0  0  0  0  0
  147.0188  129.6294  154.2384 H   0  0  0  0  0  0  0  0  0  0  0  0
  148.4222  131.5355  155.1014 H   0  0  0  0  0  0  0  0  0  0  0  0
  148.6487  132.1188  153.4760 H   0  0  0  0  0  0  0  0  0  0  0  0
  146.0124  131.9854  155.0198 H   0  0  0  0  0  0  0  0  0  0  0  0
  146.4704  132.6455  152.0768 H   0  0  0  0  0  0  0  0  0  0  0  0
  145.5202  131.3207  152.7095 H   0  0  0  0  0  0  0  0  0  0  0  0
  143.6353  132.0458  151.4351 H   0  0  0  0  0  0  0  0  0  0  0  0
  142.7953  133.4979  151.9140 H   0  0  0  0  0  0  0  0  0  0  0  0
  145.3340  133.3852  150.2020 H   0  0  0  0  0  0  0  0  0  0  0  0
  143.7381  133.8264  149.6591 H   0  0  0  0  0  0  0  0  0  0  0  0
  145.1895  135.8387  150.0784 H   0  0  0  0  0  0  0  0  0  0  0  0
  143.7393  135.8488  151.0553 H   0  0  0  0  0  0  0  0  0  0  0  0
  146.5346  135.0168  151.9735 H   0  0  0  0  0  0  0  0  0  0  0  0
  145.6613  136.4426  152.4675 H   0  0  0  0  0  0  0  0  0  0  0  0
  143.9030  135.0714  153.5192 H   0  0  0  0  0  0  0  0  0  0  0  0
  145.9501  135.7010  154.8530 H   0  0  0  0  0  0  0  0  0  0  0  0
  145.0391  134.3330  155.4554 H   0  0  0  0  0  0  0  0  0  0  0  0
  150.7500  134.8525  156.3734 H   0  0  0  0  0  0  0  0  0  0  0  0
  145.2790  133.5388  159.5097 H   0  0  0  0  0  0  0  0  0  0  0  0
  148.3188  133.2525  160.8684 H   0  0  0  0  0  0  0  0  0  0  0  0
  148.6388  134.9223  160.5430 H   0  0  0  0  0  0  0  0  0  0  0  0
  145.3575  132.9393  161.1294 H   0  0  0  0  0  0  0  0  0  0  0  0
  146.6206  132.4803  162.2514 H   0  0  0  0  0  0  0  0  0  0  0  0
  144.1571  133.4329  162.7174 H   0  0  0  0  0  0  0  0  0  0  0  0
  146.7121  135.2398  163.6901 H   0  0  0  0  0  0  0  0  0  0  0  0
  148.2064  134.4731  163.2338 H   0  0  0  0  0  0  0  0  0  0  0  0
  148.4126  136.9531  163.5728 H   0  0  0  0  0  0  0  0  0  0  0  0
  148.8675  136.5239  161.9439 H   0  0  0  0  0  0  0  0  0  0  0  0
  145.7417  137.7669  160.5849 H   0  0  0  0  0  0  0  0  0  0  0  0
  147.2431  136.9907  160.1395 H   0  0  0  0  0  0  0  0  0  0  0  0
  145.3151  135.3466  160.1375 H   0  0  0  0  0  0  0  0  0  0  0  0
  144.9503  135.7957  161.7710 H   0  0  0  0  0  0  0  0  0  0  0  0
  144.0413  132.8090  153.6749 H   0  0  0  0  0  0  0  0  0  0  0  0
  1  2  1  0  0  0  0
  1 31  1  0  0  0  0
  1 32  1  0  0  0  0
  1 33  1  0  0  0  0
  2  3  1  0  0  0  0
  2 34  1  0  0  0  0
  2 35  1  0  0  0  0
  3 12  1  0  0  0  0
  3  4  1  0  0  0  0
  3 36  1  0  0  0  0
  4  5  1  0  0  0  0
  4 37  1  0  0  0  0
  4 38  1  0  0  0  0
  5 10  1  0  0  0  0
  5  6  1  0  0  0  0
  5 65  1  0  0  0  0
  6  7  1  0  0  0  0
  6 39  1  0  0  0  0
  6 40  1  0  0  0  0
  7  8  1  0  0  0  0
  7 41  1  0  0  0  0
  7 42  1  0  0  0  0
  8  9  1  0  0  0  0
  8 43  1  0  0  0  0
  8 44  1  0  0  0  0
  9 10  1  0  0  0  0
  9 45  1  0  0  0  0
  9 46  1  0  0  0  0
 10 11  1  0  0  0  0
 10 47  1  0  0  0  0
 11 12  1  0  0  0  0
 11 48  1  0  0  0  0
 11 49  1  0  0  0  0
 12 13  1  0  0  0  0
 13 18  1  0  0  0  0
 13 14  2  0  0  0  0
 14 15  1  0  0  0  0
 15 16  2  0  0  0  0
 15 50  1  0  0  0  0
 16 17  1  0  0  0  0
 17 21  1  0  0  0  0
 17 18  2  0  0  0  0
 18 19  1  0  0  0  0
 19 20  2  0  0  0  0
 20 21  1  0  0  0  0
 20 51  1  0  0  0  0
 21 22  1  0  0  0  0
 22 23  1  0  0  0  0
 22 52  1  0  0  0  0
 22 53  1  0  0  0  0
 23 30  1  0  0  0  0
 23 24  1  0  0  0  0
 23 26  1  0  0  0  0
 24 25  1  0  0  0  0
 24 54  1  0  0  0  0
 24 55  1  0  0  0  0
 25 56  1  0  0  0  0
 26 27  1  0  0  0  0
 26 57  1  0  0  0  0
 26 58  1  0  0  0  0
 27 28  1  0  0  0  0
 27 59  1  0  0  0  0
 27 60  1  0  0  0  0
 28 29  1  0  0  0  0
 29 30  1  0  0  0  0
 29 61  1  0  0  0  0
 29 62  1  0  0  0  0
 30 63  1  0  0  0  0
 30 64  1  0  0  0  0
M  CHG  1   5   1
M  END
> <s_m_source_file>
AV-unprocessed.smi

> <i_m_source_file_index>
282

> <i_lp_mmshare_version>
43012

> <i_f3d_flags>
0

> <s_epik_input>
W0NIMl0xW0NIMl1bQ0gyXVtDSDJdW0NAQEhdKE4xMilbQ0gyXU4oW0NAQEhdKFtDSDJdMilbQ0gyXVtDSDNdKWMobltjSF1uMyljKGMzNCluW2NIXW40W0NIMl1DNShbQ0gyXVtPSF0pW0NIMl1bQ0gyXU9bQ0gyXVtDSDJdNQ==

> <s_epik_cmdline>
J2VwaWtfcHl0aG9uJywgJy1waCcsICc3LjAnLCAnLXRuJywgJzgnLCAnLW1hJywgJzIwMCcsICctbWV0YWxfYmluZGluZycsICctaW1hZScsICc8aW5maWxlLm1hZT4nLCAnLW9tYWUnLCAnPG91dGZpbGUubWFlPic=

> <r_lp_tautomer_probability>
1

> <r_epik_Ionization_Penalty>
0.00308583

> <r_epik_Ionization_Penalty_Charging>
0.00300384

> <r_epik_Ionization_Penalty_Neutral>
8.19894e-05

> <r_epik_State_Penalty>
-0

> <r_epik_Charging_Adjusted_Penalty>
0.00300384

> <i_epik_Tot_Q>
1

> <i_epik_Tot_abs_Q>
1

> <r_epik_Metal_State_Penalty>
-0

> <b_epik_Metal_Only>
0

> <s_lp_Force_Field>
OPLS_2005

> <r_lp_Energy>
60.5871

> <b_lp_Chiralities_Consistent>
1

> <s_lp_Variant>
AV-unprocessed.smi:282-3

> <Gold.Version>
5.8.1

> <Gold.Id.Protein>
6NUR|6NUR_protein|mol2

> <Gold.PLP.Fitness>
46.9127

> <Gold.PLP.PLP>
-39.5375

> <Gold.PLP.part.hbond>
-4.8747

> <Gold.PLP.part.metal>
0.0000

> <Gold.PLP.part.buried>
-6.1988

> <Gold.PLP.part.nonpolar>
-29.0352

> <Gold.PLP.part.repulsive>
0.1302

> <Gold.PLP.ligand.clash>
0.0000

> <Gold.PLP.ligand.torsion>
0.9487

> <Gold.PLP.Chemscore.Hbond>
3.0000

> <Gold.PLP.Chemscore.CHOScore>
0.0000

> <Gold.PLP.Chemscore.Metal>
0.0000

> <Gold.Chemscore.Hbonds>
donor molecule, donor type, donor heavy atom, donor atom, acceptor molecule, acceptor atom, score
      L1  H     5    65       P1 10957  1.92
      P1  H  6896  6907       L1    16  1.00

> <Gold.PLP.Chemscore.Internal.Correction>
0.2726

> <Gold.Rescore>
     Score         DG    S(hbond)    S(metal)    S(lipo)     H(rot)  DE(clash)    DE(int)     intcor
     15.42     -16.34       1.86        0.00      93.43       2.46       0.17       0.75       ----

> <Gold.Chemscore.Fitness>
15.4187

> <Gold.Chemscore.DG>
-16.3437

> <Gold.Chemscore.ZeroCoef>
-5.4800

> <Gold.Chemscore.Hbond>
1.8634

> <Gold.Chemscore.Metal>
0.0000

> <Gold.Chemscore.Lipo>
93.4307

> <Gold.Chemscore.Internal_Hbond>
0.0000

> <Gold.Chemscore.DEClash>
0.1702

> <Gold.Chemscore.DEInternal>
0.7548

> <Gold.Chemscore.Rot>
2.4576

> <Gold.Chemscore.Internal.Correction>
   9.000000E+99

> <Gold.Chemscore.Hbonds>
donor molecule, donor type, donor heavy atom, donor atom, acceptor molecule, acceptor atom, score
      L1  H     5    65       P1 10957  0.68
      P1  H  6896  6907       L1    16  0.89

> <Gold.Chemscore.Hbond.Weighted>
-6.2238

> <Gold.Chemscore.Metal.Weighted>
-0.0000

> <Gold.Chemscore.Lipo.Weighted>
-10.9314

> <Gold.Chemscore.Internal_Hbond.Weighted>
0.0000

> <Gold.Chemscore.DEClash.Weighted>
0.1702

> <Gold.Chemscore.DEInternal.Weighted>
0.7548

> <Gold.Chemscore.Rot.Weighted>
6.2915

> <Gold.Chemscore.Internal.Correction.Weighted>
   9.000000E+99

> <Gold.Protein.RotatedTorsions>
[ 6907 6896 6895 6894 ] final -107.50 input  -60.11 | X-H torsion
[ 7974 7965 7964 7962 ] final  144.24 input  175.53 | X-H torsion
[ 8008 7997 7996 7995 ] final  165.39 input   59.86 | X-H torsion
[ 10167 10162 10161 10158 ] final   51.53 input  -65.29 | X-H torsion
[ 10718 10713 10712 10709 ] final  -84.29 input   66.30 | X-H torsion
[ 10763 10752 10751 10750 ] final -165.41 input  -60.55 | X-H torsion
[ 11005 11000 10999 10996 ] final -124.38 input  -57.11 | X-H torsion

> <Gold.Protein.ActiveResidues>
 VAL166  LYS551  ARG553  GLY616  TRP617  ASP618  TYR619  PRO620  LYS621  CYS622 
 ASP623  PHE694  ASN695  SER759  ASP760  ASP761  ALA762  ILE779  LEU786  VAL792 
 PHE793  MET794  SER795  GLU796  ALA797  LYS798  CYS799  TRP800  GLU811  SER814 

> <Gold.Protein.RotatedAtoms>
  150.7448  133.9816  159.3577 H   0  0  0  0  0  0  0  0  0  0  0  0  # atno 6907 bound_to 6896
  151.7758  135.0772  160.0376 H   0  0  0  0  0  0  0  0  0  0  0  0  # atno 6908 bound_to 6896
  152.3308  133.5919  159.5844 H   0  0  0  0  0  0  0  0  0  0  0  0  # atno 6909 bound_to 6896
  144.8853  139.5638  143.5824 H   0  0  0  0  0  0  0  0  0  0  0  0  # atno 7974 bound_to 7965
  156.1804  140.1671  156.8285 H   0  0  0  0  0  0  0  0  0  0  0  0  # atno 8008 bound_to 7997
  154.5353  140.0748  156.8450 H   0  0  0  0  0  0  0  0  0  0  0  0  # atno 8009 bound_to 7997
  155.3323  140.3380  155.4242 H   0  0  0  0  0  0  0  0  0  0  0  0  # atno 8010 bound_to 7997
  140.2609  144.3374  150.6318 H   0  0  0  0  0  0  0  0  0  0  0  0  # atno 10167 bound_to 10162
  156.0008  130.4693  150.4388 H   0  0  0  0  0  0  0  0  0  0  0  0  # atno 10718 bound_to 10713
  154.6934  135.2975  154.9446 H   0  0  0  0  0  0  0  0  0  0  0  0  # atno 10763 bound_to 10752
  154.0402  135.6658  153.4793 H   0  0  0  0  0  0  0  0  0  0  0  0  # atno 10764 bound_to 10752
  153.0628  135.5105  154.8039 H   0  0  0  0  0  0  0  0  0  0  0  0  # atno 10765 bound_to 10752
  140.9845  134.0626  157.3727 H   0  0  0  0  0  0  0  0  0  0  0  0  # atno 11005 bound_to 11000
  146.3020  139.7457  142.9084 LP  0  0  0  0  0  0  0  0  0  0  0  0  # atno 17320 bound_to 7965
  145.3881  141.0368  143.3140 LP  0  0  0  0  0  0  0  0  0  0  0  0  # atno 17321 bound_to 7965
  140.5967  143.2167  151.7151 LP  0  0  0  0  0  0  0  0  0  0  0  0  # atno 17342 bound_to 10162
  139.5017  144.3857  152.0331 LP  0  0  0  0  0  0  0  0  0  0  0  0  # atno 17343 bound_to 10162
  157.2431  131.0530  151.2425 LP  0  0  0  0  0  0  0  0  0  0  0  0  # atno 17370 bound_to 10713
  157.3601  130.7127  149.6496 LP  0  0  0  0  0  0  0  0  0  0  0  0  # atno 17371 bound_to 10713
  139.8964  135.0146  156.7052 LP  0  0  0  0  0  0  0  0  0  0  0  0  # atno 17394 bound_to 11000
  140.7135  133.9202  155.8100 LP  0  0  0  0  0  0  0  0  0  0  0  0  # atno 17395 bound_to 11000

$$$$
