AV-unprocessed.smi:2547|AV-procd|sdf|10006|dock3
  -GOLD-   2272014 53D 1   1.00000     0.00000
 Structure written by MMmdl.
 44 45  0  0  0  0  0  0  0  0  2 V2000
  148.4914  135.7211  155.3128 C   0  0  0  0  0  0  0  0  0  0  0  0
  149.3580  136.7339  154.6725 N   0  3  2  0  0  0  0  0  0  0  0  0
  150.7945  136.3654  154.7295 C   0  0  0  0  0  0  0  0  0  0  0  0
  151.6562  137.3708  153.9438 C   0  0  0  0  0  0  0  0  0  0  0  0
  151.4359  138.8170  154.4222 C   0  0  2  0  0  0  0  0  0  0  0  0
  152.0048  139.0097  155.7568 N   0  0  0  0  0  0  0  0  0  0  0  0
  151.8705  140.0921  156.5379 C   0  0  0  0  0  0  0  0  0  0  0  0
  151.2174  141.0753  156.1760 O   0  0  0  0  0  0  0  0  0  0  0  0
  152.5578  139.8924  157.7301 N   0  0  0  0  0  0  0  0  0  0  0  0
  152.6869  140.8197  158.6347 C   0  0  0  0  0  0  0  0  0  0  0  0
  153.4198  140.5380  159.8576 C   0  0  0  0  0  0  0  0  0  0  0  0
  153.5691  141.4793  160.8117 C   0  0  0  0  0  0  0  0  0  0  0  0
  153.0043  142.8029  160.6503 C   0  0  0  0  0  0  0  0  0  0  0  0
  152.3188  143.1007  159.5303 C   0  0  0  0  0  0  0  0  0  0  0  0
  151.7818  144.3648  159.3808 N   0  0  0  0  0  0  0  0  0  0  0  0
  151.0345  144.7318  158.1898 C   0  0  0  0  0  0  0  0  0  0  0  0
  151.6788  145.2796  160.5051 C   0  0  0  0  0  0  0  0  0  0  0  0
  152.1667  142.1250  158.5467 N   0  0  0  0  0  0  0  0  0  0  0  0
  149.9329  139.1477  154.4218 C   0  0  0  0  0  0  0  0  0  0  0  0
  149.1114  138.1006  155.1963 C   0  0  0  0  0  0  0  0  0  0  0  0
  148.7046  135.6410  156.3797 H   0  0  0  0  0  0  0  0  0  0  0  0
  148.6434  134.7417  154.8582 H   0  0  0  0  0  0  0  0  0  0  0  0
  147.4395  135.9827  155.1922 H   0  0  0  0  0  0  0  0  0  0  0  0
  151.1196  136.3178  155.7700 H   0  0  0  0  0  0  0  0  0  0  0  0
  150.9317  135.3675  154.3113 H   0  0  0  0  0  0  0  0  0  0  0  0
  152.7110  137.1037  154.0218 H   0  0  0  0  0  0  0  0  0  0  0  0
  151.4045  137.3032  152.8844 H   0  0  0  0  0  0  0  0  0  0  0  0
  151.9262  139.4837  153.7113 H   0  0  0  0  0  0  0  0  0  0  0  0
  152.5549  138.2475  156.1254 H   0  0  0  0  0  0  0  0  0  0  0  0
  153.8637  139.5690  160.0351 H   0  0  0  0  0  0  0  0  0  0  0  0
  154.1186  141.2436  161.7111 H   0  0  0  0  0  0  0  0  0  0  0  0
  153.1361  143.5419  161.4276 H   0  0  0  0  0  0  0  0  0  0  0  0
  151.3513  144.1342  157.3346 H   0  0  0  0  0  0  0  0  0  0  0  0
  151.1889  145.7826  157.9430 H   0  0  0  0  0  0  0  0  0  0  0  0
  149.9684  144.5662  158.3466 H   0  0  0  0  0  0  0  0  0  0  0  0
  152.4417  145.0608  161.2532 H   0  0  0  0  0  0  0  0  0  0  0  0
  150.7006  145.1887  160.9778 H   0  0  0  0  0  0  0  0  0  0  0  0
  151.8114  146.3115  160.1796 H   0  0  0  0  0  0  0  0  0  0  0  0
  149.7646  140.1414  154.8392 H   0  0  0  0  0  0  0  0  0  0  0  0
  149.5765  139.1877  153.3915 H   0  0  0  0  0  0  0  0  0  0  0  0
  148.0504  138.3380  155.1106 H   0  0  0  0  0  0  0  0  0  0  0  0
  149.3566  138.1354  156.2591 H   0  0  0  0  0  0  0  0  0  0  0  0
  149.1036  136.7503  153.6951 H   0  0  0  0  0  0  0  0  0  0  0  0
  151.6428  142.4100  157.7316 H   0  0  0  0  0  0  0  0  0  0  0  0
  1  2  1  0  0  0  0
  1 21  1  0  0  0  0
  1 22  1  0  0  0  0
  1 23  1  0  0  0  0
  2 20  1  0  0  0  0
  2  3  1  0  0  0  0
  2 43  1  0  0  0  0
  3  4  1  0  0  0  0
  3 24  1  0  0  0  0
  3 25  1  0  0  0  0
  4  5  1  0  0  0  0
  4 26  1  0  0  0  0
  4 27  1  0  0  0  0
  5  6  1  0  0  0  0
  5 19  1  0  0  0  0
  5 28  1  0  0  0  0
  6  7  1  0  0  0  0
  6 29  1  0  0  0  0
  7  8  2  0  0  0  0
  7  9  1  0  0  0  0
  9 10  2  0  0  0  0
 10 18  1  0  0  0  0
 10 11  1  0  0  0  0
 11 12  2  0  0  0  0
 11 30  1  0  0  0  0
 12 13  1  0  0  0  0
 12 31  1  0  0  0  0
 13 14  2  0  0  0  0
 13 32  1  0  0  0  0
 14 15  1  0  0  0  0
 14 18  1  0  0  0  0
 15 16  1  0  0  0  0
 15 17  1  0  0  0  0
 16 33  1  0  0  0  0
 16 34  1  0  0  0  0
 16 35  1  0  0  0  0
 17 36  1  0  0  0  0
 17 37  1  0  0  0  0
 17 38  1  0  0  0  0
 18 44  1  0  0  0  0
 19 20  1  0  0  0  0
 19 39  1  0  0  0  0
 19 40  1  0  0  0  0
 20 41  1  0  0  0  0
 20 42  1  0  0  0  0
M  CHG  1   2   1
M  END
> <s_m_source_file>
AV-unprocessed.smi

> <i_m_source_file_index>
2547

> <i_lp_mmshare_version>
43012

> <i_f3d_flags>
0

> <s_epik_input>
W0NIM11OMVtDSDJdW0NIMl1bQ0hdKFtDSDJdW0NIMl0xKVtOSF1DKD1PKVtOSF1jMltjSF1bY0hdW2NIXWMobjIpTihbQ0gzXSlbQ0gzXQ==

> <s_epik_cmdline>
J2VwaWtfcHl0aG9uJywgJy1waCcsICc3LjAnLCAnLXRuJywgJzgnLCAnLW1hJywgJzIwMCcsICctbWV0YWxfYmluZGluZycsICctaW1hZScsICc8aW5maWxlLm1hZT4nLCAnLW9tYWUnLCAnPG91dGZpbGUubWFlPic=

> <r_lp_tautomer_probability>
0.999994

> <r_epik_Ionization_Penalty>
1.33208

> <r_epik_Ionization_Penalty_Charging>
1.33208

> <r_epik_Ionization_Penalty_Neutral>
6.0327e-08

> <r_epik_State_Penalty>
3.49719

> <r_epik_Charging_Adjusted_Penalty>
4.82927

> <i_epik_Tot_Q>
1

> <i_epik_Tot_abs_Q>
1

> <r_epik_Metal_State_Penalty>
3.51567

> <b_epik_Metal_Only>
1

> <s_lp_Force_Field>
OPLS_2005

> <r_lp_Energy>
40.5886

> <b_lp_Chiralities_Consistent>
1

> <s_lp_Variant>
AV-unprocessed.smi:2547-6

> <Gold.Version>
5.8.1

> <Gold.Id.Protein>
6NUR|6NUR_protein|mol2

> <Gold.PLP.Fitness>
48.5760

> <Gold.PLP.PLP>
-40.9637

> <Gold.PLP.part.hbond>
-2.0000

> <Gold.PLP.part.metal>
0.0000

> <Gold.PLP.part.buried>
-0.8923

> <Gold.PLP.part.nonpolar>
-36.9219

> <Gold.PLP.part.repulsive>
0.2715

> <Gold.PLP.ligand.clash>
0.0000

> <Gold.PLP.ligand.torsion>
0.1260

> <Gold.PLP.Chemscore.Hbond>
2.5923

> <Gold.PLP.Chemscore.CHOScore>
0.0000

> <Gold.PLP.Chemscore.Metal>
0.0000

> <Gold.Chemscore.Hbonds>
donor molecule, donor type, donor heavy atom, donor atom, acceptor molecule, acceptor atom, score
      L1  H     2    43       P1  7948  2.00
      P1  H  7997  8008       L1     9  0.52

> <Gold.PLP.Chemscore.Internal.Correction>
0.0873

> <Gold.Rescore>
     Score         DG    S(hbond)    S(metal)    S(lipo)     H(rot)  DE(clash)    DE(int)     intcor
     14.50     -16.98       1.00        0.00      91.51       1.00       1.22       1.26       ----

> <Gold.Chemscore.Fitness>
14.4973

> <Gold.Chemscore.DG>
-16.9811

> <Gold.Chemscore.ZeroCoef>
-5.4800

> <Gold.Chemscore.Hbond>
1.0044

> <Gold.Chemscore.Metal>
0.0000

> <Gold.Chemscore.Lipo>
91.5080

> <Gold.Chemscore.Internal_Hbond>
0.0000

> <Gold.Chemscore.DEClash>
1.2196

> <Gold.Chemscore.DEInternal>
1.2643

> <Gold.Chemscore.Rot>
1.0000

> <Gold.Chemscore.Internal.Correction>
   9.000000E+99

> <Gold.Chemscore.Hbonds>
donor molecule, donor type, donor heavy atom, donor atom, acceptor molecule, acceptor atom, score
      L1  H     2    43       P1  7948  0.99
      P1  H  7997  8008       L1     9  0.01

> <Gold.Chemscore.Hbond.Weighted>
-3.3547

> <Gold.Chemscore.Metal.Weighted>
-0.0000

> <Gold.Chemscore.Lipo.Weighted>
-10.7064

> <Gold.Chemscore.Internal_Hbond.Weighted>
0.0000

> <Gold.Chemscore.DEClash.Weighted>
1.2196

> <Gold.Chemscore.DEInternal.Weighted>
1.2643

> <Gold.Chemscore.Rot.Weighted>
2.5600

> <Gold.Chemscore.Internal.Correction.Weighted>
   9.000000E+99

> <Gold.Protein.RotatedTorsions>
[ 6907 6896 6895 6894 ] final   94.73 input  -60.11 | X-H torsion
[ 7974 7965 7964 7962 ] final -112.21 input  175.53 | X-H torsion
[ 8008 7997 7996 7995 ] final  -80.47 input   59.86 | X-H torsion
[ 10167 10162 10161 10158 ] final  162.99 input  -65.29 | X-H torsion
[ 10718 10713 10712 10709 ] final -137.05 input   66.30 | X-H torsion
[ 10763 10752 10751 10750 ] final -108.60 input  -60.55 | X-H torsion
[ 11005 11000 10999 10996 ] final  132.54 input  -57.11 | X-H torsion

> <Gold.Protein.ActiveResidues>
 VAL166  LYS551  ARG553  GLY616  TRP617  ASP618  TYR619  PRO620  LYS621  CYS622 
 ASP623  PHE694  ASN695  SER759  ASP760  ASP761  ALA762  ILE779  LEU786  VAL792 
 PHE793  MET794  SER795  GLU796  ALA797  LYS798  CYS799  TRP800  GLU811  SER814 

> <Gold.Protein.RotatedAtoms>
  152.5448  134.1149  159.8373 H   0  0  0  0  0  0  0  0  0  0  0  0  # atno 6907 bound_to 6896
  151.1211  133.5096  159.2609 H   0  0  0  0  0  0  0  0  0  0  0  0  # atno 6908 bound_to 6896
  151.1778  135.0357  159.8834 H   0  0  0  0  0  0  0  0  0  0  0  0  # atno 6909 bound_to 6896
  145.1468  140.8807  143.3670 H   0  0  0  0  0  0  0  0  0  0  0  0  # atno 7974 bound_to 7965
  154.5886  140.0662  156.9207 H   0  0  0  0  0  0  0  0  0  0  0  0  # atno 8008 bound_to 7997
  155.2335  140.3339  155.4282 H   0  0  0  0  0  0  0  0  0  0  0  0  # atno 8009 bound_to 7997
  156.2240  140.1811  156.7392 H   0  0  0  0  0  0  0  0  0  0  0  0  # atno 8010 bound_to 7997
  139.4868  144.4382  151.8985 H   0  0  0  0  0  0  0  0  0  0  0  0  # atno 10167 bound_to 10162
  156.2838  130.7336  151.1341 H   0  0  0  0  0  0  0  0  0  0  0  0  # atno 10718 bound_to 10713
  154.8145  135.4632  154.0605 H   0  0  0  0  0  0  0  0  0  0  0  0  # atno 10763 bound_to 10752
  153.2009  135.6869  153.8239 H   0  0  0  0  0  0  0  0  0  0  0  0  # atno 10764 bound_to 10752
  153.7723  135.3268  155.3331 H   0  0  0  0  0  0  0  0  0  0  0  0  # atno 10765 bound_to 10752
  139.9796  134.9552  156.9597 H   0  0  0  0  0  0  0  0  0  0  0  0  # atno 11005 bound_to 11000
  145.0473  139.3210  143.5946 LP  0  0  0  0  0  0  0  0  0  0  0  0  # atno 17320 bound_to 7965
  146.3499  139.9869  142.8690 LP  0  0  0  0  0  0  0  0  0  0  0  0  # atno 17321 bound_to 7965
  140.3832  144.2709  150.5906 LP  0  0  0  0  0  0  0  0  0  0  0  0  # atno 17342 bound_to 10162
  140.5214  143.2265  151.8383 LP  0  0  0  0  0  0  0  0  0  0  0  0  # atno 17343 bound_to 10162
  157.7322  131.0601  150.5638 LP  0  0  0  0  0  0  0  0  0  0  0  0  # atno 17370 bound_to 10713
  156.5747  130.4289  149.6004 LP  0  0  0  0  0  0  0  0  0  0  0  0  # atno 17371 bound_to 10713
  140.5123  134.0990  155.7273 LP  0  0  0  0  0  0  0  0  0  0  0  0  # atno 17394 bound_to 11000
  141.1470  133.9037  157.2192 LP  0  0  0  0  0  0  0  0  0  0  0  0  # atno 17395 bound_to 11000

$$$$
