AV-unprocessed.smi:160|AV-procd|sdf|1350|dock7
  -GOLD-   2262019 53D 1   1.00000     0.00000
 Structure written by MMmdl.
 29 30  0  0  0  0  0  0  0  0  1 V2000
  147.5418  143.1397  157.3908 N   0  0  0  0  0  0  0  0  0  0  0  0
  147.5554  141.9486  157.9982 C   0  0  0  0  0  0  0  0  0  0  0  0
  146.7574  141.6532  158.8864 O   0  0  0  0  0  0  0  0  0  0  0  0
  148.6087  140.9796  157.5371 C   0  0  0  0  0  0  0  0  0  0  0  0
  148.6134  139.6831  157.9667 N   0  0  0  0  0  0  0  0  0  0  0  0
  149.6817  139.2502  157.3095 C   0  0  0  0  0  0  0  0  0  0  0  0
  150.2807  140.1819  156.5605 N   0  0  0  0  0  0  0  0  0  0  0  0
  151.4849  140.0666  155.6713 C   0  0  1  0  0  0  0  0  0  0  0  0
  152.4929  139.4529  156.4129 O   0  0  0  0  0  0  0  0  0  0  0  0
  152.7151  138.1094  155.9805 C   0  0  1  0  0  0  0  0  0  0  0  0
  152.7050  137.1602  157.1899 C   0  0  0  0  0  0  0  0  0  0  0  0
  153.2404  135.9055  156.8268 O   0  0  0  0  0  0  0  0  0  0  0  0
  151.6113  137.8042  154.9547 C   0  0  2  0  0  0  0  0  0  0  0  0
  152.1185  136.9999  153.9083 O   0  0  0  0  0  0  0  0  0  0  0  0
  151.2320  139.1838  154.4379 C   0  0  1  0  0  0  0  0  0  0  0  0
  149.8962  139.2190  153.9687 O   0  0  0  0  0  0  0  0  0  0  0  0
  149.5752  141.3339  156.6890 N   0  0  0  0  0  0  0  0  0  0  0  0
  151.7391  141.0986  155.4263 H   0  0  0  0  0  0  0  0  0  0  0  0
  153.6865  138.0860  155.4824 H   0  0  0  0  0  0  0  0  0  0  0  0
  150.7602  137.3134  155.4291 H   0  0  0  0  0  0  0  0  0  0  0  0
  151.9178  139.5055  153.6528 H   0  0  0  0  0  0  0  0  0  0  0  0
  146.8591  143.8336  157.6581 H   0  0  0  0  0  0  0  0  0  0  0  0
  148.2184  143.3373  156.6677 H   0  0  0  0  0  0  0  0  0  0  0  0
  150.0356  138.2318  157.3762 H   0  0  0  0  0  0  0  0  0  0  0  0
  153.2567  137.5790  158.0317 H   0  0  0  0  0  0  0  0  0  0  0  0
  151.6814  136.9915  157.5256 H   0  0  0  0  0  0  0  0  0  0  0  0
  152.9749  135.2672  157.4712 H   0  0  0  0  0  0  0  0  0  0  0  0
  151.4596  136.9321  153.2346 H   0  0  0  0  0  0  0  0  0  0  0  0
  149.8872  139.6210  153.1136 H   0  0  0  0  0  0  0  0  0  0  0  0
  1  2  1  0  0  0  0
  1 22  1  0  0  0  0
  1 23  1  0  0  0  0
  2  3  2  0  0  0  0
  2  4  1  0  0  0  0
  4 17  2  0  0  0  0
  4  5  1  0  0  0  0
  5  6  2  0  0  0  0
  6  7  1  0  0  0  0
  6 24  1  0  0  0  0
  7  8  1  0  0  0  0
  7 17  1  0  0  0  0
  8 18  1  0  0  0  0
  8 15  1  0  0  0  0
  8  9  1  0  0  0  0
  9 10  1  0  0  0  0
 10 19  1  0  0  0  0
 10 11  1  0  0  0  0
 10 13  1  0  0  0  0
 11 12  1  0  0  0  0
 11 25  1  0  0  0  0
 11 26  1  0  0  0  0
 12 27  1  0  0  0  0
 13 20  1  0  0  0  0
 13 14  1  0  0  0  0
 13 15  1  0  0  0  0
 14 28  1  0  0  0  0
 15 21  1  0  0  0  0
 15 16  1  0  0  0  0
 16 29  1  0  0  0  0
M  END
> <s_m_source_file>
AV-unprocessed.smi

> <i_m_source_file_index>
160

> <i_lp_mmshare_version>
43012

> <i_f3d_flags>
0

> <s_epik_input>
W05IMl1DKD1PKWMxbltjSF1uKG4xKVtDQEBIXTJPW0NASF0oW0NIMl1bT0hdKVtDQEBIXShbT0hdKVtDQEhdMltPSF0=

> <s_epik_cmdline>
J2VwaWtfcHl0aG9uJywgJy1waCcsICc3LjAnLCAnLXRuJywgJzgnLCAnLW1hJywgJzIwMCcsICctbWV0YWxfYmluZGluZycsICctaW1hZScsICc8aW5maWxlLm1hZT4nLCAnLW9tYWUnLCAnPG91dGZpbGUubWFlPic=

> <r_lp_tautomer_probability>
1

> <r_epik_Ionization_Penalty>
1.06932e-05

> <r_epik_Ionization_Penalty_Charging>
0

> <r_epik_Ionization_Penalty_Neutral>
1.06932e-05

> <r_epik_State_Penalty>
-0

> <r_epik_Charging_Adjusted_Penalty>
0

> <i_epik_Tot_Q>
0

> <i_epik_Tot_abs_Q>
0

> <r_epik_Metal_State_Penalty>
0.0142097

> <b_epik_Metal_Only>
0

> <s_epik_Chemistry_Notes>
This compound contains an acetal/aminal-like group ( X-CH(R)-Y where X, Y are N, S, or O) that may be acid/base labile, releasing an aldehyde.

> <s_lp_Force_Field>
OPLS_2005

> <r_lp_Energy>
40.695

> <b_lp_Chiralities_Consistent>
1

> <s_lp_Variant>
AV-unprocessed.smi:160-8

> <Gold.Version>
5.8.1

> <Gold.Id.Protein>
6NUR|6NUR_protein|mol2

> <Gold.PLP.Fitness>
39.7165

> <Gold.PLP.PLP>
-21.7878

> <Gold.PLP.part.hbond>
-8.2680

> <Gold.PLP.part.metal>
0.0000

> <Gold.PLP.part.buried>
-0.3841

> <Gold.PLP.part.nonpolar>
-12.4827

> <Gold.PLP.part.repulsive>
0.1028

> <Gold.PLP.ligand.clash>
0.0000

> <Gold.PLP.ligand.torsion>
0.3227

> <Gold.PLP.Chemscore.Hbond>
6.1877

> <Gold.PLP.Chemscore.CHOScore>
0.0000

> <Gold.PLP.Chemscore.Metal>
0.0000

> <Gold.Chemscore.Hbonds>
donor molecule, donor type, donor heavy atom, donor atom, acceptor molecule, acceptor atom, score
      L1  H     1    22       P1  8029  0.01
      L1  H     1    23       P1  8028  0.76
      L1  H    14    28       P1  7949  0.78
      L1  H    16    29       P1  7957  1.00
      P1  H  6934  6946       L1     3  0.62
      P1  H  7997  8010       L1     9  1.00
      P1  H 10752 10763       L1    14  0.99
      P1  H 10752 10764       L1    12  1.00

> <Gold.PLP.Chemscore.Internal.Correction>
0.0110

> <Gold.Rescore>
     Score         DG    S(hbond)    S(metal)    S(lipo)     H(rot)  DE(clash)    DE(int)     intcor
     13.17     -14.91       4.98        0.00      27.16       4.06       1.54       0.20       ----

> <Gold.Chemscore.Fitness>
13.1680

> <Gold.Chemscore.DG>
-14.9085

> <Gold.Chemscore.ZeroCoef>
-5.4800

> <Gold.Chemscore.Hbond>
4.9833

> <Gold.Chemscore.Metal>
0.0000

> <Gold.Chemscore.Lipo>
27.1616

> <Gold.Chemscore.Internal_Hbond>
0.0000

> <Gold.Chemscore.DEClash>
1.5438

> <Gold.Chemscore.DEInternal>
0.1968

> <Gold.Chemscore.Rot>
4.0600

> <Gold.Chemscore.Internal.Correction>
   9.000000E+99

> <Gold.Chemscore.Hbonds>
donor molecule, donor type, donor heavy atom, donor atom, acceptor molecule, acceptor atom, score
      L1  H     1    23       P1  8028  0.17
      L1  H    14    28       P1  7949  0.64
      L1  H    16    29       P1  7957  0.95
      P1  H  6934  6946       L1     3  0.61
      P1  H  7997  8010       L1     9  0.25
      P1  H 10752 10763       L1    14  0.76
      P1  H 10752 10764       L1    12  0.92

> <Gold.Chemscore.Hbond.Weighted>
-16.6442

> <Gold.Chemscore.Metal.Weighted>
-0.0000

> <Gold.Chemscore.Lipo.Weighted>
-3.1779

> <Gold.Chemscore.Internal_Hbond.Weighted>
0.0000

> <Gold.Chemscore.DEClash.Weighted>
1.5438

> <Gold.Chemscore.DEInternal.Weighted>
0.1968

> <Gold.Chemscore.Rot.Weighted>
10.3936

> <Gold.Chemscore.Internal.Correction.Weighted>
   9.000000E+99

> <Gold.Protein.RotatedTorsions>
[ 6907 6896 6895 6894 ] final -116.05 input  -60.11 | X-H torsion
[ 7974 7965 7964 7962 ] final  109.25 input  175.53 | X-H torsion
[ 8008 7997 7996 7995 ] final   65.14 input   59.86 | X-H torsion
[ 10167 10162 10161 10158 ] final  -63.71 input  -65.29 | X-H torsion
[ 10718 10713 10712 10709 ] final  -78.66 input   66.30 | X-H torsion
[ 10763 10752 10751 10750 ] final   18.15 input  -60.55 | X-H torsion
[ 11005 11000 10999 10996 ] final  -32.12 input  -57.11 | X-H torsion

> <Gold.Protein.ActiveResidues>
 VAL166  LYS551  ARG553  GLY616  TRP617  ASP618  TYR619  PRO620  LYS621  CYS622 
 ASP623  PHE694  ASN695  SER759  ASP760  ASP761  ALA762  ILE779  LEU786  VAL792 
 PHE793  MET794  SER795  GLU796  ALA797  LYS798  CYS799  TRP800  GLU811  SER814 

> <Gold.Protein.RotatedAtoms>
  150.8025  133.8572  159.3221 H   0  0  0  0  0  0  0  0  0  0  0  0  # atno 6907 bound_to 6896
  151.6380  135.1014  160.0145 H   0  0  0  0  0  0  0  0  0  0  0  0  # atno 6908 bound_to 6896
  152.4113  133.6929  159.6436 H   0  0  0  0  0  0  0  0  0  0  0  0  # atno 6909 bound_to 6896
  145.2703  139.2669  143.3970 H   0  0  0  0  0  0  0  0  0  0  0  0  # atno 7974 bound_to 7965
  155.6571  140.3497  155.4769 H   0  0  0  0  0  0  0  0  0  0  0  0  # atno 8008 bound_to 7997
  155.9800  140.1172  157.0758 H   0  0  0  0  0  0  0  0  0  0  0  0  # atno 8009 bound_to 7997
  154.4189  140.1140  156.5408 H   0  0  0  0  0  0  0  0  0  0  0  0  # atno 8010 bound_to 7997
  140.5851  143.2333  151.6259 H   0  0  0  0  0  0  0  0  0  0  0  0  # atno 10167 bound_to 10162
  156.0112  130.4524  150.3530 H   0  0  0  0  0  0  0  0  0  0  0  0  # atno 10718 bound_to 10713
  153.1275  135.6733  153.9233 H   0  0  0  0  0  0  0  0  0  0  0  0  # atno 10763 bound_to 10752
  153.8730  135.3067  155.3444 H   0  0  0  0  0  0  0  0  0  0  0  0  # atno 10764 bound_to 10752
  154.7678  135.4955  153.9668 H   0  0  0  0  0  0  0  0  0  0  0  0  # atno 10765 bound_to 10752
  140.9525  133.7212  156.1242 H   0  0  0  0  0  0  0  0  0  0  0  0  # atno 11005 bound_to 11000
  146.3248  140.3143  142.8629 LP  0  0  0  0  0  0  0  0  0  0  0  0  # atno 17320 bound_to 7965
  144.9341  140.8007  143.5671 LP  0  0  0  0  0  0  0  0  0  0  0  0  # atno 17321 bound_to 7965
  139.5193  144.3258  152.0870 LP  0  0  0  0  0  0  0  0  0  0  0  0  # atno 17342 bound_to 10162
  140.2413  144.4266  150.6259 LP  0  0  0  0  0  0  0  0  0  0  0  0  # atno 17343 bound_to 10162
  157.1621  131.0347  151.2836 LP  0  0  0  0  0  0  0  0  0  0  0  0  # atno 17370 bound_to 10713
  157.4302  130.7486  149.6984 LP  0  0  0  0  0  0  0  0  0  0  0  0  # atno 17371 bound_to 10713
  140.7582  134.3969  157.5530 LP  0  0  0  0  0  0  0  0  0  0  0  0  # atno 17394 bound_to 11000
  139.8852  134.8944  156.2658 LP  0  0  0  0  0  0  0  0  0  0  0  0  # atno 17395 bound_to 11000

$$$$
