#       Name:                AV-unprocessed.smi:863
#       Creating user name   scv26
#       Creation time:       Fri Mar 27 01:46:21 2020


#       File generated by GOLD software.
#

@<TRIPOS>MOLECULE
AV-unprocessed.smi:863
    49    51     1
SMALL
NO_CHARGES


@<TRIPOS>ATOM
      1 ****         1.5323   3.1672   0.3652 O.2            1 S1                 0.0000
      2 ****         2.2206   2.1508   0.2706 C.2            1 S1                 0.0000
      3 ****         3.7454   2.2601   0.2431 C.3            1 S1                 0.0000
      4 ****         4.2385   2.2677  -1.1787 C.2            1 S1                 0.0000
      5 ****         4.3815   3.3773  -2.0579 C.2            1 S1                 0.0000
      6 ****         4.8639   2.8160  -3.2048 C.2            1 S1                 0.0000
      7 ****         5.0108   1.4756  -3.0526 O.3            1 S1                 0.0000
      8 ****         4.6116   1.1347  -1.7552 N.2            1 S1                 0.0000
      9 ****         1.7072   0.9134   0.1842 N.am           1 S1                 0.0000
     10 ****         0.2837   0.5906   0.1739 C.3            1 S1                 0.0000
     11 ****        -0.2951   0.7328  -1.2408 C.3            1 S1                 0.0000
     12 ****        -1.7541   0.2588  -1.2773 C.3            1 S1                 0.0000
     13 ****        -1.8602  -1.0764  -0.7869 O.3            1 S1                 0.0000
     14 ****        -1.4057  -1.3052   0.5536 C.3            1 S1                 0.0000
     15 ****        -2.3101  -0.5943   1.5973 C.3            1 S1                 0.0000
     16 ****        -3.7585  -1.1090   1.5659 C.3            1 S1                 0.0000
     17 ****        -3.8127  -2.6274   1.7809 C.3            1 S1                 0.0000
     18 ****        -2.9380  -3.3574   0.7526 C.3            1 S1                 0.0000
     19 ****        -1.4910  -2.8339   0.7738 C.3            1 S1                 0.0000
     20 ****         0.0712  -0.8516   0.6604 C.3            1 S1                 0.0000
     21 ****         4.0490   3.1748   0.7535 H              1 S1                 0.0000
     22 ****         4.1828   1.4339   0.8059 H              1 S1                 0.0000
     23 ****         4.1625   4.4189  -1.8752 H              1 S1                 0.0000
     24 ****         5.1394   3.2177  -4.1687 H              1 S1                 0.0000
     25 ****         2.3506   0.1387   0.1060 H              1 S1                 0.0000
     26 ****        -0.2380   1.2715   0.8482 H              1 S1                 0.0000
     27 ****        -0.2326   1.7679  -1.5785 H              1 S1                 0.0000
     28 ****         0.2924   0.1392  -1.9426 H              1 S1                 0.0000
     29 ****        -2.3984   0.9332  -0.7141 H              1 S1                 0.0000
     30 ****        -2.1202   0.2762  -2.3039 H              1 S1                 0.0000
     31 ****        -1.9018  -0.7614   2.5950 H              1 S1                 0.0000
     32 ****        -2.3103   0.4862   1.4634 H              1 S1                 0.0000
     33 ****        -4.3467  -0.6056   2.3335 H              1 S1                 0.0000
     34 ****        -4.2184  -0.8556   0.6100 H              1 S1                 0.0000
     35 ****        -3.4712  -2.8673   2.7886 H              1 S1                 0.0000
     36 ****        -4.8427  -2.9778   1.7105 H              1 S1                 0.0000
     37 ****        -2.9470  -4.4291   0.9537 H              1 S1                 0.0000
     38 ****        -3.3615  -3.2292  -0.2443 H              1 S1                 0.0000
     39 ****        -0.9081  -3.3554   0.0135 H              1 S1                 0.0000
     40 ****        -1.0369  -3.0898   1.7323 H              1 S1                 0.0000
     41 ****         0.6911  -1.5178   0.0578 H              1 S1                 0.0000
     42 ****         0.4240  -0.9580   1.6871 H              1 S1                 0.0000
     43 ****         1.9705   4.0641   0.4241 LP             1 S1                 0.0000
     44 ****         0.5350   3.0958   0.3832 LP             1 S1                 0.0000
     45 ****         5.9686   1.2226  -3.1892 LP             1 S1                 0.0000
     46 ****         4.4408   0.9950  -3.7191 LP             1 S1                 0.0000
     47 ****         4.6086   0.2220  -1.3466 LP             1 S1                 0.0000
     48 ****        -1.3263  -1.6658  -1.3932 LP             1 S1                 0.0000
     49 ****        -2.8239  -1.3398  -0.8297 LP             1 S1                 0.0000
@<TRIPOS>BOND
    1    1    2 2     
    2    2    3 1     
    3    2    9 am    
    4    3    4 1     
    5    3   21 1     
    6    3   22 1     
    7    4    8 2     
    8    4    5 1     
    9    5    6 2     
   10    5   23 1     
   11    6    7 1     
   12    6   24 1     
   13    7    8 1     
   14    9   10 1     
   15    9   25 1     
   16   10   20 1     
   17   10   11 1     
   18   10   26 1     
   19   11   12 1     
   20   11   27 1     
   21   11   28 1     
   22   12   13 1     
   23   12   29 1     
   24   12   30 1     
   25   13   14 1     
   26   14   19 1     
   27   14   15 1     
   28   14   20 1     
   29   15   16 1     
   30   15   31 1     
   31   15   32 1     
   32   16   17 1     
   33   16   33 1     
   34   16   34 1     
   35   17   18 1     
   36   17   35 1     
   37   17   36 1     
   38   18   19 1     
   39   18   37 1     
   40   18   38 1     
   41   19   39 1     
   42   19   40 1     
   43   20   41 1     
   44   20   42 1     
   45    1   43 1     
   46    1   44 1     
   47    7   45 1     
   48    7   46 1     
   49    8   47 1     
   50   13   48 1     
   51   13   49 1     
@<TRIPOS>SUBSTRUCTURE
      1 S1             1
@<TRIPOS>SET
LONE_PAIRS      STATIC     ATOMS    <user>   **** ""
7 43 44 45 46 47 48 49
DONOR_HYDROGENS      STATIC     ATOMS    <user>   **** ""
1 25
ATOM$BLUE        STATIC     ATOMS    COLORGROUP SYSTEM
7 43 44 45 46 47 48 49
ATOM$RED        STATIC     ATOMS    COLORGROUP SYSTEM
1 25
