#       Name:                AV-unprocessed.smi:816
#       Creating user name   scv26
#       Creation time:       Fri Mar 27 01:26:40 2020


#       File generated by GOLD software.
#

@<TRIPOS>MOLECULE
AV-unprocessed.smi:816
    49    50     1
SMALL
NO_CHARGES


@<TRIPOS>ATOM
      1 ****        -1.4600   2.7815   2.3103 C.3            1 S1                 0.0000
      2 ****        -1.4678   2.7265   0.8064 C.2            1 S1                 0.0000
      3 ****        -1.1912   1.5852   0.2666 N.2            1 S1                 0.0000
      4 ****        -1.1705   1.4243  -1.1050 N.am           1 S1                 0.0000
      5 ****        -0.8233   0.0674  -1.5419 C.3            1 S1                 0.0000
      6 ****         0.6995  -0.0927  -1.7528 C.3            1 S1                 0.0000
      7 ****         0.9989   0.1086  -3.1194 O.3            1 S1                 0.0000
      8 ****         1.1947  -1.5001  -1.3869 C.3            1 S1                 0.0000
      9 ****         1.1074  -1.6616   0.0231 O.3            1 S1                 0.0000
     10 ****         1.4645  -2.8770   0.5656 C.ar           1 S1                 0.0000
     11 ****         1.3269  -3.0192   1.9616 C.ar           1 S1                 0.0000
     12 ****         1.6642  -4.2278   2.6011 C.ar           1 S1                 0.0000
     13 ****         2.1474  -5.3138   1.8451 C.ar           1 S1                 0.0000
     14 ****         2.4961  -6.5631   2.5009 C.1            1 S1                 0.0000
     15 ****         2.7737  -7.5578   3.0228 N.1            1 S1                 0.0000
     16 ****         2.2921  -5.1833   0.4497 C.ar           1 S1                 0.0000
     17 ****         1.9541  -3.9737  -0.1880 C.ar           1 S1                 0.0000
     18 ****        -1.4134   2.4164  -2.0074 C.2            1 S1                 0.0000
     19 ****        -1.3594   2.2332  -3.2244 O.2            1 S1                 0.0000
     20 ****        -1.7339   3.7053  -1.3897 C.2            1 S1                 0.0000
     21 ****        -2.0059   4.7711  -2.2996 C.1            1 S1                 0.0000
     22 ****        -2.2293   5.6476  -3.0221 N.1            1 S1                 0.0000
     23 ****        -1.7673   3.8742  -0.0440 C.2            1 S1                 0.0000
     24 ****        -2.0908   5.1919   0.6469 C.3            1 S1                 0.0000
     25 ****        -2.4588   2.9896   2.6936 H              1 S1                 0.0000
     26 ****        -0.7897   3.5632   2.6676 H              1 S1                 0.0000
     27 ****        -1.1271   1.8401   2.7499 H              1 S1                 0.0000
     28 ****        -1.1592  -0.6276  -0.7697 H              1 S1                 0.0000
     29 ****        -1.3826  -0.2283  -2.4318 H              1 S1                 0.0000
     30 ****         1.2541   0.6399  -1.1644 H              1 S1                 0.0000
     31 ****         0.6941   0.9678  -3.3702 H              1 S1                 0.0000
     32 ****         0.5979  -2.2538  -1.9040 H              1 S1                 0.0000
     33 ****         2.2346  -1.6180  -1.6971 H              1 S1                 0.0000
     34 ****         0.9566  -2.1920   2.5495 H              1 S1                 0.0000
     35 ****         1.5490  -4.3143   3.6721 H              1 S1                 0.0000
     36 ****         2.6628  -6.0092  -0.1405 H              1 S1                 0.0000
     37 ****         2.0808  -3.9126  -1.2581 H              1 S1                 0.0000
     38 ****        -2.3736   5.9706  -0.0609 H              1 S1                 0.0000
     39 ****        -1.2252   5.5519   1.2040 H              1 S1                 0.0000
     40 ****        -2.9215   5.0684   1.3424 H              1 S1                 0.0000
     41 ****        -0.9879   0.8022   0.8544 LP             1 S1                 0.0000
     42 ****         0.5389  -0.5868  -3.6715 LP             1 S1                 0.0000
     43 ****         1.9869   0.0467  -3.2609 LP             1 S1                 0.0000
     44 ****         0.1571  -1.4896   0.2823 LP             1 S1                 0.0000
     45 ****         1.6967  -0.9680   0.4374 LP             1 S1                 0.0000
     46 ****         3.0136  -8.4174   3.4738 LP             1 S1                 0.0000
     47 ****        -1.1301   1.3288  -3.5842 LP             1 S1                 0.0000
     48 ****        -1.5448   2.9889  -3.8525 LP             1 S1                 0.0000
     49 ****        -2.4222   6.4048  -3.6462 LP             1 S1                 0.0000
@<TRIPOS>BOND
    1    1    2 1     
    2    1   25 1     
    3    1   26 1     
    4    1   27 1     
    5    2   23 1     
    6    2    3 2     
    7    3    4 1     
    8    4    5 1     
    9    4   18 am    
   10    5    6 1     
   11    5   28 1     
   12    5   29 1     
   13    6    7 1     
   14    6    8 1     
   15    6   30 1     
   16    7   31 1     
   17    8    9 1     
   18    8   32 1     
   19    8   33 1     
   20    9   10 1     
   21   10   17 ar    
   22   10   11 ar    
   23   11   12 ar    
   24   11   34 1     
   25   12   13 ar    
   26   12   35 1     
   27   13   14 1     
   28   13   16 ar    
   29   14   15 3     
   30   16   17 ar    
   31   16   36 1     
   32   17   37 1     
   33   18   19 2     
   34   18   20 1     
   35   20   21 1     
   36   20   23 2     
   37   21   22 3     
   38   23   24 1     
   39   24   38 1     
   40   24   39 1     
   41   24   40 1     
   42    3   41 1     
   43    7   42 1     
   44    7   43 1     
   45    9   44 1     
   46    9   45 1     
   47   15   46 1     
   48   19   47 1     
   49   19   48 1     
   50   22   49 1     
@<TRIPOS>SUBSTRUCTURE
      1 S1             1
@<TRIPOS>SET
LONE_PAIRS      STATIC     ATOMS    <user>   **** ""
9 41 42 43 44 45 46 47 48 49
DONOR_HYDROGENS      STATIC     ATOMS    <user>   **** ""
1 31
ATOM$BLUE        STATIC     ATOMS    COLORGROUP SYSTEM
9 41 42 43 44 45 46 47 48 49
ATOM$RED        STATIC     ATOMS    COLORGROUP SYSTEM
1 31
