AV-unprocessed.smi:2270|AV-procd|sdf|9158|dock10
  -GOLD-   2272012363D 1   1.00000     0.00000
 Structure written by MMmdl.
 52 53  0  0  0  0  0  0  0  0  1 V2000
  153.3288  141.5521  160.8355 C   0  0  0  0  0  0  0  0  0  0  0  0
  152.6202  142.6695  160.0993 C   0  0  0  0  0  0  0  0  0  0  0  0
  152.6518  143.9903  160.5876 C   0  0  0  0  0  0  0  0  0  0  0  0
  151.9703  144.9824  159.8605 C   0  0  0  0  0  0  0  0  0  0  0  0
  151.2896  144.6151  158.6837 C   0  0  0  0  0  0  0  0  0  0  0  0
  151.3069  143.2663  158.2623 C   0  0  0  0  0  0  0  0  0  0  0  0
  150.5933  143.0006  157.0637 N   0  0  0  0  0  0  0  0  0  0  0  0
  150.4385  141.8240  156.4315 C   0  0  0  0  0  0  0  0  0  0  0  0
  150.8978  140.7453  156.8084 O   0  0  0  0  0  0  0  0  0  0  0  0
  149.7126  141.9668  155.3136 N   0  0  0  0  0  0  0  0  0  0  0  0
  149.3812  140.8891  154.3866 C   0  0  0  0  0  0  0  0  0  0  0  0
  147.9528  140.3149  154.6099 C   0  0  2  0  0  0  0  0  0  0  0  0
  147.4896  139.3223  153.4963 C   0  0  0  0  0  0  0  0  0  0  0  0
  146.9473  139.9436  152.1937 C   0  0  0  0  0  0  0  0  0  0  0  0
  146.5348  138.2433  154.0351 C   0  0  0  0  0  0  0  0  0  0  0  0
  146.9428  141.3134  155.0119 N   0  0  0  0  0  0  0  0  0  0  0  0
  146.7184  142.3427  153.9919 C   0  0  0  0  0  0  0  0  0  0  0  0
  145.7792  143.4488  154.5062 C   0  0  0  0  0  0  0  0  0  0  0  0
  144.4859  142.9022  154.9113 N   0  0  0  0  0  0  0  0  0  0  0  0
  143.5899  143.9446  155.3871 C   0  0  0  0  0  0  0  0  0  0  0  0
  144.7029  141.8749  155.9275 C   0  0  0  0  0  0  0  0  0  0  0  0
  145.6438  140.7667  155.4187 C   0  0  0  0  0  0  0  0  0  0  0  0
  151.9666  142.3169  158.9714 N   0  0  0  0  0  0  0  0  0  0  0  0
  154.0932  141.9478  161.5048 H   0  0  0  0  0  0  0  0  0  0  0  0
  153.8135  140.8723  160.1336 H   0  0  0  0  0  0  0  0  0  0  0  0
  152.6149  140.9817  161.4297 H   0  0  0  0  0  0  0  0  0  0  0  0
  153.1823  144.2389  161.4950 H   0  0  0  0  0  0  0  0  0  0  0  0
  151.9688  146.0079  160.1990 H   0  0  0  0  0  0  0  0  0  0  0  0
  150.7613  145.3651  158.1132 H   0  0  0  0  0  0  0  0  0  0  0  0
  150.1566  143.8017  156.6328 H   0  0  0  0  0  0  0  0  0  0  0  0
  149.3732  142.8880  155.0790 H   0  0  0  0  0  0  0  0  0  0  0  0
  149.5011  141.2610  153.3689 H   0  0  0  0  0  0  0  0  0  0  0  0
  150.1336  140.1105  154.5082 H   0  0  0  0  0  0  0  0  0  0  0  0
  148.0547  139.6605  155.4769 H   0  0  0  0  0  0  0  0  0  0  0  0
  148.3870  138.7803  153.1960 H   0  0  0  0  0  0  0  0  0  0  0  0
  145.9475  140.3550  152.3094 H   0  0  0  0  0  0  0  0  0  0  0  0
  146.8761  139.1819  151.4169 H   0  0  0  0  0  0  0  0  0  0  0  0
  147.5971  140.7263  151.8054 H   0  0  0  0  0  0  0  0  0  0  0  0
  145.5701  138.6665  154.3160 H   0  0  0  0  0  0  0  0  0  0  0  0
  146.9528  137.7523  154.9145 H   0  0  0  0  0  0  0  0  0  0  0  0
  146.3500  137.4732  153.2858 H   0  0  0  0  0  0  0  0  0  0  0  0
  147.6688  142.7914  153.7011 H   0  0  0  0  0  0  0  0  0  0  0  0
  146.2907  141.9031  153.0907 H   0  0  0  0  0  0  0  0  0  0  0  0
  146.2471  143.9659  155.3456 H   0  0  0  0  0  0  0  0  0  0  0  0
  145.6353  144.1928  153.7221 H   0  0  0  0  0  0  0  0  0  0  0  0
  142.6222  143.5250  155.6641 H   0  0  0  0  0  0  0  0  0  0  0  0
  143.4180  144.6898  154.6101 H   0  0  0  0  0  0  0  0  0  0  0  0
  144.0033  144.4521  156.2598 H   0  0  0  0  0  0  0  0  0  0  0  0
  145.1214  142.3231  156.8302 H   0  0  0  0  0  0  0  0  0  0  0  0
  143.7480  141.4326  156.2133 H   0  0  0  0  0  0  0  0  0  0  0  0
  145.1700  140.2513  154.5827 H   0  0  0  0  0  0  0  0  0  0  0  0
  145.7640  140.0354  156.2108 H   0  0  0  0  0  0  0  0  0  0  0  0
  1  2  1  0  0  0  0
  1 24  1  0  0  0  0
  1 25  1  0  0  0  0
  1 26  1  0  0  0  0
  2 23  1  0  0  0  0
  2  3  2  0  0  0  0
  3  4  1  0  0  0  0
  3 27  1  0  0  0  0
  4  5  2  0  0  0  0
  4 28  1  0  0  0  0
  5  6  1  0  0  0  0
  5 29  1  0  0  0  0
  6  7  1  0  0  0  0
  6 23  2  0  0  0  0
  7  8  1  0  0  0  0
  7 30  1  0  0  0  0
  8  9  2  0  0  0  0
  8 10  1  0  0  0  0
 10 11  1  0  0  0  0
 10 31  1  0  0  0  0
 11 12  1  0  0  0  0
 11 32  1  0  0  0  0
 11 33  1  0  0  0  0
 12 13  1  0  0  0  0
 12 16  1  0  0  0  0
 12 34  1  0  0  0  0
 13 14  1  0  0  0  0
 13 15  1  0  0  0  0
 13 35  1  0  0  0  0
 14 36  1  0  0  0  0
 14 37  1  0  0  0  0
 14 38  1  0  0  0  0
 15 39  1  0  0  0  0
 15 40  1  0  0  0  0
 15 41  1  0  0  0  0
 16 22  1  0  0  0  0
 16 17  1  0  0  0  0
 17 18  1  0  0  0  0
 17 42  1  0  0  0  0
 17 43  1  0  0  0  0
 18 19  1  0  0  0  0
 18 44  1  0  0  0  0
 18 45  1  0  0  0  0
 19 20  1  0  0  0  0
 19 21  1  0  0  0  0
 20 46  1  0  0  0  0
 20 47  1  0  0  0  0
 20 48  1  0  0  0  0
 21 22  1  0  0  0  0
 21 49  1  0  0  0  0
 21 50  1  0  0  0  0
 22 51  1  0  0  0  0
 22 52  1  0  0  0  0
M  END
> <s_m_source_file>
AV-unprocessed.smi

> <i_m_source_file_index>
2270

> <i_lp_mmshare_version>
43012

> <i_f3d_flags>
0

> <s_epik_input>
W0NIM11jMVtjSF1bY0hdW2NIXWMobjEpW05IXUMoPU8pW05IXVtDSDJdW0NASF0oW0NIXShbQ0gzXSlbQ0gzXSlOMltDSDJdW0NIMl1OKFtDSDNdKVtDSDJdW0NIMl0y

> <s_epik_cmdline>
J2VwaWtfcHl0aG9uJywgJy1waCcsICc3LjAnLCAnLXRuJywgJzgnLCAnLW1hJywgJzIwMCcsICctbWV0YWxfYmluZGluZycsICctaW1hZScsICc8aW5maWxlLm1hZT4nLCAnLW9tYWUnLCAnPG91dGZpbGUubWFlPic=

> <r_epik_Ionization_Penalty>
2.57754

> <r_epik_Ionization_Penalty_Charging>
0

> <r_epik_Ionization_Penalty_Neutral>
2.57754

> <r_epik_State_Penalty>
2.00874

> <r_epik_Charging_Adjusted_Penalty>
2.00874

> <i_epik_Tot_Q>
0

> <i_epik_Tot_abs_Q>
0

> <r_epik_Metal_State_Penalty>
2.00874

> <b_epik_Metal_Only>
0

> <s_lp_Force_Field>
OPLS_2005

> <r_lp_Energy>
48.2009

> <b_lp_Chiralities_Consistent>
1

> <s_lp_Variant>
AV-unprocessed.smi:2270-5

> <Gold.Version>
5.8.1

> <Gold.Id.Protein>
6NUR|6NUR_protein|mol2

> <Gold.PLP.Fitness>
49.2560

> <Gold.PLP.PLP>
-44.4742

> <Gold.PLP.part.hbond>
-2.0000

> <Gold.PLP.part.metal>
0.0000

> <Gold.PLP.part.buried>
-4.7106

> <Gold.PLP.part.nonpolar>
-38.5465

> <Gold.PLP.part.repulsive>
0.5209

> <Gold.PLP.ligand.clash>
0.0000

> <Gold.PLP.ligand.torsion>
0.7370

> <Gold.PLP.Chemscore.Hbond>
1.9440

> <Gold.PLP.Chemscore.CHOScore>
0.0000

> <Gold.PLP.Chemscore.Metal>
0.0000

> <Gold.Chemscore.Hbonds>
donor molecule, donor type, donor heavy atom, donor atom, acceptor molecule, acceptor atom, score
      L1  H     7    30       P1  8028  1.00
      L1  H    10    31       P1  8028  1.00

> <Gold.PLP.Chemscore.Internal.Correction>
0.4237

> <Gold.Rescore>
     Score         DG    S(hbond)    S(metal)    S(lipo)     H(rot)  DE(clash)    DE(int)     intcor
     16.09     -20.68       1.94        0.00     108.63       1.56       0.51       4.08       ----

> <Gold.Chemscore.Fitness>
16.0851

> <Gold.Chemscore.DG>
-20.6770

> <Gold.Chemscore.ZeroCoef>
-5.4800

> <Gold.Chemscore.Hbond>
1.9412

> <Gold.Chemscore.Metal>
0.0000

> <Gold.Chemscore.Lipo>
108.6320

> <Gold.Chemscore.Internal_Hbond>
0.0000

> <Gold.Chemscore.DEClash>
0.5141

> <Gold.Chemscore.DEInternal>
4.0778

> <Gold.Chemscore.Rot>
1.5612

> <Gold.Chemscore.Internal.Correction>
   9.000000E+99

> <Gold.Chemscore.Hbonds>
donor molecule, donor type, donor heavy atom, donor atom, acceptor molecule, acceptor atom, score
      L1  H     7    30       P1  8028  0.99
      L1  H    10    31       P1  8028  0.92

> <Gold.Chemscore.Hbond.Weighted>
-6.4837

> <Gold.Chemscore.Metal.Weighted>
-0.0000

> <Gold.Chemscore.Lipo.Weighted>
-12.7099

> <Gold.Chemscore.Internal_Hbond.Weighted>
0.0000

> <Gold.Chemscore.DEClash.Weighted>
0.5141

> <Gold.Chemscore.DEInternal.Weighted>
4.0778

> <Gold.Chemscore.Rot.Weighted>
3.9966

> <Gold.Chemscore.Internal.Correction.Weighted>
   9.000000E+99

> <Gold.Protein.RotatedTorsions>
[ 6907 6896 6895 6894 ] final  134.18 input  -60.11 | X-H torsion
[ 7974 7965 7964 7962 ] final   28.84 input  175.53 | X-H torsion
[ 8008 7997 7996 7995 ] final  123.66 input   59.86 | X-H torsion
[ 10167 10162 10161 10158 ] final   89.46 input  -65.29 | X-H torsion
[ 10718 10713 10712 10709 ] final   50.07 input   66.30 | X-H torsion
[ 10763 10752 10751 10750 ] final   23.44 input  -60.55 | X-H torsion
[ 11005 11000 10999 10996 ] final   17.71 input  -57.11 | X-H torsion

> <Gold.Protein.ActiveResidues>
 VAL166  LYS551  ARG553  GLY616  TRP617  ASP618  TYR619  PRO620  LYS621  CYS622 
 ASP623  PHE694  ASN695  SER759  ASP760  ASP761  ALA762  ILE779  LEU786  VAL792 
 PHE793  MET794  SER795  GLU796  ALA797  LYS798  CYS799  TRP800  GLU811  SER814 

> <Gold.Protein.RotatedAtoms>
  152.3140  133.5783  159.5699 H   0  0  0  0  0  0  0  0  0  0  0  0  # atno 6907 bound_to 6896
  150.7337  134.0110  159.3678 H   0  0  0  0  0  0  0  0  0  0  0  0  # atno 6908 bound_to 6896
  151.8000  135.0712  160.0450 H   0  0  0  0  0  0  0  0  0  0  0  0  # atno 6909 bound_to 6896
  146.1706  139.7002  142.8970 H   0  0  0  0  0  0  0  0  0  0  0  0  # atno 7974 bound_to 7965
  156.2774  140.2758  156.1662 H   0  0  0  0  0  0  0  0  0  0  0  0  # atno 8008 bound_to 7997
  155.0702  140.0387  157.2623 H   0  0  0  0  0  0  0  0  0  0  0  0  # atno 8009 bound_to 7997
  154.7046  140.2656  155.6692 H   0  0  0  0  0  0  0  0  0  0  0  0  # atno 8010 bound_to 7997
  139.8570  144.6564  150.9102 H   0  0  0  0  0  0  0  0  0  0  0  0  # atno 10167 bound_to 10162
  157.4849  130.8338  149.8135 H   0  0  0  0  0  0  0  0  0  0  0  0  # atno 10718 bound_to 10713
  153.0838  135.6627  153.9990 H   0  0  0  0  0  0  0  0  0  0  0  0  # atno 10763 bound_to 10752
  153.9605  135.2974  155.3435 H   0  0  0  0  0  0  0  0  0  0  0  0  # atno 10764 bound_to 10752
  154.7243  135.5151  153.8933 H   0  0  0  0  0  0  0  0  0  0  0  0  # atno 10765 bound_to 10752
  140.4329  134.1401  155.7682 H   0  0  0  0  0  0  0  0  0  0  0  0  # atno 11005 bound_to 11000
  145.4350  141.0418  143.2889 LP  0  0  0  0  0  0  0  0  0  0  0  0  # atno 17320 bound_to 7965
  144.8157  139.5881  143.7009 LP  0  0  0  0  0  0  0  0  0  0  0  0  # atno 17321 bound_to 7965
  140.7780  143.3777  151.1533 LP  0  0  0  0  0  0  0  0  0  0  0  0  # atno 17342 bound_to 10162
  139.7410  143.8925  152.3050 LP  0  0  0  0  0  0  0  0  0  0  0  0  # atno 17343 bound_to 10162
  156.0141  130.3821  150.2168 LP  0  0  0  0  0  0  0  0  0  0  0  0  # atno 17370 bound_to 10713
  157.0355  131.0020  151.3299 LP  0  0  0  0  0  0  0  0  0  0  0  0  # atno 17371 bound_to 10713
  141.1738  133.8555  157.1487 LP  0  0  0  0  0  0  0  0  0  0  0  0  # atno 17394 bound_to 11000
  140.0122  134.9983  157.0419 LP  0  0  0  0  0  0  0  0  0  0  0  0  # atno 17395 bound_to 11000

$$$$
