#       Name:                AV-unprocessed.smi:202
#       Creating user name   scv26
#       Creation time:       Thu Mar 26 19:47:05 2020


#       File generated by GOLD software.
#

@<TRIPOS>MOLECULE
AV-unprocessed.smi:202
    57    60     1
SMALL
NO_CHARGES


@<TRIPOS>ATOM
      1 ****        -5.4333   0.6031   1.3755 C.3            1 S1                 0.0000
      2 ****        -4.1146   1.3613   1.5854 C.3            1 S1                 0.0000
      3 ****        -4.3222   2.4114   2.6952 C.3            1 S1                 0.0000
      4 ****        -5.2491   3.5989   2.3566 C.3            1 S1                 0.0000
      5 ****        -5.2299   4.4521   3.3799 F              1 S1                 0.0000
      6 ****        -4.8286   4.2440   1.2693 F              1 S1                 0.0000
      7 ****        -6.5090   3.2064   2.1745 F              1 S1                 0.0000
      8 ****        -2.8776   0.4643   1.7639 C.3            1 S1                 0.0000
      9 ****        -2.6309   0.6178   0.3391 N.3            1 S1                 0.0000
     10 ****        -1.2552   0.7339   0.0004 C.ar           1 S1                 0.0000
     11 ****        -0.5107   1.8001   0.4031 N.ar           1 S1                 0.0000
     12 ****         0.7831   1.8929   0.0822 C.ar           1 S1                 0.0000
     13 ****         1.5299   1.0417  -0.6219 N.ar           1 S1                 0.0000
     14 ****         0.7980  -0.0351  -1.0245 C.ar           1 S1                 0.0000
     15 ****        -0.5824  -0.2609  -0.7594 C.ar           1 S1                 0.0000
     16 ****        -0.9842  -1.4619  -1.3293 N.2            1 S1                 0.0000
     17 ****         0.0971  -1.9213  -1.8979 C.2            1 S1                 0.0000
     18 ****         1.2167  -1.1320  -1.7576 N.pl3          1 S1                 0.0000
     19 ****         2.5450  -1.4023  -2.2882 C.3            1 S1                 0.0000
     20 ****         3.4014  -2.3506  -1.4049 C.3            1 S1                 0.0000
     21 ****         2.7300  -3.5956  -1.3396 O.3            1 S1                 0.0000
     22 ****         4.7877  -2.6116  -2.0271 C.3            1 S1                 0.0000
     23 ****         5.7218  -1.3991  -1.8606 C.3            1 S1                 0.0000
     24 ****         5.8343  -1.0568  -0.4836 O.3            1 S1                 0.0000
     25 ****         4.5930  -0.6758   0.0996 C.3            1 S1                 0.0000
     26 ****         3.6033  -1.8531   0.0429 C.3            1 S1                 0.0000
     27 ****        -3.4141   1.8456   0.3041 C.3            1 S1                 0.0000
     28 ****        -5.8906   0.3076   2.3204 H              1 S1                 0.0000
     29 ****        -5.2809  -0.3093   0.7979 H              1 S1                 0.0000
     30 ****        -6.1589   1.1987   0.8226 H              1 S1                 0.0000
     31 ****        -4.6865   1.9263   3.6017 H              1 S1                 0.0000
     32 ****        -3.3518   2.8259   2.9718 H              1 S1                 0.0000
     33 ****        -2.1018   0.9085   2.3903 H              1 S1                 0.0000
     34 ****        -3.1005  -0.5611   2.0598 H              1 S1                 0.0000
     35 ****         1.2929   2.7742   0.4426 H              1 S1                 0.0000
     36 ****         0.1092  -2.8581  -2.4360 H              1 S1                 0.0000
     37 ****         2.4261  -1.8273  -3.2857 H              1 S1                 0.0000
     38 ****         3.0489  -0.4470  -2.4324 H              1 S1                 0.0000
     39 ****         3.2424  -4.1855  -0.8081 H              1 S1                 0.0000
     40 ****         5.2539  -3.4691  -1.5390 H              1 S1                 0.0000
     41 ****         4.6943  -2.8743  -3.0816 H              1 S1                 0.0000
     42 ****         6.7143  -1.6400  -2.2415 H              1 S1                 0.0000
     43 ****         5.3684  -0.5408  -2.4331 H              1 S1                 0.0000
     44 ****         4.7683  -0.3874   1.1362 H              1 S1                 0.0000
     45 ****         4.1969   0.2038  -0.4080 H              1 S1                 0.0000
     46 ****         2.6563  -1.5772   0.5068 H              1 S1                 0.0000
     47 ****         4.0074  -2.6627   0.6526 H              1 S1                 0.0000
     48 ****        -4.0695   1.9182  -0.5642 H              1 S1                 0.0000
     49 ****        -2.8363   2.7588   0.4516 H              1 S1                 0.0000
     50 ****        -2.8636  -0.1137  -0.3019 LP             1 S1                 0.0000
     51 ****        -0.9376   2.5232   0.9461 LP             1 S1                 0.0000
     52 ****         2.4993   1.1758  -0.8275 LP             1 S1                 0.0000
     53 ****        -1.8930  -1.8788  -1.3088 LP             1 S1                 0.0000
     54 ****         2.6287  -3.9728  -2.2602 LP             1 S1                 0.0000
     55 ****         1.8266  -3.4705  -0.9294 LP             1 S1                 0.0000
     56 ****         6.4745  -0.2936  -0.3966 LP             1 S1                 0.0000
     57 ****         6.1898  -1.8485   0.0132 LP             1 S1                 0.0000
@<TRIPOS>BOND
    1    1    2 1     
    2    1   28 1     
    3    1   29 1     
    4    1   30 1     
    5    2   27 1     
    6    2    3 1     
    7    2    8 1     
    8    3    4 1     
    9    3   31 1     
   10    3   32 1     
   11    4    5 1     
   12    4    6 1     
   13    4    7 1     
   14    8    9 1     
   15    8   33 1     
   16    8   34 1     
   17    9   10 1     
   18    9   27 1     
   19   10   15 ar    
   20   10   11 ar    
   21   11   12 ar    
   22   12   13 ar    
   23   12   35 1     
   24   13   14 ar    
   25   14   18 1     
   26   14   15 ar    
   27   15   16 1     
   28   16   17 2     
   29   17   18 1     
   30   17   36 1     
   31   18   19 1     
   32   19   20 1     
   33   19   37 1     
   34   19   38 1     
   35   20   26 1     
   36   20   21 1     
   37   20   22 1     
   38   21   39 1     
   39   22   23 1     
   40   22   40 1     
   41   22   41 1     
   42   23   24 1     
   43   23   42 1     
   44   23   43 1     
   45   24   25 1     
   46   25   26 1     
   47   25   44 1     
   48   25   45 1     
   49   26   46 1     
   50   26   47 1     
   51   27   48 1     
   52   27   49 1     
   53    9   50 1     
   54   11   51 1     
   55   13   52 1     
   56   16   53 1     
   57   21   54 1     
   58   21   55 1     
   59   24   56 1     
   60   24   57 1     
@<TRIPOS>SUBSTRUCTURE
      1 S1             1
@<TRIPOS>SET
LONE_PAIRS      STATIC     ATOMS    <user>   **** ""
8 50 51 52 53 54 55 56 57
DONOR_HYDROGENS      STATIC     ATOMS    <user>   **** ""
1 39
ATOM$BLUE        STATIC     ATOMS    COLORGROUP SYSTEM
8 50 51 52 53 54 55 56 57
ATOM$RED        STATIC     ATOMS    COLORGROUP SYSTEM
1 39
