#       Name:                AV-unprocessed.smi:1885
#       Creating user name   scv26
#       Creation time:       Fri Mar 27 09:38:38 2020


#       File generated by GOLD software.
#

@<TRIPOS>MOLECULE
AV-unprocessed.smi:1885
    50    52     1
SMALL
NO_CHARGES


@<TRIPOS>ATOM
      1 ****        -7.6403   1.3336  -0.8062 C.3            1 S1                 0.0000
      2 ****        -6.7970   0.4102  -0.1329 O.3            1 S1                 0.0000
      3 ****        -5.4396   0.4851  -0.3616 C.ar           1 S1                 0.0000
      4 ****        -4.8280   1.4294  -1.2241 C.ar           1 S1                 0.0000
      5 ****        -3.4304   1.4353  -1.3992 C.ar           1 S1                 0.0000
      6 ****        -2.6222   0.4986  -0.7242 C.ar           1 S1                 0.0000
      7 ****        -1.1156   0.5323  -0.9044 C.3            1 S1                 0.0000
      8 ****        -0.5210  -0.7466  -0.7453 O.3            1 S1                 0.0000
      9 ****         0.8876  -0.7212  -0.9066 C.3            1 S1                 0.0000
     10 ****         1.4444  -2.1431  -0.7093 C.3            1 S1                 0.0000
     11 ****         1.2137  -2.8832  -1.8900 O.3            1 S1                 0.0000
     12 ****         2.9612  -2.1897  -0.4356 C.3            1 S1                 0.0000
     13 ****         3.3365  -1.5472   0.8324 N.pl3          1 S1                 0.0000
     14 ****         3.2297  -2.0220   2.1034 C.2            1 S1                 0.0000
     15 ****         3.7156  -1.0662   2.9426 N.pl3          1 S1                 1.0000
     16 ****         4.1401   0.0363   2.1981 C.ar           1 S1                 0.0000
     17 ****         4.7001   1.2446   2.6003 C.ar           1 S1                 0.0000
     18 ****         5.0201   2.1667   1.5824 C.ar           1 S1                 0.0000
     19 ****         5.5658   3.3594   1.9188 F              1 S1                 0.0000
     20 ****         4.7807   1.8714   0.2237 C.ar           1 S1                 0.0000
     21 ****         5.0993   2.7863  -0.7223 F              1 S1                 0.0000
     22 ****         4.2136   0.6421  -0.1720 C.ar           1 S1                 0.0000
     23 ****         3.9010  -0.2651   0.8403 C.ar           1 S1                 0.0000
     24 ****        -3.2248  -0.4371   0.1416 C.ar           1 S1                 0.0000
     25 ****        -4.6221  -0.4426   0.3160 C.ar           1 S1                 0.0000
     26 ****        -8.6765   1.1451  -0.5257 H              1 S1                 0.0000
     27 ****        -7.5674   1.2244  -1.8893 H              1 S1                 0.0000
     28 ****        -7.4064   2.3625  -0.5298 H              1 S1                 0.0000
     29 ****        -5.4096   2.1623  -1.7622 H              1 S1                 0.0000
     30 ****        -2.9803   2.1649  -2.0563 H              1 S1                 0.0000
     31 ****        -0.8831   0.9208  -1.8974 H              1 S1                 0.0000
     32 ****        -0.7006   1.2298  -0.1754 H              1 S1                 0.0000
     33 ****         1.1713  -0.3193  -1.8809 H              1 S1                 0.0000
     34 ****         1.2924  -0.0488  -0.1504 H              1 S1                 0.0000
     35 ****         0.9214  -2.6318   0.1140 H              1 S1                 0.0000
     36 ****         1.6435  -2.4475  -2.6100 H              1 S1                 0.0000
     37 ****         3.2921  -3.2271  -0.3687 H              1 S1                 0.0000
     38 ****         3.5253  -1.7449  -1.2552 H              1 S1                 0.0000
     39 ****         2.8314  -2.9839   2.3936 H              1 S1                 0.0000
     40 ****         4.8833   1.4756   3.6393 H              1 S1                 0.0000
     41 ****         4.0321   0.4340  -1.2156 H              1 S1                 0.0000
     42 ****        -2.6207  -1.1548   0.6767 H              1 S1                 0.0000
     43 ****        -5.0716  -1.1665   0.9799 H              1 S1                 0.0000
     44 ****         3.7533  -1.1629   3.9494 H              1 S1                 0.0000
     45 ****        -7.0923  -0.5082  -0.3961 LP             1 S1                 0.0000
     46 ****        -6.9403   0.5380   0.8484 LP             1 S1                 0.0000
     47 ****        -0.9095  -1.3667  -1.4269 LP             1 S1                 0.0000
     48 ****        -0.7316  -1.0851   0.1718 LP             1 S1                 0.0000
     49 ****         0.2310  -2.9362  -2.0672 LP             1 S1                 0.0000
     50 ****         1.5839  -3.8063  -1.7862 LP             1 S1                 0.0000
@<TRIPOS>BOND
    1    1    2 1     
    2    1   26 1     
    3    1   27 1     
    4    1   28 1     
    5    2    3 1     
    6    3   25 ar    
    7    3    4 ar    
    8    4    5 ar    
    9    4   29 1     
   10    5    6 ar    
   11    5   30 1     
   12    6    7 1     
   13    6   24 ar    
   14    7    8 1     
   15    7   31 1     
   16    7   32 1     
   17    8    9 1     
   18    9   10 1     
   19    9   33 1     
   20    9   34 1     
   21   10   11 1     
   22   10   12 1     
   23   10   35 1     
   24   11   36 1     
   25   12   13 1     
   26   12   37 1     
   27   12   38 1     
   28   13   23 1     
   29   13   14 1     
   30   14   15 2     
   31   14   39 1     
   32   15   16 1     
   33   15   44 1     
   34   16   23 ar    
   35   16   17 ar    
   36   17   18 ar    
   37   17   40 1     
   38   18   19 1     
   39   18   20 ar    
   40   20   21 1     
   41   20   22 ar    
   42   22   23 ar    
   43   22   41 1     
   44   24   25 ar    
   45   24   42 1     
   46   25   43 1     
   47    2   45 1     
   48    2   46 1     
   49    8   47 1     
   50    8   48 1     
   51   11   49 1     
   52   11   50 1     
@<TRIPOS>SUBSTRUCTURE
      1 S1             1
@<TRIPOS>SET
LONE_PAIRS      STATIC     ATOMS    <user>   **** ""
6 45 46 47 48 49 50
DONOR_HYDROGENS      STATIC     ATOMS    <user>   **** ""
2 36 44
ATOM$BLUE        STATIC     ATOMS    COLORGROUP SYSTEM
6 45 46 47 48 49 50
ATOM$RED        STATIC     ATOMS    COLORGROUP SYSTEM
2 36 44
