AV-unprocessed.smi:1830|AV-procd|sdf|7434|dock9
  -GOLD-   22720 9123D 1   1.00000     0.00000
 Structure written by MMmdl.
 53 56  0  0  0  0  0  0  0  0  2 V2000
  150.3260  135.2186  155.8139 O   0  0  0  0  0  0  0  0  0  0  0  0
  149.6063  135.7202  154.9505 C   0  0  0  0  0  0  0  0  0  0  0  0
  148.5413  135.1007  154.4230 N   0  0  0  0  0  0  0  0  0  0  0  0
  148.0938  133.7566  154.7724 C   0  0  0  0  0  0  0  0  0  0  0  0
  147.1199  133.1921  153.7231 C   0  0  2  0  0  0  0  0  0  0  0  0
  147.8171  132.2017  152.7700 C   0  0  0  0  0  0  0  0  0  0  0  0
  146.9191  131.7554  151.6790 N   0  3  1  0  0  0  0  0  0  0  0  0
  145.9560  130.6833  152.0142 C   0  0  0  0  0  0  0  0  0  0  0  0
  144.7252  130.9140  151.1229 C   0  0  0  0  0  0  0  0  0  0  0  0
  145.0801  132.1133  150.2375 C   0  0  0  0  0  0  0  0  0  0  0  0
  146.1734  132.8454  151.0168 C   0  0  1  0  0  0  0  0  0  0  0  0
  145.5921  133.8376  152.0485 C   0  0  0  0  0  0  0  0  0  0  0  0
  146.6094  134.2660  152.9413 O   0  0  0  0  0  0  0  0  0  0  0  0
  149.7868  136.9298  154.3952 N   0  0  0  0  0  0  0  0  0  0  0  0
  150.8228  137.8730  154.6498 C   0  0  0  0  0  0  0  0  0  0  0  0
  152.1652  137.4692  154.8534 C   0  0  0  0  0  0  0  0  0  0  0  0
  153.1515  138.4433  155.0853 C   0  0  0  0  0  0  0  0  0  0  0  0
  152.7605  139.7921  155.1089 C   0  0  0  0  0  0  0  0  0  0  0  0
  151.4849  140.1918  154.9358 N   0  0  0  0  0  0  0  0  0  0  0  0
  150.5197  139.2629  154.7263 C   0  0  0  0  0  0  0  0  0  0  0  0
  149.1973  139.7389  154.5735 N   0  0  0  0  0  0  0  0  0  0  0  0
  148.4284  139.4122  153.3772 C   0  0  0  0  0  0  0  0  0  0  0  0
  147.2548  140.3870  153.3845 C   0  0  0  0  0  0  0  0  0  0  0  0
  147.8867  141.6508  153.9600 C   0  0  0  0  0  0  0  0  0  0  0  0
  148.9193  141.1191  154.9602 C   0  0  0  0  0  0  0  0  0  0  0  0
  148.0078  135.5903  153.7196 H   0  0  0  0  0  0  0  0  0  0  0  0
  148.9442  133.0869  154.9129 H   0  0  0  0  0  0  0  0  0  0  0  0
  147.5929  133.8230  155.7386 H   0  0  0  0  0  0  0  0  0  0  0  0
  146.3002  132.6927  154.2430 H   0  0  0  0  0  0  0  0  0  0  0  0
  148.6786  132.6892  152.3116 H   0  0  0  0  0  0  0  0  0  0  0  0
  148.2000  131.3364  153.3125 H   0  0  0  0  0  0  0  0  0  0  0  0
  146.4114  129.7091  151.8341 H   0  0  0  0  0  0  0  0  0  0  0  0
  145.6684  130.7250  153.0654 H   0  0  0  0  0  0  0  0  0  0  0  0
  144.4745  130.0341  150.5295 H   0  0  0  0  0  0  0  0  0  0  0  0
  143.8588  131.1486  151.7427 H   0  0  0  0  0  0  0  0  0  0  0  0
  145.4866  131.7561  149.2903 H   0  0  0  0  0  0  0  0  0  0  0  0
  144.2190  132.7426  150.0092 H   0  0  0  0  0  0  0  0  0  0  0  0
  146.8426  133.3823  150.3431 H   0  0  0  0  0  0  0  0  0  0  0  0
  145.1823  134.7094  151.5380 H   0  0  0  0  0  0  0  0  0  0  0  0
  144.7714  133.3943  152.6150 H   0  0  0  0  0  0  0  0  0  0  0  0
  149.1731  137.1626  153.6284 H   0  0  0  0  0  0  0  0  0  0  0  0
  152.4538  136.4294  154.8443 H   0  0  0  0  0  0  0  0  0  0  0  0
  154.1828  138.1626  155.2398 H   0  0  0  0  0  0  0  0  0  0  0  0
  153.4890  140.5709  155.2799 H   0  0  0  0  0  0  0  0  0  0  0  0
  149.0237  139.5700  152.4769 H   0  0  0  0  0  0  0  0  0  0  0  0
  148.0940  138.3747  153.3909 H   0  0  0  0  0  0  0  0  0  0  0  0
  146.8197  140.5366  152.3961 H   0  0  0  0  0  0  0  0  0  0  0  0
  146.4711  140.0244  154.0513 H   0  0  0  0  0  0  0  0  0  0  0  0
  148.3948  142.1991  153.1653 H   0  0  0  0  0  0  0  0  0  0  0  0
  147.1586  142.3207  154.4178 H   0  0  0  0  0  0  0  0  0  0  0  0
  148.4977  141.1248  155.9657 H   0  0  0  0  0  0  0  0  0  0  0  0
  149.8208  141.7338  154.9655 H   0  0  0  0  0  0  0  0  0  0  0  0
  147.5106  131.3558  150.9641 H   0  0  0  0  0  0  0  0  0  0  0  0
  1  2  2  0  0  0  0
  2  3  1  0  0  0  0
  2 14  1  0  0  0  0
  3  4  1  0  0  0  0
  3 26  1  0  0  0  0
  4  5  1  0  0  0  0
  4 27  1  0  0  0  0
  4 28  1  0  0  0  0
  5 13  1  0  0  0  0
  5  6  1  0  0  0  0
  5 29  1  0  0  0  0
  6  7  1  0  0  0  0
  6 30  1  0  0  0  0
  6 31  1  0  0  0  0
  7 11  1  0  0  0  0
  7  8  1  0  0  0  0
  7 53  1  0  0  0  0
  8  9  1  0  0  0  0
  8 32  1  0  0  0  0
  8 33  1  0  0  0  0
  9 10  1  0  0  0  0
  9 34  1  0  0  0  0
  9 35  1  0  0  0  0
 10 11  1  0  0  0  0
 10 36  1  0  0  0  0
 10 37  1  0  0  0  0
 11 12  1  0  0  0  0
 11 38  1  0  0  0  0
 12 13  1  0  0  0  0
 12 39  1  0  0  0  0
 12 40  1  0  0  0  0
 14 15  1  0  0  0  0
 14 41  1  0  0  0  0
 15 20  1  0  0  0  0
 15 16  2  0  0  0  0
 16 17  1  0  0  0  0
 16 42  1  0  0  0  0
 17 18  2  0  0  0  0
 17 43  1  0  0  0  0
 18 19  1  0  0  0  0
 18 44  1  0  0  0  0
 19 20  2  0  0  0  0
 20 21  1  0  0  0  0
 21 25  1  0  0  0  0
 21 22  1  0  0  0  0
 22 23  1  0  0  0  0
 22 45  1  0  0  0  0
 22 46  1  0  0  0  0
 23 24  1  0  0  0  0
 23 47  1  0  0  0  0
 23 48  1  0  0  0  0
 24 25  1  0  0  0  0
 24 49  1  0  0  0  0
 24 50  1  0  0  0  0
 25 51  1  0  0  0  0
 25 52  1  0  0  0  0
M  CHG  1   7   1
M  END
> <s_m_source_file>
AV-unprocessed.smi

> <i_m_source_file_index>
1830

> <i_lp_mmshare_version>
43012

> <i_f3d_flags>
0

> <s_epik_input>
W0NIMl0xW0NIMl1bQ0gyXVtDQEhdKE4xMilbQ0gyXU9bQ0BASF0oW0NIMl0yKVtDSDJdW05IXUMoPU8pW05IXWMzW2NIXVtjSF1bY0hdbmMzTjRbQ0gyXVtDSDJdW0NIMl1bQ0gyXTQ=

> <s_epik_cmdline>
J2VwaWtfcHl0aG9uJywgJy1waCcsICc3LjAnLCAnLXRuJywgJzgnLCAnLW1hJywgJzIwMCcsICctbWV0YWxfYmluZGluZycsICctaW1hZScsICc8aW5maWxlLm1hZT4nLCAnLW9tYWUnLCAnPG91dGZpbGUubWFlPic=

> <r_lp_tautomer_probability>
1

> <r_epik_Ionization_Penalty>
0.193547

> <r_epik_Ionization_Penalty_Charging>
0.10673

> <r_epik_Ionization_Penalty_Neutral>
0.0868166

> <r_epik_State_Penalty>
0.173595

> <r_epik_Charging_Adjusted_Penalty>
0.280326

> <i_epik_Tot_Q>
1

> <i_epik_Tot_abs_Q>
1

> <r_epik_Metal_State_Penalty>
0.164683

> <b_epik_Metal_Only>
0

> <s_lp_Force_Field>
OPLS_2005

> <r_lp_Energy>
64.5086

> <b_lp_Chiralities_Consistent>
1

> <s_lp_Variant>
AV-unprocessed.smi:1830-3

> <Gold.Version>
5.8.1

> <Gold.Id.Protein>
6NUR|6NUR_protein|mol2

> <Gold.PLP.Fitness>
44.3121

> <Gold.PLP.PLP>
-37.8389

> <Gold.PLP.part.hbond>
-4.0000

> <Gold.PLP.part.metal>
0.0000

> <Gold.PLP.part.buried>
5.8798

> <Gold.PLP.part.nonpolar>
-38.6751

> <Gold.PLP.part.repulsive>
0.3396

> <Gold.PLP.ligand.clash>
0.0000

> <Gold.PLP.ligand.torsion>
1.1880

> <Gold.PLP.Chemscore.Hbond>
2.8447

> <Gold.PLP.Chemscore.CHOScore>
0.0000

> <Gold.PLP.Chemscore.Metal>
0.0000

> <Gold.Chemscore.Hbonds>
donor molecule, donor type, donor heavy atom, donor atom, acceptor molecule, acceptor atom, score
      L1  H     3    26       P1  7948  0.26
      L1  H     7    53       P1 10747  1.00
      L1  H    14    41       P1  7948  0.56
      P1  H  7989  7998       L1    19  0.90

> <Gold.PLP.Chemscore.Internal.Correction>
0.3151

> <Gold.Rescore>
     Score         DG    S(hbond)    S(metal)    S(lipo)     H(rot)  DE(clash)    DE(int)     intcor
     15.86     -21.61       1.89        0.00     114.75       1.41       3.14       2.62       ----

> <Gold.Chemscore.Fitness>
15.8616

> <Gold.Chemscore.DG>
-21.6121

> <Gold.Chemscore.ZeroCoef>
-5.4800

> <Gold.Chemscore.Hbond>
1.8884

> <Gold.Chemscore.Metal>
0.0000

> <Gold.Chemscore.Lipo>
114.7522

> <Gold.Chemscore.Internal_Hbond>
0.0000

> <Gold.Chemscore.DEClash>
3.1353

> <Gold.Chemscore.DEInternal>
2.6153

> <Gold.Chemscore.Rot>
1.4067

> <Gold.Chemscore.Internal.Correction>
   9.000000E+99

> <Gold.Chemscore.Hbonds>
donor molecule, donor type, donor heavy atom, donor atom, acceptor molecule, acceptor atom, score
      L1  H     3    26       P1  7948  0.26
      L1  H     7    53       P1 10747  0.98
      L1  H    14    41       P1  7948  0.54
      P1  H  7989  7998       L1    19  0.07

> <Gold.Chemscore.Hbond.Weighted>
-6.3072

> <Gold.Chemscore.Metal.Weighted>
-0.0000

> <Gold.Chemscore.Lipo.Weighted>
-13.4260

> <Gold.Chemscore.Internal_Hbond.Weighted>
0.0000

> <Gold.Chemscore.DEClash.Weighted>
3.1353

> <Gold.Chemscore.DEInternal.Weighted>
2.6153

> <Gold.Chemscore.Rot.Weighted>
3.6011

> <Gold.Chemscore.Internal.Correction.Weighted>
   9.000000E+99

> <Gold.Protein.RotatedTorsions>
[ 6907 6896 6895 6894 ] final -161.90 input  -60.11 | X-H torsion
[ 7974 7965 7964 7962 ] final   93.19 input  175.53 | X-H torsion
[ 8008 7997 7996 7995 ] final -108.42 input   59.86 | X-H torsion
[ 10167 10162 10161 10158 ] final   24.51 input  -65.29 | X-H torsion
[ 10718 10713 10712 10709 ] final   81.82 input   66.30 | X-H torsion
[ 10763 10752 10751 10750 ] final  -36.47 input  -60.55 | X-H torsion
[ 11005 11000 10999 10996 ] final -172.95 input  -57.11 | X-H torsion

> <Gold.Protein.ActiveResidues>
 VAL166  LYS551  ARG553  GLY616  TRP617  ASP618  TYR619  PRO620  LYS621  CYS622 
 ASP623  PHE694  ASN695  SER759  ASP760  ASP761  ALA762  ILE779  LEU786  VAL792 
 PHE793  MET794  SER795  GLU796  ALA797  LYS798  CYS799  TRP800  GLU811  SER814 

> <Gold.Protein.RotatedAtoms>
  151.3718  133.3852  159.2700 H   0  0  0  0  0  0  0  0  0  0  0  0  # atno 6907 bound_to 6896
  150.9645  134.9029  159.7761 H   0  0  0  0  0  0  0  0  0  0  0  0  # atno 6908 bound_to 6896
  152.5162  134.3678  159.9360 H   0  0  0  0  0  0  0  0  0  0  0  0  # atno 6909 bound_to 6896
  145.4822  139.2278  143.2876 H   0  0  0  0  0  0  0  0  0  0  0  0  # atno 7974 bound_to 7965
  154.9441  140.0402  157.2111 H   0  0  0  0  0  0  0  0  0  0  0  0  # atno 8008 bound_to 7997
  154.8041  140.2857  155.5878 H   0  0  0  0  0  0  0  0  0  0  0  0  # atno 8009 bound_to 7997
  156.2964  140.2549  156.2916 H   0  0  0  0  0  0  0  0  0  0  0  0  # atno 8010 bound_to 7997
  140.5182  144.0047  150.6404 H   0  0  0  0  0  0  0  0  0  0  0  0  # atno 10167 bound_to 10162
  157.6842  131.0021  150.2283 H   0  0  0  0  0  0  0  0  0  0  0  0  # atno 10718 bound_to 10713
  153.8803  135.6822  153.4767 H   0  0  0  0  0  0  0  0  0  0  0  0  # atno 10763 bound_to 10752
  153.1237  135.4728  154.9236 H   0  0  0  0  0  0  0  0  0  0  0  0  # atno 10764 bound_to 10752
  154.7672  135.3228  154.8214 H   0  0  0  0  0  0  0  0  0  0  0  0  # atno 10765 bound_to 10752
  140.4913  134.5982  157.4955 H   0  0  0  0  0  0  0  0  0  0  0  0  # atno 11005 bound_to 11000
  146.2334  140.5610  142.8965 LP  0  0  0  0  0  0  0  0  0  0  0  0  # atno 17320 bound_to 7965
  144.7882  140.5979  143.6559 LP  0  0  0  0  0  0  0  0  0  0  0  0  # atno 17321 bound_to 7965
  140.3389  143.3032  152.0609 LP  0  0  0  0  0  0  0  0  0  0  0  0  # atno 17342 bound_to 10162
  139.4915  144.6457  151.6784 LP  0  0  0  0  0  0  0  0  0  0  0  0  # atno 17343 bound_to 10162
  156.2921  130.3747  149.7831 LP  0  0  0  0  0  0  0  0  0  0  0  0  # atno 17370 bound_to 10713
  156.5488  130.8332  151.3293 LP  0  0  0  0  0  0  0  0  0  0  0  0  # atno 17371 bound_to 10713
  139.9768  134.7203  155.9935 LP  0  0  0  0  0  0  0  0  0  0  0  0  # atno 17394 bound_to 11000
  141.1483  133.6552  156.3934 LP  0  0  0  0  0  0  0  0  0  0  0  0  # atno 17395 bound_to 11000

$$$$
