AV-unprocessed.smi:2695|AV-procd|sdf|10409|dock7
  -GOLD-   2272014443D 1   1.00000     0.00000
 Structure written by MMmdl.
 42 43  0  0  0  0  0  0  0  0  1 V2000
  151.1332  137.8343  154.5217 C   0  0  0  0  0  0  0  0  0  0  0  0
  150.1840  139.0260  154.4755 C   0  0  0  0  0  0  0  0  0  0  0  0
  149.0733  139.0002  153.7164 C   0  0  0  0  0  0  0  0  0  0  0  0
  148.2143  140.1575  153.6633 C   0  0  0  0  0  0  0  0  0  0  0  0
  147.1032  140.1332  152.9169 O   0  0  0  0  0  0  0  0  0  0  0  0
  148.5419  141.2621  154.3586 C   0  0  0  0  0  0  0  0  0  0  0  0
  149.7488  141.3262  155.1863 C   0  0  0  0  0  0  0  0  0  0  0  0
  150.0465  142.3489  155.8053 O   0  0  0  0  0  0  0  0  0  0  0  0
  150.5144  140.1883  155.2328 N   0  0  0  0  0  0  0  0  0  0  0  0
  151.7163  140.1856  156.0989 C   0  0  0  0  0  0  0  0  0  0  0  0
  151.4485  140.6909  157.5248 C   0  0  0  0  0  0  0  0  0  0  0  0
  150.3041  140.7319  157.9786 O   0  0  0  0  0  0  0  0  0  0  0  0
  152.5292  141.0927  158.2111 N   0  0  0  0  0  0  0  0  0  0  0  0
  152.5358  141.6211  159.5769 C   0  0  2  0  0  0  0  0  0  0  0  0
  152.5621  143.1718  159.5348 C   0  0  0  0  0  0  0  0  0  0  0  0
  152.1813  143.8639  160.8506 C   0  0  0  0  0  0  0  0  0  0  0  0
  151.7266  145.2794  160.4703 C   0  0  0  0  0  0  0  0  0  0  0  0
  151.4626  145.2599  158.9592 C   0  0  0  0  0  0  0  0  0  0  0  0
  151.5819  143.7960  158.5326 C   0  0  0  0  0  0  0  0  0  0  0  0
  153.7228  140.9947  160.3437 C   0  0  0  0  0  0  0  0  0  0  0  0
  153.6028  139.6664  160.3546 F   0  0  0  0  0  0  0  0  0  0  0  0
  154.8795  141.3137  159.7616 F   0  0  0  0  0  0  0  0  0  0  0  0
  153.7473  141.4091  161.6098 F   0  0  0  0  0  0  0  0  0  0  0  0
  150.9073  137.1331  153.7179 H   0  0  0  0  0  0  0  0  0  0  0  0
  151.0301  137.2978  155.4651 H   0  0  0  0  0  0  0  0  0  0  0  0
  152.1732  138.1337  154.3935 H   0  0  0  0  0  0  0  0  0  0  0  0
  148.8291  138.1232  153.1345 H   0  0  0  0  0  0  0  0  0  0  0  0
  146.3837  139.9025  153.4844 H   0  0  0  0  0  0  0  0  0  0  0  0
  147.8994  142.1297  154.3129 H   0  0  0  0  0  0  0  0  0  0  0  0
  152.1377  139.1808  156.1682 H   0  0  0  0  0  0  0  0  0  0  0  0
  152.5293  140.7654  155.6642 H   0  0  0  0  0  0  0  0  0  0  0  0
  153.4272  141.0214  157.7550 H   0  0  0  0  0  0  0  0  0  0  0  0
  151.6230  141.3121  160.0896 H   0  0  0  0  0  0  0  0  0  0  0  0
  153.5661  143.5002  159.2615 H   0  0  0  0  0  0  0  0  0  0  0  0
  151.3519  143.3348  161.3218 H   0  0  0  0  0  0  0  0  0  0  0  0
  153.0064  143.8837  161.5631 H   0  0  0  0  0  0  0  0  0  0  0  0
  150.8328  145.5599  161.0283 H   0  0  0  0  0  0  0  0  0  0  0  0
  152.5000  146.0112  160.7065 H   0  0  0  0  0  0  0  0  0  0  0  0
  150.4900  145.6809  158.7024 H   0  0  0  0  0  0  0  0  0  0  0  0
  152.2218  145.8542  158.4489 H   0  0  0  0  0  0  0  0  0  0  0  0
  151.9135  143.6966  157.4984 H   0  0  0  0  0  0  0  0  0  0  0  0
  150.6076  143.3116  158.6153 H   0  0  0  0  0  0  0  0  0  0  0  0
  1  2  1  0  0  0  0
  1 24  1  0  0  0  0
  1 25  1  0  0  0  0
  1 26  1  0  0  0  0
  2  9  1  0  0  0  0
  2  3  2  0  0  0  0
  3  4  1  0  0  0  0
  3 27  1  0  0  0  0
  4  5  1  0  0  0  0
  4  6  2  0  0  0  0
  5 28  1  0  0  0  0
  6  7  1  0  0  0  0
  6 29  1  0  0  0  0
  7  8  2  0  0  0  0
  7  9  1  0  0  0  0
  9 10  1  0  0  0  0
 10 11  1  0  0  0  0
 10 30  1  0  0  0  0
 10 31  1  0  0  0  0
 11 12  2  0  0  0  0
 11 13  1  0  0  0  0
 13 14  1  0  0  0  0
 13 32  1  0  0  0  0
 14 15  1  0  0  0  0
 14 20  1  0  0  0  0
 14 33  1  0  0  0  0
 15 19  1  0  0  0  0
 15 16  1  0  0  0  0
 15 34  1  0  0  0  0
 16 17  1  0  0  0  0
 16 35  1  0  0  0  0
 16 36  1  0  0  0  0
 17 18  1  0  0  0  0
 17 37  1  0  0  0  0
 17 38  1  0  0  0  0
 18 19  1  0  0  0  0
 18 39  1  0  0  0  0
 18 40  1  0  0  0  0
 19 41  1  0  0  0  0
 19 42  1  0  0  0  0
 20 21  1  0  0  0  0
 20 22  1  0  0  0  0
 20 23  1  0  0  0  0
M  END
> <s_m_source_file>
AV-unprocessed.smi

> <i_m_source_file_index>
2695

> <i_lp_mmshare_version>
43012

> <i_f3d_flags>
0

> <s_epik_input>
W0NIM11jMVtjSF1jKFtPSF0pW2NIXWMoPU8pbjFbQ0gyXUMoPU8pW05IXVtDQEBIXShDKEYpKEYpRilbQ0hdMltDSDJdW0NIMl1bQ0gyXVtDSDJdMg==

> <s_epik_cmdline>
J2VwaWtfcHl0aG9uJywgJy1waCcsICc3LjAnLCAnLXRuJywgJzgnLCAnLW1hJywgJzIwMCcsICctbWV0YWxfYmluZGluZycsICctaW1hZScsICc8aW5maWxlLm1hZT4nLCAnLW9tYWUnLCAnPG91dGZpbGUubWFlPic=

> <r_lp_tautomer_probability>
0.999984

> <r_epik_Ionization_Penalty>
0.843628

> <r_epik_Ionization_Penalty_Charging>
1.18449e-07

> <r_epik_Ionization_Penalty_Neutral>
0.843628

> <r_epik_State_Penalty>
0.886913

> <r_epik_Charging_Adjusted_Penalty>
0.886913

> <i_epik_Tot_Q>
0

> <i_epik_Tot_abs_Q>
0

> <r_epik_Metal_State_Penalty>
0.886913

> <b_epik_Metal_Only>
0

> <s_lp_Force_Field>
OPLS_2005

> <r_lp_Energy>
35.2102

> <b_lp_Chiralities_Consistent>
1

> <s_lp_Variant>
AV-unprocessed.smi:2695-3

> <Gold.Version>
5.8.1

> <Gold.Id.Protein>
6NUR|6NUR_protein|mol2

> <Gold.PLP.Fitness>
50.4818

> <Gold.PLP.PLP>
-51.8357

> <Gold.PLP.part.hbond>
-0.6989

> <Gold.PLP.part.metal>
0.0000

> <Gold.PLP.part.buried>
-1.8197

> <Gold.PLP.part.nonpolar>
-51.5079

> <Gold.PLP.part.repulsive>
3.1711

> <Gold.PLP.ligand.clash>
0.0000

> <Gold.PLP.ligand.torsion>
0.8608

> <Gold.PLP.Chemscore.Hbond>
0.0000

> <Gold.PLP.Chemscore.CHOScore>
0.0000

> <Gold.PLP.Chemscore.Metal>
0.0000

> <Gold.PLP.Chemscore.Internal.Correction>
0.3678

> <Gold.Rescore>
     Score         DG    S(hbond)    S(metal)    S(lipo)     H(rot)  DE(clash)    DE(int)     intcor
      6.95     -13.50       0.00        0.00     120.14       2.36       1.37       5.17       ----

> <Gold.Chemscore.Fitness>
6.9500

> <Gold.Chemscore.DG>
-13.4954

> <Gold.Chemscore.ZeroCoef>
-5.4800

> <Gold.Chemscore.Hbond>
0.0000

> <Gold.Chemscore.Metal>
0.0000

> <Gold.Chemscore.Lipo>
120.1430

> <Gold.Chemscore.Internal_Hbond>
0.0000

> <Gold.Chemscore.DEClash>
1.3706

> <Gold.Chemscore.DEInternal>
5.1748

> <Gold.Chemscore.Rot>
2.3599

> <Gold.Chemscore.Internal.Correction>
   9.000000E+99

> <Gold.Chemscore.Hbond.Weighted>
-0.0000

> <Gold.Chemscore.Metal.Weighted>
-0.0000

> <Gold.Chemscore.Lipo.Weighted>
-14.0567

> <Gold.Chemscore.Internal_Hbond.Weighted>
0.0000

> <Gold.Chemscore.DEClash.Weighted>
1.3706

> <Gold.Chemscore.DEInternal.Weighted>
5.1748

> <Gold.Chemscore.Rot.Weighted>
6.0413

> <Gold.Chemscore.Internal.Correction.Weighted>
   9.000000E+99

> <Gold.Protein.RotatedTorsions>
[ 6907 6896 6895 6894 ] final  -29.62 input  -60.11 | X-H torsion
[ 7974 7965 7964 7962 ] final  -93.02 input  175.53 | X-H torsion
[ 8008 7997 7996 7995 ] final  -89.26 input   59.86 | X-H torsion
[ 10167 10162 10161 10158 ] final  -10.02 input  -65.29 | X-H torsion
[ 10718 10713 10712 10709 ] final   95.26 input   66.30 | X-H torsion
[ 10763 10752 10751 10750 ] final  170.12 input  -60.55 | X-H torsion
[ 11005 11000 10999 10996 ] final -145.66 input  -57.11 | X-H torsion

> <Gold.Protein.ActiveResidues>
 VAL166  LYS551  ARG553  GLY616  TRP617  ASP618  TYR619  PRO620  LYS621  CYS622 
 ASP623  PHE694  ASN695  SER759  ASP760  ASP761  ALA762  ILE779  LEU786  VAL792 
 PHE793  MET794  SER795  GLU796  ALA797  LYS798  CYS799  TRP800  GLU811  SER814 

> <Gold.Protein.RotatedAtoms>
  151.1167  135.0056  159.8518 H   0  0  0  0  0  0  0  0  0  0  0  0  # atno 6907 bound_to 6896
  152.5446  134.1771  159.8630 H   0  0  0  0  0  0  0  0  0  0  0  0  # atno 6908 bound_to 6896
  151.1826  133.4671  159.2627 H   0  0  0  0  0  0  0  0  0  0  0  0  # atno 6909 bound_to 6896
  145.3921  140.9529  143.2334 H   0  0  0  0  0  0  0  0  0  0  0  0  # atno 7974 bound_to 7965
  154.6845  140.0544  157.0300 H   0  0  0  0  0  0  0  0  0  0  0  0  # atno 8008 bound_to 7997
  155.0905  140.3219  155.4556 H   0  0  0  0  0  0  0  0  0  0  0  0  # atno 8009 bound_to 7997
  156.2706  140.2049  156.6032 H   0  0  0  0  0  0  0  0  0  0  0  0  # atno 8010 bound_to 7997
  140.7103  143.5794  150.9008 H   0  0  0  0  0  0  0  0  0  0  0  0  # atno 10167 bound_to 10162
  157.6940  131.0540  150.4312 H   0  0  0  0  0  0  0  0  0  0  0  0  # atno 10718 bound_to 10713
  154.3930  135.2754  155.2143 H   0  0  0  0  0  0  0  0  0  0  0  0  # atno 10763 bound_to 10752
  154.4201  135.6002  153.6008 H   0  0  0  0  0  0  0  0  0  0  0  0  # atno 10764 bound_to 10752
  152.9832  135.5970  154.4188 H   0  0  0  0  0  0  0  0  0  0  0  0  # atno 10765 bound_to 10752
  140.7900  134.2979  157.5016 H   0  0  0  0  0  0  0  0  0  0  0  0  # atno 11005 bound_to 11000
  144.8433  139.5438  143.6890 LP  0  0  0  0  0  0  0  0  0  0  0  0  # atno 17320 bound_to 7965
  146.2792  139.6833  142.9241 LP  0  0  0  0  0  0  0  0  0  0  0  0  # atno 17321 bound_to 7965
  139.9520  143.6261  152.3026 LP  0  0  0  0  0  0  0  0  0  0  0  0  # atno 17342 bound_to 10162
  139.6783  144.7657  151.1654 LP  0  0  0  0  0  0  0  0  0  0  0  0  # atno 17343 bound_to 10162
  156.4679  130.4046  149.6536 LP  0  0  0  0  0  0  0  0  0  0  0  0  # atno 17370 bound_to 10713
  156.3627  130.7490  151.2464 LP  0  0  0  0  0  0  0  0  0  0  0  0  # atno 17371 bound_to 10713
  139.8732  134.9369  156.3672 LP  0  0  0  0  0  0  0  0  0  0  0  0  # atno 17394 bound_to 11000
  140.9399  133.7522  156.0133 LP  0  0  0  0  0  0  0  0  0  0  0  0  # atno 17395 bound_to 11000

$$$$
