AV-unprocessed.smi:207|AV-procd|sdf|1604|dock6
  -GOLD-   2262019523D 1   1.00000     0.00000
 Structure written by MMmdl.
 56 59  0  0  0  0  0  0  0  0  2 V2000
  141.6134  135.0299  153.4641 C   0  0  0  0  0  0  0  0  0  0  0  0
  143.1549  135.1500  153.4791 C   0  0  0  0  0  0  0  0  0  0  0  0
  143.5730  136.4071  152.6803 C   0  0  0  0  0  0  0  0  0  0  0  0
  143.5527  135.3287  154.9669 C   0  0  0  0  0  0  0  0  0  0  0  0
  144.9912  135.2222  155.1759 N   0  0  0  0  0  0  0  0  0  0  0  0
  145.4436  135.7264  156.3510 C   0  0  0  0  0  0  0  0  0  0  0  0
  146.3797  136.7125  156.3517 N   0  0  0  0  0  0  0  0  0  0  0  0
  146.8311  137.2124  157.5059 C   0  0  0  0  0  0  0  0  0  0  0  0
  146.4834  136.8820  158.7509 N   0  0  0  0  0  0  0  0  0  0  0  0
  145.5386  135.8983  158.7569 C   0  0  0  0  0  0  0  0  0  0  0  0
  144.9727  135.2678  157.6132 C   0  0  0  0  0  0  0  0  0  0  0  0
  144.0398  134.3171  158.0099 N   0  0  0  0  0  0  0  0  0  0  0  0
  144.0557  134.3801  159.3135 C   0  0  0  0  0  0  0  0  0  0  0  0
  144.9167  135.3130  159.8466 N   0  0  0  0  0  0  0  0  0  0  0  0
  145.1293  135.6017  161.2567 C   0  0  0  0  0  0  0  0  0  0  0  0
  146.5448  135.2736  161.7808 C   0  0  0  0  0  0  0  0  0  0  0  0
  146.6460  133.7887  162.1775 C   0  0  0  0  0  0  0  0  0  0  0  0
  145.5434  133.3684  162.9566 O   0  0  0  0  0  0  0  0  0  0  0  0
  147.7232  135.8446  160.9758 C   0  0  0  0  0  0  0  0  0  0  0  0
  147.9106  136.9317  161.9054 O   0  0  0  0  0  0  0  0  0  0  0  0
  147.0429  136.2638  162.8446 C   0  0  0  0  0  0  0  0  0  0  0  0
  145.5693  133.9767  154.6920 C   0  0  0  0  0  0  0  0  0  0  0  0
  145.2479  133.7902  153.2052 C   0  0  0  0  0  0  0  0  0  0  0  0
  143.7882  133.9027  152.9235 N   0  3  2  0  0  0  0  0  0  0  0  0
  143.4857  133.6070  151.4935 C   0  0  0  0  0  0  0  0  0  0  0  0
  144.1240  132.2855  151.0354 C   0  0  0  0  0  0  0  0  0  0  0  0
  143.6579  131.9483  149.7459 O   0  0  0  0  0  0  0  0  0  0  0  0
  141.1539  135.8549  154.0101 H   0  0  0  0  0  0  0  0  0  0  0  0
  141.2829  134.1049  153.9380 H   0  0  0  0  0  0  0  0  0  0  0  0
  141.1892  135.0582  152.4618 H   0  0  0  0  0  0  0  0  0  0  0  0
  143.1217  137.3051  153.1039 H   0  0  0  0  0  0  0  0  0  0  0  0
  143.2575  136.3544  151.6384 H   0  0  0  0  0  0  0  0  0  0  0  0
  144.6521  136.5599  152.6906 H   0  0  0  0  0  0  0  0  0  0  0  0
  143.1659  136.2763  155.3422 H   0  0  0  0  0  0  0  0  0  0  0  0
  143.0782  134.5522  155.5694 H   0  0  0  0  0  0  0  0  0  0  0  0
  147.5767  137.9892  157.4196 H   0  0  0  0  0  0  0  0  0  0  0  0
  143.4318  133.7437  159.9234 H   0  0  0  0  0  0  0  0  0  0  0  0
  144.9055  136.6582  161.4108 H   0  0  0  0  0  0  0  0  0  0  0  0
  144.3788  135.0595  161.8331 H   0  0  0  0  0  0  0  0  0  0  0  0
  146.6727  133.1513  161.2934 H   0  0  0  0  0  0  0  0  0  0  0  0
  147.5666  133.5879  162.7260 H   0  0  0  0  0  0  0  0  0  0  0  0
  144.7795  133.8518  162.6807 H   0  0  0  0  0  0  0  0  0  0  0  0
  148.5957  135.1900  160.9422 H   0  0  0  0  0  0  0  0  0  0  0  0
  147.4628  136.1931  159.9773 H   0  0  0  0  0  0  0  0  0  0  0  0
  146.2677  136.9224  163.2382 H   0  0  0  0  0  0  0  0  0  0  0  0
  147.6082  135.8062  163.6581 H   0  0  0  0  0  0  0  0  0  0  0  0
  146.6513  133.9807  154.8324 H   0  0  0  0  0  0  0  0  0  0  0  0
  145.1694  133.1426  155.2702 H   0  0  0  0  0  0  0  0  0  0  0  0
  145.7919  134.5328  152.6204 H   0  0  0  0  0  0  0  0  0  0  0  0
  145.6196  132.8173  152.8852 H   0  0  0  0  0  0  0  0  0  0  0  0
  142.4174  133.5472  151.2992 H   0  0  0  0  0  0  0  0  0  0  0  0
  143.8424  134.4284  150.8701 H   0  0  0  0  0  0  0  0  0  0  0  0
  145.2076  132.3952  150.9879 H   0  0  0  0  0  0  0  0  0  0  0  0
  143.9186  131.4678  151.7256 H   0  0  0  0  0  0  0  0  0  0  0  0
  143.8936  132.6425  149.1485 H   0  0  0  0  0  0  0  0  0  0  0  0
  143.3544  133.1523  153.4425 H   0  0  0  0  0  0  0  0  0  0  0  0
  1  2  1  0  0  0  0
  1 28  1  0  0  0  0
  1 29  1  0  0  0  0
  1 30  1  0  0  0  0
  2 24  1  0  0  0  0
  2  3  1  0  0  0  0
  2  4  1  0  0  0  0
  3 31  1  0  0  0  0
  3 32  1  0  0  0  0
  3 33  1  0  0  0  0
  4  5  1  0  0  0  0
  4 34  1  0  0  0  0
  4 35  1  0  0  0  0
  5  6  1  0  0  0  0
  5 22  1  0  0  0  0
  6 11  1  0  0  0  0
  6  7  2  0  0  0  0
  7  8  1  0  0  0  0
  8  9  2  0  0  0  0
  8 36  1  0  0  0  0
  9 10  1  0  0  0  0
 10 14  1  0  0  0  0
 10 11  2  0  0  0  0
 11 12  1  0  0  0  0
 12 13  2  0  0  0  0
 13 14  1  0  0  0  0
 13 37  1  0  0  0  0
 14 15  1  0  0  0  0
 15 16  1  0  0  0  0
 15 38  1  0  0  0  0
 15 39  1  0  0  0  0
 16 21  1  0  0  0  0
 16 17  1  0  0  0  0
 16 19  1  0  0  0  0
 17 18  1  0  0  0  0
 17 40  1  0  0  0  0
 17 41  1  0  0  0  0
 18 42  1  0  0  0  0
 19 20  1  0  0  0  0
 19 43  1  0  0  0  0
 19 44  1  0  0  0  0
 20 21  1  0  0  0  0
 21 45  1  0  0  0  0
 21 46  1  0  0  0  0
 22 23  1  0  0  0  0
 22 47  1  0  0  0  0
 22 48  1  0  0  0  0
 23 24  1  0  0  0  0
 23 49  1  0  0  0  0
 23 50  1  0  0  0  0
 24 25  1  0  0  0  0
 24 56  1  0  0  0  0
 25 26  1  0  0  0  0
 25 51  1  0  0  0  0
 25 52  1  0  0  0  0
 26 27  1  0  0  0  0
 26 53  1  0  0  0  0
 26 54  1  0  0  0  0
 27 55  1  0  0  0  0
M  CHG  1  24   1
M  END
> <s_m_source_file>
AV-unprocessed.smi

> <i_m_source_file_index>
207

> <i_lp_mmshare_version>
43012

> <i_f3d_flags>
0

> <s_epik_input>
W09IXVtDSDJdW0NIMl1OMVtDSDJdW0NIMl1OKFtDSDJdQzEoW0NIM10pW0NIM10pYyhuW2NIXW4yKWMoYzIzKW5bY0hdbjNbQ0gyXUM0KFtDSDJdW09IXSlbQ0gyXU9bQ0gyXTQ=

> <s_epik_cmdline>
J2VwaWtfcHl0aG9uJywgJy1waCcsICc3LjAnLCAnLXRuJywgJzgnLCAnLW1hJywgJzIwMCcsICctbWV0YWxfYmluZGluZycsICctaW1hZScsICc8aW5maWxlLm1hZT4nLCAnLW9tYWUnLCAnPG91dGZpbGUubWFlPic=

> <r_lp_tautomer_probability>
1

> <r_epik_Ionization_Penalty>
0.416568

> <r_epik_Ionization_Penalty_Charging>
0.416506

> <r_epik_Ionization_Penalty_Neutral>
6.2219e-05

> <r_epik_State_Penalty>
0.419386

> <r_epik_Charging_Adjusted_Penalty>
0.835892

> <i_epik_Tot_Q>
1

> <i_epik_Tot_abs_Q>
1

> <r_epik_Metal_State_Penalty>
0.420232

> <b_epik_Metal_Only>
0

> <s_lp_Force_Field>
OPLS_2005

> <r_lp_Energy>
56.1561

> <b_lp_Chiralities_Consistent>
1

> <s_lp_Variant>
AV-unprocessed.smi:207-3

> <Gold.Version>
5.8.1

> <Gold.Id.Protein>
6NUR|6NUR_protein|mol2

> <Gold.PLP.Fitness>
47.5711

> <Gold.PLP.PLP>
-35.2420

> <Gold.PLP.part.hbond>
-5.7275

> <Gold.PLP.part.metal>
0.0000

> <Gold.PLP.part.buried>
-5.5983

> <Gold.PLP.part.nonpolar>
-23.6147

> <Gold.PLP.part.repulsive>
0.0737

> <Gold.PLP.ligand.clash>
0.0000

> <Gold.PLP.ligand.torsion>
0.9417

> <Gold.PLP.Chemscore.Hbond>
4.4655

> <Gold.PLP.Chemscore.CHOScore>
0.0000

> <Gold.PLP.Chemscore.Metal>
0.0000

> <Gold.Chemscore.Hbonds>
donor molecule, donor type, donor heavy atom, donor atom, acceptor molecule, acceptor atom, score
      L1  H    24    56       P1 10957  1.95
      P1  H  6931  6943       L1    20  1.00
      P1  H  6934  6947       L1    20  0.03
      P1  H 10785 10796       L1    27  0.74

> <Gold.PLP.Chemscore.Internal.Correction>
0.8160

> <Gold.Rescore>
     Score         DG    S(hbond)    S(metal)    S(lipo)     H(rot)  DE(clash)    DE(int)     intcor
     12.65     -13.55       2.71        0.00      74.58       3.80       0.12       0.77       ----

> <Gold.Chemscore.Fitness>
12.6525

> <Gold.Chemscore.DG>
-13.5456

> <Gold.Chemscore.ZeroCoef>
-5.4800

> <Gold.Chemscore.Hbond>
2.7147

> <Gold.Chemscore.Metal>
0.0000

> <Gold.Chemscore.Lipo>
74.5805

> <Gold.Chemscore.Internal_Hbond>
0.0000

> <Gold.Chemscore.DEClash>
0.1223

> <Gold.Chemscore.DEInternal>
0.7708

> <Gold.Chemscore.Rot>
3.7997

> <Gold.Chemscore.Internal.Correction>
   9.000000E+99

> <Gold.Chemscore.Hbonds>
donor molecule, donor type, donor heavy atom, donor atom, acceptor molecule, acceptor atom, score
      L1  H    24    56       P1 10957  0.85
      P1  H  6931  6943       L1    20  1.00
      P1  H  6934  6947       L1    20  0.05
      P1  H 10785 10796       L1    27  0.59

> <Gold.Chemscore.Hbond.Weighted>
-9.0670

> <Gold.Chemscore.Metal.Weighted>
-0.0000

> <Gold.Chemscore.Lipo.Weighted>
-8.7259

> <Gold.Chemscore.Internal_Hbond.Weighted>
0.0000

> <Gold.Chemscore.DEClash.Weighted>
0.1223

> <Gold.Chemscore.DEInternal.Weighted>
0.7708

> <Gold.Chemscore.Rot.Weighted>
9.7273

> <Gold.Chemscore.Internal.Correction.Weighted>
   9.000000E+99

> <Gold.Protein.RotatedTorsions>
[ 6907 6896 6895 6894 ] final   27.61 input  -60.11 | X-H torsion
[ 7974 7965 7964 7962 ] final  -68.65 input  175.53 | X-H torsion
[ 8008 7997 7996 7995 ] final  -77.75 input   59.86 | X-H torsion
[ 10167 10162 10161 10158 ] final -173.98 input  -65.29 | X-H torsion
[ 10718 10713 10712 10709 ] final  150.56 input   66.30 | X-H torsion
[ 10763 10752 10751 10750 ] final  -30.67 input  -60.55 | X-H torsion
[ 11005 11000 10999 10996 ] final  128.30 input  -57.11 | X-H torsion

> <Gold.Protein.ActiveResidues>
 VAL166  LYS551  ARG553  GLY616  TRP617  ASP618  TYR619  PRO620  LYS621  CYS622 
 ASP623  PHE694  ASN695  SER759  ASP760  ASP761  ALA762  ILE779  LEU786  VAL792 
 PHE793  MET794  SER795  GLU796  ALA797  LYS798  CYS799  TRP800  GLU811  SER814 

> <Gold.Protein.RotatedAtoms>
  152.0047  134.9909  160.0566 H   0  0  0  0  0  0  0  0  0  0  0  0  # atno 6907 bound_to 6896
  152.1485  133.4503  159.4810 H   0  0  0  0  0  0  0  0  0  0  0  0  # atno 6908 bound_to 6896
  150.6873  134.2136  159.4412 H   0  0  0  0  0  0  0  0  0  0  0  0  # atno 6909 bound_to 6896
  145.7138  140.9067  143.0666 H   0  0  0  0  0  0  0  0  0  0  0  0  # atno 7974 bound_to 7965
  154.5625  140.0705  156.8841 H   0  0  0  0  0  0  0  0  0  0  0  0  # atno 8008 bound_to 7997
  155.2784  140.3370  155.4242 H   0  0  0  0  0  0  0  0  0  0  0  0  # atno 8009 bound_to 7997
  156.2054  140.1738  156.7797 H   0  0  0  0  0  0  0  0  0  0  0  0  # atno 8010 bound_to 7997
  139.5658  144.1758  152.1310 H   0  0  0  0  0  0  0  0  0  0  0  0  # atno 10167 bound_to 10162
  157.2820  131.0837  151.1525 H   0  0  0  0  0  0  0  0  0  0  0  0  # atno 10718 bound_to 10713
  153.7848  135.6902  153.4882 H   0  0  0  0  0  0  0  0  0  0  0  0  # atno 10763 bound_to 10752
  153.1787  135.4514  154.9998 H   0  0  0  0  0  0  0  0  0  0  0  0  # atno 10764 bound_to 10752
  154.8067  135.3360  154.7349 H   0  0  0  0  0  0  0  0  0  0  0  0  # atno 10765 bound_to 10752
  139.9553  134.9614  156.8981 H   0  0  0  0  0  0  0  0  0  0  0  0  # atno 11005 bound_to 11000
  144.6934  139.9111  143.7463 LP  0  0  0  0  0  0  0  0  0  0  0  0  # atno 17320 bound_to 7965
  146.0688  139.3678  143.0536 LP  0  0  0  0  0  0  0  0  0  0  0  0  # atno 17321 bound_to 7965
  140.1281  144.5313  150.6820 LP  0  0  0  0  0  0  0  0  0  0  0  0  # atno 17342 bound_to 10162
  140.6942  143.2393  151.5048 LP  0  0  0  0  0  0  0  0  0  0  0  0  # atno 17343 bound_to 10162
  157.2955  130.6817  149.6136 LP  0  0  0  0  0  0  0  0  0  0  0  0  # atno 17370 bound_to 10713
  155.9664  130.4408  150.5313 LP  0  0  0  0  0  0  0  0  0  0  0  0  # atno 17371 bound_to 10713
  140.5624  134.0522  155.7403 LP  0  0  0  0  0  0  0  0  0  0  0  0  # atno 17394 bound_to 11000
  141.1223  133.9440  157.2704 LP  0  0  0  0  0  0  0  0  0  0  0  0  # atno 17395 bound_to 11000

$$$$
