AV-unprocessed.smi:672|AV-procd|sdf|3295|dock2
  -GOLD-   22720 0253D 1   1.00000     0.00000
 Structure written by MMmdl.
 35 36  0  0  0  0  0  0  0  0  2 V2000
  147.6027  140.6635  153.3529 C   0  0  0  0  0  0  0  0  0  0  0  0
  148.4900  141.5676  154.2152 C   0  0  0  0  0  0  0  0  0  0  0  0
  149.5519  140.8076  154.9371 C   0  0  0  0  0  0  0  0  0  0  0  0
  150.5021  140.1119  154.3069 N   0  0  0  0  0  0  0  0  0  0  0  0
  151.3548  139.4703  155.1931 N   0  0  0  0  0  0  0  0  0  0  0  0
  151.0214  139.6645  156.4771 C   0  0  0  0  0  0  0  0  0  0  0  0
  151.7152  139.1266  157.4936 N   0  5  0  0  0  0  0  0  0  0  0  0
  152.7130  139.8301  158.0759 C   0  0  0  0  0  0  0  0  0  0  0  0
  153.9074  139.5231  158.0972 O   0  0  0  0  0  0  0  0  0  0  0  0
  152.3014  140.9567  158.6749 N   0  0  0  0  0  0  0  0  0  0  0  0
  153.1544  141.9161  159.3732 C   0  0  2  0  0  0  0  0  0  0  0  0
  152.9880  141.8230  160.9040 C   0  0  0  0  0  0  0  0  0  0  0  0
  152.2587  143.0981  161.3268 C   0  0  0  0  0  0  0  0  0  0  0  0
  152.7107  144.1410  160.3080 C   0  0  2  0  0  0  0  0  0  0  0  0
  151.5966  145.5740  160.2393 S   0  0  0  0  0  0  0  0  0  0  0  0
  150.0688  144.7678  159.6919 C   0  0  0  0  0  0  0  0  0  0  0  0
  152.7792  143.3607  158.9911 C   0  0  0  0  0  0  0  0  0  0  0  0
  149.6112  140.7011  156.6884 S   0  0  0  0  0  0  0  0  0  0  0  0
  146.8376  141.2453  152.8390 H   0  0  0  0  0  0  0  0  0  0  0  0
  147.0979  139.9129  153.9620 H   0  0  0  0  0  0  0  0  0  0  0  0
  148.1895  140.1415  152.5967 H   0  0  0  0  0  0  0  0  0  0  0  0
  148.9617  142.3288  153.5928 H   0  0  0  0  0  0  0  0  0  0  0  0
  147.8807  142.0972  154.9480 H   0  0  0  0  0  0  0  0  0  0  0  0
  151.3150  141.1670  158.6360 H   0  0  0  0  0  0  0  0  0  0  0  0
  154.1975  141.7319  159.1094 H   0  0  0  0  0  0  0  0  0  0  0  0
  152.4607  140.9263  161.2320 H   0  0  0  0  0  0  0  0  0  0  0  0
  153.9741  141.8005  161.3697 H   0  0  0  0  0  0  0  0  0  0  0  0
  151.1814  142.9418  161.2505 H   0  0  0  0  0  0  0  0  0  0  0  0
  152.4825  143.3877  162.3539 H   0  0  0  0  0  0  0  0  0  0  0  0
  153.7107  144.4836  160.5776 H   0  0  0  0  0  0  0  0  0  0  0  0
  149.2839  145.5105  159.5506 H   0  0  0  0  0  0  0  0  0  0  0  0
  149.7284  144.0458  160.4340 H   0  0  0  0  0  0  0  0  0  0  0  0
  150.2285  144.2486  158.7470 H   0  0  0  0  0  0  0  0  0  0  0  0
  153.4954  143.7972  158.2942 H   0  0  0  0  0  0  0  0  0  0  0  0
  151.8025  143.3836  158.5042 H   0  0  0  0  0  0  0  0  0  0  0  0
  1  2  1  0  0  0  0
  1 19  1  0  0  0  0
  1 20  1  0  0  0  0
  1 21  1  0  0  0  0
  2  3  1  0  0  0  0
  2 22  1  0  0  0  0
  2 23  1  0  0  0  0
  3 18  1  0  0  0  0
  3  4  2  0  0  0  0
  4  5  1  0  0  0  0
  5  6  2  0  0  0  0
  6  7  1  0  0  0  0
  6 18  1  0  0  0  0
  7  8  1  0  0  0  0
  8  9  2  0  0  0  0
  8 10  1  0  0  0  0
 10 11  1  0  0  0  0
 10 24  1  0  0  0  0
 11 17  1  0  0  0  0
 11 12  1  0  0  0  0
 11 25  1  0  0  0  0
 12 13  1  0  0  0  0
 12 26  1  0  0  0  0
 12 27  1  0  0  0  0
 13 14  1  0  0  0  0
 13 28  1  0  0  0  0
 13 29  1  0  0  0  0
 14 15  1  0  0  0  0
 14 17  1  0  0  0  0
 14 30  1  0  0  0  0
 15 16  1  0  0  0  0
 16 31  1  0  0  0  0
 16 32  1  0  0  0  0
 16 33  1  0  0  0  0
 17 34  1  0  0  0  0
 17 35  1  0  0  0  0
M  CHG  1   7  -1
M  END
> <s_m_source_file>
AV-unprocessed.smi

> <i_m_source_file_index>
672

> <i_lp_mmshare_version>
43012

> <i_f3d_flags>
0

> <s_epik_input>
W0NIM11bQ0gyXWMxbm5jKHMxKVtOSF1DKD1PKVtOSF1bQ0BASF0yW0NIMl1bQ0gyXVtDQEhdKFtDSDJdMilTW0NIM10=

> <s_epik_cmdline>
J2VwaWtfcHl0aG9uJywgJy1waCcsICc3LjAnLCAnLXRuJywgJzgnLCAnLW1hJywgJzIwMCcsICctbWV0YWxfYmluZGluZycsICctaW1hZScsICc8aW5maWxlLm1hZT4nLCAnLW9tYWUnLCAnPG91dGZpbGUubWFlPic=

> <r_lp_tautomer_probability>
1

> <r_epik_Ionization_Penalty>
4.49964

> <r_epik_Ionization_Penalty_Charging>
4.32991

> <r_epik_Ionization_Penalty_Neutral>
0.169727

> <r_epik_State_Penalty>
4.32952

> <r_epik_Charging_Adjusted_Penalty>
8.65943

> <i_epik_Tot_Q>
-1

> <i_epik_Tot_abs_Q>
1

> <r_epik_Metal_State_Penalty>
0.740482

> <b_epik_Metal_Only>
1

> <s_lp_Force_Field>
OPLS_2005

> <r_lp_Energy>
9.98036

> <b_lp_Chiralities_Consistent>
1

> <s_lp_Variant>
AV-unprocessed.smi:672-7

> <Gold.Version>
5.8.1

> <Gold.Id.Protein>
6NUR|6NUR_protein|mol2

> <Gold.PLP.Fitness>
41.3493

> <Gold.PLP.PLP>
-38.7048

> <Gold.PLP.part.hbond>
-2.0000

> <Gold.PLP.part.metal>
0.0000

> <Gold.PLP.part.buried>
-5.0494

> <Gold.PLP.part.nonpolar>
-32.1060

> <Gold.PLP.part.repulsive>
0.2546

> <Gold.PLP.ligand.clash>
0.0000

> <Gold.PLP.ligand.torsion>
1.5484

> <Gold.PLP.Chemscore.Hbond>
1.9000

> <Gold.PLP.Chemscore.CHOScore>
0.0000

> <Gold.PLP.Chemscore.Metal>
0.0000

> <Gold.Chemscore.Hbonds>
donor molecule, donor type, donor heavy atom, donor atom, acceptor molecule, acceptor atom, score
      P1  H  7989  7998       L1     4  0.85
      P1  H  7997  8009       L1     9  0.57

> <Gold.PLP.Chemscore.Internal.Correction>
0.0413

> <Gold.Rescore>
     Score         DG    S(hbond)    S(metal)    S(lipo)     H(rot)  DE(clash)    DE(int)     intcor
     15.93     -17.63       1.11        0.00     101.55       1.34       0.04       1.66       ----

> <Gold.Chemscore.Fitness>
15.9262

> <Gold.Chemscore.DG>
-17.6261

> <Gold.Chemscore.ZeroCoef>
-5.4800

> <Gold.Chemscore.Hbond>
1.1071

> <Gold.Chemscore.Metal>
0.0000

> <Gold.Chemscore.Lipo>
101.5515

> <Gold.Chemscore.Internal_Hbond>
0.0000

> <Gold.Chemscore.DEClash>
0.0354

> <Gold.Chemscore.DEInternal>
1.6646

> <Gold.Chemscore.Rot>
1.3410

> <Gold.Chemscore.Internal.Correction>
   9.000000E+99

> <Gold.Chemscore.Hbonds>
donor molecule, donor type, donor heavy atom, donor atom, acceptor molecule, acceptor atom, score
      P1  H  7989  7998       L1     4  0.14
      P1  H  7997  8009       L1     9  0.50

> <Gold.Chemscore.Hbond.Weighted>
-3.6976

> <Gold.Chemscore.Metal.Weighted>
-0.0000

> <Gold.Chemscore.Lipo.Weighted>
-11.8815

> <Gold.Chemscore.Internal_Hbond.Weighted>
0.0000

> <Gold.Chemscore.DEClash.Weighted>
0.0354

> <Gold.Chemscore.DEInternal.Weighted>
1.6646

> <Gold.Chemscore.Rot.Weighted>
3.4329

> <Gold.Chemscore.Internal.Correction.Weighted>
   9.000000E+99

> <Gold.Protein.RotatedTorsions>
[ 6907 6896 6895 6894 ] final   -3.46 input  -60.11 | X-H torsion
[ 7974 7965 7964 7962 ] final  -65.57 input  175.53 | X-H torsion
[ 8008 7997 7996 7995 ] final  153.08 input   59.86 | X-H torsion
[ 10167 10162 10161 10158 ] final  -20.94 input  -65.29 | X-H torsion
[ 10718 10713 10712 10709 ] final  114.68 input   66.30 | X-H torsion
[ 10763 10752 10751 10750 ] final   71.87 input  -60.55 | X-H torsion
[ 11005 11000 10999 10996 ] final  -79.57 input  -57.11 | X-H torsion

> <Gold.Protein.ActiveResidues>
 VAL166  LYS551  ARG553  GLY616  TRP617  ASP618  TYR619  PRO620  LYS621  CYS622 
 ASP623  PHE694  ASN695  SER759  ASP760  ASP761  ALA762  ILE779  LEU786  VAL792 
 PHE793  MET794  SER795  GLU796  ALA797  LYS798  CYS799  TRP800  GLU811  SER814 

> <Gold.Protein.RotatedAtoms>
  151.5134  135.1065  159.9859 H   0  0  0  0  0  0  0  0  0  0  0  0  # atno 6907 bound_to 6896
  152.4652  133.7903  159.6909 H   0  0  0  0  0  0  0  0  0  0  0  0  # atno 6908 bound_to 6896
  150.8632  133.7549  159.3011 H   0  0  0  0  0  0  0  0  0  0  0  0  # atno 6909 bound_to 6896
  145.7526  140.8901  143.0472 H   0  0  0  0  0  0  0  0  0  0  0  0  # atno 7974 bound_to 7965
  156.2599  140.2003  156.6434 H   0  0  0  0  0  0  0  0  0  0  0  0  # atno 8008 bound_to 7997
  154.6592  140.0563  157.0068 H   0  0  0  0  0  0  0  0  0  0  0  0  # atno 8009 bound_to 7997
  155.1301  140.3233  155.4479 H   0  0  0  0  0  0  0  0  0  0  0  0  # atno 8010 bound_to 7997
  140.7279  143.4675  151.0293 H   0  0  0  0  0  0  0  0  0  0  0  0  # atno 10167 bound_to 10162
  157.6267  131.1002  150.7220 H   0  0  0  0  0  0  0  0  0  0  0  0  # atno 10718 bound_to 10713
  153.0424  135.5121  154.7658 H   0  0  0  0  0  0  0  0  0  0  0  0  # atno 10763 bound_to 10752
  154.6585  135.2935  154.9899 H   0  0  0  0  0  0  0  0  0  0  0  0  # atno 10764 bound_to 10752
  154.0759  135.6671  153.4883 H   0  0  0  0  0  0  0  0  0  0  0  0  # atno 10765 bound_to 10752
  141.1667  133.7112  156.8143 H   0  0  0  0  0  0  0  0  0  0  0  0  # atno 11005 bound_to 11000
  144.6846  139.9612  143.7480 LP  0  0  0  0  0  0  0  0  0  0  0  0  # atno 17320 bound_to 7965
  146.0342  139.3362  143.0737 LP  0  0  0  0  0  0  0  0  0  0  0  0  # atno 17321 bound_to 7965
  139.8364  143.7622  152.3180 LP  0  0  0  0  0  0  0  0  0  0  0  0  # atno 17342 bound_to 10162
  139.7756  144.7462  151.0162 LP  0  0  0  0  0  0  0  0  0  0  0  0  # atno 17343 bound_to 10162
  156.7567  130.4786  149.5445 LP  0  0  0  0  0  0  0  0  0  0  0  0  # atno 17370 bound_to 10713
  156.1443  130.6266  151.0510 LP  0  0  0  0  0  0  0  0  0  0  0  0  # atno 17371 bound_to 10713
  140.2165  134.8789  157.3331 LP  0  0  0  0  0  0  0  0  0  0  0  0  # atno 17394 bound_to 11000
  140.2032  134.4229  155.7651 LP  0  0  0  0  0  0  0  0  0  0  0  0  # atno 17395 bound_to 11000

$$$$
