AV-unprocessed.smi:1368|AV-procd|sdf|5576|dock10
  -GOLD-   22720 5173D 1   1.00000     0.00000
 Structure written by MMmdl.
 46 48  0  0  0  0  0  0  0  0  1 V2000
  143.9905  144.4687  155.0052 C   0  0  0  0  0  0  0  0  0  0  0  0
  145.2940  143.8488  154.5110 C   0  0  0  0  0  0  0  0  0  0  0  0
  145.9080  144.3924  153.5941 O   0  0  0  0  0  0  0  0  0  0  0  0
  145.6921  142.7359  155.1554 N   0  0  0  0  0  0  0  0  0  0  0  0
  146.8409  141.9298  154.9254 C   0  0  0  0  0  0  0  0  0  0  0  0
  147.8183  142.4382  154.0466 C   0  0  0  0  0  0  0  0  0  0  0  0
  148.9916  141.7071  153.7808 C   0  0  0  0  0  0  0  0  0  0  0  0
  149.2186  140.4584  154.3925 C   0  0  0  0  0  0  0  0  0  0  0  0
  150.3924  139.8090  154.0750 O   0  0  0  0  0  0  0  0  0  0  0  0
  150.7451  138.6533  154.8241 C   0  0  0  0  0  0  0  0  0  0  0  0
  151.5494  139.0834  156.0610 C   0  0  1  0  0  0  0  0  0  0  0  0
  152.6812  139.8117  155.6263 O   0  0  0  0  0  0  0  0  0  0  0  0
  150.7103  139.9663  157.0073 C   0  0  0  0  0  0  0  0  0  0  0  0
  151.4834  140.5060  158.1182 N   0  0  0  0  0  0  0  0  0  0  0  0
  152.0708  139.8266  159.1338 C   0  0  0  0  0  0  0  0  0  0  0  0
  151.9870  138.3371  159.2405 C   0  0  0  0  0  0  0  0  0  0  0  0
  152.7207  140.5680  160.0309 N   0  0  0  0  0  0  0  0  0  0  0  0
  152.5364  141.8514  159.5536 C   0  0  0  0  0  0  0  0  0  0  0  0
  152.9805  143.0932  160.0621 C   0  0  0  0  0  0  0  0  0  0  0  0
  152.6643  144.2932  159.3921 C   0  0  0  0  0  0  0  0  0  0  0  0
  151.9018  144.2692  158.2063 C   0  0  0  0  0  0  0  0  0  0  0  0
  151.4481  143.0431  157.6835 C   0  0  0  0  0  0  0  0  0  0  0  0
  151.7656  141.8479  158.3563 C   0  0  0  0  0  0  0  0  0  0  0  0
  148.2438  139.9535  155.2887 C   0  0  0  0  0  0  0  0  0  0  0  0
  147.0692  140.6834  155.5557 C   0  0  0  0  0  0  0  0  0  0  0  0
  143.3278  143.7119  155.4267 H   0  0  0  0  0  0  0  0  0  0  0  0
  143.4651  144.9583  154.1845 H   0  0  0  0  0  0  0  0  0  0  0  0
  144.1956  145.2143  155.7739 H   0  0  0  0  0  0  0  0  0  0  0  0
  145.1247  142.4606  155.9438 H   0  0  0  0  0  0  0  0  0  0  0  0
  147.6705  143.3942  153.5652 H   0  0  0  0  0  0  0  0  0  0  0  0
  149.7265  142.1101  153.0992 H   0  0  0  0  0  0  0  0  0  0  0  0
  149.8653  138.0766  155.1158 H   0  0  0  0  0  0  0  0  0  0  0  0
  151.3679  138.0156  154.1943 H   0  0  0  0  0  0  0  0  0  0  0  0
  151.8873  138.1991  156.6019 H   0  0  0  0  0  0  0  0  0  0  0  0
  152.5178  140.1226  154.7488 H   0  0  0  0  0  0  0  0  0  0  0  0
  150.2710  140.7979  156.4549 H   0  0  0  0  0  0  0  0  0  0  0  0
  149.8712  139.3981  157.4094 H   0  0  0  0  0  0  0  0  0  0  0  0
  152.5444  137.9846  160.1091 H   0  0  0  0  0  0  0  0  0  0  0  0
  152.4070  137.8674  158.3515 H   0  0  0  0  0  0  0  0  0  0  0  0
  150.9488  138.0240  159.3507 H   0  0  0  0  0  0  0  0  0  0  0  0
  153.5657  143.1223  160.9695 H   0  0  0  0  0  0  0  0  0  0  0  0
  153.0089  145.2367  159.7895 H   0  0  0  0  0  0  0  0  0  0  0  0
  151.6659  145.1925  157.6977 H   0  0  0  0  0  0  0  0  0  0  0  0
  150.8661  143.0203  156.7742 H   0  0  0  0  0  0  0  0  0  0  0  0
  148.3738  139.0071  155.7908 H   0  0  0  0  0  0  0  0  0  0  0  0
  146.3653  140.2690  156.2602 H   0  0  0  0  0  0  0  0  0  0  0  0
  1  2  1  0  0  0  0
  1 26  1  0  0  0  0
  1 27  1  0  0  0  0
  1 28  1  0  0  0  0
  2  3  2  0  0  0  0
  2  4  1  0  0  0  0
  4  5  1  0  0  0  0
  4 29  1  0  0  0  0
  5 25  1  0  0  0  0
  5  6  2  0  0  0  0
  6  7  1  0  0  0  0
  6 30  1  0  0  0  0
  7  8  2  0  0  0  0
  7 31  1  0  0  0  0
  8  9  1  0  0  0  0
  8 24  1  0  0  0  0
  9 10  1  0  0  0  0
 10 11  1  0  0  0  0
 10 32  1  0  0  0  0
 10 33  1  0  0  0  0
 11 12  1  0  0  0  0
 11 13  1  0  0  0  0
 11 34  1  0  0  0  0
 12 35  1  0  0  0  0
 13 14  1  0  0  0  0
 13 36  1  0  0  0  0
 13 37  1  0  0  0  0
 14 23  1  0  0  0  0
 14 15  1  0  0  0  0
 15 16  1  0  0  0  0
 15 17  2  0  0  0  0
 16 38  1  0  0  0  0
 16 39  1  0  0  0  0
 16 40  1  0  0  0  0
 17 18  1  0  0  0  0
 18 23  2  0  0  0  0
 18 19  1  0  0  0  0
 19 20  2  0  0  0  0
 19 41  1  0  0  0  0
 20 21  1  0  0  0  0
 20 42  1  0  0  0  0
 21 22  2  0  0  0  0
 21 43  1  0  0  0  0
 22 23  1  0  0  0  0
 22 44  1  0  0  0  0
 24 25  2  0  0  0  0
 24 45  1  0  0  0  0
 25 46  1  0  0  0  0
M  END
> <s_m_source_file>
AV-unprocessed.smi

> <i_m_source_file_index>
1368

> <i_lp_mmshare_version>
43012

> <i_f3d_flags>
0

> <s_epik_input>
W0NIM11DKD1PKVtOSF1jMVtjSF1bY0hdYyhbY0hdW2NIXTEpT1tDSDJdW0NASF0oW09IXSlbQ0gyXW4oYyhuMilbQ0gzXSljKGMyMylbY0hdW2NIXVtjSF1bY0hdMw==

> <s_epik_cmdline>
J2VwaWtfcHl0aG9uJywgJy1waCcsICc3LjAnLCAnLXRuJywgJzgnLCAnLW1hJywgJzIwMCcsICctbWV0YWxfYmluZGluZycsICctaW1hZScsICc8aW5maWxlLm1hZT4nLCAnLW9tYWUnLCAnPG91dGZpbGUubWFlPic=

> <r_lp_tautomer_probability>
1

> <r_epik_Ionization_Penalty>
0.119634

> <r_epik_Ionization_Penalty_Charging>
0

> <r_epik_Ionization_Penalty_Neutral>
0.119634

> <r_epik_State_Penalty>
0.10919

> <r_epik_Charging_Adjusted_Penalty>
0.10919

> <i_epik_Tot_Q>
0

> <i_epik_Tot_abs_Q>
0

> <r_epik_Metal_State_Penalty>
0.0906856

> <b_epik_Metal_Only>
0

> <s_lp_Force_Field>
OPLS_2005

> <r_lp_Energy>
21.7849

> <b_lp_Chiralities_Consistent>
1

> <s_lp_Variant>
AV-unprocessed.smi:1368-2

> <Gold.Version>
5.8.1

> <Gold.Id.Protein>
6NUR|6NUR_protein|mol2

> <Gold.PLP.Fitness>
54.3493

> <Gold.PLP.PLP>
-48.9089

> <Gold.PLP.part.hbond>
-2.8177

> <Gold.PLP.part.metal>
0.0000

> <Gold.PLP.part.buried>
-5.1303

> <Gold.PLP.part.nonpolar>
-42.4185

> <Gold.PLP.part.repulsive>
1.1221

> <Gold.PLP.ligand.clash>
0.0000

> <Gold.PLP.ligand.torsion>
0.3206

> <Gold.PLP.Chemscore.Hbond>
2.0000

> <Gold.PLP.Chemscore.CHOScore>
0.0000

> <Gold.PLP.Chemscore.Metal>
0.0000

> <Gold.Chemscore.Hbonds>
donor molecule, donor type, donor heavy atom, donor atom, acceptor molecule, acceptor atom, score
      P1  H  7989  7998       L1     9  1.00
      P1  H  7997  8009       L1    12  1.00

> <Gold.PLP.Chemscore.Internal.Correction>
0.0816

> <Gold.Rescore>
     Score         DG    S(hbond)    S(metal)    S(lipo)     H(rot)  DE(clash)    DE(int)     intcor
     17.97     -19.94       1.87        0.00     122.58       2.39       0.14       1.82       ----

> <Gold.Chemscore.Fitness>
17.9745

> <Gold.Chemscore.DG>
-19.9371

> <Gold.Chemscore.ZeroCoef>
-5.4800

> <Gold.Chemscore.Hbond>
1.8674

> <Gold.Chemscore.Metal>
0.0000

> <Gold.Chemscore.Lipo>
122.5816

> <Gold.Chemscore.Internal_Hbond>
0.0000

> <Gold.Chemscore.DEClash>
0.1424

> <Gold.Chemscore.DEInternal>
1.8201

> <Gold.Chemscore.Rot>
2.3914

> <Gold.Chemscore.Internal.Correction>
   9.000000E+99

> <Gold.Chemscore.Hbonds>
donor molecule, donor type, donor heavy atom, donor atom, acceptor molecule, acceptor atom, score
      P1  H  7989  7998       L1     9  0.82
      P1  H  7997  8009       L1    12  0.55

> <Gold.Chemscore.Hbond.Weighted>
-6.2370

> <Gold.Chemscore.Metal.Weighted>
-0.0000

> <Gold.Chemscore.Lipo.Weighted>
-14.3420

> <Gold.Chemscore.Internal_Hbond.Weighted>
0.0000

> <Gold.Chemscore.DEClash.Weighted>
0.1424

> <Gold.Chemscore.DEInternal.Weighted>
1.8201

> <Gold.Chemscore.Rot.Weighted>
6.1220

> <Gold.Chemscore.Internal.Correction.Weighted>
   9.000000E+99

> <Gold.Protein.RotatedTorsions>
[ 6907 6896 6895 6894 ] final   86.99 input  -60.11 | X-H torsion
[ 7974 7965 7964 7962 ] final  110.23 input  175.53 | X-H torsion
[ 8008 7997 7996 7995 ] final -140.26 input   59.86 | X-H torsion
[ 10167 10162 10161 10158 ] final -154.44 input  -65.29 | X-H torsion
[ 10718 10713 10712 10709 ] final -166.47 input   66.30 | X-H torsion
[ 10763 10752 10751 10750 ] final  160.75 input  -60.55 | X-H torsion
[ 11005 11000 10999 10996 ] final -173.81 input  -57.11 | X-H torsion

> <Gold.Protein.ActiveResidues>
 VAL166  LYS551  ARG553  GLY616  TRP617  ASP618  TYR619  PRO620  LYS621  CYS622 
 ASP623  PHE694  ASN695  SER759  ASP760  ASP761  ALA762  ILE779  LEU786  VAL792 
 PHE793  MET794  SER795  GLU796  ALA797  LYS798  CYS799  TRP800  GLU811  SER814 

> <Gold.Protein.RotatedAtoms>
  152.5404  134.2345  159.8837 H   0  0  0  0  0  0  0  0  0  0  0  0  # atno 6907 bound_to 6896
  151.2315  133.4441  159.2611 H   0  0  0  0  0  0  0  0  0  0  0  0  # atno 6908 bound_to 6896
  151.0711  134.9812  159.8365 H   0  0  0  0  0  0  0  0  0  0  0  0  # atno 6909 bound_to 6896
  145.2576  139.2715  143.4034 H   0  0  0  0  0  0  0  0  0  0  0  0  # atno 7974 bound_to 7965
  155.4584  140.0544  157.2993 H   0  0  0  0  0  0  0  0  0  0  0  0  # atno 8008 bound_to 7997
  154.4748  140.2056  155.9861 H   0  0  0  0  0  0  0  0  0  0  0  0  # atno 8009 bound_to 7997
  156.1114  140.3203  155.8082 H   0  0  0  0  0  0  0  0  0  0  0  0  # atno 8010 bound_to 7997
  139.7013  143.9259  152.2430 H   0  0  0  0  0  0  0  0  0  0  0  0  # atno 10167 bound_to 10162
  156.6683  130.9074  151.3040 H   0  0  0  0  0  0  0  0  0  0  0  0  # atno 10718 bound_to 10713
  154.2523  135.2771  155.2812 H   0  0  0  0  0  0  0  0  0  0  0  0  # atno 10763 bound_to 10752
  154.5455  135.5690  153.6879 H   0  0  0  0  0  0  0  0  0  0  0  0  # atno 10764 bound_to 10752
  152.9978  135.6261  154.2670 H   0  0  0  0  0  0  0  0  0  0  0  0  # atno 10765 bound_to 10752
  140.4816  134.6070  157.4921 H   0  0  0  0  0  0  0  0  0  0  0  0  # atno 11005 bound_to 11000
  146.3284  140.2985  142.8619 LP  0  0  0  0  0  0  0  0  0  0  0  0  # atno 17320 bound_to 7965
  144.9447  140.8115  143.5609 LP  0  0  0  0  0  0  0  0  0  0  0  0  # atno 17321 bound_to 7965
  139.9102  144.6861  150.8570 LP  0  0  0  0  0  0  0  0  0  0  0  0  # atno 17342 bound_to 10162
  140.7710  143.3449  151.2132 LP  0  0  0  0  0  0  0  0  0  0  0  0  # atno 17343 bound_to 10162
  157.7086  130.9413  150.1012 LP  0  0  0  0  0  0  0  0  0  0  0  0  # atno 17370 bound_to 10713
  156.1958  130.3657  149.8851 LP  0  0  0  0  0  0  0  0  0  0  0  0  # atno 17371 bound_to 10713
  139.9823  134.7117  155.9837 LP  0  0  0  0  0  0  0  0  0  0  0  0  # atno 17394 bound_to 11000
  141.1528  133.6546  156.4067 LP  0  0  0  0  0  0  0  0  0  0  0  0  # atno 17395 bound_to 11000

$$$$
