AV-unprocessed.smi:1543|AV-procd|sdf|6206|dock6
  -GOLD-   22720 6373D 1   1.00000     0.00000
 Structure written by MMmdl.
 48 49  0  0  0  0  0  0  0  0  1 V2000
  142.5852  135.0200  152.7630 C   0  0  0  0  0  0  0  0  0  0  0  0
  143.9989  134.6809  152.2789 C   0  0  1  0  0  0  0  0  0  0  0  0
  144.9041  134.1904  153.4241 C   0  0  0  0  0  0  0  0  0  0  0  0
  146.2368  133.8051  152.9476 N   0  0  0  0  0  0  0  0  0  0  0  0
  147.2056  133.4427  154.0208 C   0  0  0  0  0  0  0  0  0  0  0  0
  146.8051  132.1606  154.7902 C   0  0  0  0  0  0  0  0  0  0  0  0
  148.6197  133.1989  153.4346 C   0  0  0  0  0  0  0  0  0  0  0  0
  147.3530  134.5806  155.0743 C   0  0  0  0  0  0  0  0  0  0  0  0
  147.9501  135.7961  154.5209 N   0  0  0  0  0  0  0  0  0  0  0  0
  148.2579  136.9042  155.2091 C   0  0  0  0  0  0  0  0  0  0  0  0
  148.0646  137.0312  156.4178 O   0  0  0  0  0  0  0  0  0  0  0  0
  148.8173  137.8275  154.4084 N   0  0  0  0  0  0  0  0  0  0  0  0
  149.2696  139.1345  154.7362 C   0  0  0  0  0  0  0  0  0  0  0  0
  149.8779  139.4875  155.9656 C   0  0  0  0  0  0  0  0  0  0  0  0
  150.2645  140.8259  156.1726 C   0  0  0  0  0  0  0  0  0  0  0  0
  150.0241  141.7622  155.1484 C   0  0  0  0  0  0  0  0  0  0  0  0
  149.4351  141.4425  153.9771 N   0  0  0  0  0  0  0  0  0  0  0  0
  149.0667  140.1578  153.7858 C   0  0  0  0  0  0  0  0  0  0  0  0
  146.0809  132.7989  151.8913 C   0  0  0  0  0  0  0  0  0  0  0  0
  145.1654  133.2859  150.7521 C   0  0  1  0  0  0  0  0  0  0  0  0
  144.9340  132.2029  149.6929 C   0  0  0  0  0  0  0  0  0  0  0  0
  143.9023  133.6596  151.2922 O   0  0  0  0  0  0  0  0  0  0  0  0
  142.6071  135.8108  153.5132 H   0  0  0  0  0  0  0  0  0  0  0  0
  142.1008  134.1501  153.2071 H   0  0  0  0  0  0  0  0  0  0  0  0
  141.9624  135.3631  151.9365 H   0  0  0  0  0  0  0  0  0  0  0  0
  144.4354  135.5723  151.8251 H   0  0  0  0  0  0  0  0  0  0  0  0
  144.9712  134.9907  154.1584 H   0  0  0  0  0  0  0  0  0  0  0  0
  144.4236  133.3462  153.9191 H   0  0  0  0  0  0  0  0  0  0  0  0
  147.5383  131.9238  155.5621 H   0  0  0  0  0  0  0  0  0  0  0  0
  146.7456  131.2891  154.1386 H   0  0  0  0  0  0  0  0  0  0  0  0
  145.8439  132.2651  155.2929 H   0  0  0  0  0  0  0  0  0  0  0  0
  149.3697  133.1124  154.2215 H   0  0  0  0  0  0  0  0  0  0  0  0
  148.9304  134.0128  152.7785 H   0  0  0  0  0  0  0  0  0  0  0  0
  148.6760  132.2746  152.8599 H   0  0  0  0  0  0  0  0  0  0  0  0
  146.3843  134.8504  155.4942 H   0  0  0  0  0  0  0  0  0  0  0  0
  147.9278  134.2278  155.9326 H   0  0  0  0  0  0  0  0  0  0  0  0
  148.1603  135.7809  153.5337 H   0  0  0  0  0  0  0  0  0  0  0  0
  148.9817  137.5422  153.4541 H   0  0  0  0  0  0  0  0  0  0  0  0
  150.0433  138.7708  156.7545 H   0  0  0  0  0  0  0  0  0  0  0  0
  150.7315  141.1289  157.0979 H   0  0  0  0  0  0  0  0  0  0  0  0
  150.3074  142.7965  155.2757 H   0  0  0  0  0  0  0  0  0  0  0  0
  148.5964  139.9396  152.8379 H   0  0  0  0  0  0  0  0  0  0  0  0
  147.0449  132.5441  151.4545 H   0  0  0  0  0  0  0  0  0  0  0  0
  145.6686  131.8793  152.3072 H   0  0  0  0  0  0  0  0  0  0  0  0
  145.6149  134.1558  150.2700 H   0  0  0  0  0  0  0  0  0  0  0  0
  145.8745  131.8906  149.2384 H   0  0  0  0  0  0  0  0  0  0  0  0
  144.2857  132.5694  148.8966 H   0  0  0  0  0  0  0  0  0  0  0  0
  144.4626  131.3205  150.1269 H   0  0  0  0  0  0  0  0  0  0  0  0
  1  2  1  0  0  0  0
  1 23  1  0  0  0  0
  1 24  1  0  0  0  0
  1 25  1  0  0  0  0
  2 22  1  0  0  0  0
  2  3  1  0  0  0  0
  2 26  1  0  0  0  0
  3  4  1  0  0  0  0
  3 27  1  0  0  0  0
  3 28  1  0  0  0  0
  4  5  1  0  0  0  0
  4 19  1  0  0  0  0
  5  6  1  0  0  0  0
  5  7  1  0  0  0  0
  5  8  1  0  0  0  0
  6 29  1  0  0  0  0
  6 30  1  0  0  0  0
  6 31  1  0  0  0  0
  7 32  1  0  0  0  0
  7 33  1  0  0  0  0
  7 34  1  0  0  0  0
  8  9  1  0  0  0  0
  8 35  1  0  0  0  0
  8 36  1  0  0  0  0
  9 10  1  0  0  0  0
  9 37  1  0  0  0  0
 10 11  2  0  0  0  0
 10 12  1  0  0  0  0
 12 13  1  0  0  0  0
 12 38  1  0  0  0  0
 13 18  1  0  0  0  0
 13 14  2  0  0  0  0
 14 15  1  0  0  0  0
 14 39  1  0  0  0  0
 15 16  2  0  0  0  0
 15 40  1  0  0  0  0
 16 17  1  0  0  0  0
 16 41  1  0  0  0  0
 17 18  2  0  0  0  0
 18 42  1  0  0  0  0
 19 20  1  0  0  0  0
 19 43  1  0  0  0  0
 19 44  1  0  0  0  0
 20 21  1  0  0  0  0
 20 22  1  0  0  0  0
 20 45  1  0  0  0  0
 21 46  1  0  0  0  0
 21 47  1  0  0  0  0
 21 48  1  0  0  0  0
M  END
> <s_m_source_file>
AV-unprocessed.smi

> <i_m_source_file_index>
1543

> <i_lp_mmshare_version>
43012

> <i_f3d_flags>
0

> <s_epik_input>
W0NIM11bQ0BASF0xW0NIMl1OKFtDSDJdW0NASF0oTzEpW0NIM10pQyhbQ0gzXSkoW0NIM10pW0NIMl1bTkhdQyg9TylbTkhdYzJbY0hdW2NIXVtjSF1uW2NIXTI=

> <s_epik_cmdline>
J2VwaWtfcHl0aG9uJywgJy1waCcsICc3LjAnLCAnLXRuJywgJzgnLCAnLW1hJywgJzIwMCcsICctbWV0YWxfYmluZGluZycsICctaW1hZScsICc8aW5maWxlLm1hZT4nLCAnLW9tYWUnLCAnPG91dGZpbGUubWFlPic=

> <r_epik_Ionization_Penalty>
0.270794

> <r_epik_Ionization_Penalty_Charging>
0

> <r_epik_Ionization_Penalty_Neutral>
0.270794

> <r_epik_State_Penalty>
0.268291

> <r_epik_Charging_Adjusted_Penalty>
0.268291

> <i_epik_Tot_Q>
0

> <i_epik_Tot_abs_Q>
0

> <r_epik_Metal_State_Penalty>
0.264827

> <b_epik_Metal_Only>
0

> <s_lp_Force_Field>
OPLS_2005

> <r_lp_Energy>
43.3582

> <b_lp_Chiralities_Consistent>
1

> <s_lp_Variant>
AV-unprocessed.smi:1543-2

> <Gold.Version>
5.8.1

> <Gold.Id.Protein>
6NUR|6NUR_protein|mol2

> <Gold.PLP.Fitness>
42.4349

> <Gold.PLP.PLP>
-29.6109

> <Gold.PLP.part.hbond>
-4.0000

> <Gold.PLP.part.metal>
0.0000

> <Gold.PLP.part.buried>
-1.0961

> <Gold.PLP.part.nonpolar>
-23.5335

> <Gold.PLP.part.repulsive>
0.4660

> <Gold.PLP.ligand.clash>
0.0000

> <Gold.PLP.ligand.torsion>
0.3346

> <Gold.PLP.Chemscore.Hbond>
2.6434

> <Gold.PLP.Chemscore.CHOScore>
1.8324

> <Gold.PLP.Chemscore.Metal>
0.0000

> <Gold.Chemscore.Hbonds>
donor molecule, donor type, donor heavy atom, donor atom, acceptor molecule, acceptor atom, score
      L1  H     9    37       P1  7948  1.00
      L1  H    12    38       P1  7948  0.98
      P1  H  8011  8017       L1    17  0.72
      L1  C    16    41       P1  8028  0.98
      L1  C    18    42       P1  7957  0.68

> <Gold.PLP.Chemscore.Internal.Correction>
0.0659

> <Gold.Rescore>
     Score         DG    S(hbond)    S(metal)    S(lipo)     H(rot)  DE(clash)    DE(int)     intcor
     18.76     -20.56       2.62        0.00      85.41       1.43       1.44       0.37       ----

> <Gold.Chemscore.Fitness>
18.7581

> <Gold.Chemscore.DG>
-20.5625

> <Gold.Chemscore.ZeroCoef>
-5.4800

> <Gold.Chemscore.Hbond>
2.6191

> <Gold.Chemscore.Metal>
0.0000

> <Gold.Chemscore.Lipo>
85.4129

> <Gold.Chemscore.Internal_Hbond>
0.0000

> <Gold.Chemscore.DEClash>
1.4376

> <Gold.Chemscore.DEInternal>
0.3668

> <Gold.Chemscore.Rot>
1.4291

> <Gold.Chemscore.Internal.Correction>
   9.000000E+99

> <Gold.Chemscore.Hbonds>
donor molecule, donor type, donor heavy atom, donor atom, acceptor molecule, acceptor atom, score
      L1  H     9    37       P1  7948  1.00
      L1  H    12    38       P1  7948  0.90
      P1  H  8011  8017       L1    17  0.62

> <Gold.Chemscore.Hbond.Weighted>
-8.7477

> <Gold.Chemscore.Metal.Weighted>
-0.0000

> <Gold.Chemscore.Lipo.Weighted>
-9.9933

> <Gold.Chemscore.Internal_Hbond.Weighted>
0.0000

> <Gold.Chemscore.DEClash.Weighted>
1.4376

> <Gold.Chemscore.DEInternal.Weighted>
0.3668

> <Gold.Chemscore.Rot.Weighted>
3.6586

> <Gold.Chemscore.Internal.Correction.Weighted>
   9.000000E+99

> <Gold.Protein.RotatedTorsions>
[ 6907 6896 6895 6894 ] final   81.45 input  -60.11 | X-H torsion
[ 7974 7965 7964 7962 ] final  130.27 input  175.53 | X-H torsion
[ 8008 7997 7996 7995 ] final   19.10 input   59.86 | X-H torsion
[ 10167 10162 10161 10158 ] final   39.71 input  -65.29 | X-H torsion
[ 10718 10713 10712 10709 ] final    0.18 input   66.30 | X-H torsion
[ 10763 10752 10751 10750 ] final  -77.86 input  -60.55 | X-H torsion
[ 11005 11000 10999 10996 ] final  -28.34 input  -57.11 | X-H torsion

> <Gold.Protein.ActiveResidues>
 VAL166  LYS551  ARG553  GLY616  TRP617  ASP618  TYR619  PRO620  LYS621  CYS622 
 ASP623  PHE694  ASN695  SER759  ASP760  ASP761  ALA762  ILE779  LEU786  VAL792 
 PHE793  MET794  SER795  GLU796  ALA797  LYS798  CYS799  TRP800  GLU811  SER814 

> <Gold.Protein.RotatedAtoms>
  152.5269  134.3202  159.9145 H   0  0  0  0  0  0  0  0  0  0  0  0  # atno 6907 bound_to 6896
  151.3151  133.4057  159.2657 H   0  0  0  0  0  0  0  0  0  0  0  0  # atno 6908 bound_to 6896
  151.0006  134.9335  159.8009 H   0  0  0  0  0  0  0  0  0  0  0  0  # atno 6909 bound_to 6896
  145.0197  139.4143  143.5203 H   0  0  0  0  0  0  0  0  0  0  0  0  # atno 7974 bound_to 7965
  154.9158  140.3020  155.5242 H   0  0  0  0  0  0  0  0  0  0  0  0  # atno 8008 bound_to 7997
  156.3012  140.2380  156.4138 H   0  0  0  0  0  0  0  0  0  0  0  0  # atno 8009 bound_to 7997
  154.8380  140.0415  157.1511 H   0  0  0  0  0  0  0  0  0  0  0  0  # atno 8010 bound_to 7997
  140.3813  144.1976  150.6130 H   0  0  0  0  0  0  0  0  0  0  0  0  # atno 10167 bound_to 10162
  156.8295  130.5484  149.5688 H   0  0  0  0  0  0  0  0  0  0  0  0  # atno 10718 bound_to 10713
  154.5184  135.5749  153.6661 H   0  0  0  0  0  0  0  0  0  0  0  0  # atno 10763 bound_to 10752
  152.9912  135.6175  154.2787 H   0  0  0  0  0  0  0  0  0  0  0  0  # atno 10764 bound_to 10752
  154.2706  135.2853  155.2719 H   0  0  0  0  0  0  0  0  0  0  0  0  # atno 10765 bound_to 10752
  140.9200  133.7405  156.0788 H   0  0  0  0  0  0  0  0  0  0  0  0  # atno 11005 bound_to 11000
  146.3483  139.9688  142.8708 LP  0  0  0  0  0  0  0  0  0  0  0  0  # atno 17320 bound_to 7965
  145.1912  140.9812  143.4210 LP  0  0  0  0  0  0  0  0  0  0  0  0  # atno 17321 bound_to 7965
  140.4934  143.2340  151.8784 LP  0  0  0  0  0  0  0  0  0  0  0  0  # atno 17342 bound_to 10162
  139.4795  144.5140  151.8893 LP  0  0  0  0  0  0  0  0  0  0  0  0  # atno 17343 bound_to 10162
  156.0942  130.5919  150.9785 LP  0  0  0  0  0  0  0  0  0  0  0  0  # atno 17370 bound_to 10713
  157.6414  131.0910  150.8243 LP  0  0  0  0  0  0  0  0  0  0  0  0  # atno 17371 bound_to 10713
  140.8000  134.3520  157.5442 LP  0  0  0  0  0  0  0  0  0  0  0  0  # atno 17394 bound_to 11000
  139.8773  134.9192  156.3221 LP  0  0  0  0  0  0  0  0  0  0  0  0  # atno 17395 bound_to 11000

$$$$
