AV-unprocessed.smi:99|AV-procd|sdf|881|dock8
  -GOLD-   2262017353D 1   1.00000     0.00000
 Structure written by MMmdl.
 52 55  0  0  0  0  0  0  0  0  2 V2000
  144.5936  144.2315  154.3499 O   0  0  0  0  0  0  0  0  0  0  0  0
  145.1339  143.8499  155.3896 C   0  0  0  0  0  0  0  0  0  0  0  0
  145.8177  142.6948  155.4966 O   0  0  0  0  0  0  0  0  0  0  0  0
  146.1948  141.9669  154.3392 C   0  0  0  0  0  0  0  0  0  0  0  0
  147.3441  141.0198  154.7062 C   0  0  2  0  0  0  0  0  0  0  0  0
  148.5690  141.7419  154.7723 O   0  0  0  0  0  0  0  0  0  0  0  0
  149.6495  140.8768  154.5498 C   0  0  1  0  0  0  0  0  0  0  0  0
  150.4540  140.7384  155.8282 N   0  0  0  0  0  0  0  0  0  0  0  0
  150.0427  141.3315  157.0108 C   0  0  0  0  0  0  0  0  0  0  0  0
  150.7604  141.2044  158.1459 C   0  0  0  0  0  0  0  0  0  0  0  0
  151.9963  140.4270  158.1303 C   0  0  0  0  0  0  0  0  0  0  0  0
  152.6462  140.3218  159.1686 O   0  0  0  0  0  0  0  0  0  0  0  0
  152.3760  139.8475  156.9549 N   0  5  0  0  0  0  0  0  0  0  0  0
  151.6497  139.9705  155.8057 C   0  0  0  0  0  0  0  0  0  0  0  0
  151.9753  139.4431  154.7416 O   0  0  0  0  0  0  0  0  0  0  0  0
  149.0693  139.5321  154.0468 C   0  0  1  0  0  0  0  0  0  0  0  0
  149.0493  138.5276  155.0508 O   0  0  0  0  0  0  0  0  0  0  0  0
  147.6615  139.9563  153.6563 C   0  0  1  0  0  0  0  0  0  0  0  0
  146.7566  138.8551  153.6274 O   0  0  0  0  0  0  0  0  0  0  0  0
  146.3833  138.2828  152.4619 C   0  0  0  0  0  0  0  0  0  0  0  0
  146.8340  138.6066  151.3615 O   0  0  0  0  0  0  0  0  0  0  0  0
  145.3285  137.2452  152.6415 C   0  0  0  0  0  0  0  0  0  0  0  0
  145.2846  136.1425  151.7568 C   0  0  0  0  0  0  0  0  0  0  0  0
  144.2826  135.1612  151.8841 C   0  0  0  0  0  0  0  0  0  0  0  0
  143.3156  135.2682  152.9002 C   0  0  0  0  0  0  0  0  0  0  0  0
  143.3524  136.3573  153.7902 C   0  0  0  0  0  0  0  0  0  0  0  0
  144.3517  137.3417  153.6627 C   0  0  0  0  0  0  0  0  0  0  0  0
  145.0790  144.6047  156.6749 C   0  0  0  0  0  0  0  0  0  0  0  0
  145.7182  144.0745  157.8196 C   0  0  0  0  0  0  0  0  0  0  0  0
  145.7036  144.7780  159.0396 C   0  0  0  0  0  0  0  0  0  0  0  0
  145.0484  146.0199  159.1304 C   0  0  0  0  0  0  0  0  0  0  0  0
  144.4048  146.5560  158.0004 C   0  0  0  0  0  0  0  0  0  0  0  0
  144.4171  145.8531  156.7803 C   0  0  0  0  0  0  0  0  0  0  0  0
  145.3563  141.3966  153.9364 H   0  0  0  0  0  0  0  0  0  0  0  0
  146.5147  142.6713  153.5707 H   0  0  0  0  0  0  0  0  0  0  0  0
  147.1604  140.5569  155.6775 H   0  0  0  0  0  0  0  0  0  0  0  0
  150.3111  141.3606  153.8295 H   0  0  0  0  0  0  0  0  0  0  0  0
  149.1314  141.9080  157.0438 H   0  0  0  0  0  0  0  0  0  0  0  0
  150.4246  141.6729  159.0594 H   0  0  0  0  0  0  0  0  0  0  0  0
  149.6414  139.1716  153.1916 H   0  0  0  0  0  0  0  0  0  0  0  0
  148.7372  137.7244  154.6635 H   0  0  0  0  0  0  0  0  0  0  0  0
  147.7254  140.4401  152.6804 H   0  0  0  0  0  0  0  0  0  0  0  0
  146.0115  136.0436  150.9636 H   0  0  0  0  0  0  0  0  0  0  0  0
  144.2547  134.3271  151.1987 H   0  0  0  0  0  0  0  0  0  0  0  0
  142.5465  134.5163  152.9967 H   0  0  0  0  0  0  0  0  0  0  0  0
  142.6111  136.4403  154.5710 H   0  0  0  0  0  0  0  0  0  0  0  0
  144.3495  138.1671  154.3595 H   0  0  0  0  0  0  0  0  0  0  0  0
  146.2327  143.1255  157.7723 H   0  0  0  0  0  0  0  0  0  0  0  0
  146.1984  144.3648  159.9062 H   0  0  0  0  0  0  0  0  0  0  0  0
  145.0404  146.5608  160.0652 H   0  0  0  0  0  0  0  0  0  0  0  0
  143.9055  147.5113  158.0664 H   0  0  0  0  0  0  0  0  0  0  0  0
  143.9199  146.2982  155.9309 H   0  0  0  0  0  0  0  0  0  0  0  0
  1  2  2  0  0  0  0
  2  3  1  0  0  0  0
  2 28  1  0  0  0  0
  3  4  1  0  0  0  0
  4  5  1  0  0  0  0
  4 34  1  0  0  0  0
  4 35  1  0  0  0  0
  5 18  1  0  0  0  0
  5  6  1  0  0  0  0
  5 36  1  0  0  0  0
  6  7  1  0  0  0  0
  7  8  1  0  0  0  0
  7 16  1  0  0  0  0
  7 37  1  0  0  0  0
  8 14  1  0  0  0  0
  8  9  1  0  0  0  0
  9 10  2  0  0  0  0
  9 38  1  0  0  0  0
 10 11  1  0  0  0  0
 10 39  1  0  0  0  0
 11 12  2  0  0  0  0
 11 13  1  0  0  0  0
 13 14  1  0  0  0  0
 14 15  2  0  0  0  0
 16 17  1  0  0  0  0
 16 18  1  0  0  0  0
 16 40  1  0  0  0  0
 17 41  1  0  0  0  0
 18 19  1  0  0  0  0
 18 42  1  0  0  0  0
 19 20  1  0  0  0  0
 20 21  2  0  0  0  0
 20 22  1  0  0  0  0
 22 27  1  0  0  0  0
 22 23  2  0  0  0  0
 23 24  1  0  0  0  0
 23 43  1  0  0  0  0
 24 25  2  0  0  0  0
 24 44  1  0  0  0  0
 25 26  1  0  0  0  0
 25 45  1  0  0  0  0
 26 27  2  0  0  0  0
 26 46  1  0  0  0  0
 27 47  1  0  0  0  0
 28 33  1  0  0  0  0
 28 29  2  0  0  0  0
 29 30  1  0  0  0  0
 29 48  1  0  0  0  0
 30 31  2  0  0  0  0
 30 49  1  0  0  0  0
 31 32  1  0  0  0  0
 31 50  1  0  0  0  0
 32 33  2  0  0  0  0
 32 51  1  0  0  0  0
 33 52  1  0  0  0  0
M  CHG  1  13  -1
M  END
> <s_m_source_file>
AV-unprocessed.smi

> <i_m_source_file_index>
99

> <i_lp_mmshare_version>
43012

> <i_f3d_flags>
0

> <s_epik_input>
W2NIXTFbY0hdW2NIXVtjSF1bY0hdYzFDKD1PKU9bQ0gyXVtDQEBIXTJPW0NAQEhdKG4zW2NIXVtjSF1jKD1PKVtuSF1jMz1PKVtDQEBIXShbT0hdKVtDQEhdMk9DKD1PKWM0W2NIXVtjSF1bY0hdW2NIXVtjSF00

> <s_epik_cmdline>
J2VwaWtfcHl0aG9uJywgJy1waCcsICc3LjAnLCAnLXRuJywgJzgnLCAnLW1hJywgJzIwMCcsICctbWV0YWxfYmluZGluZycsICctaW1hZScsICc8aW5maWxlLm1hZT4nLCAnLW9tYWUnLCAnPG91dGZpbGUubWFlPic=

> <r_lp_tautomer_probability>
1

> <r_epik_Ionization_Penalty>
2.89159

> <r_epik_Ionization_Penalty_Charging>
2.1077e-08

> <r_epik_Ionization_Penalty_Neutral>
2.89159

> <r_epik_State_Penalty>
2.88671

> <r_epik_Charging_Adjusted_Penalty>
2.88671

> <i_epik_Tot_Q>
-1

> <i_epik_Tot_abs_Q>
1

> <r_epik_Metal_State_Penalty>
0.0727308

> <b_epik_Metal_Only>
1

> <s_epik_Chemistry_Notes>
This compound has an ester and may undergo hydrolysis at high or low pH. This compound contains an acetal/aminal-like group ( X-CH(R)-Y where X, Y are N, S, or O) that may be acid/base labile, releasing an aldehyde.

> <s_lp_Force_Field>
OPLS_2005

> <r_lp_Energy>
51.3472

> <b_lp_Chiralities_Consistent>
1

> <s_lp_Variant>
AV-unprocessed.smi:99-17

> <Gold.Version>
5.8.1

> <Gold.Id.Protein>
6NUR|6NUR_protein|mol2

> <Gold.PLP.Fitness>
55.5087

> <Gold.PLP.PLP>
-46.4988

> <Gold.PLP.part.hbond>
-3.0000

> <Gold.PLP.part.metal>
0.0000

> <Gold.PLP.part.buried>
-3.7443

> <Gold.PLP.part.nonpolar>
-41.9497

> <Gold.PLP.part.repulsive>
3.0507

> <Gold.PLP.ligand.clash>
0.0000

> <Gold.PLP.ligand.torsion>
1.4123

> <Gold.PLP.Chemscore.Hbond>
3.8560

> <Gold.PLP.Chemscore.CHOScore>
0.0000

> <Gold.PLP.Chemscore.Metal>
0.0000

> <Gold.Chemscore.Hbonds>
donor molecule, donor type, donor heavy atom, donor atom, acceptor molecule, acceptor atom, score
      P1  H  7954  7966       L1    21  0.80
      P1  H  7989  7998       L1    15  0.93
      P1  H  7997  8009       L1    13  1.89

> <Gold.PLP.Chemscore.Internal.Correction>
0.2666

> <Gold.Rescore>
     Score         DG    S(hbond)    S(metal)    S(lipo)     H(rot)  DE(clash)    DE(int)     intcor
     11.71     -13.69       2.38        0.00      70.84       3.13       0.15       1.83       ----

> <Gold.Chemscore.Fitness>
11.7079

> <Gold.Chemscore.DG>
-13.6872

> <Gold.Chemscore.ZeroCoef>
-5.4800

> <Gold.Chemscore.Hbond>
2.3781

> <Gold.Chemscore.Metal>
0.0000

> <Gold.Chemscore.Lipo>
70.8443

> <Gold.Chemscore.Internal_Hbond>
0.0000

> <Gold.Chemscore.DEClash>
0.1472

> <Gold.Chemscore.DEInternal>
1.8322

> <Gold.Chemscore.Rot>
3.1346

> <Gold.Chemscore.Internal.Correction>
   9.000000E+99

> <Gold.Chemscore.Hbonds>
donor molecule, donor type, donor heavy atom, donor atom, acceptor molecule, acceptor atom, score
      P1  H  7954  7966       L1    21  0.77
      P1  H  7989  7998       L1    15  0.31
      P1  H  7997  8009       L1    13  0.57

> <Gold.Chemscore.Hbond.Weighted>
-7.9430

> <Gold.Chemscore.Metal.Weighted>
-0.0000

> <Gold.Chemscore.Lipo.Weighted>
-8.2888

> <Gold.Chemscore.Internal_Hbond.Weighted>
0.0000

> <Gold.Chemscore.DEClash.Weighted>
0.1472

> <Gold.Chemscore.DEInternal.Weighted>
1.8322

> <Gold.Chemscore.Rot.Weighted>
8.0246

> <Gold.Chemscore.Internal.Correction.Weighted>
   9.000000E+99

> <Gold.Protein.RotatedTorsions>
[ 6907 6896 6895 6894 ] final   65.32 input  -60.11 | X-H torsion
[ 7974 7965 7964 7962 ] final  -55.32 input  175.53 | X-H torsion
[ 8008 7997 7996 7995 ] final  174.48 input   59.86 | X-H torsion
[ 10167 10162 10161 10158 ] final  -74.37 input  -65.29 | X-H torsion
[ 10718 10713 10712 10709 ] final   -5.69 input   66.30 | X-H torsion
[ 10763 10752 10751 10750 ] final -169.74 input  -60.55 | X-H torsion
[ 11005 11000 10999 10996 ] final  120.07 input  -57.11 | X-H torsion

> <Gold.Protein.ActiveResidues>
 VAL166  LYS551  ARG553  GLY616  TRP617  ASP618  TYR619  PRO620  LYS621  CYS622 
 ASP623  PHE694  ASN695  SER759  ASP760  ASP761  ALA762  ILE779  LEU786  VAL792 
 PHE793  MET794  SER795  GLU796  ALA797  LYS798  CYS799  TRP800  GLU811  SER814 

> <Gold.Protein.RotatedAtoms>
  152.4398  134.5613  159.9894 H   0  0  0  0  0  0  0  0  0  0  0  0  # atno 6907 bound_to 6896
  151.5714  133.3384  159.2998 H   0  0  0  0  0  0  0  0  0  0  0  0  # atno 6908 bound_to 6896
  150.8302  134.7586  159.6911 H   0  0  0  0  0  0  0  0  0  0  0  0  # atno 6909 bound_to 6896
  145.8755  140.8184  142.9866 H   0  0  0  0  0  0  0  0  0  0  0  0  # atno 7974 bound_to 7965
  156.0969  140.1433  156.9518 H   0  0  0  0  0  0  0  0  0  0  0  0  # atno 8008 bound_to 7997
  154.4677  140.0920  156.7110 H   0  0  0  0  0  0  0  0  0  0  0  0  # atno 8009 bound_to 7997
  155.4825  140.3445  155.4344 H   0  0  0  0  0  0  0  0  0  0  0  0  # atno 8010 bound_to 7997
  140.5033  143.2357  151.7716 H   0  0  0  0  0  0  0  0  0  0  0  0  # atno 10167 bound_to 10162
  156.7429  130.5215  149.5820 H   0  0  0  0  0  0  0  0  0  0  0  0  # atno 10718 bound_to 10713
  154.6491  135.2909  155.0009 H   0  0  0  0  0  0  0  0  0  0  0  0  # atno 10763 bound_to 10752
  154.1109  135.6562  153.4889 H   0  0  0  0  0  0  0  0  0  0  0  0  # atno 10764 bound_to 10752
  153.0367  135.5265  154.7391 H   0  0  0  0  0  0  0  0  0  0  0  0  # atno 10765 bound_to 10752
  139.9171  134.9632  156.7751 H   0  0  0  0  0  0  0  0  0  0  0  0  # atno 11005 bound_to 11000
  144.6726  140.1303  143.7444 LP  0  0  0  0  0  0  0  0  0  0  0  0  # atno 17320 bound_to 7965
  145.9086  139.2473  143.1451 LP  0  0  0  0  0  0  0  0  0  0  0  0  # atno 17321 bound_to 7965
  139.4877  144.4492  151.9674 LP  0  0  0  0  0  0  0  0  0  0  0  0  # atno 17342 bound_to 10162
  140.3582  144.3006  150.5938 LP  0  0  0  0  0  0  0  0  0  0  0  0  # atno 17343 bound_to 10162
  156.1453  130.6272  151.0522 LP  0  0  0  0  0  0  0  0  0  0  0  0  # atno 17370 bound_to 10713
  157.6811  131.0838  150.7368 LP  0  0  0  0  0  0  0  0  0  0  0  0  # atno 17371 bound_to 10713
  140.6590  133.9663  155.7794 LP  0  0  0  0  0  0  0  0  0  0  0  0  # atno 17394 bound_to 11000
  141.0657  134.0281  157.3598 LP  0  0  0  0  0  0  0  0  0  0  0  0  # atno 17395 bound_to 11000

$$$$
