#       Name:                AV-unprocessed.smi:249
#       Creating user name   scv26
#       Creation time:       Thu Mar 26 20:57:56 2020


#       File generated by GOLD software.
#

@<TRIPOS>MOLECULE
AV-unprocessed.smi:249
    72    75     1
SMALL
NO_CHARGES


@<TRIPOS>ATOM
      1 ****        -3.9369  -3.9559   3.1976 C.3            1 S1                 0.0000
      2 ****        -4.1815  -3.4415   1.7695 C.3            1 S1                 0.0000
      3 ****        -3.5289  -2.1291   1.4895 N.4            1 S1                 1.0000
      4 ****        -4.1067  -1.0360   2.3237 C.3            1 S1                 0.0000
      5 ****        -3.3595   0.2913   2.1396 C.3            1 S1                 0.0000
      6 ****        -3.3715   0.7185   0.6632 C.3            1 S1                 0.0000
      7 ****        -2.7486   2.0280   0.4278 N.3            1 S1                 0.0000
      8 ****        -3.4469   3.2000   0.9439 C.3            1 S1                 0.0000
      9 ****        -1.4009   2.1088   0.5380 C.ar           1 S1                 0.0000
     10 ****        -0.8336   2.3430   1.7508 N.ar           1 S1                 0.0000
     11 ****         0.4960   2.4221   1.8634 C.ar           1 S1                 0.0000
     12 ****         1.4231   2.3025   0.9104 N.ar           1 S1                 0.0000
     13 ****         0.8540   2.0774  -0.3084 C.ar           1 S1                 0.0000
     14 ****        -0.5377   1.9677  -0.5813 C.ar           1 S1                 0.0000
     15 ****        -0.7415   1.7399  -1.9366 N.2            1 S1                 0.0000
     16 ****         0.4638   1.7186  -2.4385 C.2            1 S1                 0.0000
     17 ****         1.4805   1.9072  -1.5292 N.pl3          1 S1                 0.0000
     18 ****         2.9058   1.9317  -1.8053 C.3            1 S1                 0.0000
     19 ****         3.6331   0.6356  -1.3699 C.3            1 S1                 0.0000
     20 ****         2.9870  -0.6381  -1.9666 C.3            1 S1                 0.0000
     21 ****         3.0552  -0.6396  -3.3779 O.3            1 S1                 0.0000
     22 ****         5.1545   0.7185  -1.6521 C.3            1 S1                 0.0000
     23 ****         5.9657  -0.4664  -1.1575 C.3            1 S1                 0.0000
     24 ****         7.3805   0.1002  -1.1395 C.3            1 S1                 0.0000
     25 ****         7.2355   1.4738  -0.7996 O.3            1 S1                 0.0000
     26 ****         5.8729   1.8671  -0.9341 C.3            1 S1                 0.0000
     27 ****        -2.7651  -0.4199  -0.1762 C.3            1 S1                 0.0000
     28 ****        -3.5089  -1.7564   0.0365 C.3            1 S1                 0.0000
     29 ****        -2.8561  -2.8282  -0.8615 C.3            1 S1                 0.0000
     30 ****        -4.2992  -4.9792   3.2990 H              1 S1                 0.0000
     31 ****        -4.4573  -3.3646   3.9501 H              1 S1                 0.0000
     32 ****        -2.8737  -3.9592   3.4398 H              1 S1                 0.0000
     33 ****        -3.7866  -4.2106   1.1101 H              1 S1                 0.0000
     34 ****        -5.2512  -3.3766   1.5652 H              1 S1                 0.0000
     35 ****        -5.1618  -0.9079   2.0761 H              1 S1                 0.0000
     36 ****        -4.0616  -1.2919   3.3808 H              1 S1                 0.0000
     37 ****        -3.8262   1.0544   2.7628 H              1 S1                 0.0000
     38 ****        -2.3359   0.1789   2.4986 H              1 S1                 0.0000
     39 ****        -4.4132   0.8261   0.3568 H              1 S1                 0.0000
     40 ****        -3.0188   4.1151   0.5326 H              1 S1                 0.0000
     41 ****        -3.3874   3.2536   2.0313 H              1 S1                 0.0000
     42 ****        -4.4997   3.1698   0.6626 H              1 S1                 0.0000
     43 ****         0.8712   2.6092   2.8589 H              1 S1                 0.0000
     44 ****         0.6468   1.5583  -3.4913 H              1 S1                 0.0000
     45 ****         3.0492   2.1068  -2.8723 H              1 S1                 0.0000
     46 ****         3.3243   2.7985  -1.2935 H              1 S1                 0.0000
     47 ****         3.5154   0.5557  -0.2882 H              1 S1                 0.0000
     48 ****         3.4780  -1.5356  -1.5914 H              1 S1                 0.0000
     49 ****         1.9425  -0.7235  -1.6665 H              1 S1                 0.0000
     50 ****         2.6671  -1.4401  -3.6972 H              1 S1                 0.0000
     51 ****         5.3223   0.8247  -2.7252 H              1 S1                 0.0000
     52 ****         5.6610  -0.7445  -0.1475 H              1 S1                 0.0000
     53 ****         5.8791  -1.3455  -1.7966 H              1 S1                 0.0000
     54 ****         8.0317  -0.4201  -0.4371 H              1 S1                 0.0000
     55 ****         7.8283   0.0336  -2.1316 H              1 S1                 0.0000
     56 ****         5.7914   2.8106  -1.4745 H              1 S1                 0.0000
     57 ****         5.4639   2.0166   0.0662 H              1 S1                 0.0000
     58 ****        -2.8024  -0.1458  -1.2312 H              1 S1                 0.0000
     59 ****        -1.7117  -0.5570   0.0729 H              1 S1                 0.0000
     60 ****        -4.5420  -1.6272  -0.2907 H              1 S1                 0.0000
     61 ****        -2.7181  -2.4529  -1.8761 H              1 S1                 0.0000
     62 ****        -3.4698  -3.7233  -0.9562 H              1 S1                 0.0000
     63 ****        -1.8752  -3.1212  -0.4856 H              1 S1                 0.0000
     64 ****        -2.5630  -2.2266   1.7685 H              1 S1                 0.0000
     65 ****        -2.9014   2.0748  -0.5593 LP             1 S1                 0.0000
     66 ****        -1.4112   2.4562   2.5592 LP             1 S1                 0.0000
     67 ****         2.4081   2.3694   1.0697 LP             1 S1                 0.0000
     68 ****        -1.6104   1.6200  -2.4168 LP             1 S1                 0.0000
     69 ****         4.0105  -0.5886  -3.6692 LP             1 S1                 0.0000
     70 ****         2.5538   0.1460  -3.7404 LP             1 S1                 0.0000
     71 ****         7.8019   2.0277  -1.4098 LP             1 S1                 0.0000
     72 ****         7.5289   1.6138   0.1461 LP             1 S1                 0.0000
@<TRIPOS>BOND
    1    1    2 1     
    2    1   30 1     
    3    1   31 1     
    4    1   32 1     
    5    2    3 1     
    6    2   33 1     
    7    2   34 1     
    8    3   28 1     
    9    3    4 1     
   10    3   64 1     
   11    4    5 1     
   12    4   35 1     
   13    4   36 1     
   14    5    6 1     
   15    5   37 1     
   16    5   38 1     
   17    6    7 1     
   18    6   27 1     
   19    6   39 1     
   20    7    8 1     
   21    7    9 1     
   22    8   40 1     
   23    8   41 1     
   24    8   42 1     
   25    9   14 ar    
   26    9   10 ar    
   27   10   11 ar    
   28   11   12 ar    
   29   11   43 1     
   30   12   13 ar    
   31   13   17 1     
   32   13   14 ar    
   33   14   15 1     
   34   15   16 2     
   35   16   17 1     
   36   16   44 1     
   37   17   18 1     
   38   18   19 1     
   39   18   45 1     
   40   18   46 1     
   41   19   20 1     
   42   19   22 1     
   43   19   47 1     
   44   20   21 1     
   45   20   48 1     
   46   20   49 1     
   47   21   50 1     
   48   22   26 1     
   49   22   23 1     
   50   22   51 1     
   51   23   24 1     
   52   23   52 1     
   53   23   53 1     
   54   24   25 1     
   55   24   54 1     
   56   24   55 1     
   57   25   26 1     
   58   26   56 1     
   59   26   57 1     
   60   27   28 1     
   61   27   58 1     
   62   27   59 1     
   63   28   29 1     
   64   28   60 1     
   65   29   61 1     
   66   29   62 1     
   67   29   63 1     
   68    7   65 1     
   69   10   66 1     
   70   12   67 1     
   71   15   68 1     
   72   21   69 1     
   73   21   70 1     
   74   25   71 1     
   75   25   72 1     
@<TRIPOS>SUBSTRUCTURE
      1 S1             1
@<TRIPOS>SET
LONE_PAIRS      STATIC     ATOMS    <user>   **** ""
8 65 66 67 68 69 70 71 72
DONOR_HYDROGENS      STATIC     ATOMS    <user>   **** ""
2 64 50
ATOM$BLUE        STATIC     ATOMS    COLORGROUP SYSTEM
8 65 66 67 68 69 70 71 72
ATOM$RED        STATIC     ATOMS    COLORGROUP SYSTEM
2 64 50
