AV-unprocessed.smi:193|AV-procd|sdf|1505|dock1
  -GOLD-   2262019333D 1   1.00000     0.00000
 Structure written by MMmdl.
 62 66  0  0  0  0  0  0  0  0  2 V2000
  149.1311  142.0985  156.9645 C   0  0  0  0  0  0  0  0  0  0  0  0
  149.7866  140.7778  156.5315 C   0  0  1  0  0  0  0  0  0  0  0  0
  149.5070  140.5446  155.0289 C   0  0  0  0  0  0  0  0  0  0  0  0
  149.8511  139.2022  154.5619 N   0  0  0  0  0  0  0  0  0  0  0  0
  148.8819  138.2473  154.5542 C   0  0  0  0  0  0  0  0  0  0  0  0
  148.9721  137.1953  155.4112 N   0  0  0  0  0  0  0  0  0  0  0  0
  148.0460  136.2326  155.4032 C   0  0  0  0  0  0  0  0  0  0  0  0
  146.9639  136.1243  154.6315 N   0  0  0  0  0  0  0  0  0  0  0  0
  146.8603  137.1790  153.7739 C   0  0  0  0  0  0  0  0  0  0  0  0
  147.7627  138.2760  153.6731 C   0  0  0  0  0  0  0  0  0  0  0  0
  147.3142  139.1650  152.7028 N   0  0  0  0  0  0  0  0  0  0  0  0
  146.2196  138.6196  152.2484 C   0  0  0  0  0  0  0  0  0  0  0  0
  145.8803  137.4176  152.8263 N   0  0  0  0  0  0  0  0  0  0  0  0
  144.7244  136.5934  152.5080 C   0  0  0  0  0  0  0  0  0  0  0  0
  144.9917  135.5279  151.4154 C   0  0  0  0  0  0  0  0  0  0  0  0
  145.2170  136.2068  150.1919 O   0  0  0  0  0  0  0  0  0  0  0  0
  146.2547  134.7131  151.7607 C   0  0  0  0  0  0  0  0  0  0  0  0
  146.4654  133.5312  150.7979 C   0  0  0  0  0  0  0  0  0  0  0  0
  145.3071  132.7058  150.7814 O   0  0  0  0  0  0  0  0  0  0  0  0
  144.1557  133.3848  150.2953 C   0  0  0  0  0  0  0  0  0  0  0  0
  143.8025  134.5615  151.2223 C   0  0  0  0  0  0  0  0  0  0  0  0
  151.2219  138.7379  154.7653 C   0  0  0  0  0  0  0  0  0  0  0  0
  151.4807  138.3616  156.2359 C   0  0  0  0  0  0  0  0  0  0  0  0
  151.9365  139.4910  157.0892 N   0  3  2  0  0  0  0  0  0  0  0  0
  151.9008  139.1287  158.5271 C   0  0  2  0  0  0  0  0  0  0  0  0
  153.0260  139.7281  159.3415 C   0  0  0  0  0  0  0  0  0  0  0  0
  153.0435  138.2523  159.0123 C   0  0  2  0  0  0  0  0  0  0  0  0
  154.1269  137.6920  158.1089 C   0  0  0  0  0  0  0  0  0  0  0  0
  151.3059  140.8158  156.8245 C   0  0  0  0  0  0  0  0  0  0  0  0
  149.5508  142.9470  156.4228 H   0  0  0  0  0  0  0  0  0  0  0  0
  149.2724  142.2798  158.0304 H   0  0  0  0  0  0  0  0  0  0  0  0
  148.0566  142.0837  156.7783 H   0  0  0  0  0  0  0  0  0  0  0  0
  149.3185  139.9915  157.1249 H   0  0  0  0  0  0  0  0  0  0  0  0
  148.4576  140.7451  154.8077 H   0  0  0  0  0  0  0  0  0  0  0  0
  150.0656  141.2664  154.4321 H   0  0  0  0  0  0  0  0  0  0  0  0
  148.1942  135.4337  156.1147 H   0  0  0  0  0  0  0  0  0  0  0  0
  145.6294  139.0781  151.4681 H   0  0  0  0  0  0  0  0  0  0  0  0
  144.3796  136.1167  153.4266 H   0  0  0  0  0  0  0  0  0  0  0  0
  143.9186  137.2571  152.1915 H   0  0  0  0  0  0  0  0  0  0  0  0
  144.8128  137.0593  150.2418 H   0  0  0  0  0  0  0  0  0  0  0  0
  147.1363  135.3554  151.7642 H   0  0  0  0  0  0  0  0  0  0  0  0
  146.1625  134.3178  152.7733 H   0  0  0  0  0  0  0  0  0  0  0  0
  146.6932  133.8794  149.7893 H   0  0  0  0  0  0  0  0  0  0  0  0
  147.3166  132.9335  151.1243 H   0  0  0  0  0  0  0  0  0  0  0  0
  144.3255  133.7265  149.2732 H   0  0  0  0  0  0  0  0  0  0  0  0
  143.3248  132.6804  150.2568 H   0  0  0  0  0  0  0  0  0  0  0  0
  143.5045  134.1614  152.1922 H   0  0  0  0  0  0  0  0  0  0  0  0
  142.9328  135.0874  150.8266 H   0  0  0  0  0  0  0  0  0  0  0  0
  151.4146  137.8665  154.1426 H   0  0  0  0  0  0  0  0  0  0  0  0
  151.9288  139.4946  154.4239 H   0  0  0  0  0  0  0  0  0  0  0  0
  150.5996  137.8879  156.6717 H   0  0  0  0  0  0  0  0  0  0  0  0
  152.2617  137.6027  156.2621 H   0  0  0  0  0  0  0  0  0  0  0  0
  150.9089  139.0376  158.9665 H   0  0  0  0  0  0  0  0  0  0  0  0
  153.7468  140.3668  158.8341 H   0  0  0  0  0  0  0  0  0  0  0  0
  152.8099  140.0034  160.3718 H   0  0  0  0  0  0  0  0  0  0  0  0
  152.7927  137.5844  159.8343 H   0  0  0  0  0  0  0  0  0  0  0  0
  154.4009  138.4003  157.3268 H   0  0  0  0  0  0  0  0  0  0  0  0
  153.7869  136.7671  157.6434 H   0  0  0  0  0  0  0  0  0  0  0  0
  155.0193  137.4717  158.6952 H   0  0  0  0  0  0  0  0  0  0  0  0
  151.8286  141.2864  155.9912 H   0  0  0  0  0  0  0  0  0  0  0  0
  151.5051  141.4683  157.6754 H   0  0  0  0  0  0  0  0  0  0  0  0
  152.9137  139.6229  156.8712 H   0  0  0  0  0  0  0  0  0  0  0  0
  1  2  1  0  0  0  0
  1 30  1  0  0  0  0
  1 31  1  0  0  0  0
  1 32  1  0  0  0  0
  2 29  1  0  0  0  0
  2  3  1  0  0  0  0
  2 33  1  0  0  0  0
  3  4  1  0  0  0  0
  3 34  1  0  0  0  0
  3 35  1  0  0  0  0
  4  5  1  0  0  0  0
  4 22  1  0  0  0  0
  5 10  1  0  0  0  0
  5  6  2  0  0  0  0
  6  7  1  0  0  0  0
  7  8  2  0  0  0  0
  7 36  1  0  0  0  0
  8  9  1  0  0  0  0
  9 13  1  0  0  0  0
  9 10  2  0  0  0  0
 10 11  1  0  0  0  0
 11 12  2  0  0  0  0
 12 13  1  0  0  0  0
 12 37  1  0  0  0  0
 13 14  1  0  0  0  0
 14 15  1  0  0  0  0
 14 38  1  0  0  0  0
 14 39  1  0  0  0  0
 15 21  1  0  0  0  0
 15 16  1  0  0  0  0
 15 17  1  0  0  0  0
 16 40  1  0  0  0  0
 17 18  1  0  0  0  0
 17 41  1  0  0  0  0
 17 42  1  0  0  0  0
 18 19  1  0  0  0  0
 18 43  1  0  0  0  0
 18 44  1  0  0  0  0
 19 20  1  0  0  0  0
 20 21  1  0  0  0  0
 20 45  1  0  0  0  0
 20 46  1  0  0  0  0
 21 47  1  0  0  0  0
 21 48  1  0  0  0  0
 22 23  1  0  0  0  0
 22 49  1  0  0  0  0
 22 50  1  0  0  0  0
 23 24  1  0  0  0  0
 23 51  1  0  0  0  0
 23 52  1  0  0  0  0
 24 25  1  0  0  0  0
 24 29  1  0  0  0  0
 24 62  1  0  0  0  0
 25 27  1  0  0  0  0
 25 26  1  0  0  0  0
 25 53  1  0  0  0  0
 26 27  1  0  0  0  0
 26 54  1  0  0  0  0
 26 55  1  0  0  0  0
 27 28  1  0  0  0  0
 27 56  1  0  0  0  0
 28 57  1  0  0  0  0
 28 58  1  0  0  0  0
 28 59  1  0  0  0  0
 29 60  1  0  0  0  0
 29 61  1  0  0  0  0
M  CHG  1  24   1
M  END
> <s_m_source_file>
AV-unprocessed.smi

> <i_m_source_file_index>
193

> <i_lp_mmshare_version>
43012

> <i_f3d_flags>
0

> <s_epik_input>
W0NIM11bQ0BASF0xW0NIMl1bQ0BIXTFOKFtDSDJdMilbQ0gyXVtDSDJdTihbQ0gyXVtDQEhdMltDSDNdKWMobltjSF1uMyljKGMzNCluW2NIXW40W0NIMl1DNShbT0hdKVtDSDJdW0NIMl1PW0NIMl1bQ0gyXTU=

> <s_epik_cmdline>
J2VwaWtfcHl0aG9uJywgJy1waCcsICc3LjAnLCAnLXRuJywgJzgnLCAnLW1hJywgJzIwMCcsICctbWV0YWxfYmluZGluZycsICctaW1hZScsICc8aW5maWxlLm1hZT4nLCAnLW9tYWUnLCAnPG91dGZpbGUubWFlPic=

> <r_lp_tautomer_probability>
1

> <r_epik_Ionization_Penalty>
0.0540825

> <r_epik_Ionization_Penalty_Charging>
0.0538476

> <r_epik_Ionization_Penalty_Neutral>
0.000234891

> <r_epik_State_Penalty>
0.0200719

> <r_epik_Charging_Adjusted_Penalty>
0.0739194

> <i_epik_Tot_Q>
1

> <i_epik_Tot_abs_Q>
1

> <r_epik_Metal_State_Penalty>
0.0199414

> <b_epik_Metal_Only>
0

> <s_lp_Force_Field>
OPLS_2005

> <r_lp_Energy>
56.796

> <b_lp_Chiralities_Consistent>
1

> <s_lp_Variant>
AV-unprocessed.smi:193-10

> <Gold.Version>
5.8.1

> <Gold.Id.Protein>
6NUR|6NUR_protein|mol2

> <Gold.PLP.Fitness>
39.8741

> <Gold.PLP.PLP>
-34.0462

> <Gold.PLP.part.hbond>
-1.5864

> <Gold.PLP.part.metal>
0.0000

> <Gold.PLP.part.buried>
-1.7423

> <Gold.PLP.part.nonpolar>
-33.0297

> <Gold.PLP.part.repulsive>
1.6861

> <Gold.PLP.ligand.clash>
0.0000

> <Gold.PLP.ligand.torsion>
1.9851

> <Gold.PLP.Chemscore.Hbond>
1.0000

> <Gold.PLP.Chemscore.CHOScore>
1.7638

> <Gold.PLP.Chemscore.Metal>
0.0000

> <Gold.Chemscore.Hbonds>
donor molecule, donor type, donor heavy atom, donor atom, acceptor molecule, acceptor atom, score
      L1  H    16    40       P1 10171  1.00
      L1  C    12    37       P1 10171  1.00
      L1  C    12    37       P1 10175  0.57

> <Gold.PLP.Chemscore.Internal.Correction>
1.5068

> <Gold.Rescore>
     Score         DG    S(hbond)    S(metal)    S(lipo)     H(rot)  DE(clash)    DE(int)     intcor
     10.37     -13.88       0.94        0.00      87.06       1.93       0.27       3.24       ----

> <Gold.Chemscore.Fitness>
10.3669

> <Gold.Chemscore.DG>
-13.8807

> <Gold.Chemscore.ZeroCoef>
-5.4800

> <Gold.Chemscore.Hbond>
0.9442

> <Gold.Chemscore.Metal>
0.0000

> <Gold.Chemscore.Lipo>
87.0556

> <Gold.Chemscore.Internal_Hbond>
0.0000

> <Gold.Chemscore.DEClash>
0.2721

> <Gold.Chemscore.DEInternal>
3.2417

> <Gold.Chemscore.Rot>
1.9290

> <Gold.Chemscore.Internal.Correction>
   9.000000E+99

> <Gold.Chemscore.Hbonds>
donor molecule, donor type, donor heavy atom, donor atom, acceptor molecule, acceptor atom, score
      L1  H    16    40       P1 10171  1.00

> <Gold.Chemscore.Hbond.Weighted>
-3.1535

> <Gold.Chemscore.Metal.Weighted>
-0.0000

> <Gold.Chemscore.Lipo.Weighted>
-10.1855

> <Gold.Chemscore.Internal_Hbond.Weighted>
0.0000

> <Gold.Chemscore.DEClash.Weighted>
0.2721

> <Gold.Chemscore.DEInternal.Weighted>
3.2417

> <Gold.Chemscore.Rot.Weighted>
4.9383

> <Gold.Chemscore.Internal.Correction.Weighted>
   9.000000E+99

> <Gold.Protein.RotatedTorsions>
[ 6907 6896 6895 6894 ] final   63.09 input  -60.11 | X-H torsion
[ 7974 7965 7964 7962 ] final  -12.95 input  175.53 | X-H torsion
[ 8008 7997 7996 7995 ] final   12.98 input   59.86 | X-H torsion
[ 10167 10162 10161 10158 ] final  -14.38 input  -65.29 | X-H torsion
[ 10718 10713 10712 10709 ] final  -70.31 input   66.30 | X-H torsion
[ 10763 10752 10751 10750 ] final  150.74 input  -60.55 | X-H torsion
[ 11005 11000 10999 10996 ] final  -50.62 input  -57.11 | X-H torsion

> <Gold.Protein.ActiveResidues>
 VAL166  LYS551  ARG553  GLY616  TRP617  ASP618  TYR619  PRO620  LYS621  CYS622 
 ASP623  PHE694  ASN695  SER759  ASP760  ASP761  ALA762  ILE779  LEU786  VAL792 
 PHE793  MET794  SER795  GLU796  ALA797  LYS798  CYS799  TRP800  GLU811  SER814 

> <Gold.Protein.RotatedAtoms>
  152.4225  134.5929  159.9978 H   0  0  0  0  0  0  0  0  0  0  0  0  # atno 6907 bound_to 6896
  151.6075  133.3344  159.3068 H   0  0  0  0  0  0  0  0  0  0  0  0  # atno 6908 bound_to 6896
  150.8113  134.7307  159.6756 H   0  0  0  0  0  0  0  0  0  0  0  0  # atno 6909 bound_to 6896
  146.2133  140.3132  142.8384 H   0  0  0  0  0  0  0  0  0  0  0  0  # atno 7974 bound_to 7965
  154.8282  140.2895  155.5740 H   0  0  0  0  0  0  0  0  0  0  0  0  # atno 8008 bound_to 7997
  156.3003  140.2537  156.3133 H   0  0  0  0  0  0  0  0  0  0  0  0  # atno 8009 bound_to 7997
  154.9261  140.0384  157.2013 H   0  0  0  0  0  0  0  0  0  0  0  0  # atno 8010 bound_to 7997
  140.7200  143.5328  150.9500 H   0  0  0  0  0  0  0  0  0  0  0  0  # atno 10167 bound_to 10162
  156.0414  130.4329  150.2276 H   0  0  0  0  0  0  0  0  0  0  0  0  # atno 10718 bound_to 10713
  154.0924  135.2851  155.3269 H   0  0  0  0  0  0  0  0  0  0  0  0  # atno 10763 bound_to 10752
  154.6611  135.5334  153.8022 H   0  0  0  0  0  0  0  0  0  0  0  0  # atno 10764 bound_to 10752
  153.0408  135.6534  154.1092 H   0  0  0  0  0  0  0  0  0  0  0  0  # atno 10765 bound_to 10752
  141.0826  133.6650  156.3758 H   0  0  0  0  0  0  0  0  0  0  0  0  # atno 11005 bound_to 11000
  144.8973  140.7599  143.5889 LP  0  0  0  0  0  0  0  0  0  0  0  0  # atno 17320 bound_to 7965
  145.3057  139.1835  143.4666 LP  0  0  0  0  0  0  0  0  0  0  0  0  # atno 17321 bound_to 7965
  139.9048  143.6791  152.3125 LP  0  0  0  0  0  0  0  0  0  0  0  0  # atno 17342 bound_to 10162
  139.7154  144.7613  151.1043 LP  0  0  0  0  0  0  0  0  0  0  0  0  # atno 17343 bound_to 10162
  157.0371  131.0024  151.3295 LP  0  0  0  0  0  0  0  0  0  0  0  0  # atno 17370 bound_to 10713
  157.5236  130.8014  149.7837 LP  0  0  0  0  0  0  0  0  0  0  0  0  # atno 17371 bound_to 10713
  140.5434  134.6098  157.5386 LP  0  0  0  0  0  0  0  0  0  0  0  0  # atno 17394 bound_to 11000
  139.9641  134.7402  156.0174 LP  0  0  0  0  0  0  0  0  0  0  0  0  # atno 17395 bound_to 11000

$$$$
