#       Name:                AV-unprocessed.smi:2047
#       Creating user name   scv26
#       Creation time:       Fri Mar 27 10:58:19 2020


#       File generated by GOLD software.
#

@<TRIPOS>MOLECULE
AV-unprocessed.smi:2047
    46    48     1
SMALL
NO_CHARGES


@<TRIPOS>ATOM
      1 ****         0.2183   2.5841   0.0661 O.2            1 S1                 0.0000
      2 ****        -0.0968   1.4702   0.4845 C.2            1 S1                 0.0000
      3 ****         0.7559   0.4594   0.7221 N.am           1 S1                 0.0000
      4 ****         2.1640   0.4244   0.5130 C.ar           1 S1                 0.0000
      5 ****         2.9674   1.5821   0.6598 C.ar           1 S1                 0.0000
      6 ****         4.3608   1.4792   0.5078 C.ar           1 S1                 0.0000
      7 ****         4.9074   0.2157   0.2298 C.ar           1 S1                 0.0000
      8 ****         4.1593  -0.8981   0.1022 N.ar           1 S1                 0.0000
      9 ****         2.8123  -0.8127   0.2318 C.ar           1 S1                 0.0000
     10 ****         2.0780  -2.0105   0.0736 N.3            1 S1                 0.0000
     11 ****         2.7548  -3.3027   0.1060 C.3            1 S1                 0.0000
     12 ****         1.7469  -4.2904  -0.4744 C.3            1 S1                 0.0000
     13 ****         1.0498  -3.4530  -1.5423 C.3            1 S1                 0.0000
     14 ****         1.0304  -2.0426  -0.9431 C.3            1 S1                 0.0000
     15 ****        -1.3606   1.1079   0.7453 N.am           1 S1                 0.0000
     16 ****        -2.5280   1.9701   0.5887 C.3            1 S1                 0.0000
     17 ****        -2.9304   2.1500  -0.8900 C.3            1 S1                 0.0000
     18 ****        -4.3464   2.7371  -0.9481 C.3            1 S1                 0.0000
     19 ****        -5.2133   2.1317   0.5494 S.o2           1 S1                 0.0000
     20 ****        -5.6580   3.2881   1.3416 O.2            1 S1                 0.0000
     21 ****        -6.1515   1.0614   0.1792 O.2            1 S1                 0.0000
     22 ****        -3.7352   1.3879   1.3361 C.3            1 S1                 0.0000
     23 ****         0.3383  -0.4223   0.9818 H              1 S1                 0.0000
     24 ****         2.5423   2.5420   0.9095 H              1 S1                 0.0000
     25 ****         4.9956   2.3462   0.6150 H              1 S1                 0.0000
     26 ****         5.9739   0.0939   0.1132 H              1 S1                 0.0000
     27 ****         3.6488  -3.2890  -0.5190 H              1 S1                 0.0000
     28 ****         3.0489  -3.5722   1.1207 H              1 S1                 0.0000
     29 ****         2.2154  -5.1904  -0.8734 H              1 S1                 0.0000
     30 ****         1.0308  -4.5890   0.2925 H              1 S1                 0.0000
     31 ****         1.6471  -3.4554  -2.4553 H              1 S1                 0.0000
     32 ****         0.0542  -3.8219  -1.7907 H              1 S1                 0.0000
     33 ****         0.0692  -1.8580  -0.4634 H              1 S1                 0.0000
     34 ****         1.1778  -1.2818  -1.7109 H              1 S1                 0.0000
     35 ****        -1.5270   0.1708   1.0816 H              1 S1                 0.0000
     36 ****        -2.3120   2.9531   1.0116 H              1 S1                 0.0000
     37 ****        -2.2204   2.7739  -1.4337 H              1 S1                 0.0000
     38 ****        -2.9363   1.1756  -1.3807 H              1 S1                 0.0000
     39 ****        -4.3153   3.8258  -0.9000 H              1 S1                 0.0000
     40 ****        -4.8917   2.4437  -1.8453 H              1 S1                 0.0000
     41 ****        -3.8000   0.3074   1.2037 H              1 S1                 0.0000
     42 ****        -3.7253   1.6089   2.4035 H              1 S1                 0.0000
     43 ****         1.1773   2.7936  -0.1249 LP             1 S1                 0.0000
     44 ****        -0.4847   3.2795  -0.0828 LP             1 S1                 0.0000
     45 ****         4.5935  -1.7790  -0.0862 LP             1 S1                 0.0000
     46 ****         1.6526  -1.9138   0.9734 LP             1 S1                 0.0000
@<TRIPOS>BOND
    1    1    2 2     
    2    2    3 am    
    3    2   15 am    
    4    3    4 1     
    5    3   23 1     
    6    4    9 ar    
    7    4    5 ar    
    8    5    6 ar    
    9    5   24 1     
   10    6    7 ar    
   11    6   25 1     
   12    7    8 ar    
   13    7   26 1     
   14    8    9 ar    
   15    9   10 1     
   16   10   14 1     
   17   10   11 1     
   18   11   12 1     
   19   11   27 1     
   20   11   28 1     
   21   12   13 1     
   22   12   29 1     
   23   12   30 1     
   24   13   14 1     
   25   13   31 1     
   26   13   32 1     
   27   14   33 1     
   28   14   34 1     
   29   15   16 1     
   30   15   35 1     
   31   16   22 1     
   32   16   17 1     
   33   16   36 1     
   34   17   18 1     
   35   17   37 1     
   36   17   38 1     
   37   18   19 1     
   38   18   39 1     
   39   18   40 1     
   40   19   20 2     
   41   19   21 2     
   42   19   22 1     
   43   22   41 1     
   44   22   42 1     
   45    1   43 1     
   46    1   44 1     
   47    8   45 1     
   48   10   46 1     
@<TRIPOS>SUBSTRUCTURE
      1 S1             1
@<TRIPOS>SET
LONE_PAIRS      STATIC     ATOMS    <user>   **** ""
6 43 44 45 46 20 21
DONOR_HYDROGENS      STATIC     ATOMS    <user>   **** ""
2 23 35
ATOM$BLUE        STATIC     ATOMS    COLORGROUP SYSTEM
6 43 44 45 46 20 21
ATOM$RED        STATIC     ATOMS    COLORGROUP SYSTEM
2 23 35
