#       Name:                AV-unprocessed.smi:3298
#       Creating user name   scv26
#       Creation time:       Fri Mar 27 18:57:32 2020


#       File generated by GOLD software.
#

@<TRIPOS>MOLECULE
AV-unprocessed.smi:3298
    40    41     1
SMALL
NO_CHARGES


@<TRIPOS>ATOM
      1 ****        -5.9674   1.0991   0.3840 C.3            1 S1                 0.0000
      2 ****        -4.5964   1.7096   0.1808 C.ar           1 S1                 0.0000
      3 ****        -3.4870   0.8999  -0.1407 C.ar           1 S1                 0.0000
      4 ****        -2.2273   1.5094  -0.3158 C.ar           1 S1                 0.0000
      5 ****        -1.1302   0.6704  -0.6515 N.am           1 S1                 0.0000
      6 ****         0.1864   0.9163  -0.5342 C.2            1 S1                 0.0000
      7 ****         0.6847   1.9490  -0.0865 O.2            1 S1                 0.0000
      8 ****         0.9126  -0.1301  -0.9525 N.am           1 S1                 0.0000
      9 ****         2.3696  -0.1938  -0.9333 C.3            1 S1                 0.0000
     10 ****         2.8551  -1.3862  -1.7109 C.2            1 S1                 0.0000
     11 ****         3.6401  -2.1844  -0.9913 C.2            1 S1                 0.0000
     12 ****         3.8368  -1.6942   0.4207 C.3            1 S1                 0.0000
     13 ****         3.4723  -2.7511   1.4777 C.3            1 S1                 0.0000
     14 ****         4.3544  -3.8517   1.4054 O.3            1 S1                 0.0000
     15 ****         2.9424  -0.4300   0.4895 C.3            1 S1                 0.0000
     16 ****        -2.1437   2.9164  -0.1833 C.ar           1 S1                 0.0000
     17 ****        -3.3135   3.6335   0.1376 C.ar           1 S1                 0.0000
     18 ****        -4.5172   3.0505   0.3196 N.ar           1 S1                 0.0000
     19 ****         2.7950   0.7057  -1.3816 H              1 S1                 0.0000
     20 ****         4.8830  -1.4063   0.5334 H              1 S1                 0.0000
     21 ****        -5.8930   0.0326   0.5980 H              1 S1                 0.0000
     22 ****        -6.5730   1.2274  -0.5133 H              1 S1                 0.0000
     23 ****        -6.4832   1.5751   1.2187 H              1 S1                 0.0000
     24 ****        -3.6007  -0.1693  -0.2456 H              1 S1                 0.0000
     25 ****        -1.3789  -0.2552  -0.9683 H              1 S1                 0.0000
     26 ****         0.4254  -0.9424  -1.3014 H              1 S1                 0.0000
     27 ****         2.5925  -1.5444  -2.7467 H              1 S1                 0.0000
     28 ****         4.1078  -3.0870  -1.3563 H              1 S1                 0.0000
     29 ****         3.5367  -2.3226   2.4783 H              1 S1                 0.0000
     30 ****         2.4486  -3.1018   1.3410 H              1 S1                 0.0000
     31 ****         4.1144  -4.4744   2.0746 H              1 S1                 0.0000
     32 ****         3.5165   0.4351   0.8236 H              1 S1                 0.0000
     33 ****         2.1397  -0.5682   1.2159 H              1 S1                 0.0000
     34 ****        -1.2221   3.4573  -0.3310 H              1 S1                 0.0000
     35 ****        -3.2819   4.7075   0.2450 H              1 S1                 0.0000
     36 ****         0.0953   2.6932   0.2277 LP             1 S1                 0.0000
     37 ****         1.6790   2.0437  -0.0369 LP             1 S1                 0.0000
     38 ****         5.2933  -3.5415   1.5548 LP             1 S1                 0.0000
     39 ****         4.2846  -4.2810   0.5050 LP             1 S1                 0.0000
     40 ****        -5.3243   3.5940   0.5498 LP             1 S1                 0.0000
@<TRIPOS>BOND
    1    1    2 1     
    2    1   21 1     
    3    1   22 1     
    4    1   23 1     
    5    2   18 ar    
    6    2    3 ar    
    7    3    4 ar    
    8    3   24 1     
    9    4    5 1     
   10    4   16 ar    
   11    5    6 am    
   12    5   25 1     
   13    6    7 2     
   14    6    8 am    
   15    8    9 1     
   16    8   26 1     
   17    9   19 1     
   18    9   15 1     
   19    9   10 1     
   20   10   11 2     
   21   10   27 1     
   22   11   12 1     
   23   11   28 1     
   24   12   20 1     
   25   12   13 1     
   26   12   15 1     
   27   13   14 1     
   28   13   29 1     
   29   13   30 1     
   30   14   31 1     
   31   15   32 1     
   32   15   33 1     
   33   16   17 ar    
   34   16   34 1     
   35   17   18 ar    
   36   17   35 1     
   37    7   36 1     
   38    7   37 1     
   39   14   38 1     
   40   14   39 1     
   41   18   40 1     
@<TRIPOS>SUBSTRUCTURE
      1 S1             1
@<TRIPOS>SET
LONE_PAIRS      STATIC     ATOMS    <user>   **** ""
5 36 37 38 39 40
DONOR_HYDROGENS      STATIC     ATOMS    <user>   **** ""
3 25 26 31
ATOM$BLUE        STATIC     ATOMS    COLORGROUP SYSTEM
5 36 37 38 39 40
ATOM$RED        STATIC     ATOMS    COLORGROUP SYSTEM
3 25 26 31
