#       Name:                AV-unprocessed.smi:2603
#       Creating user name   scv26
#       Creation time:       Fri Mar 27 14:20:21 2020


#       File generated by GOLD software.
#

@<TRIPOS>MOLECULE
AV-unprocessed.smi:2603
    42    43     1
SMALL
NO_CHARGES


@<TRIPOS>ATOM
      1 ****        -4.6543   0.2338   1.6882 C.3            1 S1                 0.0000
      2 ****        -3.2076  -0.1446   1.3630 C.3            1 S1                 0.0000
      3 ****        -3.2057  -1.3116   0.5592 O.3            1 S1                 0.0000
      4 ****        -1.8926  -1.7114   0.2122 C.3            1 S1                 0.0000
      5 ****        -1.8445  -2.5510  -1.0321 C.3            1 S1                 0.0000
      6 ****        -1.3957  -1.1007  -1.0777 C.3            1 S1                 0.0000
      7 ****         0.0017  -0.8376  -1.1767 N.am           1 S1                 0.0000
      8 ****         0.5528   0.2555  -1.7241 C.2            1 S1                 0.0000
      9 ****        -0.0985   1.1703  -2.2281 O.2            1 S1                 0.0000
     10 ****         2.0786   0.3354  -1.6857 C.3            1 S1                 0.0000
     11 ****         2.5251   0.8318  -0.3343 C.2            1 S1                 0.0000
     12 ****         2.7725   0.0769   0.8494 C.2            1 S1                 0.0000
     13 ****         2.6488  -1.4044   1.0649 C.3            1 S1                 0.0000
     14 ****         3.1455   0.8475   1.8571 N.2            1 S1                 0.0000
     15 ****         3.1574   2.1535   1.3578 O.3            1 S1                 0.0000
     16 ****         2.7822   2.1177   0.0541 C.2            1 S1                 0.0000
     17 ****         2.7227   3.4232  -0.6645 C.3            1 S1                 0.0000
     18 ****        -4.6930   1.1328   2.3035 H              1 S1                 0.0000
     19 ****        -5.1548  -0.5666   2.2333 H              1 S1                 0.0000
     20 ****        -5.2222   0.4263   0.7777 H              1 S1                 0.0000
     21 ****        -2.7177   0.6756   0.8359 H              1 S1                 0.0000
     22 ****        -2.6521  -0.3228   2.2848 H              1 S1                 0.0000
     23 ****        -1.2146  -1.9248   1.0373 H              1 S1                 0.0000
     24 ****        -1.0780  -3.3215  -1.0873 H              1 S1                 0.0000
     25 ****        -2.7889  -2.7997  -1.5119 H              1 S1                 0.0000
     26 ****        -2.0712  -0.4095  -1.5805 H              1 S1                 0.0000
     27 ****         0.6219  -1.5315  -0.7858 H              1 S1                 0.0000
     28 ****         2.4981  -0.6450  -1.9132 H              1 S1                 0.0000
     29 ****         2.4180   0.9983  -2.4825 H              1 S1                 0.0000
     30 ****         1.6786  -1.6548   1.4944 H              1 S1                 0.0000
     31 ****         3.4192  -1.7736   1.7425 H              1 S1                 0.0000
     32 ****         2.7476  -1.9524   0.1282 H              1 S1                 0.0000
     33 ****         1.7764   3.5276  -1.1955 H              1 S1                 0.0000
     34 ****         3.5295   3.4982  -1.3935 H              1 S1                 0.0000
     35 ****         2.8141   4.2594   0.0290 H              1 S1                 0.0000
     36 ****        -3.7198  -1.1279  -0.2786 LP             1 S1                 0.0000
     37 ****        -3.6464  -2.0532   1.0649 LP             1 S1                 0.0000
     38 ****        -1.0972   1.1229  -2.2446 LP             1 S1                 0.0000
     39 ****         0.3711   1.9609  -2.6211 LP             1 S1                 0.0000
     40 ****         3.3727   0.5559   2.7863 LP             1 S1                 0.0000
     41 ****         4.0784   2.5356   1.4337 LP             1 S1                 0.0000
     42 ****         2.5178   2.7196   1.8778 LP             1 S1                 0.0000
@<TRIPOS>BOND
    1    1    2 1     
    2    1   18 1     
    3    1   19 1     
    4    1   20 1     
    5    2    3 1     
    6    2   21 1     
    7    2   22 1     
    8    3    4 1     
    9    4    6 1     
   10    4    5 1     
   11    4   23 1     
   12    5    6 1     
   13    5   24 1     
   14    5   25 1     
   15    6    7 1     
   16    6   26 1     
   17    7    8 am    
   18    7   27 1     
   19    8    9 2     
   20    8   10 1     
   21   10   11 1     
   22   10   28 1     
   23   10   29 1     
   24   11   16 2     
   25   11   12 1     
   26   12   13 1     
   27   12   14 2     
   28   13   30 1     
   29   13   31 1     
   30   13   32 1     
   31   14   15 1     
   32   15   16 1     
   33   16   17 1     
   34   17   33 1     
   35   17   34 1     
   36   17   35 1     
   37    3   36 1     
   38    3   37 1     
   39    9   38 1     
   40    9   39 1     
   41   14   40 1     
   42   15   41 1     
   43   15   42 1     
@<TRIPOS>SUBSTRUCTURE
      1 S1             1
@<TRIPOS>SET
LONE_PAIRS      STATIC     ATOMS    <user>   **** ""
7 36 37 38 39 40 41 42
DONOR_HYDROGENS      STATIC     ATOMS    <user>   **** ""
1 27
ATOM$BLUE        STATIC     ATOMS    COLORGROUP SYSTEM
7 36 37 38 39 40 41 42
ATOM$RED        STATIC     ATOMS    COLORGROUP SYSTEM
1 27
