AV-unprocessed.smi:149|AV-procd|sdf|1237|dock2
  -GOLD-   2262018453D 1   1.00000     0.00000
 Structure written by MMmdl.
 60 64  0  0  0  0  0  0  0  0  2 V2000
  148.5414  132.1200  159.1461 C   0  0  0  0  0  0  0  0  0  0  0  0
  147.7050  133.2668  158.5464 C   0  0  1  0  0  0  0  0  0  0  0  0
  147.3775  132.9695  157.0717 C   0  0  0  0  0  0  0  0  0  0  0  0
  146.0020  133.3839  156.8529 N   0  0  0  0  0  0  0  0  0  0  0  0
  145.5716  133.7354  155.6123 C   0  0  0  0  0  0  0  0  0  0  0  0
  144.4661  134.5194  155.5020 N   0  0  0  0  0  0  0  0  0  0  0  0
  144.0161  134.8944  154.3015 C   0  0  0  0  0  0  0  0  0  0  0  0
  144.5056  134.5952  153.0979 N   0  0  0  0  0  0  0  0  0  0  0  0
  145.6035  133.7923  153.1942 C   0  0  0  0  0  0  0  0  0  0  0  0
  146.2011  133.3237  154.3999 C   0  0  0  0  0  0  0  0  0  0  0  0
  147.3073  132.5390  154.0956 N   0  0  0  0  0  0  0  0  0  0  0  0
  147.3698  132.5581  152.7928 C   0  0  0  0  0  0  0  0  0  0  0  0
  146.3645  133.2610  152.1657 N   0  0  0  0  0  0  0  0  0  0  0  0
  146.1986  133.4780  150.7527 C   0  0  0  0  0  0  0  0  0  0  0  0
  144.9240  134.1473  150.2186 C   0  0  0  0  0  0  0  0  0  0  0  0
  144.3939  132.7732  149.7538 C   0  0  0  0  0  0  0  0  0  0  0  0
  143.4651  132.0848  150.7723 C   0  0  0  0  0  0  0  0  0  0  0  0
  142.3461  132.8903  151.0836 O   0  0  0  0  0  0  0  0  0  0  0  0
  143.6790  132.7339  148.3885 C   0  0  0  0  0  0  0  0  0  0  0  0
  143.5283  134.0175  147.8156 O   0  0  0  0  0  0  0  0  0  0  0  0
  145.8712  132.3228  149.7946 C   0  0  0  0  0  0  0  0  0  0  0  0
  145.4945  134.0462  158.0401 C   0  0  0  0  0  0  0  0  0  0  0  0
  146.3250  133.4976  159.2080 C   0  0  2  0  0  0  0  0  0  0  0  0
  146.2939  134.4439  160.3642 N   0  3  0  0  0  0  0  0  0  0  0  0
  147.2708  134.0714  161.4213 C   0  0  0  0  0  0  0  0  0  0  0  0
  147.1623  135.0142  162.6306 C   0  0  0  0  0  0  0  0  0  0  0  0
  147.3695  136.3532  162.2053 O   0  0  0  0  0  0  0  0  0  0  0  0
  146.3803  136.7632  161.2722 C   0  0  0  0  0  0  0  0  0  0  0  0
  146.4466  135.8792  160.0147 C   0  0  0  0  0  0  0  0  0  0  0  0
  147.9931  131.1777  159.1182 H   0  0  0  0  0  0  0  0  0  0  0  0
  148.8283  132.2970  160.1803 H   0  0  0  0  0  0  0  0  0  0  0  0
  149.4624  131.9793  158.5796 H   0  0  0  0  0  0  0  0  0  0  0  0
  148.2752  134.1965  158.5785 H   0  0  0  0  0  0  0  0  0  0  0  0
  148.0681  133.4942  156.4100 H   0  0  0  0  0  0  0  0  0  0  0  0
  147.4517  131.9024  156.8583 H   0  0  0  0  0  0  0  0  0  0  0  0
  143.1381  135.5232  154.3055 H   0  0  0  0  0  0  0  0  0  0  0  0
  148.1573  132.0475  152.2592 H   0  0  0  0  0  0  0  0  0  0  0  0
  147.0914  134.0157  150.4310 H   0  0  0  0  0  0  0  0  0  0  0  0
  144.3032  134.6312  150.9731 H   0  0  0  0  0  0  0  0  0  0  0  0
  145.1388  134.8379  149.4020 H   0  0  0  0  0  0  0  0  0  0  0  0
  143.0939  131.1333  150.3921 H   0  0  0  0  0  0  0  0  0  0  0  0
  143.9983  131.8536  151.6952 H   0  0  0  0  0  0  0  0  0  0  0  0
  142.0812  133.3513  150.3022 H   0  0  0  0  0  0  0  0  0  0  0  0
  144.2292  132.1204  147.6747 H   0  0  0  0  0  0  0  0  0  0  0  0
  142.6864  132.2922  148.4832 H   0  0  0  0  0  0  0  0  0  0  0  0
  144.3872  134.3754  147.6505 H   0  0  0  0  0  0  0  0  0  0  0  0
  146.3843  132.4331  148.8381 H   0  0  0  0  0  0  0  0  0  0  0  0
  146.0247  131.3187  150.1882 H   0  0  0  0  0  0  0  0  0  0  0  0
  145.6340  135.1237  157.9382 H   0  0  0  0  0  0  0  0  0  0  0  0
  144.4304  133.8463  158.1714 H   0  0  0  0  0  0  0  0  0  0  0  0
  145.9179  132.5317  159.5134 H   0  0  0  0  0  0  0  0  0  0  0  0
  147.1018  133.0483  161.7565 H   0  0  0  0  0  0  0  0  0  0  0  0
  148.2820  134.1094  161.0130 H   0  0  0  0  0  0  0  0  0  0  0  0
  146.1908  134.9164  163.1179 H   0  0  0  0  0  0  0  0  0  0  0  0
  147.9183  134.7597  163.3738 H   0  0  0  0  0  0  0  0  0  0  0  0
  145.3904  136.7154  161.7293 H   0  0  0  0  0  0  0  0  0  0  0  0
  146.5563  137.8058  161.0073 H   0  0  0  0  0  0  0  0  0  0  0  0
  147.3942  136.0335  159.4960 H   0  0  0  0  0  0  0  0  0  0  0  0
  145.6451  136.1931  159.3478 H   0  0  0  0  0  0  0  0  0  0  0  0
  145.3752  134.3560  160.7748 H   0  0  0  0  0  0  0  0  0  0  0  0
  1  2  1  0  0  0  0
  1 30  1  0  0  0  0
  1 31  1  0  0  0  0
  1 32  1  0  0  0  0
  2 23  1  0  0  0  0
  2  3  1  0  0  0  0
  2 33  1  0  0  0  0
  3  4  1  0  0  0  0
  3 34  1  0  0  0  0
  3 35  1  0  0  0  0
  4  5  1  0  0  0  0
  4 22  1  0  0  0  0
  5 10  1  0  0  0  0
  5  6  2  0  0  0  0
  6  7  1  0  0  0  0
  7  8  2  0  0  0  0
  7 36  1  0  0  0  0
  8  9  1  0  0  0  0
  9 13  1  0  0  0  0
  9 10  2  0  0  0  0
 10 11  1  0  0  0  0
 11 12  2  0  0  0  0
 12 13  1  0  0  0  0
 12 37  1  0  0  0  0
 13 14  1  0  0  0  0
 14 21  1  0  0  0  0
 14 15  1  0  0  0  0
 14 38  1  0  0  0  0
 15 16  1  0  0  0  0
 15 39  1  0  0  0  0
 15 40  1  0  0  0  0
 16 17  1  0  0  0  0
 16 19  1  0  0  0  0
 16 21  1  0  0  0  0
 17 18  1  0  0  0  0
 17 41  1  0  0  0  0
 17 42  1  0  0  0  0
 18 43  1  0  0  0  0
 19 20  1  0  0  0  0
 19 44  1  0  0  0  0
 19 45  1  0  0  0  0
 20 46  1  0  0  0  0
 21 47  1  0  0  0  0
 21 48  1  0  0  0  0
 22 23  1  0  0  0  0
 22 49  1  0  0  0  0
 22 50  1  0  0  0  0
 23 24  1  0  0  0  0
 23 51  1  0  0  0  0
 24 29  1  0  0  0  0
 24 25  1  0  0  0  0
 24 60  1  0  0  0  0
 25 26  1  0  0  0  0
 25 52  1  0  0  0  0
 25 53  1  0  0  0  0
 26 27  1  0  0  0  0
 26 54  1  0  0  0  0
 26 55  1  0  0  0  0
 27 28  1  0  0  0  0
 28 29  1  0  0  0  0
 28 56  1  0  0  0  0
 28 57  1  0  0  0  0
 29 58  1  0  0  0  0
 29 59  1  0  0  0  0
M  CHG  1  24   1
M  END
> <s_m_source_file>
AV-unprocessed.smi

> <i_m_source_file_index>
149

> <i_lp_mmshare_version>
43012

> <i_f3d_flags>
0

> <s_epik_input>
W0NIMl0xW0NIMl1PW0NIMl1bQ0gyXU4xW0NAQEhdMltDSDJdTihbQ0gyXVtDQEhdMltDSDNdKWMobltjSF1uMyljKGMzNCluW2NIXW40W0NIXShbQ0gyXTUpW0NIMl1DNShbQ0gyXVtPSF0pW0NIMl1bT0hd

> <s_epik_cmdline>
J2VwaWtfcHl0aG9uJywgJy1waCcsICc3LjAnLCAnLXRuJywgJzgnLCAnLW1hJywgJzIwMCcsICctbWV0YWxfYmluZGluZycsICctaW1hZScsICc8aW5maWxlLm1hZT4nLCAnLW9tYWUnLCAnPG91dGZpbGUubWFlPic=

> <r_lp_tautomer_probability>
1

> <r_epik_Ionization_Penalty>
0.404847

> <r_epik_Ionization_Penalty_Charging>
0.404623

> <r_epik_Ionization_Penalty_Neutral>
0.000224096

> <r_epik_State_Penalty>
0.238803

> <r_epik_Charging_Adjusted_Penalty>
0.643425

> <i_epik_Tot_Q>
1

> <i_epik_Tot_abs_Q>
1

> <r_epik_Metal_State_Penalty>
0.239083

> <b_epik_Metal_Only>
0

> <s_lp_Force_Field>
OPLS_2005

> <r_lp_Energy>
71.3702

> <b_lp_Chiralities_Consistent>
1

> <s_lp_Variant>
AV-unprocessed.smi:149-4

> <Gold.Version>
5.8.1

> <Gold.Id.Protein>
6NUR|6NUR_protein|mol2

> <Gold.PLP.Fitness>
53.8709

> <Gold.PLP.PLP>
-41.7515

> <Gold.PLP.part.hbond>
-5.8151

> <Gold.PLP.part.metal>
0.0000

> <Gold.PLP.part.buried>
-4.0626

> <Gold.PLP.part.nonpolar>
-31.8162

> <Gold.PLP.part.repulsive>
0.2121

> <Gold.PLP.ligand.clash>
0.0000

> <Gold.PLP.ligand.torsion>
1.6447

> <Gold.PLP.Chemscore.Hbond>
3.8559

> <Gold.PLP.Chemscore.CHOScore>
1.0000

> <Gold.PLP.Chemscore.Metal>
0.0000

> <Gold.Chemscore.Hbonds>
donor molecule, donor type, donor heavy atom, donor atom, acceptor molecule, acceptor atom, score
      L1  H    18    43       P1 10186  0.96
      L1  H    20    46       P1  7921  1.00
      P1  H 10192 10197       L1    20  1.00
      L1  C    12    37       P1 10747  1.00

> <Gold.PLP.Chemscore.Internal.Correction>
0.8410

> <Gold.Rescore>
     Score         DG    S(hbond)    S(metal)    S(lipo)     H(rot)  DE(clash)    DE(int)     intcor
     15.30     -18.61       2.92        0.00      96.64       3.09       0.07       3.23       ----

> <Gold.Chemscore.Fitness>
15.3047

> <Gold.Chemscore.DG>
-18.6103

> <Gold.Chemscore.ZeroCoef>
-5.4800

> <Gold.Chemscore.Hbond>
2.9153

> <Gold.Chemscore.Metal>
0.0000

> <Gold.Chemscore.Lipo>
96.6377

> <Gold.Chemscore.Internal_Hbond>
0.0000

> <Gold.Chemscore.DEClash>
0.0727

> <Gold.Chemscore.DEInternal>
3.2329

> <Gold.Chemscore.Rot>
3.0912

> <Gold.Chemscore.Internal.Correction>
   9.000000E+99

> <Gold.Chemscore.Hbonds>
donor molecule, donor type, donor heavy atom, donor atom, acceptor molecule, acceptor atom, score
      L1  H    18    43       P1 10186  0.92
      L1  H    20    46       P1  7921  1.00
      P1  H 10192 10197       L1    20  0.84

> <Gold.Chemscore.Hbond.Weighted>
-9.7372

> <Gold.Chemscore.Metal.Weighted>
-0.0000

> <Gold.Chemscore.Lipo.Weighted>
-11.3066

> <Gold.Chemscore.Internal_Hbond.Weighted>
0.0000

> <Gold.Chemscore.DEClash.Weighted>
0.0727

> <Gold.Chemscore.DEInternal.Weighted>
3.2329

> <Gold.Chemscore.Rot.Weighted>
7.9135

> <Gold.Chemscore.Internal.Correction.Weighted>
   9.000000E+99

> <Gold.Protein.RotatedTorsions>
[ 6907 6896 6895 6894 ] final  142.83 input  -60.11 | X-H torsion
[ 7974 7965 7964 7962 ] final  -43.01 input  175.53 | X-H torsion
[ 8008 7997 7996 7995 ] final  151.66 input   59.86 | X-H torsion
[ 10167 10162 10161 10158 ] final  -79.80 input  -65.29 | X-H torsion
[ 10718 10713 10712 10709 ] final   27.65 input   66.30 | X-H torsion
[ 10763 10752 10751 10750 ] final  162.25 input  -60.55 | X-H torsion
[ 11005 11000 10999 10996 ] final   84.60 input  -57.11 | X-H torsion

> <Gold.Protein.ActiveResidues>
 VAL166  LYS551  ARG553  GLY616  TRP617  ASP618  TYR619  PRO620  LYS621  CYS622 
 ASP623  PHE694  ASN695  SER759  ASP760  ASP761  ALA762  ILE779  LEU786  VAL792 
 PHE793  MET794  SER795  GLU796  ALA797  LYS798  CYS799  TRP800  GLU811  SER814 

> <Gold.Protein.RotatedAtoms>
  152.2138  133.4931  159.5124 H   0  0  0  0  0  0  0  0  0  0  0  0  # atno 6907 bound_to 6896
  150.6996  134.1432  159.4122 H   0  0  0  0  0  0  0  0  0  0  0  0  # atno 6908 bound_to 6896
  151.9352  135.0238  160.0582 H   0  0  0  0  0  0  0  0  0  0  0  0  # atno 6909 bound_to 6896
  146.0061  140.7019  142.9247 H   0  0  0  0  0  0  0  0  0  0  0  0  # atno 7974 bound_to 7965
  156.2664  140.2041  156.6211 H   0  0  0  0  0  0  0  0  0  0  0  0  # atno 8008 bound_to 7997
  154.6756  140.0545  157.0236 H   0  0  0  0  0  0  0  0  0  0  0  0  # atno 8009 bound_to 7997
  155.1074  140.3212  155.4533 H   0  0  0  0  0  0  0  0  0  0  0  0  # atno 8010 bound_to 7997
  140.4561  143.2468  151.8418 H   0  0  0  0  0  0  0  0  0  0  0  0  # atno 10167 bound_to 10162
  157.2230  130.6987  149.6278 H   0  0  0  0  0  0  0  0  0  0  0  0  # atno 10718 bound_to 10713
  154.2755  135.2764  155.2720 H   0  0  0  0  0  0  0  0  0  0  0  0  # atno 10763 bound_to 10752
  154.5264  135.5742  153.6726 H   0  0  0  0  0  0  0  0  0  0  0  0  # atno 10764 bound_to 10752
  152.9938  135.6217  154.2911 H   0  0  0  0  0  0  0  0  0  0  0  0  # atno 10765 bound_to 10752
  139.8995  134.8228  156.2468 H   0  0  0  0  0  0  0  0  0  0  0  0  # atno 11005 bound_to 11000
  144.6936  140.3317  143.7215 LP  0  0  0  0  0  0  0  0  0  0  0  0  # atno 17320 bound_to 7965
  145.7414  139.1765  143.2374 LP  0  0  0  0  0  0  0  0  0  0  0  0  # atno 17321 bound_to 7965
  139.4801  144.5063  151.8993 LP  0  0  0  0  0  0  0  0  0  0  0  0  # atno 17342 bound_to 10162
  140.4150  144.2319  150.5888 LP  0  0  0  0  0  0  0  0  0  0  0  0  # atno 17343 bound_to 10162
  155.9681  130.4514  150.5733 LP  0  0  0  0  0  0  0  0  0  0  0  0  # atno 17370 bound_to 10713
  157.3557  131.0741  151.1678 LP  0  0  0  0  0  0  0  0  0  0  0  0  # atno 17371 bound_to 10713
  141.0250  133.7020  156.1331 LP  0  0  0  0  0  0  0  0  0  0  0  0  # atno 17394 bound_to 11000
  140.7180  134.4390  157.5577 LP  0  0  0  0  0  0  0  0  0  0  0  0  # atno 17395 bound_to 11000

$$$$
