AV-unprocessed.smi:1664|AV-procd|sdf|6668|dock6
  -GOLD-   22720 7383D 1   1.00000     0.00000
 Structure written by MMmdl.
 35 36  0  0  0  0  0  0  0  0  3 V2000
  144.0981  136.8843  152.7730 C   0  0  0  0  0  0  0  0  0  0  0  0
  145.5398  136.3488  152.6659 C   0  0  2  0  0  0  0  0  0  0  0  0
  145.8883  135.6411  153.9156 C   0  0  0  0  0  0  0  0  0  0  0  0
  146.1613  135.0874  154.8949 N   0  0  0  0  0  0  0  0  0  0  0  0
  146.4556  137.4671  152.4350 N   0  0  0  0  0  0  0  0  0  0  0  0
  146.7187  138.5016  153.2550 C   0  0  0  0  0  0  0  0  0  0  0  0
  146.1830  138.6387  154.3535 O   0  0  0  0  0  0  0  0  0  0  0  0
  147.7391  139.5550  152.7898 C   0  0  0  0  0  0  0  0  0  0  0  0
  148.7602  139.9177  153.7901 N   0  0  0  0  0  0  0  0  0  0  0  0
  149.8548  139.0418  153.9299 C   0  0  0  0  0  0  0  0  0  0  0  0
  150.8505  139.2739  154.8076 C   0  0  0  0  0  0  0  0  0  0  0  0
  151.9731  138.3700  154.9289 N   0  3  0  0  0  0  0  0  0  0  0  0
  152.9898  138.7668  155.4892 O   0  0  0  0  0  0  0  0  0  0  0  0
  151.8774  137.2365  154.4680 O   0  5  0  0  0  0  0  0  0  0  0  0
  150.7635  140.4689  155.6246 C   0  0  0  0  0  0  0  0  0  0  0  0
  149.7223  141.3141  155.4910 C   0  0  0  0  0  0  0  0  0  0  0  0
  148.6456  141.0648  154.5273 C   0  0  0  0  0  0  0  0  0  0  0  0
  147.7027  141.8430  154.3855 O   0  0  0  0  0  0  0  0  0  0  0  0
  145.6086  135.3759  151.4908 C   0  0  0  0  0  0  0  0  0  0  0  0
  144.6307  135.4197  150.3377 C   0  0  0  0  0  0  0  0  0  0  0  0
  144.6145  134.2522  151.3002 C   0  0  0  0  0  0  0  0  0  0  0  0
  143.3850  136.0670  152.8846 H   0  0  0  0  0  0  0  0  0  0  0  0
  143.8155  137.4480  151.8828 H   0  0  0  0  0  0  0  0  0  0  0  0
  143.9693  137.5397  153.6345 H   0  0  0  0  0  0  0  0  0  0  0  0
  146.9521  137.4472  151.5563 H   0  0  0  0  0  0  0  0  0  0  0  0
  148.2130  139.1950  151.8749 H   0  0  0  0  0  0  0  0  0  0  0  0
  147.1864  140.4446  152.4839 H   0  0  0  0  0  0  0  0  0  0  0  0
  149.8289  138.1850  153.2715 H   0  0  0  0  0  0  0  0  0  0  0  0
  151.5320  140.6948  156.3492 H   0  0  0  0  0  0  0  0  0  0  0  0
  149.6779  142.1986  156.1095 H   0  0  0  0  0  0  0  0  0  0  0  0
  146.6324  135.1327  151.2106 H   0  0  0  0  0  0  0  0  0  0  0  0
  143.8030  136.1240  150.3879 H   0  0  0  0  0  0  0  0  0  0  0  0
  145.0258  135.2414  149.3396 H   0  0  0  0  0  0  0  0  0  0  0  0
  144.9997  133.3005  150.9403 H   0  0  0  0  0  0  0  0  0  0  0  0
  143.7766  134.1797  151.9904 H   0  0  0  0  0  0  0  0  0  0  0  0
  1  2  1  0  0  0  0
  1 22  1  0  0  0  0
  1 23  1  0  0  0  0
  1 24  1  0  0  0  0
  2  3  1  0  0  0  0
  2  5  1  0  0  0  0
  2 19  1  0  0  0  0
  3  4  3  0  0  0  0
  5  6  1  0  0  0  0
  5 25  1  0  0  0  0
  6  7  2  0  0  0  0
  6  8  1  0  0  0  0
  8  9  1  0  0  0  0
  8 26  1  0  0  0  0
  8 27  1  0  0  0  0
  9 17  1  0  0  0  0
  9 10  1  0  0  0  0
 10 11  2  0  0  0  0
 10 28  1  0  0  0  0
 11 12  1  0  0  0  0
 11 15  1  0  0  0  0
 12 13  2  0  0  0  0
 12 14  1  0  0  0  0
 15 16  2  0  0  0  0
 15 29  1  0  0  0  0
 16 17  1  0  0  0  0
 16 30  1  0  0  0  0
 17 18  2  0  0  0  0
 19 21  1  0  0  0  0
 19 20  1  0  0  0  0
 19 31  1  0  0  0  0
 20 21  1  0  0  0  0
 20 32  1  0  0  0  0
 20 33  1  0  0  0  0
 21 34  1  0  0  0  0
 21 35  1  0  0  0  0
M  CHG  1  12   1
M  CHG  1  14  -1
M  END
> <s_m_source_file>
AV-unprocessed.smi

> <i_m_source_file_index>
1664

> <i_lp_mmshare_version>
43012

> <i_f3d_flags>
0

> <s_epik_input>
W0NIMl0xW0NIMl1bQ0hdMVtDQF0oW0NIM10pKEMjTilbTkhdQyg9TylbQ0gyXW4yW2NIXWMoW04rXSg9TylbTy1dKVtjSF1bY0hdYzI9Tw==

> <s_epik_cmdline>
J2VwaWtfcHl0aG9uJywgJy1waCcsICc3LjAnLCAnLXRuJywgJzgnLCAnLW1hJywgJzIwMCcsICctbWV0YWxfYmluZGluZycsICctaW1hZScsICc8aW5maWxlLm1hZT4nLCAnLW9tYWUnLCAnPG91dGZpbGUubWFlPic=

> <r_lp_tautomer_probability>
1

> <r_epik_Ionization_Penalty>
4.65324e-07

> <r_epik_Ionization_Penalty_Charging>
6.17383e-11

> <r_epik_Ionization_Penalty_Neutral>
4.65262e-07

> <r_epik_State_Penalty>
-0

> <r_epik_Charging_Adjusted_Penalty>
6.17383e-11

> <i_epik_Tot_Q>
0

> <i_epik_Tot_abs_Q>
2

> <r_epik_Metal_State_Penalty>
-0

> <b_epik_Metal_Only>
0

> <s_lp_Force_Field>
OPLS_2005

> <r_lp_Energy>
24.1204

> <b_lp_Chiralities_Consistent>
1

> <s_lp_Variant>
AV-unprocessed.smi:1664-2

> <Gold.Version>
5.8.1

> <Gold.Id.Protein>
6NUR|6NUR_protein|mol2

> <Gold.PLP.Fitness>
40.8874

> <Gold.PLP.PLP>
-32.9376

> <Gold.PLP.part.hbond>
-3.0000

> <Gold.PLP.part.metal>
0.0000

> <Gold.PLP.part.buried>
3.5384

> <Gold.PLP.part.nonpolar>
-33.9431

> <Gold.PLP.part.repulsive>
0.4763

> <Gold.PLP.ligand.clash>
0.0000

> <Gold.PLP.ligand.torsion>
1.4028

> <Gold.PLP.Chemscore.Hbond>
2.0326

> <Gold.PLP.Chemscore.CHOScore>
1.0462

> <Gold.PLP.Chemscore.Metal>
0.0000

> <Gold.Chemscore.Hbonds>
donor molecule, donor type, donor heavy atom, donor atom, acceptor molecule, acceptor atom, score
      L1  H     5    25       P1  7948  0.05
      P1  H  7997  8008       L1    13  0.91
      P1  H 10752 10765       L1    14  1.00
      L1  C    10    28       P1  7948  1.00
      L1  C    10    28       P1  7957  0.05

> <Gold.PLP.Chemscore.Internal.Correction>
1.5191

> <Gold.Rescore>
     Score         DG    S(hbond)    S(metal)    S(lipo)     H(rot)  DE(clash)    DE(int)     intcor
     10.48     -14.95       2.25        0.00      59.15       1.94       2.42       2.05       ----

> <Gold.Chemscore.Fitness>
10.4838

> <Gold.Chemscore.DG>
-14.9544

> <Gold.Chemscore.ZeroCoef>
-5.4800

> <Gold.Chemscore.Hbond>
2.2506

> <Gold.Chemscore.Metal>
0.0000

> <Gold.Chemscore.Lipo>
59.1460

> <Gold.Chemscore.Internal_Hbond>
0.0000

> <Gold.Chemscore.DEClash>
2.4174

> <Gold.Chemscore.DEInternal>
2.0531

> <Gold.Chemscore.Rot>
1.9386

> <Gold.Chemscore.Internal.Correction>
   9.000000E+99

> <Gold.Chemscore.Hbonds>
donor molecule, donor type, donor heavy atom, donor atom, acceptor molecule, acceptor atom, score
      L1  H     5    25       P1  7948  0.05
      P1  H  7997  8008       L1    13  0.84
      P1  H 10752 10765       L1    14  0.94

> <Gold.Chemscore.Hbond.Weighted>
-7.5170

> <Gold.Chemscore.Metal.Weighted>
-0.0000

> <Gold.Chemscore.Lipo.Weighted>
-6.9201

> <Gold.Chemscore.Internal_Hbond.Weighted>
0.0000

> <Gold.Chemscore.DEClash.Weighted>
2.4174

> <Gold.Chemscore.DEInternal.Weighted>
2.0531

> <Gold.Chemscore.Rot.Weighted>
4.9627

> <Gold.Chemscore.Internal.Correction.Weighted>
   9.000000E+99

> <Gold.Protein.RotatedTorsions>
[ 6907 6896 6895 6894 ] final  173.22 input  -60.11 | X-H torsion
[ 7974 7965 7964 7962 ] final  -59.90 input  175.53 | X-H torsion
[ 8008 7997 7996 7995 ] final  -17.53 input   59.86 | X-H torsion
[ 10167 10162 10161 10158 ] final -178.02 input  -65.29 | X-H torsion
[ 10718 10713 10712 10709 ] final    4.42 input   66.30 | X-H torsion
[ 10763 10752 10751 10750 ] final  165.43 input  -60.55 | X-H torsion
[ 11005 11000 10999 10996 ] final   88.70 input  -57.11 | X-H torsion

> <Gold.Protein.ActiveResidues>
 VAL166  LYS551  ARG553  GLY616  TRP617  ASP618  TYR619  PRO620  LYS621  CYS622 
 ASP623  PHE694  ASN695  SER759  ASP760  ASP761  ALA762  ILE779  LEU786  VAL792 
 PHE793  MET794  SER795  GLU796  ALA797  LYS798  CYS799  TRP800  GLU811  SER814 

> <Gold.Protein.RotatedAtoms>
  151.7718  133.3342  159.3446 H   0  0  0  0  0  0  0  0  0  0  0  0  # atno 6907 bound_to 6896
  150.7459  134.6012  159.6047 H   0  0  0  0  0  0  0  0  0  0  0  0  # atno 6908 bound_to 6896
  152.3336  134.7229  160.0334 H   0  0  0  0  0  0  0  0  0  0  0  0  # atno 6909 bound_to 6896
  145.8220  140.8534  143.0128 H   0  0  0  0  0  0  0  0  0  0  0  0  # atno 7974 bound_to 7965
  154.4972  140.2140  155.9422 H   0  0  0  0  0  0  0  0  0  0  0  0  # atno 8008 bound_to 7997
  156.1386  140.3184  155.8427 H   0  0  0  0  0  0  0  0  0  0  0  0  # atno 8009 bound_to 7997
  155.4163  140.0494  157.3019 H   0  0  0  0  0  0  0  0  0  0  0  0  # atno 8010 bound_to 7997
  139.5452  144.2255  152.0974 H   0  0  0  0  0  0  0  0  0  0  0  0  # atno 10167 bound_to 10162
  156.8923  130.5692  149.5649 H   0  0  0  0  0  0  0  0  0  0  0  0  # atno 10718 bound_to 10713
  154.3238  135.2755  155.2506 H   0  0  0  0  0  0  0  0  0  0  0  0  # atno 10763 bound_to 10752
  154.4848  135.5849  153.6419 H   0  0  0  0  0  0  0  0  0  0  0  0  # atno 10764 bound_to 10752
  152.9873  135.6120  154.3425 H   0  0  0  0  0  0  0  0  0  0  0  0  # atno 10765 bound_to 10752
  139.8891  134.8504  156.3037 H   0  0  0  0  0  0  0  0  0  0  0  0  # atno 11005 bound_to 11000
  144.6747  140.0547  143.7478 LP  0  0  0  0  0  0  0  0  0  0  0  0  # atno 17320 bound_to 7965
  145.9665  139.2838  143.1124 LP  0  0  0  0  0  0  0  0  0  0  0  0  # atno 17321 bound_to 7965
  140.1740  144.4908  150.6564 LP  0  0  0  0  0  0  0  0  0  0  0  0  # atno 17342 bound_to 10162
  140.6697  143.2281  151.5654 LP  0  0  0  0  0  0  0  0  0  0  0  0  # atno 17343 bound_to 10162
  156.0623  130.5673  150.9217 LP  0  0  0  0  0  0  0  0  0  0  0  0  # atno 17370 bound_to 10713
  157.6076  131.0938  150.8851 LP  0  0  0  0  0  0  0  0  0  0  0  0  # atno 17371 bound_to 10713
  140.9896  133.7217  156.0794 LP  0  0  0  0  0  0  0  0  0  0  0  0  # atno 17394 bound_to 11000
  140.7642  134.3904  157.5520 LP  0  0  0  0  0  0  0  0  0  0  0  0  # atno 17395 bound_to 11000

$$$$
