AV-unprocessed.smi:1610|AV-procd|sdf|6471|dock3
  -GOLD-   22720 7123D 1   1.00000     0.00000
 Structure written by MMmdl.
 45 46  0  0  0  0  0  0  0  0  2 V2000
  145.7106  143.1712  154.0473 C   0  0  0  0  0  0  0  0  0  0  0  0
  145.6473  142.1054  155.5449 S   0  0  0  0  0  0  0  0  0  0  0  0
  146.9866  142.0617  156.1515 O   0  0  0  0  0  0  0  0  0  0  0  0
  144.4811  142.5049  156.3465 O   0  0  0  0  0  0  0  0  0  0  0  0
  145.3091  140.5428  154.8952 N   0  0  0  0  0  0  0  0  0  0  0  0
  146.3650  139.5416  154.7306 C   0  0  0  0  0  0  0  0  0  0  0  0
  146.9381  139.1415  156.1066 C   0  0  0  0  0  0  0  0  0  0  0  0
  148.1717  138.2361  155.9438 C   0  0  0  0  0  0  0  0  0  0  0  0
  149.1673  138.9385  155.1160 N   0  0  0  0  0  0  0  0  0  0  0  0
  150.3275  139.4943  155.5496 C   0  0  0  0  0  0  0  0  0  0  0  0
  151.0095  140.2578  154.8647 O   0  0  0  0  0  0  0  0  0  0  0  0
  150.6851  139.1498  156.7975 N   0  0  0  0  0  0  0  0  0  0  0  0
  151.8849  139.6198  157.4754 C   0  0  0  0  0  0  0  0  0  0  0  0
  151.5186  140.3623  158.7671 C   0  0  0  0  0  0  0  0  0  0  0  0
  151.6167  141.8669  158.6064 C   0  0  0  0  0  0  0  0  0  0  0  0
  152.4768  142.6238  159.4327 C   0  0  0  0  0  0  0  0  0  0  0  0
  152.5431  144.0226  159.2640 C   0  0  0  0  0  0  0  0  0  0  0  0
  151.7472  144.6333  158.2732 C   0  0  0  0  0  0  0  0  0  0  0  0
  150.9356  143.8766  157.5021 N   0  3  0  0  0  0  0  0  0  0  0  0
  150.8434  142.5349  157.6324 C   0  0  0  0  0  0  0  0  0  0  0  0
  148.6731  139.1360  153.7472 C   0  0  0  0  0  0  0  0  0  0  0  0
  147.4605  140.0845  153.7898 C   0  0  0  0  0  0  0  0  0  0  0  0
  145.8667  144.2065  154.3488 H   0  0  0  0  0  0  0  0  0  0  0  0
  144.7713  143.0915  153.5009 H   0  0  0  0  0  0  0  0  0  0  0  0
  146.5344  142.8569  153.4072 H   0  0  0  0  0  0  0  0  0  0  0  0
  144.5699  140.5249  154.1928 H   0  0  0  0  0  0  0  0  0  0  0  0
  145.9370  138.6525  154.2654 H   0  0  0  0  0  0  0  0  0  0  0  0
  147.2200  140.0344  156.6668 H   0  0  0  0  0  0  0  0  0  0  0  0
  146.1796  138.6309  156.6997 H   0  0  0  0  0  0  0  0  0  0  0  0
  148.5423  137.9327  156.9229 H   0  0  0  0  0  0  0  0  0  0  0  0
  147.8856  137.3076  155.4473 H   0  0  0  0  0  0  0  0  0  0  0  0
  150.0824  138.5207  157.3078 H   0  0  0  0  0  0  0  0  0  0  0  0
  152.5245  138.7646  157.6987 H   0  0  0  0  0  0  0  0  0  0  0  0
  152.4471  140.2802  156.8127 H   0  0  0  0  0  0  0  0  0  0  0  0
  150.5037  140.1038  159.0727 H   0  0  0  0  0  0  0  0  0  0  0  0
  152.1745  140.0471  159.5799 H   0  0  0  0  0  0  0  0  0  0  0  0
  153.0778  142.1396  160.1890 H   0  0  0  0  0  0  0  0  0  0  0  0
  153.1944  144.6184  159.8867 H   0  0  0  0  0  0  0  0  0  0  0  0
  151.7345  145.6955  158.0759 H   0  0  0  0  0  0  0  0  0  0  0  0
  150.1574  142.0414  156.9591 H   0  0  0  0  0  0  0  0  0  0  0  0
  149.4337  139.5366  153.0756 H   0  0  0  0  0  0  0  0  0  0  0  0
  148.3827  138.1738  153.3226 H   0  0  0  0  0  0  0  0  0  0  0  0
  147.0575  140.2210  152.7855 H   0  0  0  0  0  0  0  0  0  0  0  0
  147.7882  141.0687  154.1284 H   0  0  0  0  0  0  0  0  0  0  0  0
  150.3675  144.3384  156.7912 H   0  0  0  0  0  0  0  0  0  0  0  0
  1  2  1  0  0  0  0
  1 23  1  0  0  0  0
  1 24  1  0  0  0  0
  1 25  1  0  0  0  0
  2  3  2  0  0  0  0
  2  4  2  0  0  0  0
  2  5  1  0  0  0  0
  5  6  1  0  0  0  0
  5 26  1  0  0  0  0
  6 22  1  0  0  0  0
  6  7  1  0  0  0  0
  6 27  1  0  0  0  0
  7  8  1  0  0  0  0
  7 28  1  0  0  0  0
  7 29  1  0  0  0  0
  8  9  1  0  0  0  0
  8 30  1  0  0  0  0
  8 31  1  0  0  0  0
  9 10  1  0  0  0  0
  9 21  1  0  0  0  0
 10 11  2  0  0  0  0
 10 12  1  0  0  0  0
 12 13  1  0  0  0  0
 12 32  1  0  0  0  0
 13 14  1  0  0  0  0
 13 33  1  0  0  0  0
 13 34  1  0  0  0  0
 14 15  1  0  0  0  0
 14 35  1  0  0  0  0
 14 36  1  0  0  0  0
 15 20  1  0  0  0  0
 15 16  2  0  0  0  0
 16 17  1  0  0  0  0
 16 37  1  0  0  0  0
 17 18  2  0  0  0  0
 17 38  1  0  0  0  0
 18 19  1  0  0  0  0
 18 39  1  0  0  0  0
 19 20  2  0  0  0  0
 19 45  1  0  0  0  0
 20 40  1  0  0  0  0
 21 22  1  0  0  0  0
 21 41  1  0  0  0  0
 21 42  1  0  0  0  0
 22 43  1  0  0  0  0
 22 44  1  0  0  0  0
M  CHG  1  19   1
M  END
> <s_m_source_file>
AV-unprocessed.smi

> <i_m_source_file_index>
1610

> <i_lp_mmshare_version>
43012

> <i_f3d_flags>
0

> <s_epik_input>
W0NIM11TKD1PKSg9TylbTkhdW0NIXTFbQ0gyXVtDSDJdTihbQ0gyXVtDSDJdMSlDKD1PKVtOSF1bQ0gyXVtDSDJdYzJbY0hdW2NIXVtjSF1uW2NIXTI=

> <s_epik_cmdline>
J2VwaWtfcHl0aG9uJywgJy1waCcsICc3LjAnLCAnLXRuJywgJzgnLCAnLW1hJywgJzIwMCcsICctbWV0YWxfYmluZGluZycsICctaW1hZScsICc8aW5maWxlLm1hZT4nLCAnLW9tYWUnLCAnPG91dGZpbGUubWFlPic=

> <r_epik_Ionization_Penalty>
2.20747

> <r_epik_Ionization_Penalty_Charging>
2.20741

> <r_epik_Ionization_Penalty_Neutral>
6.06433e-05

> <r_epik_State_Penalty>
2.35137

> <r_epik_Charging_Adjusted_Penalty>
4.55877

> <i_epik_Tot_Q>
1

> <i_epik_Tot_abs_Q>
1

> <r_epik_Metal_State_Penalty>
2.37242

> <b_epik_Metal_Only>
0

> <s_lp_Force_Field>
OPLS_2005

> <r_lp_Energy>
29.2562

> <b_lp_Chiralities_Consistent>
1

> <s_lp_Variant>
AV-unprocessed.smi:1610-2

> <Gold.Version>
5.8.1

> <Gold.Id.Protein>
6NUR|6NUR_protein|mol2

> <Gold.PLP.Fitness>
47.8093

> <Gold.PLP.PLP>
-36.4759

> <Gold.PLP.part.hbond>
-3.0000

> <Gold.PLP.part.metal>
0.0000

> <Gold.PLP.part.buried>
-5.1870

> <Gold.PLP.part.nonpolar>
-29.2604

> <Gold.PLP.part.repulsive>
0.9809

> <Gold.PLP.ligand.clash>
0.0000

> <Gold.PLP.ligand.torsion>
0.8607

> <Gold.PLP.Chemscore.Hbond>
4.0000

> <Gold.PLP.Chemscore.CHOScore>
0.0000

> <Gold.PLP.Chemscore.Metal>
0.0000

> <Gold.Chemscore.Hbonds>
donor molecule, donor type, donor heavy atom, donor atom, acceptor molecule, acceptor atom, score
      L1  H     5    26       P1 10175  1.00
      L1  H    19    45       P1  8028  2.00
      P1  H  7989  7998       L1    11  1.00

> <Gold.PLP.Chemscore.Internal.Correction>
1.0548

> <Gold.Rescore>
     Score         DG    S(hbond)    S(metal)    S(lipo)     H(rot)  DE(clash)    DE(int)     intcor
     18.80     -21.21       2.97        0.00      89.21       1.81       0.31       2.10       ----

> <Gold.Chemscore.Fitness>
18.7983

> <Gold.Chemscore.DG>
-21.2077

> <Gold.Chemscore.ZeroCoef>
-5.4800

> <Gold.Chemscore.Hbond>
2.9729

> <Gold.Chemscore.Metal>
0.0000

> <Gold.Chemscore.Lipo>
89.2124

> <Gold.Chemscore.Internal_Hbond>
0.0000

> <Gold.Chemscore.DEClash>
0.3128

> <Gold.Chemscore.DEInternal>
2.0966

> <Gold.Chemscore.Rot>
1.8123

> <Gold.Chemscore.Internal.Correction>
   9.000000E+99

> <Gold.Chemscore.Hbonds>
donor molecule, donor type, donor heavy atom, donor atom, acceptor molecule, acceptor atom, score
      L1  H     5    26       P1 10175  0.99
      L1  H    19    45       P1  8028  0.95
      P1  H  7989  7998       L1    11  0.99

> <Gold.Chemscore.Hbond.Weighted>
-9.9294

> <Gold.Chemscore.Metal.Weighted>
-0.0000

> <Gold.Chemscore.Lipo.Weighted>
-10.4379

> <Gold.Chemscore.Internal_Hbond.Weighted>
0.0000

> <Gold.Chemscore.DEClash.Weighted>
0.3128

> <Gold.Chemscore.DEInternal.Weighted>
2.0966

> <Gold.Chemscore.Rot.Weighted>
4.6395

> <Gold.Chemscore.Internal.Correction.Weighted>
   9.000000E+99

> <Gold.Protein.RotatedTorsions>
[ 6907 6896 6895 6894 ] final -111.69 input  -60.11 | X-H torsion
[ 7974 7965 7964 7962 ] final   65.32 input  175.53 | X-H torsion
[ 8008 7997 7996 7995 ] final   68.27 input   59.86 | X-H torsion
[ 10167 10162 10161 10158 ] final   35.00 input  -65.29 | X-H torsion
[ 10718 10713 10712 10709 ] final  173.22 input   66.30 | X-H torsion
[ 10763 10752 10751 10750 ] final  163.58 input  -60.55 | X-H torsion
[ 11005 11000 10999 10996 ] final  163.58 input  -57.11 | X-H torsion

> <Gold.Protein.ActiveResidues>
 VAL166  LYS551  ARG553  GLY616  TRP617  ASP618  TYR619  PRO620  LYS621  CYS622 
 ASP623  PHE694  ASN695  SER759  ASP760  ASP761  ALA762  ILE779  LEU786  VAL792 
 PHE793  MET794  SER795  GLU796  ALA797  LYS798  CYS799  TRP800  GLU811  SER814 

> <Gold.Protein.RotatedAtoms>
  150.7707  133.9198  159.3394 H   0  0  0  0  0  0  0  0  0  0  0  0  # atno 6907 bound_to 6896
  151.7085  135.0915  160.0273 H   0  0  0  0  0  0  0  0  0  0  0  0  # atno 6908 bound_to 6896
  152.3723  133.6398  159.6132 H   0  0  0  0  0  0  0  0  0  0  0  0  # atno 6909 bound_to 6896
  145.8398  139.3188  143.0938 H   0  0  0  0  0  0  0  0  0  0  0  0  # atno 7974 bound_to 7965
  155.7057  140.3495  155.4952 H   0  0  0  0  0  0  0  0  0  0  0  0  # atno 8008 bound_to 7997
  155.9401  140.1100  157.1085 H   0  0  0  0  0  0  0  0  0  0  0  0  # atno 8009 bound_to 7997
  154.4101  140.1214  156.4902 H   0  0  0  0  0  0  0  0  0  0  0  0  # atno 8010 bound_to 7997
  140.4263  144.1389  150.6153 H   0  0  0  0  0  0  0  0  0  0  0  0  # atno 10167 bound_to 10162
  156.9675  131.0079  151.2913 H   0  0  0  0  0  0  0  0  0  0  0  0  # atno 10718 bound_to 10713
  154.2958  135.2760  155.2634 H   0  0  0  0  0  0  0  0  0  0  0  0  # atno 10763 bound_to 10752
  154.5092  135.5787  153.6595 H   0  0  0  0  0  0  0  0  0  0  0  0  # atno 10764 bound_to 10752
  152.9907  135.6177  154.3126 H   0  0  0  0  0  0  0  0  0  0  0  0  # atno 10765 bound_to 10752
  140.2373  134.8078  157.3376 H   0  0  0  0  0  0  0  0  0  0  0  0  # atno 11005 bound_to 11000
  145.9478  140.8932  143.0275 LP  0  0  0  0  0  0  0  0  0  0  0  0  # atno 17320 bound_to 7965
  144.6734  140.1637  143.7420 LP  0  0  0  0  0  0  0  0  0  0  0  0  # atno 17321 bound_to 7965
  140.4478  143.2499  151.9388 LP  0  0  0  0  0  0  0  0  0  0  0  0  # atno 17342 bound_to 10162
  139.4783  144.5592  151.8265 LP  0  0  0  0  0  0  0  0  0  0  0  0  # atno 17343 bound_to 10162
  157.5615  130.8249  149.8273 LP  0  0  0  0  0  0  0  0  0  0  0  0  # atno 17370 bound_to 10713
  156.0296  130.3768  150.1724 LP  0  0  0  0  0  0  0  0  0  0  0  0  # atno 17371 bound_to 10713
  140.1689  134.4633  155.7844 LP  0  0  0  0  0  0  0  0  0  0  0  0  # atno 17394 bound_to 11000
  141.2213  133.6933  156.7674 LP  0  0  0  0  0  0  0  0  0  0  0  0  # atno 17395 bound_to 11000

$$$$
