AV-unprocessed.smi:1809|AV-procd|sdf|7332|dock6
  -GOLD-   22720 8593D 1   1.00000     0.00000
 Structure written by MMmdl.
 38 40  0  0  0  0  0  0  0  0  2 V2000
  146.5133  134.2638  162.7362 C   0  0  0  0  0  0  0  0  0  0  0  0
  147.2113  135.1645  161.7755 C   0  0  0  0  0  0  0  0  0  0  0  0
  147.3904  136.4673  162.0069 N   0  0  0  0  0  0  0  0  0  0  0  0
  148.0647  137.0947  160.9692 N   0  0  0  0  0  0  0  0  0  0  0  0
  148.3948  136.2580  159.9749 C   0  0  0  0  0  0  0  0  0  0  0  0
  149.0475  136.6672  158.8744 N   0  5  0  0  0  0  0  0  0  0  0  0
  150.2183  137.3343  158.9914 C   0  0  0  0  0  0  0  0  0  0  0  0
  151.0991  137.1244  159.8289 O   0  0  0  0  0  0  0  0  0  0  0  0
  150.3815  138.3034  158.0816 N   0  0  0  0  0  0  0  0  0  0  0  0
  151.5486  139.1701  157.9797 C   0  0  0  0  0  0  0  0  0  0  0  0
  151.1736  140.6275  158.2819 C   0  0  1  0  0  0  0  0  0  0  0  0
  151.9240  141.1684  159.5210 C   0  0  0  0  0  0  0  0  0  0  0  0
  151.6409  142.5805  159.6943 N   0  0  0  0  0  0  0  0  0  0  0  0
  152.3321  143.2599  160.7651 C   0  0  0  0  0  0  0  0  0  0  0  0
  152.1602  144.7541  160.4388 C   0  0  0  0  0  0  0  0  0  0  0  0
  151.8267  144.7833  158.9302 C   0  0  0  0  0  0  0  0  0  0  0  0
  152.0049  143.3215  158.5169 C   0  0  2  0  0  0  0  0  0  0  0  0
  151.2174  142.8235  157.2970 C   0  0  0  0  0  0  0  0  0  0  0  0
  151.4930  141.4300  157.1371 O   0  0  0  0  0  0  0  0  0  0  0  0
  147.8664  134.5978  160.2487 S   0  0  0  0  0  0  0  0  0  0  0  0
  147.1705  134.0331  163.5747 H   0  0  0  0  0  0  0  0  0  0  0  0
  146.2312  133.3321  162.2455 H   0  0  0  0  0  0  0  0  0  0  0  0
  145.6114  134.7438  163.1168 H   0  0  0  0  0  0  0  0  0  0  0  0
  149.6432  138.4447  157.4078 H   0  0  0  0  0  0  0  0  0  0  0  0
  152.3037  138.8253  158.6876 H   0  0  0  0  0  0  0  0  0  0  0  0
  151.9817  139.0922  156.9814 H   0  0  0  0  0  0  0  0  0  0  0  0
  150.0989  140.6902  158.4625 H   0  0  0  0  0  0  0  0  0  0  0  0
  151.6247  140.6173  160.4130 H   0  0  0  0  0  0  0  0  0  0  0  0
  152.9976  141.0164  159.3989 H   0  0  0  0  0  0  0  0  0  0  0  0
  151.9258  142.9925  161.7409 H   0  0  0  0  0  0  0  0  0  0  0  0
  153.3913  142.9974  160.7555 H   0  0  0  0  0  0  0  0  0  0  0  0
  151.3430  145.1883  161.0157 H   0  0  0  0  0  0  0  0  0  0  0  0
  153.0673  145.3138  160.6691 H   0  0  0  0  0  0  0  0  0  0  0  0
  150.7952  145.1048  158.7789 H   0  0  0  0  0  0  0  0  0  0  0  0
  152.4774  145.4527  158.3669 H   0  0  0  0  0  0  0  0  0  0  0  0
  153.0668  143.1631  158.3163 H   0  0  0  0  0  0  0  0  0  0  0  0
  150.1451  142.9793  157.4267 H   0  0  0  0  0  0  0  0  0  0  0  0
  151.5198  143.3578  156.3963 H   0  0  0  0  0  0  0  0  0  0  0  0
  1  2  1  0  0  0  0
  1 21  1  0  0  0  0
  1 22  1  0  0  0  0
  1 23  1  0  0  0  0
  2 20  1  0  0  0  0
  2  3  2  0  0  0  0
  3  4  1  0  0  0  0
  4  5  2  0  0  0  0
  5  6  1  0  0  0  0
  5 20  1  0  0  0  0
  6  7  1  0  0  0  0
  7  8  2  0  0  0  0
  7  9  1  0  0  0  0
  9 10  1  0  0  0  0
  9 24  1  0  0  0  0
 10 11  1  0  0  0  0
 10 25  1  0  0  0  0
 10 26  1  0  0  0  0
 11 19  1  0  0  0  0
 11 12  1  0  0  0  0
 11 27  1  0  0  0  0
 12 13  1  0  0  0  0
 12 28  1  0  0  0  0
 12 29  1  0  0  0  0
 13 17  1  0  0  0  0
 13 14  1  0  0  0  0
 14 15  1  0  0  0  0
 14 30  1  0  0  0  0
 14 31  1  0  0  0  0
 15 16  1  0  0  0  0
 15 32  1  0  0  0  0
 15 33  1  0  0  0  0
 16 17  1  0  0  0  0
 16 34  1  0  0  0  0
 16 35  1  0  0  0  0
 17 18  1  0  0  0  0
 17 36  1  0  0  0  0
 18 19  1  0  0  0  0
 18 37  1  0  0  0  0
 18 38  1  0  0  0  0
M  CHG  1   6  -1
M  END
> <s_m_source_file>
AV-unprocessed.smi

> <i_m_source_file_index>
1809

> <i_lp_mmshare_version>
43012

> <i_f3d_flags>
0

> <s_epik_input>
W0NIM11jMW5uYyhzMSlbTkhdQyg9TylbTkhdW0NIMl1bQ0BIXShbQ0gyXTIpT1tDSDJdW0NAQEhdKE4yMylbQ0gyXVtDSDJdW0NIMl0z

> <s_epik_cmdline>
J2VwaWtfcHl0aG9uJywgJy1waCcsICc3LjAnLCAnLXRuJywgJzgnLCAnLW1hJywgJzIwMCcsICctbWV0YWxfYmluZGluZycsICctaW1hZScsICc8aW5maWxlLm1hZT4nLCAnLW9tYWUnLCAnPG91dGZpbGUubWFlPic=

> <r_lp_tautomer_probability>
1

> <r_epik_Ionization_Penalty>
4.48809

> <r_epik_Ionization_Penalty_Charging>
3.27284

> <r_epik_Ionization_Penalty_Neutral>
1.21525

> <r_epik_State_Penalty>
4.69427

> <r_epik_Charging_Adjusted_Penalty>
7.96711

> <i_epik_Tot_Q>
-1

> <i_epik_Tot_abs_Q>
1

> <r_epik_Metal_State_Penalty>
1.91976

> <b_epik_Metal_Only>
1

> <s_lp_Force_Field>
OPLS_2005

> <r_lp_Energy>
45.7242

> <b_lp_Chiralities_Consistent>
1

> <s_lp_Variant>
AV-unprocessed.smi:1809-24

> <Gold.Version>
5.8.1

> <Gold.Id.Protein>
6NUR|6NUR_protein|mol2

> <Gold.PLP.Fitness>
44.6512

> <Gold.PLP.PLP>
-39.7256

> <Gold.PLP.part.hbond>
-3.0000

> <Gold.PLP.part.metal>
0.0000

> <Gold.PLP.part.buried>
-6.1634

> <Gold.PLP.part.nonpolar>
-31.0268

> <Gold.PLP.part.repulsive>
0.1178

> <Gold.PLP.ligand.clash>
0.0000

> <Gold.PLP.ligand.torsion>
1.5208

> <Gold.PLP.Chemscore.Hbond>
2.6478

> <Gold.PLP.Chemscore.CHOScore>
0.0000

> <Gold.PLP.Chemscore.Metal>
0.0000

> <Gold.Chemscore.Hbonds>
donor molecule, donor type, donor heavy atom, donor atom, acceptor molecule, acceptor atom, score
      P1  H  6896  6909       L1     8  0.94
      P1  H  6931  6943       L1     4  0.98
      P1  H  6934  6947       L1     4  0.57

> <Gold.PLP.Chemscore.Internal.Correction>
0.0238

> <Gold.Rescore>
     Score         DG    S(hbond)    S(metal)    S(lipo)     H(rot)  DE(clash)    DE(int)     intcor
     19.60     -21.13       2.50        0.00      91.00       1.31       0.02       1.51       ----

> <Gold.Chemscore.Fitness>
19.5957

> <Gold.Chemscore.DG>
-21.1262

> <Gold.Chemscore.ZeroCoef>
-5.4800

> <Gold.Chemscore.Hbond>
2.4971

> <Gold.Chemscore.Metal>
0.0000

> <Gold.Chemscore.Lipo>
91.0000

> <Gold.Chemscore.Internal_Hbond>
0.0000

> <Gold.Chemscore.DEClash>
0.0184

> <Gold.Chemscore.DEInternal>
1.5121

> <Gold.Chemscore.Rot>
1.3051

> <Gold.Chemscore.Internal.Correction>
   9.000000E+99

> <Gold.Chemscore.Hbonds>
donor molecule, donor type, donor heavy atom, donor atom, acceptor molecule, acceptor atom, score
      P1  H  6896  6909       L1     8  0.22
      P1  H  6931  6943       L1     4  0.24
      P1  H  6934  6947       L1     4  0.22

> <Gold.Chemscore.Hbond.Weighted>
-8.3404

> <Gold.Chemscore.Metal.Weighted>
-0.0000

> <Gold.Chemscore.Lipo.Weighted>
-10.6470

> <Gold.Chemscore.Internal_Hbond.Weighted>
0.0000

> <Gold.Chemscore.DEClash.Weighted>
0.0184

> <Gold.Chemscore.DEInternal.Weighted>
1.5121

> <Gold.Chemscore.Rot.Weighted>
3.3412

> <Gold.Chemscore.Internal.Correction.Weighted>
   9.000000E+99

> <Gold.Protein.RotatedTorsions>
[ 6907 6896 6895 6894 ] final   89.81 input  -60.11 | X-H torsion
[ 7974 7965 7964 7962 ] final  145.99 input  175.53 | X-H torsion
[ 8008 7997 7996 7995 ] final  147.95 input   59.86 | X-H torsion
[ 10167 10162 10161 10158 ] final -135.16 input  -65.29 | X-H torsion
[ 10718 10713 10712 10709 ] final -125.18 input   66.30 | X-H torsion
[ 10763 10752 10751 10750 ] final  -31.83 input  -60.55 | X-H torsion
[ 11005 11000 10999 10996 ] final  144.91 input  -57.11 | X-H torsion

> <Gold.Protein.ActiveResidues>
 VAL166  LYS551  ARG553  GLY616  TRP617  ASP618  TYR619  PRO620  LYS621  CYS622 
 ASP623  PHE694  ASN695  SER759  ASP760  ASP761  ALA762  ILE779  LEU786  VAL792 
 PHE793  MET794  SER795  GLU796  ALA797  LYS798  CYS799  TRP800  GLU811  SER814 

> <Gold.Protein.RotatedAtoms>
  152.5439  134.1908  159.8672 H   0  0  0  0  0  0  0  0  0  0  0  0  # atno 6907 bound_to 6896
  151.1904  133.4664  159.2602 H   0  0  0  0  0  0  0  0  0  0  0  0  # atno 6908 bound_to 6896
  151.1089  135.0027  159.8540 H   0  0  0  0  0  0  0  0  0  0  0  0  # atno 6909 bound_to 6896
  144.8707  139.5851  143.5888 H   0  0  0  0  0  0  0  0  0  0  0  0  # atno 7974 bound_to 7965
  156.2808  140.2142  156.5620 H   0  0  0  0  0  0  0  0  0  0  0  0  # atno 8008 bound_to 7997
  154.7205  140.0504  157.0658 H   0  0  0  0  0  0  0  0  0  0  0  0  # atno 8009 bound_to 7997
  155.0485  140.3153  155.4703 H   0  0  0  0  0  0  0  0  0  0  0  0  # atno 8010 bound_to 7997
  139.8807  143.6843  152.2627 H   0  0  0  0  0  0  0  0  0  0  0  0  # atno 10167 bound_to 10162
  156.1652  130.6630  151.0105 H   0  0  0  0  0  0  0  0  0  0  0  0  # atno 10718 bound_to 10713
  153.8038  135.6888  153.4851 H   0  0  0  0  0  0  0  0  0  0  0  0  # atno 10763 bound_to 10752
  153.1672  135.4557  154.9851 H   0  0  0  0  0  0  0  0  0  0  0  0  # atno 10764 bound_to 10752
  154.7996  135.3332  154.7524 H   0  0  0  0  0  0  0  0  0  0  0  0  # atno 10765 bound_to 10752
  140.0670  134.9173  157.1281 H   0  0  0  0  0  0  0  0  0  0  0  0  # atno 11005 bound_to 11000
  146.2928  139.7189  142.9148 LP  0  0  0  0  0  0  0  0  0  0  0  0  # atno 17320 bound_to 7965
  145.4136  141.0399  143.3003 LP  0  0  0  0  0  0  0  0  0  0  0  0  # atno 17321 bound_to 7965
  139.7198  144.7605  151.0973 LP  0  0  0  0  0  0  0  0  0  0  0  0  # atno 17342 bound_to 10162
  140.7745  143.5222  150.9523 LP  0  0  0  0  0  0  0  0  0  0  0  0  # atno 17343 bound_to 10162
  157.6763  131.0849  150.7487 LP  0  0  0  0  0  0  0  0  0  0  0  0  # atno 17370 bound_to 10713
  156.7548  130.4780  149.5449 LP  0  0  0  0  0  0  0  0  0  0  0  0  # atno 17371 bound_to 10713
  140.3684  134.2417  155.7180 LP  0  0  0  0  0  0  0  0  0  0  0  0  # atno 17394 bound_to 11000
  141.1996  133.8006  157.0526 LP  0  0  0  0  0  0  0  0  0  0  0  0  # atno 17395 bound_to 11000

$$$$
