AV-unprocessed.smi:758|AV-procd|sdf|3618|dock9
  -GOLD-   22720 1 13D 1   1.00000     0.00000
 Structure written by MMmdl.
 47 48  0  0  0  0  0  0  0  0  1 V2000
  149.9848  140.3482  157.5200 C   0  0  0  0  0  0  0  0  0  0  0  0
  150.6229  140.8934  156.2234 C   0  0  0  0  0  0  0  0  0  0  0  0
  151.0561  142.3556  156.4715 C   0  0  0  0  0  0  0  0  0  0  0  0
  151.9111  140.0892  155.9384 C   0  0  0  0  0  0  0  0  0  0  0  0
  149.6467  140.8103  154.9979 C   0  0  2  0  0  0  0  0  0  0  0  0
  148.3085  141.5700  155.1950 C   0  0  0  0  0  0  0  0  0  0  0  0
  147.4077  141.5103  153.9469 C   0  0  0  0  0  0  0  0  0  0  0  0
  147.1252  140.0669  153.4780 C   0  0  2  0  0  0  0  0  0  0  0  0
  146.4789  140.1764  152.2236 O   0  0  0  0  0  0  0  0  0  0  0  0
  146.1323  139.3411  154.4244 C   0  0  0  0  0  0  0  0  0  0  0  0
  144.9976  138.7577  153.7111 N   0  0  0  0  0  0  0  0  0  0  0  0
  144.7929  137.4493  153.4892 C   0  0  0  0  0  0  0  0  0  0  0  0
  145.5506  136.5625  153.8819 O   0  0  0  0  0  0  0  0  0  0  0  0
  143.5411  137.0828  152.6910 C   0  0  0  0  0  0  0  0  0  0  0  0
  142.3362  137.3130  153.4670 N   0  0  0  0  0  0  0  0  0  0  0  0
  141.4277  138.2877  153.3923 C   0  0  0  0  0  0  0  0  0  0  0  0
  140.4486  138.1766  154.2789 N   0  0  0  0  0  0  0  0  0  0  0  0
  140.8429  137.0315  154.9116 C   0  0  0  0  0  0  0  0  0  0  0  0
  141.9677  136.4738  154.4636 N   0  0  0  0  0  0  0  0  0  0  0  0
  148.4698  139.3372  153.2630 C   0  0  0  0  0  0  0  0  0  0  0  0
  149.3513  139.3639  154.5222 C   0  0  0  0  0  0  0  0  0  0  0  0
  150.6763  140.4309  158.3593 H   0  0  0  0  0  0  0  0  0  0  0  0
  149.7192  139.2949  157.4346 H   0  0  0  0  0  0  0  0  0  0  0  0
  149.0844  140.8962  157.7957 H   0  0  0  0  0  0  0  0  0  0  0  0
  150.2328  142.9736  156.8290 H   0  0  0  0  0  0  0  0  0  0  0  0
  151.4500  142.8147  155.5641 H   0  0  0  0  0  0  0  0  0  0  0  0
  151.8364  142.4151  157.2312 H   0  0  0  0  0  0  0  0  0  0  0  0
  152.6500  140.2312  156.7280 H   0  0  0  0  0  0  0  0  0  0  0  0
  152.3752  140.3979  155.0010 H   0  0  0  0  0  0  0  0  0  0  0  0
  151.7262  139.0171  155.8814 H   0  0  0  0  0  0  0  0  0  0  0  0
  150.1548  141.3060  154.1689 H   0  0  0  0  0  0  0  0  0  0  0  0
  147.7687  141.1755  156.0545 H   0  0  0  0  0  0  0  0  0  0  0  0
  148.4926  142.6210  155.4127 H   0  0  0  0  0  0  0  0  0  0  0  0
  146.4720  142.0355  154.1431 H   0  0  0  0  0  0  0  0  0  0  0  0
  147.9000  142.0638  153.1452 H   0  0  0  0  0  0  0  0  0  0  0  0
  145.5881  140.4568  152.3686 H   0  0  0  0  0  0  0  0  0  0  0  0
  146.6492  138.5684  154.9928 H   0  0  0  0  0  0  0  0  0  0  0  0
  145.7443  140.0363  155.1700 H   0  0  0  0  0  0  0  0  0  0  0  0
  144.3219  139.4091  153.3387 H   0  0  0  0  0  0  0  0  0  0  0  0
  143.4925  137.6760  151.7769 H   0  0  0  0  0  0  0  0  0  0  0  0
  143.5822  136.0343  152.3911 H   0  0  0  0  0  0  0  0  0  0  0  0
  141.4849  139.0952  152.6771 H   0  0  0  0  0  0  0  0  0  0  0  0
  140.2843  136.5957  155.7269 H   0  0  0  0  0  0  0  0  0  0  0  0
  148.3141  138.3084  152.9383 H   0  0  0  0  0  0  0  0  0  0  0  0
  149.0167  139.8184  152.4508 H   0  0  0  0  0  0  0  0  0  0  0  0
  150.2742  138.8349  154.2911 H   0  0  0  0  0  0  0  0  0  0  0  0
  148.8624  138.7954  155.3119 H   0  0  0  0  0  0  0  0  0  0  0  0
  1  2  1  0  0  0  0
  1 22  1  0  0  0  0
  1 23  1  0  0  0  0
  1 24  1  0  0  0  0
  2  3  1  0  0  0  0
  2  4  1  0  0  0  0
  2  5  1  0  0  0  0
  3 25  1  0  0  0  0
  3 26  1  0  0  0  0
  3 27  1  0  0  0  0
  4 28  1  0  0  0  0
  4 29  1  0  0  0  0
  4 30  1  0  0  0  0
  5 21  1  0  0  0  0
  5  6  1  0  0  0  0
  5 31  1  0  0  0  0
  6  7  1  0  0  0  0
  6 32  1  0  0  0  0
  6 33  1  0  0  0  0
  7  8  1  0  0  0  0
  7 34  1  0  0  0  0
  7 35  1  0  0  0  0
  8  9  1  0  0  0  0
  8 10  1  0  0  0  0
  8 20  1  0  0  0  0
  9 36  1  0  0  0  0
 10 11  1  0  0  0  0
 10 37  1  0  0  0  0
 10 38  1  0  0  0  0
 11 12  1  0  0  0  0
 11 39  1  0  0  0  0
 12 13  2  0  0  0  0
 12 14  1  0  0  0  0
 14 15  1  0  0  0  0
 14 40  1  0  0  0  0
 14 41  1  0  0  0  0
 15 19  1  0  0  0  0
 15 16  1  0  0  0  0
 16 17  2  0  0  0  0
 16 42  1  0  0  0  0
 17 18  1  0  0  0  0
 18 19  2  0  0  0  0
 18 43  1  0  0  0  0
 20 21  1  0  0  0  0
 20 44  1  0  0  0  0
 20 45  1  0  0  0  0
 21 46  1  0  0  0  0
 21 47  1  0  0  0  0
M  END
> <s_m_source_file>
AV-unprocessed.smi

> <i_m_source_file_index>
758

> <i_lp_mmshare_version>
43012

> <i_f3d_flags>
0

> <s_epik_input>
W0NIM11DKFtDSDNdKShbQ0gzXSlbQ0BASF0oW0NIMl1bQ0gyXTEpW0NIMl1bQ0gyXVtDQEBdMShbT0hdKVtDSDJdW05IXUMoPU8pW0NIMl1uMltjSF1uW2NIXW4y

> <s_epik_cmdline>
J2VwaWtfcHl0aG9uJywgJy1waCcsICc3LjAnLCAnLXRuJywgJzgnLCAnLW1hJywgJzIwMCcsICctbWV0YWxfYmluZGluZycsICctaW1hZScsICc8aW5maWxlLm1hZT4nLCAnLW9tYWUnLCAnPG91dGZpbGUubWFlPic=

> <r_lp_tautomer_probability>
1

> <r_epik_Ionization_Penalty>
1.04836e-05

> <r_epik_Ionization_Penalty_Charging>
0

> <r_epik_Ionization_Penalty_Neutral>
1.04836e-05

> <r_epik_State_Penalty>
-0

> <r_epik_Charging_Adjusted_Penalty>
0

> <i_epik_Tot_Q>
0

> <i_epik_Tot_abs_Q>
0

> <r_epik_Metal_State_Penalty>
-0

> <b_epik_Metal_Only>
0

> <s_lp_Force_Field>
OPLS_2005

> <r_lp_Energy>
24.1988

> <b_lp_Chiralities_Consistent>
1

> <s_lp_Variant>
AV-unprocessed.smi:758-2

> <Gold.Version>
5.8.1

> <Gold.Id.Protein>
6NUR|6NUR_protein|mol2

> <Gold.PLP.Fitness>
44.0703

> <Gold.PLP.PLP>
-32.5041

> <Gold.PLP.part.hbond>
-2.5233

> <Gold.PLP.part.metal>
0.0000

> <Gold.PLP.part.buried>
0.2914

> <Gold.PLP.part.nonpolar>
-31.2461

> <Gold.PLP.part.repulsive>
0.2378

> <Gold.PLP.ligand.clash>
0.0000

> <Gold.PLP.ligand.torsion>
1.4710

> <Gold.PLP.Chemscore.Hbond>
2.0000

> <Gold.PLP.Chemscore.CHOScore>
2.8126

> <Gold.PLP.Chemscore.Metal>
0.0000

> <Gold.Chemscore.Hbonds>
donor molecule, donor type, donor heavy atom, donor atom, acceptor molecule, acceptor atom, score
      L1  H     9    36       P1 10175  1.00
      L1  H    11    39       P1 10175  0.94
      L1  C    16    42       P1 10160  1.00
      L1  C    16    42       P1 10175  0.82
      L1  C    18    43       P1 11000  0.81

> <Gold.PLP.Chemscore.Internal.Correction>
0.0704

> <Gold.Rescore>
     Score         DG    S(hbond)    S(metal)    S(lipo)     H(rot)  DE(clash)    DE(int)     intcor
      8.96     -10.40       1.87        0.00      57.87       3.17       0.02       1.42       ----

> <Gold.Chemscore.Fitness>
8.9637

> <Gold.Chemscore.DG>
-10.4009

> <Gold.Chemscore.ZeroCoef>
-5.4800

> <Gold.Chemscore.Hbond>
1.8729

> <Gold.Chemscore.Metal>
0.0000

> <Gold.Chemscore.Lipo>
57.8734

> <Gold.Chemscore.Internal_Hbond>
0.0000

> <Gold.Chemscore.DEClash>
0.0180

> <Gold.Chemscore.DEInternal>
1.4193

> <Gold.Chemscore.Rot>
3.1663

> <Gold.Chemscore.Internal.Correction>
   9.000000E+99

> <Gold.Chemscore.Hbonds>
donor molecule, donor type, donor heavy atom, donor atom, acceptor molecule, acceptor atom, score
      L1  H     9    36       P1 10175  0.45
      L1  H    11    39       P1 10175  0.90

> <Gold.Chemscore.Hbond.Weighted>
-6.2554

> <Gold.Chemscore.Metal.Weighted>
-0.0000

> <Gold.Chemscore.Lipo.Weighted>
-6.7712

> <Gold.Chemscore.Internal_Hbond.Weighted>
0.0000

> <Gold.Chemscore.DEClash.Weighted>
0.0180

> <Gold.Chemscore.DEInternal.Weighted>
1.4193

> <Gold.Chemscore.Rot.Weighted>
8.1056

> <Gold.Chemscore.Internal.Correction.Weighted>
   9.000000E+99

> <Gold.Protein.RotatedTorsions>
[ 6907 6896 6895 6894 ] final -120.49 input  -60.11 | X-H torsion
[ 7974 7965 7964 7962 ] final   87.10 input  175.53 | X-H torsion
[ 8008 7997 7996 7995 ] final   55.98 input   59.86 | X-H torsion
[ 10167 10162 10161 10158 ] final  -94.94 input  -65.29 | X-H torsion
[ 10718 10713 10712 10709 ] final   76.28 input   66.30 | X-H torsion
[ 10763 10752 10751 10750 ] final  -12.73 input  -60.55 | X-H torsion
[ 11005 11000 10999 10996 ] final  -81.56 input  -57.11 | X-H torsion

> <Gold.Protein.ActiveResidues>
 VAL166  LYS551  ARG553  GLY616  TRP617  ASP618  TYR619  PRO620  LYS621  CYS622 
 ASP623  PHE694  ASN695  SER759  ASP760  ASP761  ALA762  ILE779  LEU786  VAL792 
 PHE793  MET794  SER795  GLU796  ALA797  LYS798  CYS799  TRP800  GLU811  SER814 

> <Gold.Protein.RotatedAtoms>
  150.8398  133.7955  159.3065 H   0  0  0  0  0  0  0  0  0  0  0  0  # atno 6907 bound_to 6896
  151.5660  135.1062  159.9993 H   0  0  0  0  0  0  0  0  0  0  0  0  # atno 6908 bound_to 6896
  152.4464  133.7501  159.6746 H   0  0  0  0  0  0  0  0  0  0  0  0  # atno 6909 bound_to 6896
  145.5635  139.2306  143.2446 H   0  0  0  0  0  0  0  0  0  0  0  0  # atno 7974 bound_to 7965
  155.5100  140.3477  155.4387 H   0  0  0  0  0  0  0  0  0  0  0  0  # atno 8008 bound_to 7997
  156.0856  140.1397  156.9685 H   0  0  0  0  0  0  0  0  0  0  0  0  # atno 8009 bound_to 7997
  154.4604  140.0937  156.6855 H   0  0  0  0  0  0  0  0  0  0  0  0  # atno 8010 bound_to 7997
  140.3093  143.3114  152.0165 H   0  0  0  0  0  0  0  0  0  0  0  0  # atno 10167 bound_to 10162
  157.6667  130.9767  150.1475 H   0  0  0  0  0  0  0  0  0  0  0  0  # atno 10718 bound_to 10713
  153.5027  135.7017  153.5823 H   0  0  0  0  0  0  0  0  0  0  0  0  # atno 10763 bound_to 10752
  153.3947  135.3887  155.1947 H   0  0  0  0  0  0  0  0  0  0  0  0  # atno 10764 bound_to 10752
  154.8709  135.3867  154.4500 H   0  0  0  0  0  0  0  0  0  0  0  0  # atno 10765 bound_to 10752
  141.1666  133.7202  156.8440 H   0  0  0  0  0  0  0  0  0  0  0  0  # atno 11005 bound_to 11000
  146.1834  140.6460  142.9178 LP  0  0  0  0  0  0  0  0  0  0  0  0  # atno 17320 bound_to 7965
  144.7471  140.5097  143.6828 LP  0  0  0  0  0  0  0  0  0  0  0  0  # atno 17321 bound_to 7965
  139.4897  144.6397  151.6903 LP  0  0  0  0  0  0  0  0  0  0  0  0  # atno 17342 bound_to 10162
  140.5582  144.0312  150.6157 LP  0  0  0  0  0  0  0  0  0  0  0  0  # atno 17343 bound_to 10162
  156.2282  130.3680  149.8475 LP  0  0  0  0  0  0  0  0  0  0  0  0  # atno 17370 bound_to 10713
  156.6309  130.8665  151.3495 LP  0  0  0  0  0  0  0  0  0  0  0  0  # atno 17371 bound_to 10713
  140.1963  134.8929  157.3118 LP  0  0  0  0  0  0  0  0  0  0  0  0  # atno 17394 bound_to 11000
  140.2236  134.3994  155.7554 LP  0  0  0  0  0  0  0  0  0  0  0  0  # atno 17395 bound_to 11000

$$$$
