AV-unprocessed.smi:1799|AV-procd|sdf|7261|dock5
  -GOLD-   22720 8513D 1   1.00000     0.00000
 Structure written by MMmdl.
 41 42  0  0  0  0  0  0  0  0  2 V2000
  146.3772  133.9431  151.5699 C   0  0  0  0  0  0  0  0  0  0  0  0
  145.6626  133.2673  152.7609 C   0  0  0  0  0  0  0  0  0  0  0  0
  145.5298  131.7740  152.4037 C   0  0  0  0  0  0  0  0  0  0  0  0
  146.4772  133.3724  154.0744 C   0  0  0  0  0  0  0  0  0  0  0  0
  146.3826  134.7300  154.7980 C   0  0  0  0  0  0  0  0  0  0  0  0
  147.1818  135.7857  154.1788 N   0  0  0  0  0  0  0  0  0  0  0  0
  147.4069  137.0004  154.7009 C   0  0  0  0  0  0  0  0  0  0  0  0
  146.9498  137.3677  155.7831 O   0  0  0  0  0  0  0  0  0  0  0  0
  148.1879  137.7396  153.8938 N   0  0  0  0  0  0  0  0  0  0  0  0
  148.6889  139.0498  154.1149 C   0  0  0  0  0  0  0  0  0  0  0  0
  149.9797  139.3203  154.3649 N   0  0  0  0  0  0  0  0  0  0  0  0
  150.2020  140.6806  154.5342 N   0  0  0  0  0  0  0  0  0  0  0  0
  149.0720  141.3818  154.4049 C   0  0  0  0  0  0  0  0  0  0  0  0
  147.6251  140.4483  154.0644 S   0  0  0  0  0  0  0  0  0  0  0  0
  144.9107  135.1420  154.9638 C   0  0  0  0  0  0  0  0  0  0  0  0
  144.0545  135.0701  153.6723 C   0  0  0  0  0  0  0  0  0  0  0  0
  142.5694  135.0877  154.0844 C   0  0  0  0  0  0  0  0  0  0  0  0
  144.2715  136.2941  152.7552 C   0  0  0  0  0  0  0  0  0  0  0  0
  144.2791  133.7907  152.9411 N   0  3  0  0  0  0  0  0  0  0  0  0
  147.3193  133.4400  151.3488 H   0  0  0  0  0  0  0  0  0  0  0  0
  146.6284  134.9842  151.7423 H   0  0  0  0  0  0  0  0  0  0  0  0
  145.7687  133.8992  150.6659 H   0  0  0  0  0  0  0  0  0  0  0  0
  146.5073  131.3080  152.2719 H   0  0  0  0  0  0  0  0  0  0  0  0
  144.9725  131.6318  151.4768 H   0  0  0  0  0  0  0  0  0  0  0  0
  145.0079  131.2184  153.1839 H   0  0  0  0  0  0  0  0  0  0  0  0
  146.1044  132.6202  154.7715 H   0  0  0  0  0  0  0  0  0  0  0  0
  147.5177  133.0981  153.8961 H   0  0  0  0  0  0  0  0  0  0  0  0
  146.7887  134.5969  155.8026 H   0  0  0  0  0  0  0  0  0  0  0  0
  147.5908  135.5767  153.2798 H   0  0  0  0  0  0  0  0  0  0  0  0
  148.4724  137.3099  153.0262 H   0  0  0  0  0  0  0  0  0  0  0  0
  149.0911  142.4563  154.5106 H   0  0  0  0  0  0  0  0  0  0  0  0
  144.4768  134.4671  155.7034 H   0  0  0  0  0  0  0  0  0  0  0  0
  144.8450  136.1355  155.4101 H   0  0  0  0  0  0  0  0  0  0  0  0
  142.3205  135.9896  154.6454 H   0  0  0  0  0  0  0  0  0  0  0  0
  142.3171  134.2334  154.7140 H   0  0  0  0  0  0  0  0  0  0  0  0
  141.9125  135.0524  153.2141 H   0  0  0  0  0  0  0  0  0  0  0  0
  143.9421  137.2100  153.2474 H   0  0  0  0  0  0  0  0  0  0  0  0
  143.7002  136.2028  151.8307 H   0  0  0  0  0  0  0  0  0  0  0  0
  145.3080  136.4586  152.4807 H   0  0  0  0  0  0  0  0  0  0  0  0
  143.8275  133.8440  152.0393 H   0  0  0  0  0  0  0  0  0  0  0  0
  143.7969  133.0871  153.4821 H   0  0  0  0  0  0  0  0  0  0  0  0
  1  2  1  0  0  0  0
  1 20  1  0  0  0  0
  1 21  1  0  0  0  0
  1 22  1  0  0  0  0
  2 19  1  0  0  0  0
  2  3  1  0  0  0  0
  2  4  1  0  0  0  0
  3 23  1  0  0  0  0
  3 24  1  0  0  0  0
  3 25  1  0  0  0  0
  4  5  1  0  0  0  0
  4 26  1  0  0  0  0
  4 27  1  0  0  0  0
  5  6  1  0  0  0  0
  5 15  1  0  0  0  0
  5 28  1  0  0  0  0
  6  7  1  0  0  0  0
  6 29  1  0  0  0  0
  7  8  2  0  0  0  0
  7  9  1  0  0  0  0
  9 10  1  0  0  0  0
  9 30  1  0  0  0  0
 10 14  1  0  0  0  0
 10 11  2  0  0  0  0
 11 12  1  0  0  0  0
 12 13  2  0  0  0  0
 13 14  1  0  0  0  0
 13 31  1  0  0  0  0
 15 16  1  0  0  0  0
 15 32  1  0  0  0  0
 15 33  1  0  0  0  0
 16 17  1  0  0  0  0
 16 18  1  0  0  0  0
 16 19  1  0  0  0  0
 17 34  1  0  0  0  0
 17 35  1  0  0  0  0
 17 36  1  0  0  0  0
 18 37  1  0  0  0  0
 18 38  1  0  0  0  0
 18 39  1  0  0  0  0
 19 40  1  0  0  0  0
 19 41  1  0  0  0  0
M  CHG  1  19   1
M  END
> <s_m_source_file>
AV-unprocessed.smi

> <i_m_source_file_index>
1799

> <i_lp_mmshare_version>
43012

> <i_f3d_flags>
0

> <s_epik_input>
W0NIM11DMShbQ0gzXSlbQ0gyXVtDSF0oW0NIMl1DKFtDSDNdKShbQ0gzXSlbTkhdMSlbTkhdQyg9TylbTkhdYzJubltjSF1zMg==

> <s_epik_cmdline>
J2VwaWtfcHl0aG9uJywgJy1waCcsICc3LjAnLCAnLXRuJywgJzgnLCAnLW1hJywgJzIwMCcsICctbWV0YWxfYmluZGluZycsICctaW1hZScsICc8aW5maWxlLm1hZT4nLCAnLW9tYWUnLCAnPG91dGZpbGUubWFlPic=

> <r_lp_tautomer_probability>
1

> <r_epik_Ionization_Penalty>
0.000698711

> <r_epik_Ionization_Penalty_Charging>
0.000101406

> <r_epik_Ionization_Penalty_Neutral>
0.000597305

> <r_epik_State_Penalty>
-0

> <r_epik_Charging_Adjusted_Penalty>
0.000101406

> <i_epik_Tot_Q>
1

> <i_epik_Tot_abs_Q>
1

> <r_epik_Metal_State_Penalty>
0.237927

> <b_epik_Metal_Only>
0

> <s_lp_Force_Field>
OPLS_2005

> <r_lp_Energy>
25.55

> <b_lp_Chiralities_Consistent>
1

> <s_lp_Variant>
AV-unprocessed.smi:1799-1

> <Gold.Version>
5.8.1

> <Gold.Id.Protein>
6NUR|6NUR_protein|mol2

> <Gold.PLP.Fitness>
35.9956

> <Gold.PLP.PLP>
-22.4210

> <Gold.PLP.part.hbond>
-3.5251

> <Gold.PLP.part.metal>
0.0000

> <Gold.PLP.part.buried>
-3.8073

> <Gold.PLP.part.nonpolar>
-15.3542

> <Gold.PLP.part.repulsive>
0.3070

> <Gold.PLP.ligand.clash>
0.0000

> <Gold.PLP.ligand.torsion>
0.7132

> <Gold.PLP.Chemscore.Hbond>
3.9944

> <Gold.PLP.Chemscore.CHOScore>
1.0000

> <Gold.PLP.Chemscore.Metal>
0.0000

> <Gold.Chemscore.Hbonds>
donor molecule, donor type, donor heavy atom, donor atom, acceptor molecule, acceptor atom, score
      L1  H     6    29       P1  7948  0.83
      L1  H     9    30       P1  7948  1.00
      L1  H    19    41       P1 10957  1.30
      P1  H  7989  7998       L1    12  0.83
      L1  C    13    31       P1  8028  1.00

> <Gold.PLP.Chemscore.Internal.Correction>
0.0178

> <Gold.Rescore>
     Score         DG    S(hbond)    S(metal)    S(lipo)     H(rot)  DE(clash)    DE(int)     intcor
     17.75     -18.49       3.18        0.00      42.29       1.00       0.02       0.72       ----

> <Gold.Chemscore.Fitness>
17.7463

> <Gold.Chemscore.DG>
-18.4858

> <Gold.Chemscore.ZeroCoef>
-5.4800

> <Gold.Chemscore.Hbond>
3.1789

> <Gold.Chemscore.Metal>
0.0000

> <Gold.Chemscore.Lipo>
42.2937

> <Gold.Chemscore.Internal_Hbond>
0.0000

> <Gold.Chemscore.DEClash>
0.0211

> <Gold.Chemscore.DEInternal>
0.7183

> <Gold.Chemscore.Rot>
1.0000

> <Gold.Chemscore.Internal.Correction>
   9.000000E+99

> <Gold.Chemscore.Hbonds>
donor molecule, donor type, donor heavy atom, donor atom, acceptor molecule, acceptor atom, score
      L1  H     6    29       P1  7948  0.78
      L1  H     9    30       P1  7948  1.00
      L1  H    19    41       P1 10957  0.57
      P1  H  7989  7998       L1    12  0.21

> <Gold.Chemscore.Hbond.Weighted>
-10.6174

> <Gold.Chemscore.Metal.Weighted>
-0.0000

> <Gold.Chemscore.Lipo.Weighted>
-4.9484

> <Gold.Chemscore.Internal_Hbond.Weighted>
0.0000

> <Gold.Chemscore.DEClash.Weighted>
0.0211

> <Gold.Chemscore.DEInternal.Weighted>
0.7183

> <Gold.Chemscore.Rot.Weighted>
2.5600

> <Gold.Chemscore.Internal.Correction.Weighted>
   9.000000E+99

> <Gold.Protein.RotatedTorsions>
[ 6907 6896 6895 6894 ] final    1.37 input  -60.11 | X-H torsion
[ 7974 7965 7964 7962 ] final -149.02 input  175.53 | X-H torsion
[ 8008 7997 7996 7995 ] final -132.30 input   59.86 | X-H torsion
[ 10167 10162 10161 10158 ] final -118.39 input  -65.29 | X-H torsion
[ 10718 10713 10712 10709 ] final   53.10 input   66.30 | X-H torsion
[ 10763 10752 10751 10750 ] final  179.50 input  -60.55 | X-H torsion
[ 11005 11000 10999 10996 ] final  120.36 input  -57.11 | X-H torsion

> <Gold.Protein.ActiveResidues>
 VAL166  LYS551  ARG553  GLY616  TRP617  ASP618  TYR619  PRO620  LYS621  CYS622 
 ASP623  PHE694  ASN695  SER759  ASP760  ASP761  ALA762  ILE779  LEU786  VAL792 
 PHE793  MET794  SER795  GLU796  ALA797  LYS798  CYS799  TRP800  GLU811  SER814 

> <Gold.Protein.RotatedAtoms>
  151.5915  135.1053  160.0039 H   0  0  0  0  0  0  0  0  0  0  0  0  # atno 6907 bound_to 6896
  152.4304  133.7263  159.6572 H   0  0  0  0  0  0  0  0  0  0  0  0  # atno 6908 bound_to 6896
  150.8196  133.8206  159.3168 H   0  0  0  0  0  0  0  0  0  0  0  0  # atno 6909 bound_to 6896
  144.7993  140.5120  143.5718 H   0  0  0  0  0  0  0  0  0  0  0  0  # atno 7974 bound_to 7965
  155.3266  140.0465  157.3041 H   0  0  0  0  0  0  0  0  0  0  0  0  # atno 8008 bound_to 7997
  154.5351  140.2269  155.8703 H   0  0  0  0  0  0  0  0  0  0  0  0  # atno 8009 bound_to 7997
  156.1827  140.3070  155.9185 H   0  0  0  0  0  0  0  0  0  0  0  0  # atno 8010 bound_to 7997
  140.0581  143.4995  152.2046 H   0  0  0  0  0  0  0  0  0  0  0  0  # atno 10167 bound_to 10162
  157.5136  130.8517  149.8467 H   0  0  0  0  0  0  0  0  0  0  0  0  # atno 10718 bound_to 10713
  154.5214  135.2794  155.1259 H   0  0  0  0  0  0  0  0  0  0  0  0  # atno 10763 bound_to 10752
  154.2815  135.6284  153.5352 H   0  0  0  0  0  0  0  0  0  0  0  0  # atno 10764 bound_to 10752
  152.9938  135.5652  154.5705 H   0  0  0  0  0  0  0  0  0  0  0  0  # atno 10765 bound_to 10752
  139.9182  134.9634  156.7796 H   0  0  0  0  0  0  0  0  0  0  0  0  # atno 11005 bound_to 11000
  145.5593  139.1479  143.3350 LP  0  0  0  0  0  0  0  0  0  0  0  0  # atno 17320 bound_to 7965
  146.2270  140.5729  142.8992 LP  0  0  0  0  0  0  0  0  0  0  0  0  # atno 17321 bound_to 7965
  139.5911  144.7550  151.3398 LP  0  0  0  0  0  0  0  0  0  0  0  0  # atno 17342 bound_to 10162
  140.7185  143.7200  150.7703 LP  0  0  0  0  0  0  0  0  0  0  0  0  # atno 17343 bound_to 10162
  156.0305  130.3766  150.1700 LP  0  0  0  0  0  0  0  0  0  0  0  0  # atno 17370 bound_to 10713
  156.9889  130.9887  151.3419 LP  0  0  0  0  0  0  0  0  0  0  0  0  # atno 17371 bound_to 10713
  140.6555  133.9692  155.7777 LP  0  0  0  0  0  0  0  0  0  0  0  0  # atno 17394 bound_to 11000
  141.0679  134.0249  157.3568 LP  0  0  0  0  0  0  0  0  0  0  0  0  # atno 17395 bound_to 11000

$$$$
