AV-unprocessed.smi:2561|AV-procd|sdf|10040|dock9
  -GOLD-   2272014 83D 1   1.00000     0.00000
 Structure written by MMmdl.
 32 33  0  0  0  0  0  0  0  0  1 V2000
  146.5050  138.4585  152.0505 C   0  0  0  0  0  0  0  0  0  0  0  0
  147.7367  139.0906  152.4983 N   0  0  0  0  0  0  0  0  0  0  0  0
  147.9623  139.4921  153.7560 C   0  0  0  0  0  0  0  0  0  0  0  0
  147.1399  139.3680  154.6634 O   0  0  0  0  0  0  0  0  0  0  0  0
  149.1781  140.0526  153.8772 N   0  0  0  0  0  0  0  0  0  0  0  0
  149.7866  140.6039  155.0372 C   0  0  0  0  0  0  0  0  0  0  0  0
  151.1596  140.4756  155.3549 C   0  0  0  0  0  0  0  0  0  0  0  0
  151.6461  141.0829  156.5285 C   0  0  0  0  0  0  0  0  0  0  0  0
  150.7519  141.8073  157.3433 C   0  0  0  0  0  0  0  0  0  0  0  0
  151.2400  142.4093  158.5132 N   0  0  0  0  0  0  0  0  0  0  0  0
  152.0400  141.5517  159.3723 C   0  0  0  0  0  0  0  0  0  0  0  0
  152.7597  142.4985  160.3359 C   0  0  0  0  0  0  0  0  0  0  0  0
  152.7647  143.8560  159.6226 C   0  0  0  0  0  0  0  0  0  0  0  0
  152.0327  143.6089  158.3006 C   0  0  0  0  0  0  0  0  0  0  0  0
  149.4395  141.9445  157.0378 N   0  0  0  0  0  0  0  0  0  0  0  0
  148.9792  141.3597  155.9119 C   0  0  0  0  0  0  0  0  0  0  0  0
  146.5703  138.2286  150.9871 H   0  0  0  0  0  0  0  0  0  0  0  0
  145.6506  139.1189  152.2051 H   0  0  0  0  0  0  0  0  0  0  0  0
  146.3279  137.5277  152.5909 H   0  0  0  0  0  0  0  0  0  0  0  0
  148.4599  139.2324  151.8082 H   0  0  0  0  0  0  0  0  0  0  0  0
  149.7074  140.1517  153.0233 H   0  0  0  0  0  0  0  0  0  0  0  0
  151.8483  139.9400  154.7205 H   0  0  0  0  0  0  0  0  0  0  0  0
  152.6900  140.9972  156.7935 H   0  0  0  0  0  0  0  0  0  0  0  0
  151.4137  140.8357  159.9054 H   0  0  0  0  0  0  0  0  0  0  0  0
  152.7697  140.9911  158.7864 H   0  0  0  0  0  0  0  0  0  0  0  0
  152.2081  142.5747  161.2735 H   0  0  0  0  0  0  0  0  0  0  0  0
  153.7650  142.1467  160.5691 H   0  0  0  0  0  0  0  0  0  0  0  0
  152.2283  144.5923  160.2221 H   0  0  0  0  0  0  0  0  0  0  0  0
  153.7738  144.2344  159.4572 H   0  0  0  0  0  0  0  0  0  0  0  0
  152.7537  143.4528  157.4968 H   0  0  0  0  0  0  0  0  0  0  0  0
  151.4010  144.4547  158.0277 H   0  0  0  0  0  0  0  0  0  0  0  0
  147.9275  141.4965  155.7064 H   0  0  0  0  0  0  0  0  0  0  0  0
  1  2  1  0  0  0  0
  1 17  1  0  0  0  0
  1 18  1  0  0  0  0
  1 19  1  0  0  0  0
  2  3  1  0  0  0  0
  2 20  1  0  0  0  0
  3  4  2  0  0  0  0
  3  5  1  0  0  0  0
  5  6  1  0  0  0  0
  5 21  1  0  0  0  0
  6 16  1  0  0  0  0
  6  7  2  0  0  0  0
  7  8  1  0  0  0  0
  7 22  1  0  0  0  0
  8  9  2  0  0  0  0
  8 23  1  0  0  0  0
  9 10  1  0  0  0  0
  9 15  1  0  0  0  0
 10 14  1  0  0  0  0
 10 11  1  0  0  0  0
 11 12  1  0  0  0  0
 11 24  1  0  0  0  0
 11 25  1  0  0  0  0
 12 13  1  0  0  0  0
 12 26  1  0  0  0  0
 12 27  1  0  0  0  0
 13 14  1  0  0  0  0
 13 28  1  0  0  0  0
 13 29  1  0  0  0  0
 14 30  1  0  0  0  0
 14 31  1  0  0  0  0
 15 16  2  0  0  0  0
 16 32  1  0  0  0  0
M  END
> <s_m_source_file>
AV-unprocessed.smi

> <i_m_source_file_index>
2561

> <i_lp_mmshare_version>
43012

> <i_f3d_flags>
0

> <s_epik_input>
W0NIM11bTkhdQyg9TylbTkhdYzFbY0hdW2NIXWMobltjSF0xKU4yW0NIMl1bQ0gyXVtDSDJdW0NIMl0y

> <s_epik_cmdline>
J2VwaWtfcHl0aG9uJywgJy1waCcsICc3LjAnLCAnLXRuJywgJzgnLCAnLW1hJywgJzIwMCcsICctbWV0YWxfYmluZGluZycsICctaW1hZScsICc8aW5maWxlLm1hZT4nLCAnLW9tYWUnLCAnPG91dGZpbGUubWFlPic=

> <r_lp_tautomer_probability>
1

> <r_epik_Ionization_Penalty>
0.281536

> <r_epik_Ionization_Penalty_Charging>
0

> <r_epik_Ionization_Penalty_Neutral>
0.281536

> <r_epik_State_Penalty>
0.27354

> <r_epik_Charging_Adjusted_Penalty>
0.27354

> <i_epik_Tot_Q>
0

> <i_epik_Tot_abs_Q>
0

> <r_epik_Metal_State_Penalty>
0.184484

> <b_epik_Metal_Only>
0

> <s_lp_Force_Field>
OPLS_2005

> <r_lp_Energy>
32.7589

> <b_lp_Chiralities_Consistent>
1

> <s_lp_Variant>
AV-unprocessed.smi:2561-1

> <Gold.Version>
5.8.1

> <Gold.Id.Protein>
6NUR|6NUR_protein|mol2

> <Gold.PLP.Fitness>
37.2241

> <Gold.PLP.PLP>
-33.1996

> <Gold.PLP.part.hbond>
-2.8653

> <Gold.PLP.part.metal>
0.0000

> <Gold.PLP.part.buried>
-3.1177

> <Gold.PLP.part.nonpolar>
-27.8159

> <Gold.PLP.part.repulsive>
0.4974

> <Gold.PLP.ligand.clash>
0.0000

> <Gold.PLP.ligand.torsion>
0.5873

> <Gold.PLP.Chemscore.Hbond>
1.7280

> <Gold.PLP.Chemscore.CHOScore>
0.0000

> <Gold.PLP.Chemscore.Metal>
0.0000

> <Gold.Chemscore.Hbonds>
donor molecule, donor type, donor heavy atom, donor atom, acceptor molecule, acceptor atom, score
      L1  H     2    20       P1  7957  0.98
      L1  H     5    21       P1  7957  0.90

> <Gold.PLP.Chemscore.Internal.Correction>
0.0152

> <Gold.Rescore>
     Score         DG    S(hbond)    S(metal)    S(lipo)     H(rot)  DE(clash)    DE(int)     intcor
     15.99     -18.19       1.82        0.00      78.60       1.00       0.08       2.11       ----

> <Gold.Chemscore.Fitness>
15.9949

> <Gold.Chemscore.DG>
-18.1865

> <Gold.Chemscore.ZeroCoef>
-5.4800

> <Gold.Chemscore.Hbond>
1.8176

> <Gold.Chemscore.Metal>
0.0000

> <Gold.Chemscore.Lipo>
78.5960

> <Gold.Chemscore.Internal_Hbond>
0.0000

> <Gold.Chemscore.DEClash>
0.0832

> <Gold.Chemscore.DEInternal>
2.1085

> <Gold.Chemscore.Rot>
1.0000

> <Gold.Chemscore.Internal.Correction>
   9.000000E+99

> <Gold.Chemscore.Hbonds>
donor molecule, donor type, donor heavy atom, donor atom, acceptor molecule, acceptor atom, score
      L1  H     2    20       P1  7957  0.88
      L1  H     5    21       P1  7957  0.88

> <Gold.Chemscore.Hbond.Weighted>
-6.0708

> <Gold.Chemscore.Metal.Weighted>
-0.0000

> <Gold.Chemscore.Lipo.Weighted>
-9.1957

> <Gold.Chemscore.Internal_Hbond.Weighted>
0.0000

> <Gold.Chemscore.DEClash.Weighted>
0.0832

> <Gold.Chemscore.DEInternal.Weighted>
2.1085

> <Gold.Chemscore.Rot.Weighted>
2.5600

> <Gold.Chemscore.Internal.Correction.Weighted>
   9.000000E+99

> <Gold.Protein.RotatedTorsions>
[ 6907 6896 6895 6894 ] final  145.59 input  -60.11 | X-H torsion
[ 7974 7965 7964 7962 ] final    2.18 input  175.53 | X-H torsion
[ 8008 7997 7996 7995 ] final  -56.72 input   59.86 | X-H torsion
[ 10167 10162 10161 10158 ] final -137.93 input  -65.29 | X-H torsion
[ 10718 10713 10712 10709 ] final  128.94 input   66.30 | X-H torsion
[ 10763 10752 10751 10750 ] final  -85.68 input  -60.55 | X-H torsion
[ 11005 11000 10999 10996 ] final   95.14 input  -57.11 | X-H torsion

> <Gold.Protein.ActiveResidues>
 VAL166  LYS551  ARG553  GLY616  TRP617  ASP618  TYR619  PRO620  LYS621  CYS622 
 ASP623  PHE694  ASN695  SER759  ASP760  ASP761  ALA762  ILE779  LEU786  VAL792 
 PHE793  MET794  SER795  GLU796  ALA797  LYS798  CYS799  TRP800  GLU811  SER814 

> <Gold.Protein.RotatedAtoms>
  152.1789  133.4693  159.4947 H   0  0  0  0  0  0  0  0  0  0  0  0  # atno 6907 bound_to 6896
  150.6931  134.1859  159.4275 H   0  0  0  0  0  0  0  0  0  0  0  0  # atno 6908 bound_to 6896
  151.9769  135.0048  160.0606 H   0  0  0  0  0  0  0  0  0  0  0  0  # atno 6909 bound_to 6896
  146.2443  140.0875  142.8354 H   0  0  0  0  0  0  0  0  0  0  0  0  # atno 7974 bound_to 7965
  154.4240  140.1123  156.5682 H   0  0  0  0  0  0  0  0  0  0  0  0  # atno 8008 bound_to 7997
  155.6239  140.3495  155.4642 H   0  0  0  0  0  0  0  0  0  0  0  0  # atno 8009 bound_to 7997
  156.0002  140.1197  157.0544 H   0  0  0  0  0  0  0  0  0  0  0  0  # atno 8010 bound_to 7997
  139.8528  143.7176  152.2656 H   0  0  0  0  0  0  0  0  0  0  0  0  # atno 10167 bound_to 10162
  157.5199  131.1098  150.9169 H   0  0  0  0  0  0  0  0  0  0  0  0  # atno 10718 bound_to 10713
  154.6138  135.5476  153.7502 H   0  0  0  0  0  0  0  0  0  0  0  0  # atno 10763 bound_to 10752
  153.0207  135.6396  154.1539 H   0  0  0  0  0  0  0  0  0  0  0  0  # atno 10764 bound_to 10752
  154.1476  135.2904  155.3124 H   0  0  0  0  0  0  0  0  0  0  0  0  # atno 10765 bound_to 10752
  139.8792  134.8883  156.3967 H   0  0  0  0  0  0  0  0  0  0  0  0  # atno 11005 bound_to 11000
  145.0679  140.9135  143.4899 LP  0  0  0  0  0  0  0  0  0  0  0  0  # atno 17320 bound_to 7965
  145.1003  139.2827  143.5689 LP  0  0  0  0  0  0  0  0  0  0  0  0  # atno 17321 bound_to 7965
  139.7448  144.7550  151.0596 LP  0  0  0  0  0  0  0  0  0  0  0  0  # atno 17342 bound_to 10162
  140.7785  143.4929  150.9870 LP  0  0  0  0  0  0  0  0  0  0  0  0  # atno 17343 bound_to 10162
  156.9783  130.5517  149.5294 LP  0  0  0  0  0  0  0  0  0  0  0  0  # atno 17370 bound_to 10713
  156.0346  130.5435  150.8621 LP  0  0  0  0  0  0  0  0  0  0  0  0  # atno 17371 bound_to 10713
  140.9295  133.7589  156.0007 LP  0  0  0  0  0  0  0  0  0  0  0  0  # atno 17394 bound_to 11000
  140.8347  134.3137  157.5336 LP  0  0  0  0  0  0  0  0  0  0  0  0  # atno 17395 bound_to 11000

$$$$
