AV-unprocessed.smi:623|AV-procd|sdf|3093|dock8
  -GOLD-   22720 0 13D 1   1.00000     0.00000
 Structure written by MMmdl.
 45 47  0  0  0  0  0  0  0  0  1 V2000
  149.9136  143.9149  159.2368 C   0  0  0  0  0  0  0  0  0  0  0  0
  151.3591  143.6463  159.7443 C   0  0  0  0  0  0  0  0  0  0  0  0
  151.6384  144.7681  160.7843 C   0  0  0  0  0  0  0  0  0  0  0  0
  151.5897  142.2170  160.2751 C   0  0  2  0  0  0  0  0  0  0  0  0
  153.1002  142.1917  160.6026 C   0  0  0  0  0  0  0  0  0  0  0  0
  153.6993  143.0752  159.4886 C   0  0  0  0  0  0  0  0  0  0  0  0
  152.4523  143.4652  158.6530 C   0  0  2  0  0  0  0  0  0  0  0  0
  152.7076  144.6853  157.7460 C   0  0  0  0  0  0  0  0  0  0  0  0
  152.0479  142.1558  157.9067 C   0  0  2  0  0  0  0  0  0  0  0  0
  151.1441  142.3931  156.7847 N   0  0  0  0  0  0  0  0  0  0  0  0
  150.3699  141.4940  156.1563 C   0  0  0  0  0  0  0  0  0  0  0  0
  150.2958  140.3140  156.4960 O   0  0  0  0  0  0  0  0  0  0  0  0
  149.5645  141.9801  154.9388 C   0  0  0  0  0  0  0  0  0  0  0  0
  148.7401  140.9354  154.3069 N   0  0  0  0  0  0  0  0  0  0  0  0
  147.3874  141.1573  154.0890 C   0  0  0  0  0  0  0  0  0  0  0  0
  146.5554  140.2300  153.5592 C   0  0  0  0  0  0  0  0  0  0  0  0
  147.0604  138.9144  153.1824 C   0  0  0  0  0  0  0  0  0  0  0  0
  146.3862  138.0080  152.6988 O   0  0  0  0  0  0  0  0  0  0  0  0
  148.4255  138.7298  153.4160 N   0  0  0  0  0  0  0  0  0  0  0  0
  149.2886  139.6806  153.9624 C   0  0  0  0  0  0  0  0  0  0  0  0
  150.4748  139.4081  154.1410 O   0  0  0  0  0  0  0  0  0  0  0  0
  151.3893  141.3237  159.0292 C   0  0  0  0  0  0  0  0  0  0  0  0
  148.8201  137.8329  153.1723 H   0  0  0  0  0  0  0  0  0  0  0  0
  149.2177  143.9700  160.0745 H   0  0  0  0  0  0  0  0  0  0  0  0
  149.5066  143.1634  158.5665 H   0  0  0  0  0  0  0  0  0  0  0  0
  149.8557  144.8688  158.7121 H   0  0  0  0  0  0  0  0  0  0  0  0
  152.6224  144.7382  161.2466 H   0  0  0  0  0  0  0  0  0  0  0  0
  150.9163  144.7234  161.6003 H   0  0  0  0  0  0  0  0  0  0  0  0
  151.5415  145.7525  160.3259 H   0  0  0  0  0  0  0  0  0  0  0  0
  150.9595  141.9308  161.1174 H   0  0  0  0  0  0  0  0  0  0  0  0
  153.3050  142.6056  161.5900 H   0  0  0  0  0  0  0  0  0  0  0  0
  153.5092  141.1807  160.5891 H   0  0  0  0  0  0  0  0  0  0  0  0
  154.1989  143.9489  159.9075 H   0  0  0  0  0  0  0  0  0  0  0  0
  154.4507  142.5436  158.9034 H   0  0  0  0  0  0  0  0  0  0  0  0
  153.4683  144.4602  156.9983 H   0  0  0  0  0  0  0  0  0  0  0  0
  153.0566  145.5416  158.3231 H   0  0  0  0  0  0  0  0  0  0  0  0
  151.8059  144.9948  157.2173 H   0  0  0  0  0  0  0  0  0  0  0  0
  152.9351  141.6348  157.5428 H   0  0  0  0  0  0  0  0  0  0  0  0
  151.1273  143.3370  156.4266 H   0  0  0  0  0  0  0  0  0  0  0  0
  148.9244  142.8023  155.2624 H   0  0  0  0  0  0  0  0  0  0  0  0
  150.2533  142.4241  154.2180 H   0  0  0  0  0  0  0  0  0  0  0  0
  146.9691  142.1157  154.3625 H   0  0  0  0  0  0  0  0  0  0  0  0
  145.5097  140.4615  153.4168 H   0  0  0  0  0  0  0  0  0  0  0  0
  151.8629  140.3476  159.1415 H   0  0  0  0  0  0  0  0  0  0  0  0
  150.3322  141.1354  158.8401 H   0  0  0  0  0  0  0  0  0  0  0  0
  1  2  1  0  0  0  0
  1 24  1  0  0  0  0
  1 25  1  0  0  0  0
  1 26  1  0  0  0  0
  2  7  1  0  0  0  0
  2  3  1  0  0  0  0
  2  4  1  0  0  0  0
  3 27  1  0  0  0  0
  3 28  1  0  0  0  0
  3 29  1  0  0  0  0
  4 22  1  0  0  0  0
  4  5  1  0  0  0  0
  4 30  1  0  0  0  0
  5  6  1  0  0  0  0
  5 31  1  0  0  0  0
  5 32  1  0  0  0  0
  6  7  1  0  0  0  0
  6 33  1  0  0  0  0
  6 34  1  0  0  0  0
  7  8  1  0  0  0  0
  7  9  1  0  0  0  0
  8 35  1  0  0  0  0
  8 36  1  0  0  0  0
  8 37  1  0  0  0  0
  9 10  1  0  0  0  0
  9 22  1  0  0  0  0
  9 38  1  0  0  0  0
 10 11  1  0  0  0  0
 10 39  1  0  0  0  0
 11 12  2  0  0  0  0
 11 13  1  0  0  0  0
 13 14  1  0  0  0  0
 13 40  1  0  0  0  0
 13 41  1  0  0  0  0
 14 20  1  0  0  0  0
 14 15  1  0  0  0  0
 15 16  2  0  0  0  0
 15 42  1  0  0  0  0
 16 17  1  0  0  0  0
 16 43  1  0  0  0  0
 17 18  2  0  0  0  0
 17 19  1  0  0  0  0
 19 23  1  0  0  0  0
 19 20  1  0  0  0  0
 20 21  2  0  0  0  0
 22 44  1  0  0  0  0
 22 45  1  0  0  0  0
M  END
> <s_m_source_file>
AV-unprocessed.smi

> <i_m_source_file_index>
623

> <i_lp_mmshare_version>
43012

> <i_f3d_flags>
0

> <s_epik_input>
W0NIM11bQ0BdMTJDKFtDSDNdKShbQ0gzXSlbQ0BIXShbQ0gyXVtDSDJdMSlbQ0gyXVtDQEBIXTJbTkhdQyg9TylbQ0gyXW4zW2NIXVtjSF1jKD1PKVtuSF1jMz1P

> <s_epik_cmdline>
J2VwaWtfcHl0aG9uJywgJy1waCcsICc3LjAnLCAnLXRuJywgJzgnLCAnLW1hJywgJzIwMCcsICctbWV0YWxfYmluZGluZycsICctaW1hZScsICc8aW5maWxlLm1hZT4nLCAnLW9tYWUnLCAnPG91dGZpbGUubWFlPic=

> <r_lp_tautomer_probability>
0.999537

> <r_epik_Ionization_Penalty>
0.00303563

> <r_epik_Ionization_Penalty_Charging>
0.00303561

> <r_epik_Ionization_Penalty_Neutral>
2.03238e-08

> <r_epik_State_Penalty>
0.00213308

> <r_epik_Charging_Adjusted_Penalty>
0.00516869

> <i_epik_Tot_Q>
0

> <i_epik_Tot_abs_Q>
0

> <r_epik_Metal_State_Penalty>
0.361714

> <b_epik_Metal_Only>
0

> <s_lp_Force_Field>
OPLS_2005

> <r_lp_Energy>
55.1954

> <b_lp_Chiralities_Consistent>
1

> <s_lp_Variant>
AV-unprocessed.smi:623-3

> <Gold.Version>
5.8.1

> <Gold.Id.Protein>
6NUR|6NUR_protein|mol2

> <Gold.PLP.Fitness>
43.1460

> <Gold.PLP.PLP>
-37.6817

> <Gold.PLP.part.hbond>
-3.0000

> <Gold.PLP.part.metal>
0.0000

> <Gold.PLP.part.buried>
3.8513

> <Gold.PLP.part.nonpolar>
-38.6059

> <Gold.PLP.part.repulsive>
0.5964

> <Gold.PLP.ligand.clash>
0.0000

> <Gold.PLP.ligand.torsion>
0.2636

> <Gold.PLP.Chemscore.Hbond>
1.9920

> <Gold.PLP.Chemscore.CHOScore>
0.0000

> <Gold.PLP.Chemscore.Metal>
0.0000

> <Gold.Chemscore.Hbonds>
donor molecule, donor type, donor heavy atom, donor atom, acceptor molecule, acceptor atom, score
      L1  H    19    23       P1  7948  0.93
      P1  H  7989  7998       L1    21  1.00

> <Gold.PLP.Chemscore.Internal.Correction>
0.0155

> <Gold.Rescore>
     Score         DG    S(hbond)    S(metal)    S(lipo)     H(rot)  DE(clash)    DE(int)     intcor
     12.95     -21.46       1.74        0.00     123.47       1.66       2.87       5.64       ----

> <Gold.Chemscore.Fitness>
12.9529

> <Gold.Chemscore.DG>
-21.4620

> <Gold.Chemscore.ZeroCoef>
-5.4800

> <Gold.Chemscore.Hbond>
1.7358

> <Gold.Chemscore.Metal>
0.0000

> <Gold.Chemscore.Lipo>
123.4706

> <Gold.Chemscore.Internal_Hbond>
0.0000

> <Gold.Chemscore.DEClash>
2.8683

> <Gold.Chemscore.DEInternal>
5.6409

> <Gold.Chemscore.Rot>
1.6647

> <Gold.Chemscore.Internal.Correction>
   9.000000E+99

> <Gold.Chemscore.Hbonds>
donor molecule, donor type, donor heavy atom, donor atom, acceptor molecule, acceptor atom, score
      L1  H    19    23       P1  7948  0.85
      P1  H  7989  7998       L1    21  0.77

> <Gold.Chemscore.Hbond.Weighted>
-5.7976

> <Gold.Chemscore.Metal.Weighted>
-0.0000

> <Gold.Chemscore.Lipo.Weighted>
-14.4461

> <Gold.Chemscore.Internal_Hbond.Weighted>
0.0000

> <Gold.Chemscore.DEClash.Weighted>
2.8683

> <Gold.Chemscore.DEInternal.Weighted>
5.6409

> <Gold.Chemscore.Rot.Weighted>
4.2617

> <Gold.Chemscore.Internal.Correction.Weighted>
   9.000000E+99

> <Gold.Protein.RotatedTorsions>
[ 6907 6896 6895 6894 ] final  -92.02 input  -60.11 | X-H torsion
[ 7974 7965 7964 7962 ] final   26.36 input  175.53 | X-H torsion
[ 8008 7997 7996 7995 ] final -117.34 input   59.86 | X-H torsion
[ 10167 10162 10161 10158 ] final  -41.66 input  -65.29 | X-H torsion
[ 10718 10713 10712 10709 ] final   -8.28 input   66.30 | X-H torsion
[ 10763 10752 10751 10750 ] final  114.41 input  -60.55 | X-H torsion
[ 11005 11000 10999 10996 ] final  -95.77 input  -57.11 | X-H torsion

> <Gold.Protein.ActiveResidues>
 VAL166  LYS551  ARG553  GLY616  TRP617  ASP618  TYR619  PRO620  LYS621  CYS622 
 ASP623  PHE694  ASN695  SER759  ASP760  ASP761  ALA762  ILE779  LEU786  VAL792 
 PHE793  MET794  SER795  GLU796  ALA797  LYS798  CYS799  TRP800  GLU811  SER814 

> <Gold.Protein.RotatedAtoms>
  150.6900  134.2186  159.4387 H   0  0  0  0  0  0  0  0  0  0  0  0  # atno 6907 bound_to 6896
  152.0144  134.9856  160.0578 H   0  0  0  0  0  0  0  0  0  0  0  0  # atno 6908 bound_to 6896
  152.1458  133.4456  159.4826 H   0  0  0  0  0  0  0  0  0  0  0  0  # atno 6909 bound_to 6896
  146.1841  139.7338  142.8879 H   0  0  0  0  0  0  0  0  0  0  0  0  # atno 7974 bound_to 7965
  155.0821  140.0394  157.2642 H   0  0  0  0  0  0  0  0  0  0  0  0  # atno 8008 bound_to 7997
  154.6898  140.2651  155.6799 H   0  0  0  0  0  0  0  0  0  0  0  0  # atno 8009 bound_to 7997
  156.2725  140.2761  156.1473 H   0  0  0  0  0  0  0  0  0  0  0  0  # atno 8010 bound_to 7997
  140.6995  143.3082  151.3098 H   0  0  0  0  0  0  0  0  0  0  0  0  # atno 10167 bound_to 10162
  156.7049  130.5104  149.5907 H   0  0  0  0  0  0  0  0  0  0  0  0  # atno 10718 bound_to 10713
  153.5069  135.3626  155.2567 H   0  0  0  0  0  0  0  0  0  0  0  0  # atno 10763 bound_to 10752
  154.8744  135.4013  154.3413 H   0  0  0  0  0  0  0  0  0  0  0  0  # atno 10764 bound_to 10752
  153.4059  135.7076  153.6459 H   0  0  0  0  0  0  0  0  0  0  0  0  # atno 10765 bound_to 10752
  141.1432  133.8049  157.0480 H   0  0  0  0  0  0  0  0  0  0  0  0  # atno 11005 bound_to 11000
  145.3990  141.0382  143.3081 LP  0  0  0  0  0  0  0  0  0  0  0  0  # atno 17320 bound_to 7965
  144.8366  139.5540  143.6919 LP  0  0  0  0  0  0  0  0  0  0  0  0  # atno 17321 bound_to 7965
  139.6495  144.0388  152.2616 LP  0  0  0  0  0  0  0  0  0  0  0  0  # atno 17342 bound_to 10162
  139.9920  144.6355  150.7806 LP  0  0  0  0  0  0  0  0  0  0  0  0  # atno 17343 bound_to 10162
  156.1702  130.6432  151.0828 LP  0  0  0  0  0  0  0  0  0  0  0  0  # atno 17370 bound_to 10713
  157.6959  131.0794  150.6971 LP  0  0  0  0  0  0  0  0  0  0  0  0  # atno 17371 bound_to 10713
  140.0650  134.9734  157.1370 LP  0  0  0  0  0  0  0  0  0  0  0  0  # atno 17394 bound_to 11000
  140.3793  134.2305  155.7172 LP  0  0  0  0  0  0  0  0  0  0  0  0  # atno 17395 bound_to 11000

$$$$
