#       Name:                AV-unprocessed.smi:3290
#       Creating user name   scv26
#       Creation time:       Fri Mar 27 18:55:11 2020


#       File generated by GOLD software.
#

@<TRIPOS>MOLECULE
AV-unprocessed.smi:3290
    46    47     1
SMALL
NO_CHARGES


@<TRIPOS>ATOM
      1 ****        -1.9252   0.2593  -1.9788 C.3            1 S1                 0.0000
      2 ****        -2.4284   1.2587  -0.9214 C.3            1 S1                 0.0000
      3 ****        -3.9678   1.3486  -0.9906 C.3            1 S1                 0.0000
      4 ****        -4.5312   2.3721   0.0039 C.3            1 S1                 0.0000
      5 ****        -4.0785   2.0487   1.4319 C.3            1 S1                 0.0000
      6 ****        -2.5478   1.9682   1.5143 C.3            1 S1                 0.0000
      7 ****        -1.9613   0.9324   0.5288 C.3            1 S1                 0.0000
      8 ****        -0.4246   0.8851   0.6902 C.3            1 S1                 0.0000
      9 ****         0.1403  -0.4113   0.2654 N.4            1 S1                 1.0000
     10 ****         1.6142  -0.4773   0.3230 C.3            1 S1                 0.0000
     11 ****         2.1367  -1.8345  -0.1797 C.3            1 S1                 0.0000
     12 ****         1.7529  -1.9972  -1.5317 O.3            1 S1                 0.0000
     13 ****         3.6434  -1.9423  -0.0053 C.ar           1 S1                 0.0000
     14 ****         4.1898  -2.7144   1.0411 C.ar           1 S1                 0.0000
     15 ****         5.5919  -2.7823   1.1677 C.ar           1 S1                 0.0000
     16 ****         6.4430  -2.1422   0.3381 N.ar           1 S1                 0.0000
     17 ****         5.9155  -1.4027  -0.6605 C.ar           1 S1                 0.0000
     18 ****         4.5292  -1.2690  -0.8745 C.ar           1 S1                 0.0000
     19 ****        -2.1976  -0.7644  -1.7205 H              1 S1                 0.0000
     20 ****        -0.8432   0.3060  -2.0973 H              1 S1                 0.0000
     21 ****        -2.3538   0.4773  -2.9576 H              1 S1                 0.0000
     22 ****        -2.0322   2.2390  -1.1911 H              1 S1                 0.0000
     23 ****        -4.2820   1.6211  -1.9989 H              1 S1                 0.0000
     24 ****        -4.4036   0.3691  -0.7882 H              1 S1                 0.0000
     25 ****        -4.1978   3.3738  -0.2703 H              1 S1                 0.0000
     26 ****        -5.6203   2.3823  -0.0484 H              1 S1                 0.0000
     27 ****        -4.4495   2.8084   2.1205 H              1 S1                 0.0000
     28 ****        -4.5150   1.1013   1.7510 H              1 S1                 0.0000
     29 ****        -2.1221   2.9523   1.3118 H              1 S1                 0.0000
     30 ****        -2.2623   1.7159   2.5363 H              1 S1                 0.0000
     31 ****        -2.3650  -0.0413   0.8122 H              1 S1                 0.0000
     32 ****         0.0398   1.7006   0.1338 H              1 S1                 0.0000
     33 ****        -0.1514   1.0254   1.7369 H              1 S1                 0.0000
     34 ****        -0.2431  -1.1414   0.8485 H              1 S1                 0.0000
     35 ****         2.0393   0.3351  -0.2688 H              1 S1                 0.0000
     36 ****         1.9284  -0.3191   1.3557 H              1 S1                 0.0000
     37 ****         1.6651  -2.6361   0.3907 H              1 S1                 0.0000
     38 ****         2.0407  -2.8492  -1.8242 H              1 S1                 0.0000
     39 ****         3.5543  -3.2455   1.7345 H              1 S1                 0.0000
     40 ****         6.0412  -3.3659   1.9575 H              1 S1                 0.0000
     41 ****         6.6190  -0.9008  -1.3082 H              1 S1                 0.0000
     42 ****         4.1600  -0.6621  -1.6882 H              1 S1                 0.0000
     43 ****        -0.1408  -0.5815  -0.6902 H              1 S1                 0.0000
     44 ****         2.1791  -1.2865  -2.0914 LP             1 S1                 0.0000
     45 ****         0.7582  -1.9316  -1.6104 LP             1 S1                 0.0000
     46 ****         7.4330  -2.2136   0.4595 LP             1 S1                 0.0000
@<TRIPOS>BOND
    1    1    2 1     
    2    1   19 1     
    3    1   20 1     
    4    1   21 1     
    5    2    7 1     
    6    2    3 1     
    7    2   22 1     
    8    3    4 1     
    9    3   23 1     
   10    3   24 1     
   11    4    5 1     
   12    4   25 1     
   13    4   26 1     
   14    5    6 1     
   15    5   27 1     
   16    5   28 1     
   17    6    7 1     
   18    6   29 1     
   19    6   30 1     
   20    7    8 1     
   21    7   31 1     
   22    8    9 1     
   23    8   32 1     
   24    8   33 1     
   25    9   10 1     
   26    9   34 1     
   27    9   43 1     
   28   10   11 1     
   29   10   35 1     
   30   10   36 1     
   31   11   12 1     
   32   11   13 1     
   33   11   37 1     
   34   12   38 1     
   35   13   18 ar    
   36   13   14 ar    
   37   14   15 ar    
   38   14   39 1     
   39   15   16 ar    
   40   15   40 1     
   41   16   17 ar    
   42   17   18 ar    
   43   17   41 1     
   44   18   42 1     
   45   12   44 1     
   46   12   45 1     
   47   16   46 1     
@<TRIPOS>SUBSTRUCTURE
      1 S1             1
@<TRIPOS>SET
LONE_PAIRS      STATIC     ATOMS    <user>   **** ""
3 44 45 46
DONOR_HYDROGENS      STATIC     ATOMS    <user>   **** ""
3 34 43 38
ATOM$BLUE        STATIC     ATOMS    COLORGROUP SYSTEM
3 44 45 46
ATOM$RED        STATIC     ATOMS    COLORGROUP SYSTEM
3 34 43 38
