AV-unprocessed.smi:1222|AV-procd|sdf|5124|dock4
  -GOLD-   22720 4183D 1   1.00000     0.00000
 Structure written by MMmdl.
 36 38  0  0  0  0  0  0  0  0  3 V2000
  149.6337  135.6289  158.8882 O   0  0  0  0  0  0  0  0  0  0  0  0
  148.9305  136.5593  159.2887 C   0  0  0  0  0  0  0  0  0  0  0  0
  148.6775  136.8731  160.5790 N   0  5  0  0  0  0  0  0  0  0  0  0
  148.0003  136.0138  161.3579 C   0  0  0  0  0  0  0  0  0  0  0  0
  147.6549  134.7836  160.9607 N   0  0  0  0  0  0  0  0  0  0  0  0
  146.9588  134.0621  161.9322 C   0  0  0  0  0  0  0  0  0  0  0  0
  146.7806  134.7547  163.1004 C   0  0  0  0  0  0  0  0  0  0  0  0
  147.4817  136.3452  163.0129 S   0  0  0  0  0  0  0  0  0  0  0  0
  148.3283  137.3762  158.4120 N   0  0  0  0  0  0  0  0  0  0  0  0
  148.4067  137.3047  156.9553 C   0  0  2  0  0  0  0  0  0  0  0  0
  147.5222  136.1581  156.4384 C   0  0  0  0  0  0  0  0  0  0  0  0
  147.6750  135.9805  154.9163 C   0  0  0  0  0  0  0  0  0  0  0  0
  149.0923  135.7885  154.5140 N   0  3  2  0  0  0  0  0  0  0  0  0
  149.6166  134.4403  154.8347 C   0  0  0  0  0  0  0  0  0  0  0  0
  149.4880  133.4539  153.6973 C   0  0  0  0  0  0  0  0  0  0  0  0
  148.5505  133.3705  154.8811 C   0  0  0  0  0  0  0  0  0  0  0  0
  149.9656  136.8891  154.9970 C   0  0  0  0  0  0  0  0  0  0  0  0
  149.8645  137.0829  156.5213 C   0  0  0  0  0  0  0  0  0  0  0  0
  146.6289  133.0588  161.7071 H   0  0  0  0  0  0  0  0  0  0  0  0
  146.2831  134.4296  164.0015 H   0  0  0  0  0  0  0  0  0  0  0  0
  147.7652  138.1195  158.7990 H   0  0  0  0  0  0  0  0  0  0  0  0
  148.0588  138.2350  156.5031 H   0  0  0  0  0  0  0  0  0  0  0  0
  147.7800  135.2282  156.9471 H   0  0  0  0  0  0  0  0  0  0  0  0
  146.4776  136.3578  156.6806 H   0  0  0  0  0  0  0  0  0  0  0  0
  147.0711  135.1414  154.5686 H   0  0  0  0  0  0  0  0  0  0  0  0
  147.2908  136.8659  154.4078 H   0  0  0  0  0  0  0  0  0  0  0  0
  150.4707  134.3922  155.5077 H   0  0  0  0  0  0  0  0  0  0  0  0
  149.0750  133.8056  152.7534 H   0  0  0  0  0  0  0  0  0  0  0  0
  150.2515  132.6835  153.6117 H   0  0  0  0  0  0  0  0  0  0  0  0
  148.6977  132.5467  155.5764 H   0  0  0  0  0  0  0  0  0  0  0  0
  147.5147  133.6655  154.7227 H   0  0  0  0  0  0  0  0  0  0  0  0
  150.9992  136.7005  154.7050 H   0  0  0  0  0  0  0  0  0  0  0  0
  149.6675  137.8099  154.4939 H   0  0  0  0  0  0  0  0  0  0  0  0
  150.4750  137.9347  156.8234 H   0  0  0  0  0  0  0  0  0  0  0  0
  150.2794  136.2141  157.0337 H   0  0  0  0  0  0  0  0  0  0  0  0
  149.1055  135.8440  153.5056 H   0  0  0  0  0  0  0  0  0  0  0  0
  1  2  2  0  0  0  0
  2  3  1  0  0  0  0
  2  9  1  0  0  0  0
  3  4  1  0  0  0  0
  4  8  1  0  0  0  0
  4  5  2  0  0  0  0
  5  6  1  0  0  0  0
  6  7  2  0  0  0  0
  6 19  1  0  0  0  0
  7  8  1  0  0  0  0
  7 20  1  0  0  0  0
  9 10  1  0  0  0  0
  9 21  1  0  0  0  0
 10 18  1  0  0  0  0
 10 11  1  0  0  0  0
 10 22  1  0  0  0  0
 11 12  1  0  0  0  0
 11 23  1  0  0  0  0
 11 24  1  0  0  0  0
 12 13  1  0  0  0  0
 12 25  1  0  0  0  0
 12 26  1  0  0  0  0
 13 14  1  0  0  0  0
 13 17  1  0  0  0  0
 13 36  1  0  0  0  0
 14 16  1  0  0  0  0
 14 15  1  0  0  0  0
 14 27  1  0  0  0  0
 15 16  1  0  0  0  0
 15 28  1  0  0  0  0
 15 29  1  0  0  0  0
 16 30  1  0  0  0  0
 16 31  1  0  0  0  0
 17 18  1  0  0  0  0
 17 32  1  0  0  0  0
 17 33  1  0  0  0  0
 18 34  1  0  0  0  0
 18 35  1  0  0  0  0
M  CHG  1   3  -1
M  CHG  1  13   1
M  END
> <s_m_source_file>
AV-unprocessed.smi

> <i_m_source_file_index>
1222

> <i_lp_mmshare_version>
43012

> <i_f3d_flags>
0

> <s_epik_input>
czFbY0hdW2NIXW5jMVtOSF1DKD1PKVtOSF1bQ0hdMltDSDJdW0NIMl1OKFtDSDJdW0NIMl0yKVtDSF0zW0NIMl1bQ0gyXTM=

> <s_epik_cmdline>
J2VwaWtfcHl0aG9uJywgJy1waCcsICc3LjAnLCAnLXRuJywgJzgnLCAnLW1hJywgJzIwMCcsICctbWV0YWxfYmluZGluZycsICctaW1hZScsICc8aW5maWxlLm1hZT4nLCAnLW9tYWUnLCAnPG91dGZpbGUubWFlPic=

> <r_lp_tautomer_probability>
0.999

> <r_epik_Ionization_Penalty>
6.4609

> <r_epik_Ionization_Penalty_Charging>
5.58663

> <r_epik_Ionization_Penalty_Neutral>
0.874262

> <r_epik_State_Penalty>
5.57752

> <r_epik_Charging_Adjusted_Penalty>
11.1642

> <i_epik_Tot_Q>
0

> <i_epik_Tot_abs_Q>
2

> <r_epik_Metal_State_Penalty>
1.58738

> <b_epik_Metal_Only>
1

> <s_lp_Force_Field>
OPLS_2005

> <r_lp_Energy>
18.4685

> <b_lp_Chiralities_Consistent>
1

> <s_lp_Variant>
AV-unprocessed.smi:1222-5

> <Gold.Version>
5.8.1

> <Gold.Id.Protein>
6NUR|6NUR_protein|mol2

> <Gold.PLP.Fitness>
39.3381

> <Gold.PLP.PLP>
-27.2490

> <Gold.PLP.part.hbond>
-3.0000

> <Gold.PLP.part.metal>
0.0000

> <Gold.PLP.part.buried>
-3.3664

> <Gold.PLP.part.nonpolar>
-22.5800

> <Gold.PLP.part.repulsive>
0.1248

> <Gold.PLP.ligand.clash>
0.0000

> <Gold.PLP.ligand.torsion>
1.6825

> <Gold.PLP.Chemscore.Hbond>
4.7280

> <Gold.PLP.Chemscore.CHOScore>
0.0000

> <Gold.PLP.Chemscore.Metal>
0.0000

> <Gold.Chemscore.Hbonds>
donor molecule, donor type, donor heavy atom, donor atom, acceptor molecule, acceptor atom, score
      L1  H    13    36       P1  7948  2.00
      P1  H  6896  6909       L1     1  1.00
      P1  H  6931  6943       L1     3  1.70

> <Gold.PLP.Chemscore.Internal.Correction>
1.2701

> <Gold.Rescore>
     Score         DG    S(hbond)    S(metal)    S(lipo)     H(rot)  DE(clash)    DE(int)     intcor
     13.25     -17.41       2.71        0.00      52.02       1.25       0.12       4.05       ----

> <Gold.Chemscore.Fitness>
13.2493

> <Gold.Chemscore.DG>
-17.4136

> <Gold.Chemscore.ZeroCoef>
-5.4800

> <Gold.Chemscore.Hbond>
2.7064

> <Gold.Chemscore.Metal>
0.0000

> <Gold.Chemscore.Lipo>
52.0216

> <Gold.Chemscore.Internal_Hbond>
0.0000

> <Gold.Chemscore.DEClash>
0.1164

> <Gold.Chemscore.DEInternal>
4.0479

> <Gold.Chemscore.Rot>
1.2470

> <Gold.Chemscore.Internal.Correction>
   9.000000E+99

> <Gold.Chemscore.Hbonds>
donor molecule, donor type, donor heavy atom, donor atom, acceptor molecule, acceptor atom, score
      L1  H    13    36       P1  7948  0.82
      P1  H  6896  6909       L1     1  0.98
      P1  H  6931  6943       L1     3  0.22

> <Gold.Chemscore.Hbond.Weighted>
-9.0394

> <Gold.Chemscore.Metal.Weighted>
-0.0000

> <Gold.Chemscore.Lipo.Weighted>
-6.0865

> <Gold.Chemscore.Internal_Hbond.Weighted>
0.0000

> <Gold.Chemscore.DEClash.Weighted>
0.1164

> <Gold.Chemscore.DEInternal.Weighted>
4.0479

> <Gold.Chemscore.Rot.Weighted>
3.1924

> <Gold.Chemscore.Internal.Correction.Weighted>
   9.000000E+99

> <Gold.Protein.RotatedTorsions>
[ 6907 6896 6895 6894 ] final   41.92 input  -60.11 | X-H torsion
[ 7974 7965 7964 7962 ] final    3.15 input  175.53 | X-H torsion
[ 8008 7997 7996 7995 ] final   31.04 input   59.86 | X-H torsion
[ 10167 10162 10161 10158 ] final  -67.87 input  -65.29 | X-H torsion
[ 10718 10713 10712 10709 ] final   12.80 input   66.30 | X-H torsion
[ 10763 10752 10751 10750 ] final   28.00 input  -60.55 | X-H torsion
[ 11005 11000 10999 10996 ] final   19.69 input  -57.11 | X-H torsion

> <Gold.Protein.ActiveResidues>
 VAL166  LYS551  ARG553  GLY616  TRP617  ASP618  TYR619  PRO620  LYS621  CYS622 
 ASP623  PHE694  ASN695  SER759  ASP760  ASP761  ALA762  ILE779  LEU786  VAL792 
 PHE793  MET794  SER795  GLU796  ALA797  LYS798  CYS799  TRP800  GLU811  SER814 

> <Gold.Protein.RotatedAtoms>
  152.2014  134.8585  160.0507 H   0  0  0  0  0  0  0  0  0  0  0  0  # atno 6907 bound_to 6896
  151.9437  133.3640  159.3982 H   0  0  0  0  0  0  0  0  0  0  0  0  # atno 6908 bound_to 6896
  150.6955  134.4337  159.5304 H   0  0  0  0  0  0  0  0  0  0  0  0  # atno 6909 bound_to 6896
  146.2445  140.0728  142.8361 H   0  0  0  0  0  0  0  0  0  0  0  0  # atno 7974 bound_to 7965
  155.1001  140.3228  155.4549 H   0  0  0  0  0  0  0  0  0  0  0  0  # atno 8008 bound_to 7997
  156.2719  140.2062  156.6074 H   0  0  0  0  0  0  0  0  0  0  0  0  # atno 8009 bound_to 7997
  154.6836  140.0523  157.0278 H   0  0  0  0  0  0  0  0  0  0  0  0  # atno 8010 bound_to 7997
  140.5551  143.2312  151.6837 H   0  0  0  0  0  0  0  0  0  0  0  0  # atno 10167 bound_to 10162
  157.0155  130.6134  149.5714 H   0  0  0  0  0  0  0  0  0  0  0  0  # atno 10718 bound_to 10713
  153.0519  135.6523  154.0672 H   0  0  0  0  0  0  0  0  0  0  0  0  # atno 10763 bound_to 10752
  154.0358  135.2907  155.3363 H   0  0  0  0  0  0  0  0  0  0  0  0  # atno 10764 bound_to 10752
  154.6813  135.5319  153.8333 H   0  0  0  0  0  0  0  0  0  0  0  0  # atno 10765 bound_to 10752
  140.4109  134.1620  155.7667 H   0  0  0  0  0  0  0  0  0  0  0  0  # atno 11005 bound_to 11000
  145.0801  140.9215  143.4830 LP  0  0  0  0  0  0  0  0  0  0  0  0  # atno 17320 bound_to 7965
  145.0879  139.2911  143.5750 LP  0  0  0  0  0  0  0  0  0  0  0  0  # atno 17321 bound_to 7965
  139.5044  144.3755  152.0428 LP  0  0  0  0  0  0  0  0  0  0  0  0  # atno 17342 bound_to 10162
  140.2876  144.3790  150.6099 LP  0  0  0  0  0  0  0  0  0  0  0  0  # atno 17343 bound_to 10162
  156.0121  130.5213  150.8020 LP  0  0  0  0  0  0  0  0  0  0  0  0  # atno 17370 bound_to 10713
  157.5289  131.0935  150.9981 LP  0  0  0  0  0  0  0  0  0  0  0  0  # atno 17371 bound_to 10713
  141.1821  133.8391  157.1219 LP  0  0  0  0  0  0  0  0  0  0  0  0  # atno 17394 bound_to 11000
  140.0268  134.9920  157.0703 LP  0  0  0  0  0  0  0  0  0  0  0  0  # atno 17395 bound_to 11000

$$$$
