AV-unprocessed.smi:1075|AV-procd|sdf|4695|dock4
  -GOLD-   22720 3213D 1   1.00000     0.00000
 Structure written by MMmdl.
 50 51  0  0  0  0  0  0  0  0  1 V2000
  152.8784  138.1693  154.5814 C   0  0  0  0  0  0  0  0  0  0  0  0
  152.0375  138.9803  155.5255 C   0  0  0  0  0  0  0  0  0  0  0  0
  152.6320  139.7602  156.4117 N   0  0  0  0  0  0  0  0  0  0  0  0
  151.6234  140.3339  157.0958 N   0  0  0  0  0  0  0  0  0  0  0  0
  151.9318  141.2636  158.1649 C   0  0  0  0  0  0  0  0  0  0  0  0
  150.3873  139.9132  156.6442 C   0  0  0  0  0  0  0  0  0  0  0  0
  149.1154  140.4087  157.2576 C   0  0  0  0  0  0  0  0  0  0  0  0
  150.6146  139.0320  155.6164 C   0  0  0  0  0  0  0  0  0  0  0  0
  149.6286  138.2611  154.7608 C   0  0  2  0  0  0  0  0  0  0  0  0
  148.5239  139.1756  154.1985 C   0  0  0  0  0  0  0  0  0  0  0  0
  149.0820  137.0597  155.5507 C   0  0  0  0  0  0  0  0  0  0  0  0
  148.6482  137.2047  156.6938 O   0  0  0  0  0  0  0  0  0  0  0  0
  149.1215  135.8751  154.9130 N   0  0  0  0  0  0  0  0  0  0  0  0
  148.7461  134.5471  155.4130 C   0  0  1  0  0  0  0  0  0  0  0  0
  147.2691  134.5608  155.8722 C   0  0  0  0  0  0  0  0  0  0  0  0
  148.9311  133.5806  154.2159 C   0  0  0  0  0  0  0  0  0  0  0  0
  148.8452  132.0921  154.5964 C   0  0  0  0  0  0  0  0  0  0  0  0
  149.8429  131.7339  155.7096 C   0  0  2  0  0  0  0  0  0  0  0  0
  149.7586  130.2479  156.0860 C   0  0  0  0  0  0  0  0  0  0  0  0
  149.6137  132.6391  156.9306 C   0  0  0  0  0  0  0  0  0  0  0  0
  149.7050  134.1303  156.5623 C   0  0  0  0  0  0  0  0  0  0  0  0
  152.6497  137.1073  154.6714 H   0  0  0  0  0  0  0  0  0  0  0  0
  153.9441  138.2947  154.7768 H   0  0  0  0  0  0  0  0  0  0  0  0
  152.6950  138.4628  153.5478 H   0  0  0  0  0  0  0  0  0  0  0  0
  151.6737  140.8153  159.1243 H   0  0  0  0  0  0  0  0  0  0  0  0
  151.3573  142.1806  158.0322 H   0  0  0  0  0  0  0  0  0  0  0  0
  152.9940  141.5120  158.1649 H   0  0  0  0  0  0  0  0  0  0  0  0
  148.2790  139.7481  157.0334 H   0  0  0  0  0  0  0  0  0  0  0  0
  148.8692  141.4019  156.8820 H   0  0  0  0  0  0  0  0  0  0  0  0
  149.1988  140.4683  158.3428 H   0  0  0  0  0  0  0  0  0  0  0  0
  150.1430  137.8349  153.8990 H   0  0  0  0  0  0  0  0  0  0  0  0
  147.9339  139.6400  154.9889 H   0  0  0  0  0  0  0  0  0  0  0  0
  147.8385  138.6212  153.5564 H   0  0  0  0  0  0  0  0  0  0  0  0
  148.9554  139.9760  153.5970 H   0  0  0  0  0  0  0  0  0  0  0  0
  149.4950  135.8899  153.9749 H   0  0  0  0  0  0  0  0  0  0  0  0
  146.9252  133.5711  156.1700 H   0  0  0  0  0  0  0  0  0  0  0  0
  146.6111  134.9049  155.0737 H   0  0  0  0  0  0  0  0  0  0  0  0
  147.1142  135.2165  156.7288 H   0  0  0  0  0  0  0  0  0  0  0  0
  148.1995  133.8010  153.4373 H   0  0  0  0  0  0  0  0  0  0  0  0
  149.9086  133.7529  153.7614 H   0  0  0  0  0  0  0  0  0  0  0  0
  147.8310  131.8447  154.9107 H   0  0  0  0  0  0  0  0  0  0  0  0
  149.0439  131.4835  153.7136 H   0  0  0  0  0  0  0  0  0  0  0  0
  150.8499  131.9216  155.3339 H   0  0  0  0  0  0  0  0  0  0  0  0
  148.7726  129.9923  156.4751 H   0  0  0  0  0  0  0  0  0  0  0  0
  150.4943  129.9941  156.8495 H   0  0  0  0  0  0  0  0  0  0  0  0
  149.9497  129.6127  155.2207 H   0  0  0  0  0  0  0  0  0  0  0  0
  148.6395  132.4275  157.3721 H   0  0  0  0  0  0  0  0  0  0  0  0
  150.3508  132.4133  157.7019 H   0  0  0  0  0  0  0  0  0  0  0  0
  150.7339  134.3466  156.2695 H   0  0  0  0  0  0  0  0  0  0  0  0
  149.5180  134.7257  157.4561 H   0  0  0  0  0  0  0  0  0  0  0  0
  1  2  1  0  0  0  0
  1 22  1  0  0  0  0
  1 23  1  0  0  0  0
  1 24  1  0  0  0  0
  2  8  1  0  0  0  0
  2  3  2  0  0  0  0
  3  4  1  0  0  0  0
  4  5  1  0  0  0  0
  4  6  1  0  0  0  0
  5 25  1  0  0  0  0
  5 26  1  0  0  0  0
  5 27  1  0  0  0  0
  6  7  1  0  0  0  0
  6  8  2  0  0  0  0
  7 28  1  0  0  0  0
  7 29  1  0  0  0  0
  7 30  1  0  0  0  0
  8  9  1  0  0  0  0
  9 10  1  0  0  0  0
  9 11  1  0  0  0  0
  9 31  1  0  0  0  0
 10 32  1  0  0  0  0
 10 33  1  0  0  0  0
 10 34  1  0  0  0  0
 11 12  2  0  0  0  0
 11 13  1  0  0  0  0
 13 14  1  0  0  0  0
 13 35  1  0  0  0  0
 14 21  1  0  0  0  0
 14 15  1  0  0  0  0
 14 16  1  0  0  0  0
 15 36  1  0  0  0  0
 15 37  1  0  0  0  0
 15 38  1  0  0  0  0
 16 17  1  0  0  0  0
 16 39  1  0  0  0  0
 16 40  1  0  0  0  0
 17 18  1  0  0  0  0
 17 41  1  0  0  0  0
 17 42  1  0  0  0  0
 18 19  1  0  0  0  0
 18 20  1  0  0  0  0
 18 43  1  0  0  0  0
 19 44  1  0  0  0  0
 19 45  1  0  0  0  0
 19 46  1  0  0  0  0
 20 21  1  0  0  0  0
 20 47  1  0  0  0  0
 20 48  1  0  0  0  0
 21 49  1  0  0  0  0
 21 50  1  0  0  0  0
M  END
> <s_m_source_file>
AV-unprocessed.smi

> <i_m_source_file_index>
1075

> <i_lp_mmshare_version>
43012

> <i_f3d_flags>
0

> <s_epik_input>
W0NIM11jMW5uKFtDSDNdKWMoW0NIM10pYzFbQ0BIXShbQ0gzXSlDKD1PKVtOSF1bQ0BAXTIoW0NIM10pW0NIMl1bQ0gyXVtDQEBIXShbQ0gzXSlbQ0gyXVtDSDJdMg==

> <s_epik_cmdline>
J2VwaWtfcHl0aG9uJywgJy1waCcsICc3LjAnLCAnLXRuJywgJzgnLCAnLW1hJywgJzIwMCcsICctbWV0YWxfYmluZGluZycsICctaW1hZScsICc8aW5maWxlLm1hZT4nLCAnLW9tYWUnLCAnPG91dGZpbGUubWFlPic=

> <r_lp_tautomer_probability>
1

> <r_epik_Ionization_Penalty>
0.00502928

> <r_epik_Ionization_Penalty_Charging>
0

> <r_epik_Ionization_Penalty_Neutral>
0.00502928

> <r_epik_State_Penalty>
0.0036576

> <r_epik_Charging_Adjusted_Penalty>
0.0036576

> <i_epik_Tot_Q>
0

> <i_epik_Tot_abs_Q>
0

> <r_epik_Metal_State_Penalty>
-0

> <b_epik_Metal_Only>
0

> <s_lp_Force_Field>
OPLS_2005

> <r_lp_Energy>
7.43589

> <b_lp_Chiralities_Consistent>
1

> <s_lp_Variant>
AV-unprocessed.smi:1075-3

> <Gold.Version>
5.8.1

> <Gold.Id.Protein>
6NUR|6NUR_protein|mol2

> <Gold.PLP.Fitness>
36.6617

> <Gold.PLP.PLP>
-32.5725

> <Gold.PLP.part.hbond>
-2.0000

> <Gold.PLP.part.metal>
0.0000

> <Gold.PLP.part.buried>
-3.3963

> <Gold.PLP.part.nonpolar>
-27.6250

> <Gold.PLP.part.repulsive>
0.0340

> <Gold.PLP.ligand.clash>
0.0000

> <Gold.PLP.ligand.torsion>
0.6823

> <Gold.PLP.Chemscore.Hbond>
1.7840

> <Gold.PLP.Chemscore.CHOScore>
0.0000

> <Gold.PLP.Chemscore.Metal>
0.0000

> <Gold.Chemscore.Hbonds>
donor molecule, donor type, donor heavy atom, donor atom, acceptor molecule, acceptor atom, score
      L1  H    13    35       P1  7948  0.57
      P1  H  7997  8010       L1     3  1.00

> <Gold.PLP.Chemscore.Internal.Correction>
0.1017

> <Gold.Rescore>
     Score         DG    S(hbond)    S(metal)    S(lipo)     H(rot)  DE(clash)    DE(int)     intcor
     16.95     -17.80       1.76        0.00      82.03       1.23       0.03       0.82       ----

> <Gold.Chemscore.Fitness>
16.9487

> <Gold.Chemscore.DG>
-17.8029

> <Gold.Chemscore.ZeroCoef>
-5.4800

> <Gold.Chemscore.Hbond>
1.7603

> <Gold.Chemscore.Metal>
0.0000

> <Gold.Chemscore.Lipo>
82.0315

> <Gold.Chemscore.Internal_Hbond>
0.0000

> <Gold.Chemscore.DEClash>
0.0306

> <Gold.Chemscore.DEInternal>
0.8236

> <Gold.Chemscore.Rot>
1.2321

> <Gold.Chemscore.Internal.Correction>
   9.000000E+99

> <Gold.Chemscore.Hbonds>
donor molecule, donor type, donor heavy atom, donor atom, acceptor molecule, acceptor atom, score
      L1  H    13    35       P1  7948  0.30
      P1  H  7997  8010       L1     3  0.98

> <Gold.Chemscore.Hbond.Weighted>
-5.8793

> <Gold.Chemscore.Metal.Weighted>
-0.0000

> <Gold.Chemscore.Lipo.Weighted>
-9.5977

> <Gold.Chemscore.Internal_Hbond.Weighted>
0.0000

> <Gold.Chemscore.DEClash.Weighted>
0.0306

> <Gold.Chemscore.DEInternal.Weighted>
0.8236

> <Gold.Chemscore.Rot.Weighted>
3.1541

> <Gold.Chemscore.Internal.Correction.Weighted>
   9.000000E+99

> <Gold.Protein.RotatedTorsions>
[ 6907 6896 6895 6894 ] final   52.76 input  -60.11 | X-H torsion
[ 7974 7965 7964 7962 ] final -147.91 input  175.53 | X-H torsion
[ 8008 7997 7996 7995 ] final   80.98 input   59.86 | X-H torsion
[ 10167 10162 10161 10158 ] final  -67.83 input  -65.29 | X-H torsion
[ 10718 10713 10712 10709 ] final   35.95 input   66.30 | X-H torsion
[ 10763 10752 10751 10750 ] final   57.48 input  -60.55 | X-H torsion
[ 11005 11000 10999 10996 ] final -118.54 input  -57.11 | X-H torsion

> <Gold.Protein.ActiveResidues>
 VAL166  LYS551  ARG553  GLY616  TRP617  ASP618  TYR619  PRO620  LYS621  CYS622 
 ASP623  PHE694  ASN695  SER759  ASP760  ASP761  ALA762  ILE779  LEU786  VAL792 
 PHE793  MET794  SER795  GLU796  ALA797  LYS798  CYS799  TRP800  GLU811  SER814 

> <Gold.Protein.RotatedAtoms>
  152.3266  134.7313  160.0300 H   0  0  0  0  0  0  0  0  0  0  0  0  # atno 6907 bound_to 6896
  151.7743  133.3338  159.3461 H   0  0  0  0  0  0  0  0  0  0  0  0  # atno 6908 bound_to 6896
  150.7399  134.5921  159.6037 H   0  0  0  0  0  0  0  0  0  0  0  0  # atno 6909 bound_to 6896
  144.8063  140.5266  143.5673 H   0  0  0  0  0  0  0  0  0  0  0  0  # atno 7974 bound_to 7965
  155.8910  140.3439  155.5956 H   0  0  0  0  0  0  0  0  0  0  0  0  # atno 8008 bound_to 7997
  155.7611  140.0832  157.2174 H   0  0  0  0  0  0  0  0  0  0  0  0  # atno 8009 bound_to 7997
  154.4033  140.1535  156.2821 H   0  0  0  0  0  0  0  0  0  0  0  0  # atno 8010 bound_to 7997
  140.5553  143.2312  151.6832 H   0  0  0  0  0  0  0  0  0  0  0  0  # atno 10167 bound_to 10162
  157.3289  130.7487  149.6834 H   0  0  0  0  0  0  0  0  0  0  0  0  # atno 10718 bound_to 10713
  152.9851  135.5640  154.5398 H   0  0  0  0  0  0  0  0  0  0  0  0  # atno 10763 bound_to 10752
  154.4854  135.2790  155.1540 H   0  0  0  0  0  0  0  0  0  0  0  0  # atno 10764 bound_to 10752
  154.3031  135.6303  153.5486 H   0  0  0  0  0  0  0  0  0  0  0  0  # atno 10765 bound_to 10752
  141.0278  134.0027  157.3188 H   0  0  0  0  0  0  0  0  0  0  0  0  # atno 11005 bound_to 11000
  145.5430  139.1475  143.3436 LP  0  0  0  0  0  0  0  0  0  0  0  0  # atno 17320 bound_to 7965
  146.2355  140.5569  142.8957 LP  0  0  0  0  0  0  0  0  0  0  0  0  # atno 17321 bound_to 7965
  139.5045  144.3751  152.0432 LP  0  0  0  0  0  0  0  0  0  0  0  0  # atno 17342 bound_to 10162
  140.2872  144.3794  150.6100 LP  0  0  0  0  0  0  0  0  0  0  0  0  # atno 17343 bound_to 10162
  155.9693  130.4201  150.4406 LP  0  0  0  0  0  0  0  0  0  0  0  0  # atno 17370 bound_to 10713
  157.2435  131.0530  151.2422 LP  0  0  0  0  0  0  0  0  0  0  0  0  # atno 17371 bound_to 10713
  139.9188  135.0199  156.7983 LP  0  0  0  0  0  0  0  0  0  0  0  0  # atno 17394 bound_to 11000
  140.6460  133.9775  155.7731 LP  0  0  0  0  0  0  0  0  0  0  0  0  # atno 17395 bound_to 11000

$$$$
