AV-unprocessed.smi:114|AV-procd|sdf|1113|dock6
  -GOLD-   2262018233D 1   1.00000     0.00000
 Structure written by MMmdl.
 32 34  0  0  0  0  0  0  0  0  1 V2000
  152.7922  140.0070  158.9289 N   0  0  0  0  0  0  0  0  0  0  0  0
  152.3349  139.9951  157.6690 C   0  0  0  0  0  0  0  0  0  0  0  0
  152.9760  139.2268  156.7581 N   0  0  0  0  0  0  0  0  0  0  0  0
  152.5532  139.1896  155.4886 C   0  0  0  0  0  0  0  0  0  0  0  0
  153.2545  138.3966  154.6450 F   0  0  0  0  0  0  0  0  0  0  0  0
  151.5173  139.8495  154.9601 N   0  0  0  0  0  0  0  0  0  0  0  0
  150.8662  140.6257  155.8743 C   0  0  0  0  0  0  0  0  0  0  0  0
  151.2145  140.7513  157.2461 C   0  0  0  0  0  0  0  0  0  0  0  0
  150.3413  141.6243  157.8799 N   0  0  0  0  0  0  0  0  0  0  0  0
  149.5250  141.9943  156.9302 C   0  0  0  0  0  0  0  0  0  0  0  0
  149.7702  141.4474  155.6896 N   0  0  0  0  0  0  0  0  0  0  0  0
  149.0046  141.6991  154.4243 C   0  0  2  0  0  0  0  0  0  0  0  0
  147.9114  142.5266  154.6958 O   0  0  0  0  0  0  0  0  0  0  0  0
  146.6880  141.8740  154.3550 C   0  0  1  0  0  0  0  0  0  0  0  0
  145.6604  142.9121  153.8781 C   0  0  0  0  0  0  0  0  0  0  0  0
  145.1007  143.5858  154.9851 O   0  0  0  0  0  0  0  0  0  0  0  0
  147.1158  140.8919  153.2628 C   0  0  2  0  0  0  0  0  0  0  0  0
  146.1903  139.8394  153.0642 O   0  0  0  0  0  0  0  0  0  0  0  0
  148.4704  140.4127  153.7652 C   0  0  2  0  0  0  0  0  0  0  0  0
  148.3701  139.3122  154.6561 O   0  0  0  0  0  0  0  0  0  0  0  0
  149.7014  142.2414  153.7840 H   0  0  0  0  0  0  0  0  0  0  0  0
  146.3139  141.3178  155.2161 H   0  0  0  0  0  0  0  0  0  0  0  0
  147.2534  141.4262  152.3213 H   0  0  0  0  0  0  0  0  0  0  0  0
  149.1265  140.1253  152.9431 H   0  0  0  0  0  0  0  0  0  0  0  0
  152.3313  140.5746  159.6255 H   0  0  0  0  0  0  0  0  0  0  0  0
  153.5966  139.4499  159.1783 H   0  0  0  0  0  0  0  0  0  0  0  0
  148.7163  142.6879  157.1092 H   0  0  0  0  0  0  0  0  0  0  0  0
  146.1075  143.6254  153.1850 H   0  0  0  0  0  0  0  0  0  0  0  0
  144.8440  142.4171  153.3517 H   0  0  0  0  0  0  0  0  0  0  0  0
  145.7511  143.6342  155.6687 H   0  0  0  0  0  0  0  0  0  0  0  0
  145.3630  140.2122  152.8013 H   0  0  0  0  0  0  0  0  0  0  0  0
  147.6010  139.4297  155.1923 H   0  0  0  0  0  0  0  0  0  0  0  0
  1  2  1  0  0  0  0
  1 25  1  0  0  0  0
  1 26  1  0  0  0  0
  2  8  1  0  0  0  0
  2  3  2  0  0  0  0
  3  4  1  0  0  0  0
  4  5  1  0  0  0  0
  4  6  2  0  0  0  0
  6  7  1  0  0  0  0
  7 11  1  0  0  0  0
  7  8  2  0  0  0  0
  8  9  1  0  0  0  0
  9 10  2  0  0  0  0
 10 11  1  0  0  0  0
 10 27  1  0  0  0  0
 11 12  1  0  0  0  0
 12 21  1  0  0  0  0
 12 19  1  0  0  0  0
 12 13  1  0  0  0  0
 13 14  1  0  0  0  0
 14 22  1  0  0  0  0
 14 15  1  0  0  0  0
 14 17  1  0  0  0  0
 15 16  1  0  0  0  0
 15 28  1  0  0  0  0
 15 29  1  0  0  0  0
 16 30  1  0  0  0  0
 17 23  1  0  0  0  0
 17 18  1  0  0  0  0
 17 19  1  0  0  0  0
 18 31  1  0  0  0  0
 19 24  1  0  0  0  0
 19 20  1  0  0  0  0
 20 32  1  0  0  0  0
M  END
> <s_m_source_file>
AV-unprocessed.smi

> <i_m_source_file_index>
114

> <i_lp_mmshare_version>
43012

> <i_f3d_flags>
0

> <s_epik_input>
RmMobjEpbmMoW05IMl0pYyhjMTIpbltjSF1uMltDQEBIXTNPW0NASF0oW0NIMl1bT0hdKVtDQEBIXShbT0hdKVtDQEBIXTNbT0hd

> <s_epik_cmdline>
J2VwaWtfcHl0aG9uJywgJy1waCcsICc3LjAnLCAnLXRuJywgJzgnLCAnLW1hJywgJzIwMCcsICctbWV0YWxfYmluZGluZycsICctaW1hZScsICc8aW5maWxlLm1hZT4nLCAnLW9tYWUnLCAnPG91dGZpbGUubWFlPic=

> <r_lp_tautomer_probability>
1

> <r_epik_Ionization_Penalty>
1.13199e-05

> <r_epik_Ionization_Penalty_Charging>
0

> <r_epik_Ionization_Penalty_Neutral>
1.13199e-05

> <r_epik_State_Penalty>
-0

> <r_epik_Charging_Adjusted_Penalty>
0

> <i_epik_Tot_Q>
0

> <i_epik_Tot_abs_Q>
0

> <r_epik_Metal_State_Penalty>
-0

> <b_epik_Metal_Only>
0

> <s_epik_Chemistry_Notes>
This compound contains an acetal/aminal-like group ( X-CH(R)-Y where X, Y are N, S, or O) that may be acid/base labile, releasing an aldehyde.

> <s_lp_Force_Field>
OPLS_2005

> <r_lp_Energy>
45.5286

> <b_lp_Chiralities_Consistent>
1

> <s_lp_Variant>
AV-unprocessed.smi:114-7

> <Gold.Version>
5.8.1

> <Gold.Id.Protein>
6NUR|6NUR_protein|mol2

> <Gold.PLP.Fitness>
40.5590

> <Gold.PLP.PLP>
-29.9081

> <Gold.PLP.part.hbond>
-3.0000

> <Gold.PLP.part.metal>
0.0000

> <Gold.PLP.part.buried>
0.4416

> <Gold.PLP.part.nonpolar>
-30.9775

> <Gold.PLP.part.repulsive>
3.9142

> <Gold.PLP.ligand.clash>
0.0000

> <Gold.PLP.ligand.torsion>
0.1551

> <Gold.PLP.Chemscore.Hbond>
3.0000

> <Gold.PLP.Chemscore.CHOScore>
0.6511

> <Gold.PLP.Chemscore.Metal>
0.0000

> <Gold.Chemscore.Hbonds>
donor molecule, donor type, donor heavy atom, donor atom, acceptor molecule, acceptor atom, score
      L1  H    18    31       P1 10175  1.00
      P1  H  7989  7998       L1     6  1.00
      P1  H  7997  8009       L1     3  1.00
      L1  C    10    27       P1  8028  0.66

> <Gold.PLP.Chemscore.Internal.Correction>
0.0080

> <Gold.Rescore>
     Score         DG    S(hbond)    S(metal)    S(lipo)     H(rot)  DE(clash)    DE(int)     intcor
      2.06      -5.13       1.87        0.00      31.67       4.03       2.18       0.88       ----

> <Gold.Chemscore.Fitness>
2.0645

> <Gold.Chemscore.DG>
-5.1283

> <Gold.Chemscore.ZeroCoef>
-5.4800

> <Gold.Chemscore.Hbond>
1.8724

> <Gold.Chemscore.Metal>
0.0000

> <Gold.Chemscore.Lipo>
31.6717

> <Gold.Chemscore.Internal_Hbond>
0.0000

> <Gold.Chemscore.DEClash>
2.1791

> <Gold.Chemscore.DEInternal>
0.8846

> <Gold.Chemscore.Rot>
4.0277

> <Gold.Chemscore.Internal.Correction>
   9.000000E+99

> <Gold.Chemscore.Hbonds>
donor molecule, donor type, donor heavy atom, donor atom, acceptor molecule, acceptor atom, score
      L1  H    18    31       P1 10175  0.96
      P1  H  7989  7998       L1     6  0.49
      P1  H  7997  8009       L1     3  0.08

> <Gold.Chemscore.Hbond.Weighted>
-6.2537

> <Gold.Chemscore.Metal.Weighted>
-0.0000

> <Gold.Chemscore.Lipo.Weighted>
-3.7056

> <Gold.Chemscore.Internal_Hbond.Weighted>
0.0000

> <Gold.Chemscore.DEClash.Weighted>
2.1791

> <Gold.Chemscore.DEInternal.Weighted>
0.8846

> <Gold.Chemscore.Rot.Weighted>
10.3110

> <Gold.Chemscore.Internal.Correction.Weighted>
   9.000000E+99

> <Gold.Protein.RotatedTorsions>
[ 6907 6896 6895 6894 ] final  156.50 input  -60.11 | X-H torsion
[ 7974 7965 7964 7962 ] final  -55.09 input  175.53 | X-H torsion
[ 8008 7997 7996 7995 ] final -178.81 input   59.86 | X-H torsion
[ 10167 10162 10161 10158 ] final  -35.46 input  -65.29 | X-H torsion
[ 10718 10713 10712 10709 ] final -137.03 input   66.30 | X-H torsion
[ 10763 10752 10751 10750 ] final  101.51 input  -60.55 | X-H torsion
[ 11005 11000 10999 10996 ] final  -48.57 input  -57.11 | X-H torsion

> <Gold.Protein.ActiveResidues>
 VAL166  LYS551  ARG553  GLY616  TRP617  ASP618  TYR619  PRO620  LYS621  CYS622 
 ASP623  PHE694  ASN695  SER759  ASP760  ASP761  ALA762  ILE779  LEU786  VAL792 
 PHE793  MET794  SER795  GLU796  ALA797  LYS798  CYS799  TRP800  GLU811  SER814 

> <Gold.Protein.RotatedAtoms>
  152.0288  133.3929  159.4288 H   0  0  0  0  0  0  0  0  0  0  0  0  # atno 6907 bound_to 6896
  150.6884  134.3544  159.4932 H   0  0  0  0  0  0  0  0  0  0  0  0  # atno 6908 bound_to 6896
  152.1327  134.9122  160.0608 H   0  0  0  0  0  0  0  0  0  0  0  0  # atno 6909 bound_to 6896
  145.8782  140.8165  142.9853 H   0  0  0  0  0  0  0  0  0  0  0  0  # atno 7974 bound_to 7965
  156.0232  140.1265  157.0336 H   0  0  0  0  0  0  0  0  0  0  0  0  # atno 8008 bound_to 7997
  154.4320  140.1064  156.6063 H   0  0  0  0  0  0  0  0  0  0  0  0  # atno 8009 bound_to 7997
  155.5915  140.3469  155.4570 H   0  0  0  0  0  0  0  0  0  0  0  0  # atno 8010 bound_to 7997
  140.7164  143.3476  151.2224 H   0  0  0  0  0  0  0  0  0  0  0  0  # atno 10167 bound_to 10162
  156.2835  130.7334  151.1339 H   0  0  0  0  0  0  0  0  0  0  0  0  # atno 10718 bound_to 10713
  153.3276  135.4042  155.1469 H   0  0  0  0  0  0  0  0  0  0  0  0  # atno 10763 bound_to 10752
  154.8615  135.3603  154.5513 H   0  0  0  0  0  0  0  0  0  0  0  0  # atno 10764 bound_to 10752
  153.5950  135.7073  153.5467 H   0  0  0  0  0  0  0  0  0  0  0  0  # atno 10765 bound_to 10752
  141.0709  133.6679  156.3461 H   0  0  0  0  0  0  0  0  0  0  0  0  # atno 11005 bound_to 11000
  144.6726  140.1343  143.7441 LP  0  0  0  0  0  0  0  0  0  0  0  0  # atno 17320 bound_to 7965
  145.9056  139.2456  143.1468 LP  0  0  0  0  0  0  0  0  0  0  0  0  # atno 17321 bound_to 7965
  139.6999  143.9551  152.2900 LP  0  0  0  0  0  0  0  0  0  0  0  0  # atno 17342 bound_to 10162
  139.9240  144.6782  150.8431 LP  0  0  0  0  0  0  0  0  0  0  0  0  # atno 17343 bound_to 10162
  157.7322  131.0602  150.5642 LP  0  0  0  0  0  0  0  0  0  0  0  0  # atno 17370 bound_to 10713
  156.5750  130.4289  149.6002 LP  0  0  0  0  0  0  0  0  0  0  0  0  # atno 17371 bound_to 10713
  140.5676  134.5872  157.5449 LP  0  0  0  0  0  0  0  0  0  0  0  0  # atno 17394 bound_to 11000
  139.9522  134.7597  156.0422 LP  0  0  0  0  0  0  0  0  0  0  0  0  # atno 17395 bound_to 11000

$$$$
