AV-unprocessed.smi:2482|AV-procd|sdf|9775|dock10
  -GOLD-   2272013413D 1   1.00000     0.00000
 Structure written by MMmdl.
 35 36  0  0  0  0  0  0  0  0  2 V2000
  151.9690  144.5551  160.8661 C   0  0  0  0  0  0  0  0  0  0  0  0
  152.3539  143.2293  160.2368 C   0  0  0  0  0  0  0  0  0  0  0  0
  153.3203  142.5363  160.8778 N   0  0  0  0  0  0  0  0  0  0  0  0
  153.6971  141.3479  160.3634 C   0  0  0  0  0  0  0  0  0  0  0  0
  153.1398  140.7985  159.1931 C   0  0  0  0  0  0  0  0  0  0  0  0
  152.1379  141.5290  158.5101 C   0  0  0  0  0  0  0  0  0  0  0  0
  151.4909  141.0617  157.3328 N   0  0  0  0  0  0  0  0  0  0  0  0
  151.8794  140.0990  156.4756 C   0  0  0  0  0  0  0  0  0  0  0  0
  152.9058  139.4309  156.5996 O   0  0  0  0  0  0  0  0  0  0  0  0
  150.9449  139.8530  155.2803 C   0  0  2  0  0  0  0  0  0  0  0  0
  149.8690  140.9536  155.1252 C   0  0  0  0  0  0  0  0  0  0  0  0
  148.9507  140.6324  154.0086 N   0  3  2  0  0  0  0  0  0  0  0  0
  147.9254  141.6760  153.7956 C   0  0  0  0  0  0  0  0  0  0  0  0
  148.3657  139.2832  154.1753 C   0  0  0  0  0  0  0  0  0  0  0  0
  149.4798  138.2391  154.3480 C   0  0  0  0  0  0  0  0  0  0  0  0
  150.2958  138.5942  155.4572 O   0  0  0  0  0  0  0  0  0  0  0  0
  151.7276  142.7684  159.0550 C   0  0  0  0  0  0  0  0  0  0  0  0
  150.4895  143.7059  158.2873 Cl  0  0  0  0  0  0  0  0  0  0  0  0
  152.1414  145.3714  160.1643 H   0  0  0  0  0  0  0  0  0  0  0  0
  152.5518  144.7568  161.7659 H   0  0  0  0  0  0  0  0  0  0  0  0
  150.9140  144.5530  161.1418 H   0  0  0  0  0  0  0  0  0  0  0  0
  154.4629  140.8136  160.9058 H   0  0  0  0  0  0  0  0  0  0  0  0
  153.4802  139.8319  158.8563 H   0  0  0  0  0  0  0  0  0  0  0  0
  150.6687  141.5823  157.0624 H   0  0  0  0  0  0  0  0  0  0  0  0
  151.5659  139.8138  154.3837 H   0  0  0  0  0  0  0  0  0  0  0  0
  149.2949  141.0566  156.0483 H   0  0  0  0  0  0  0  0  0  0  0  0
  150.3403  141.9181  154.9303 H   0  0  0  0  0  0  0  0  0  0  0  0
  147.2762  141.7720  154.6668 H   0  0  0  0  0  0  0  0  0  0  0  0
  147.3060  141.4358  152.9311 H   0  0  0  0  0  0  0  0  0  0  0  0
  148.3947  142.6428  153.6105 H   0  0  0  0  0  0  0  0  0  0  0  0
  147.7056  139.2728  155.0444 H   0  0  0  0  0  0  0  0  0  0  0  0
  147.7565  139.0354  153.3053 H   0  0  0  0  0  0  0  0  0  0  0  0
  149.0481  137.2545  154.5278 H   0  0  0  0  0  0  0  0  0  0  0  0
  150.0865  138.1613  153.4444 H   0  0  0  0  0  0  0  0  0  0  0  0
  149.5125  140.6029  153.1694 H   0  0  0  0  0  0  0  0  0  0  0  0
  1  2  1  0  0  0  0
  1 19  1  0  0  0  0
  1 20  1  0  0  0  0
  1 21  1  0  0  0  0
  2 17  1  0  0  0  0
  2  3  2  0  0  0  0
  3  4  1  0  0  0  0
  4  5  2  0  0  0  0
  4 22  1  0  0  0  0
  5  6  1  0  0  0  0
  5 23  1  0  0  0  0
  6  7  1  0  0  0  0
  6 17  2  0  0  0  0
  7  8  1  0  0  0  0
  7 24  1  0  0  0  0
  8  9  2  0  0  0  0
  8 10  1  0  0  0  0
 10 16  1  0  0  0  0
 10 11  1  0  0  0  0
 10 25  1  0  0  0  0
 11 12  1  0  0  0  0
 11 26  1  0  0  0  0
 11 27  1  0  0  0  0
 12 13  1  0  0  0  0
 12 14  1  0  0  0  0
 12 35  1  0  0  0  0
 13 28  1  0  0  0  0
 13 29  1  0  0  0  0
 13 30  1  0  0  0  0
 14 15  1  0  0  0  0
 14 31  1  0  0  0  0
 14 32  1  0  0  0  0
 15 16  1  0  0  0  0
 15 33  1  0  0  0  0
 15 34  1  0  0  0  0
 17 18  1  0  0  0  0
M  CHG  1  12   1
M  END
> <s_m_source_file>
AV-unprocessed.smi

> <i_m_source_file_index>
2482

> <i_lp_mmshare_version>
43012

> <i_f3d_flags>
0

> <s_epik_input>
W0NIM11jMW5bY0hdW2NIXWMoYzFDbClbTkhdQyg9TylbQ0BASF0yW0NIMl1OKFtDSDNdKVtDSDJdW0NIMl1PMg==

> <s_epik_cmdline>
J2VwaWtfcHl0aG9uJywgJy1waCcsICc3LjAnLCAnLXRuJywgJzgnLCAnLW1hJywgJzIwMCcsICctbWV0YWxfYmluZGluZycsICctaW1hZScsICc8aW5maWxlLm1hZT4nLCAnLW9tYWUnLCAnPG91dGZpbGUubWFlPic=

> <r_epik_Ionization_Penalty>
0.314226

> <r_epik_Ionization_Penalty_Charging>
0.314023

> <r_epik_Ionization_Penalty_Neutral>
0.00020299

> <r_epik_State_Penalty>
0.308208

> <r_epik_Charging_Adjusted_Penalty>
0.62223

> <i_epik_Tot_Q>
1

> <i_epik_Tot_abs_Q>
1

> <r_epik_Metal_State_Penalty>
0.314444

> <b_epik_Metal_Only>
0

> <s_lp_Force_Field>
OPLS_2005

> <r_lp_Energy>
22.3098

> <b_lp_Chiralities_Consistent>
1

> <s_lp_Variant>
AV-unprocessed.smi:2482-1

> <Gold.Version>
5.8.1

> <Gold.Id.Protein>
6NUR|6NUR_protein|mol2

> <Gold.PLP.Fitness>
40.2857

> <Gold.PLP.PLP>
-35.7336

> <Gold.PLP.part.hbond>
-2.0000

> <Gold.PLP.part.metal>
0.0000

> <Gold.PLP.part.buried>
-2.6506

> <Gold.PLP.part.nonpolar>
-30.7899

> <Gold.PLP.part.repulsive>
0.3006

> <Gold.PLP.ligand.clash>
0.3082

> <Gold.PLP.ligand.torsion>
0.2900

> <Gold.PLP.Chemscore.Hbond>
1.8130

> <Gold.PLP.Chemscore.CHOScore>
0.0000

> <Gold.PLP.Chemscore.Metal>
0.0000

> <Gold.Chemscore.Hbonds>
donor molecule, donor type, donor heavy atom, donor atom, acceptor molecule, acceptor atom, score
      L1  H    12    35       P1  7957  0.81
      P1  H  7997  8008       L1     9  1.00

> <Gold.PLP.Chemscore.Internal.Correction>
0.0014

> <Gold.Rescore>
     Score         DG    S(hbond)    S(metal)    S(lipo)     H(rot)  DE(clash)    DE(int)     intcor
     19.60     -21.30       1.84        0.00     104.50       1.00       0.24       1.45       ----

> <Gold.Chemscore.Fitness>
19.6044

> <Gold.Chemscore.DG>
-21.3043

> <Gold.Chemscore.ZeroCoef>
-5.4800

> <Gold.Chemscore.Hbond>
1.8438

> <Gold.Chemscore.Metal>
0.0000

> <Gold.Chemscore.Lipo>
104.4950

> <Gold.Chemscore.Internal_Hbond>
0.0000

> <Gold.Chemscore.DEClash>
0.2449

> <Gold.Chemscore.DEInternal>
1.4550

> <Gold.Chemscore.Rot>
1.0000

> <Gold.Chemscore.Internal.Correction>
   9.000000E+99

> <Gold.Chemscore.Hbonds>
donor molecule, donor type, donor heavy atom, donor atom, acceptor molecule, acceptor atom, score
      L1  H    12    35       P1  7957  0.76
      P1  H  7997  8008       L1     9  0.99

> <Gold.Chemscore.Hbond.Weighted>
-6.1584

> <Gold.Chemscore.Metal.Weighted>
-0.0000

> <Gold.Chemscore.Lipo.Weighted>
-12.2259

> <Gold.Chemscore.Internal_Hbond.Weighted>
0.0000

> <Gold.Chemscore.DEClash.Weighted>
0.2449

> <Gold.Chemscore.DEInternal.Weighted>
1.4550

> <Gold.Chemscore.Rot.Weighted>
2.5600

> <Gold.Chemscore.Internal.Correction.Weighted>
   9.000000E+99

> <Gold.Protein.RotatedTorsions>
[ 6907 6896 6895 6894 ] final  152.17 input  -60.11 | X-H torsion
[ 7974 7965 7964 7962 ] final  173.86 input  175.53 | X-H torsion
[ 8008 7997 7996 7995 ] final  -64.71 input   59.86 | X-H torsion
[ 10167 10162 10161 10158 ] final  158.94 input  -65.29 | X-H torsion
[ 10718 10713 10712 10709 ] final    3.14 input   66.30 | X-H torsion
[ 10763 10752 10751 10750 ] final -147.61 input  -60.55 | X-H torsion
[ 11005 11000 10999 10996 ] final  179.89 input  -57.11 | X-H torsion

> <Gold.Protein.ActiveResidues>
 VAL166  LYS551  ARG553  GLY616  TRP617  ASP618  TYR619  PRO620  LYS621  CYS622 
 ASP623  PHE694  ASN695  SER759  ASP760  ASP761  ALA762  ILE779  LEU786  VAL792 
 PHE793  MET794  SER795  GLU796  ALA797  LYS798  CYS799  TRP800  GLU811  SER814 

> <Gold.Protein.RotatedAtoms>
  152.0905  133.4198  159.4541 H   0  0  0  0  0  0  0  0  0  0  0  0  # atno 6907 bound_to 6896
  150.6862  134.2877  159.4663 H   0  0  0  0  0  0  0  0  0  0  0  0  # atno 6908 bound_to 6896
  152.0728  134.9522  160.0625 H   0  0  0  0  0  0  0  0  0  0  0  0  # atno 6909 bound_to 6896
  144.7234  139.9710  143.6437 H   0  0  0  0  0  0  0  0  0  0  0  0  # atno 7974 bound_to 7965
  154.4628  140.0948  156.6939 H   0  0  0  0  0  0  0  0  0  0  0  0  # atno 8008 bound_to 7997
  155.4945  140.3472  155.4342 H   0  0  0  0  0  0  0  0  0  0  0  0  # atno 8009 bound_to 7997
  156.0901  140.1395  156.9591 H   0  0  0  0  0  0  0  0  0  0  0  0  # atno 8010 bound_to 7997
  139.4829  144.4778  151.8487 H   0  0  0  0  0  0  0  0  0  0  0  0  # atno 10167 bound_to 10162
  156.8734  130.5628  149.5656 H   0  0  0  0  0  0  0  0  0  0  0  0  # atno 10718 bound_to 10713
  154.8277  135.3356  154.6844 H   0  0  0  0  0  0  0  0  0  0  0  0  # atno 10763 bound_to 10752
  153.7468  135.6942  153.4959 H   0  0  0  0  0  0  0  0  0  0  0  0  # atno 10764 bound_to 10752
  153.2205  135.4451  155.0434 H   0  0  0  0  0  0  0  0  0  0  0  0  # atno 10765 bound_to 10752
  140.4112  134.6690  157.4615 H   0  0  0  0  0  0  0  0  0  0  0  0  # atno 11005 bound_to 11000
  146.0563  139.3559  143.0609 LP  0  0  0  0  0  0  0  0  0  0  0  0  # atno 17320 bound_to 7965
  145.8151  140.9707  143.0928 LP  0  0  0  0  0  0  0  0  0  0  0  0  # atno 17321 bound_to 7965
  140.4251  144.2191  150.5887 LP  0  0  0  0  0  0  0  0  0  0  0  0  # atno 17342 bound_to 10162
  140.4835  143.2371  151.8921 LP  0  0  0  0  0  0  0  0  0  0  0  0  # atno 17343 bound_to 10162
  156.0714  130.5746  150.9391 LP  0  0  0  0  0  0  0  0  0  0  0  0  # atno 17370 bound_to 10713
  157.6182  131.0931  150.8671 LP  0  0  0  0  0  0  0  0  0  0  0  0  # atno 17371 bound_to 10713
  140.0266  134.6467  155.9164 LP  0  0  0  0  0  0  0  0  0  0  0  0  # atno 17394 bound_to 11000
  141.1820  133.6548  156.5061 LP  0  0  0  0  0  0  0  0  0  0  0  0  # atno 17395 bound_to 11000

$$$$
