AV-unprocessed.smi:876|AV-procd|sdf|4022|dock5
  -GOLD-   22720 1513D 1   1.00000     0.00000
 Structure written by MMmdl.
 41 42  0  0  0  0  0  0  0  0  2 V2000
  152.7255  142.5438  159.0430 C   0  0  0  0  0  0  0  0  0  0  0  0
  151.8431  142.9756  157.9667 N   0  0  0  0  0  0  0  0  0  0  0  0
  151.6104  144.3962  157.7302 C   0  0  0  0  0  0  0  0  0  0  0  0
  151.2483  142.0164  157.1186 C   0  0  0  0  0  0  0  0  0  0  0  0
  151.6624  140.6628  157.0672 C   0  0  0  0  0  0  0  0  0  0  0  0
  151.0203  139.7615  156.1930 C   0  0  0  0  0  0  0  0  0  0  0  0
  149.9561  140.2171  155.3764 C   0  0  0  0  0  0  0  0  0  0  0  0
  149.2498  139.4027  154.4498 N   0  0  0  0  0  0  0  0  0  0  0  0
  147.9754  139.5089  154.0354 C   0  0  0  0  0  0  0  0  0  0  0  0
  147.1801  140.3784  154.3906 O   0  0  0  0  0  0  0  0  0  0  0  0
  147.6690  138.5427  153.1583 N   0  0  0  0  0  0  0  0  0  0  0  0
  146.3668  138.3785  152.5218 C   0  0  1  0  0  0  0  0  0  0  0  0
  146.5256  138.1675  151.0410 C   0  0  0  0  0  0  0  0  0  0  0  0
  145.9337  137.0543  150.6142 C   0  0  0  0  0  0  0  0  0  0  0  0
  145.2624  136.2862  151.7244 C   0  0  1  0  0  0  0  0  0  0  0  0
  145.7140  134.8172  151.7965 C   0  0  0  0  0  0  0  0  0  0  0  0
  147.0181  134.7229  152.3306 O   0  0  0  0  0  0  0  0  0  0  0  0
  145.6249  137.0996  152.9931 C   0  0  0  0  0  0  0  0  0  0  0  0
  149.5911  141.5758  155.4576 C   0  0  0  0  0  0  0  0  0  0  0  0
  150.2335  142.4045  156.3082 N   0  3  0  0  0  0  0  0  0  0  0  0
  145.7521  139.2668  152.6773 H   0  0  0  0  0  0  0  0  0  0  0  0
  144.1850  136.3323  151.5594 H   0  0  0  0  0  0  0  0  0  0  0  0
  153.5874  142.0101  158.6410 H   0  0  0  0  0  0  0  0  0  0  0  0
  152.1963  141.8848  159.7320 H   0  0  0  0  0  0  0  0  0  0  0  0
  153.0972  143.3934  159.6161 H   0  0  0  0  0  0  0  0  0  0  0  0
  150.5472  144.6278  157.8020 H   0  0  0  0  0  0  0  0  0  0  0  0
  151.9620  144.6817  156.7381 H   0  0  0  0  0  0  0  0  0  0  0  0
  152.1358  145.0120  158.4605 H   0  0  0  0  0  0  0  0  0  0  0  0
  152.4702  140.2968  157.6831 H   0  0  0  0  0  0  0  0  0  0  0  0
  151.3700  138.7416  156.1609 H   0  0  0  0  0  0  0  0  0  0  0  0
  149.7956  138.6752  154.0117 H   0  0  0  0  0  0  0  0  0  0  0  0
  148.3817  137.8704  152.9155 H   0  0  0  0  0  0  0  0  0  0  0  0
  147.0530  138.8697  150.4120 H   0  0  0  0  0  0  0  0  0  0  0  0
  145.9109  136.7187  149.5879 H   0  0  0  0  0  0  0  0  0  0  0  0
  145.0311  134.2293  152.4108 H   0  0  0  0  0  0  0  0  0  0  0  0
  145.7167  134.3738  150.8005 H   0  0  0  0  0  0  0  0  0  0  0  0
  147.5325  135.4414  151.9954 H   0  0  0  0  0  0  0  0  0  0  0  0
  146.2559  136.5067  153.6575 H   0  0  0  0  0  0  0  0  0  0  0  0
  144.7305  137.3561  153.5619 H   0  0  0  0  0  0  0  0  0  0  0  0
  148.8024  142.0264  154.8723 H   0  0  0  0  0  0  0  0  0  0  0  0
  149.9376  143.3801  156.3417 H   0  0  0  0  0  0  0  0  0  0  0  0
  1  2  1  0  0  0  0
  1 23  1  0  0  0  0
  1 24  1  0  0  0  0
  1 25  1  0  0  0  0
  2  3  1  0  0  0  0
  2  4  1  0  0  0  0
  3 26  1  0  0  0  0
  3 27  1  0  0  0  0
  3 28  1  0  0  0  0
  4 20  1  0  0  0  0
  4  5  2  0  0  0  0
  5  6  1  0  0  0  0
  5 29  1  0  0  0  0
  6  7  2  0  0  0  0
  6 30  1  0  0  0  0
  7  8  1  0  0  0  0
  7 19  1  0  0  0  0
  8  9  1  0  0  0  0
  8 31  1  0  0  0  0
  9 10  2  0  0  0  0
  9 11  1  0  0  0  0
 11 12  1  0  0  0  0
 11 32  1  0  0  0  0
 12 21  1  0  0  0  0
 12 18  1  0  0  0  0
 12 13  1  0  0  0  0
 13 14  2  0  0  0  0
 13 33  1  0  0  0  0
 14 15  1  0  0  0  0
 14 34  1  0  0  0  0
 15 22  1  0  0  0  0
 15 16  1  0  0  0  0
 15 18  1  0  0  0  0
 16 17  1  0  0  0  0
 16 35  1  0  0  0  0
 16 36  1  0  0  0  0
 17 37  1  0  0  0  0
 18 38  1  0  0  0  0
 18 39  1  0  0  0  0
 19 20  2  0  0  0  0
 19 40  1  0  0  0  0
 20 41  1  0  0  0  0
M  CHG  1  20   1
M  END
> <s_m_source_file>
AV-unprocessed.smi

> <i_m_source_file_index>
876

> <i_lp_mmshare_version>
43012

> <i_f3d_flags>
0

> <s_epik_input>
W0NIM11OKFtDSDNdKWMxW2NIXVtjSF1jKFtjSF1uMSlbTkhdQyg9TylbTkhdW0NAQEhdMltDSF09W0NIXVtDQEBIXShbQ0gyXTIpW0NIMl1bT0hd

> <s_epik_cmdline>
J2VwaWtfcHl0aG9uJywgJy1waCcsICc3LjAnLCAnLXRuJywgJzgnLCAnLW1hJywgJzIwMCcsICctbWV0YWxfYmluZGluZycsICctaW1hZScsICc8aW5maWxlLm1hZT4nLCAnLW9tYWUnLCAnPG91dGZpbGUubWFlPic=

> <r_lp_tautomer_probability>
0.999994

> <r_epik_Ionization_Penalty>
0.257994

> <r_epik_Ionization_Penalty_Charging>
0.257974

> <r_epik_Ionization_Penalty_Neutral>
1.95938e-05

> <r_epik_State_Penalty>
0.249586

> <r_epik_Charging_Adjusted_Penalty>
0.50756

> <i_epik_Tot_Q>
1

> <i_epik_Tot_abs_Q>
1

> <r_epik_Metal_State_Penalty>
0.538508

> <b_epik_Metal_Only>
0

> <s_lp_Force_Field>
OPLS_2005

> <r_lp_Energy>
25.8864

> <b_lp_Chiralities_Consistent>
1

> <s_lp_Variant>
AV-unprocessed.smi:876-4

> <Gold.Version>
5.8.1

> <Gold.Id.Protein>
6NUR|6NUR_protein|mol2

> <Gold.PLP.Fitness>
46.1123

> <Gold.PLP.PLP>
-35.1609

> <Gold.PLP.part.hbond>
-3.4515

> <Gold.PLP.part.metal>
0.0000

> <Gold.PLP.part.buried>
3.5456

> <Gold.PLP.part.nonpolar>
-36.3582

> <Gold.PLP.part.repulsive>
0.3203

> <Gold.PLP.ligand.clash>
0.0000

> <Gold.PLP.ligand.torsion>
0.4979

> <Gold.PLP.Chemscore.Hbond>
3.9760

> <Gold.PLP.Chemscore.CHOScore>
0.0000

> <Gold.PLP.Chemscore.Metal>
0.0000

> <Gold.Chemscore.Hbonds>
donor molecule, donor type, donor heavy atom, donor atom, acceptor molecule, acceptor atom, score
      L1  H    11    32       P1  7948  0.99
      L1  H    17    37       P1  7948  1.00
      L1  H    20    41       P1  8028  1.95

> <Gold.PLP.Chemscore.Internal.Correction>
0.0192

> <Gold.Rescore>
     Score         DG    S(hbond)    S(metal)    S(lipo)     H(rot)  DE(clash)    DE(int)     intcor
     16.59     -20.86       2.77        0.00      92.23       1.82       2.38       1.89       ----

> <Gold.Chemscore.Fitness>
16.5892

> <Gold.Chemscore.DG>
-20.8647

> <Gold.Chemscore.ZeroCoef>
-5.4800

> <Gold.Chemscore.Hbond>
2.7702

> <Gold.Chemscore.Metal>
0.0000

> <Gold.Chemscore.Lipo>
92.2296

> <Gold.Chemscore.Internal_Hbond>
0.0000

> <Gold.Chemscore.DEClash>
2.3813

> <Gold.Chemscore.DEInternal>
1.8943

> <Gold.Chemscore.Rot>
1.8197

> <Gold.Chemscore.Internal.Correction>
   9.000000E+99

> <Gold.Chemscore.Hbonds>
donor molecule, donor type, donor heavy atom, donor atom, acceptor molecule, acceptor atom, score
      L1  H    11    32       P1  7948  0.90
      L1  H    17    37       P1  7948  0.93
      L1  H    20    41       P1  8028  0.93

> <Gold.Chemscore.Hbond.Weighted>
-9.2524

> <Gold.Chemscore.Metal.Weighted>
-0.0000

> <Gold.Chemscore.Lipo.Weighted>
-10.7909

> <Gold.Chemscore.Internal_Hbond.Weighted>
0.0000

> <Gold.Chemscore.DEClash.Weighted>
2.3813

> <Gold.Chemscore.DEInternal.Weighted>
1.8943

> <Gold.Chemscore.Rot.Weighted>
4.6585

> <Gold.Chemscore.Internal.Correction.Weighted>
   9.000000E+99

> <Gold.Protein.RotatedTorsions>
[ 6907 6896 6895 6894 ] final  135.98 input  -60.11 | X-H torsion
[ 7974 7965 7964 7962 ] final   61.28 input  175.53 | X-H torsion
[ 8008 7997 7996 7995 ] final -170.82 input   59.86 | X-H torsion
[ 10167 10162 10161 10158 ] final -106.78 input  -65.29 | X-H torsion
[ 10718 10713 10712 10709 ] final   18.59 input   66.30 | X-H torsion
[ 10763 10752 10751 10750 ] final   60.78 input  -60.55 | X-H torsion
[ 11005 11000 10999 10996 ] final  -35.13 input  -57.11 | X-H torsion

> <Gold.Protein.ActiveResidues>
 VAL166  LYS551  ARG553  GLY616  TRP617  ASP618  TYR619  PRO620  LYS621  CYS622 
 ASP623  PHE694  ASN695  SER759  ASP760  ASP761  ALA762  ILE779  LEU786  VAL792 
 PHE793  MET794  SER795  GLU796  ALA797  LYS798  CYS799  TRP800  GLU811  SER814 

> <Gold.Protein.RotatedAtoms>
  152.2944  133.5593  159.5577 H   0  0  0  0  0  0  0  0  0  0  0  0  # atno 6907 bound_to 6896
  150.7249  134.0382  159.3765 H   0  0  0  0  0  0  0  0  0  0  0  0  # atno 6908 bound_to 6896
  151.8286  135.0629  160.0485 H   0  0  0  0  0  0  0  0  0  0  0  0  # atno 6909 bound_to 6896
  145.8865  139.3480  143.0675 H   0  0  0  0  0  0  0  0  0  0  0  0  # atno 7974 bound_to 7965
  155.9235  140.1078  157.1188 H   0  0  0  0  0  0  0  0  0  0  0  0  # atno 8008 bound_to 7997
  154.4058  140.1251  156.4775 H   0  0  0  0  0  0  0  0  0  0  0  0  # atno 8009 bound_to 7997
  155.7167  140.3470  155.5000 H   0  0  0  0  0  0  0  0  0  0  0  0  # atno 8010 bound_to 7997
  140.1841  143.3943  152.1258 H   0  0  0  0  0  0  0  0  0  0  0  0  # atno 10167 bound_to 10162
  157.0985  130.6458  149.5866 H   0  0  0  0  0  0  0  0  0  0  0  0  # atno 10718 bound_to 10713
  152.9931  135.5524  154.5928 H   0  0  0  0  0  0  0  0  0  0  0  0  # atno 10763 bound_to 10752
  154.5286  135.2812  155.1202 H   0  0  0  0  0  0  0  0  0  0  0  0  # atno 10764 bound_to 10752
  154.2526  135.6396  153.5298 H   0  0  0  0  0  0  0  0  0  0  0  0  # atno 10765 bound_to 10752
  140.9772  133.7076  156.1622 H   0  0  0  0  0  0  0  0  0  0  0  0  # atno 11005 bound_to 11000
  145.8961  140.9273  143.0527 LP  0  0  0  0  0  0  0  0  0  0  0  0  # atno 17320 bound_to 7965
  144.6729  140.0970  143.7462 LP  0  0  0  0  0  0  0  0  0  0  0  0  # atno 17321 bound_to 7965
  139.5283  144.7129  151.5147 LP  0  0  0  0  0  0  0  0  0  0  0  0  # atno 17342 bound_to 10162
  140.6500  143.8716  150.6776 LP  0  0  0  0  0  0  0  0  0  0  0  0  # atno 17343 bound_to 10162
  155.9880  130.4921  150.7149 LP  0  0  0  0  0  0  0  0  0  0  0  0  # atno 17370 bound_to 10713
  157.4661  131.0888  151.0693 LP  0  0  0  0  0  0  0  0  0  0  0  0  # atno 17371 bound_to 10713
  140.7241  134.4326  157.5572 LP  0  0  0  0  0  0  0  0  0  0  0  0  # atno 17394 bound_to 11000
  139.8935  134.8729  156.2220 LP  0  0  0  0  0  0  0  0  0  0  0  0  # atno 17395 bound_to 11000

$$$$
