AV-unprocessed.smi:973|AV-procd|sdf|4299|dock10
  -GOLD-   22720 2203D 1   1.00000     0.00000
 Structure written by MMmdl.
 41 42  0  0  0  0  0  0  0  0  1 V2000
  146.0199  130.3712  151.6645 C   0  0  0  0  0  0  0  0  0  0  0  0
  145.5796  131.7134  151.2754 N   0  0  0  0  0  0  0  0  0  0  0  0
  144.5787  131.8100  150.2937 C   0  0  0  0  0  0  0  0  0  0  0  0
  144.1169  132.9962  149.8746 C   0  0  0  0  0  0  0  0  0  0  0  0
  144.6736  134.1940  150.4565 C   0  0  0  0  0  0  0  0  0  0  0  0
  145.6479  134.1236  151.3983 C   0  0  0  0  0  0  0  0  0  0  0  0
  146.2366  135.2386  152.0202 N   0  0  0  0  0  0  0  0  0  0  0  0
  145.6459  136.3008  152.5984 C   0  0  0  0  0  0  0  0  0  0  0  0
  144.4338  136.5064  152.6611 O   0  0  0  0  0  0  0  0  0  0  0  0
  146.5610  137.1464  153.0935 N   0  0  0  0  0  0  0  0  0  0  0  0
  146.2637  138.4141  153.7504 C   0  0  0  0  0  0  0  0  0  0  0  0
  147.0696  139.5744  153.1403 C   0  0  0  0  0  0  0  0  0  0  0  0
  148.3173  139.9051  153.9427 C   0  0  0  0  0  0  0  0  0  0  0  0
  149.3223  139.0207  154.0946 C   0  0  0  0  0  0  0  0  0  0  0  0
  150.5813  139.2895  154.9004 C   0  0  0  0  0  0  0  0  0  0  0  0
  150.4458  140.5265  155.8041 C   0  0  0  0  0  0  0  0  0  0  0  0
  149.7715  141.6845  155.0583 C   0  0  0  0  0  0  0  0  0  0  0  0
  148.3646  141.2936  154.5711 C   0  0  0  0  0  0  0  0  0  0  0  0
  146.1427  132.8122  151.8606 C   0  0  0  0  0  0  0  0  0  0  0  0
  147.0163  132.6978  152.7241 O   0  0  0  0  0  0  0  0  0  0  0  0
  145.4780  129.5817  151.1429 H   0  0  0  0  0  0  0  0  0  0  0  0
  145.8727  130.2127  152.7338 H   0  0  0  0  0  0  0  0  0  0  0  0
  147.0799  130.2385  151.4435 H   0  0  0  0  0  0  0  0  0  0  0  0
  144.2140  130.8698  149.9067 H   0  0  0  0  0  0  0  0  0  0  0  0
  143.3480  133.0551  149.1184 H   0  0  0  0  0  0  0  0  0  0  0  0
  144.2713  135.1370  150.1238 H   0  0  0  0  0  0  0  0  0  0  0  0
  147.2456  135.2524  151.9844 H   0  0  0  0  0  0  0  0  0  0  0  0
  147.5360  136.9034  152.9950 H   0  0  0  0  0  0  0  0  0  0  0  0
  145.1948  138.5983  153.6425 H   0  0  0  0  0  0  0  0  0  0  0  0
  146.4586  138.3345  154.8214 H   0  0  0  0  0  0  0  0  0  0  0  0
  147.3587  139.3236  152.1185 H   0  0  0  0  0  0  0  0  0  0  0  0
  146.4501  140.4692  153.0715 H   0  0  0  0  0  0  0  0  0  0  0  0
  149.2619  138.0518  153.6202 H   0  0  0  0  0  0  0  0  0  0  0  0
  150.8158  138.4130  155.5049 H   0  0  0  0  0  0  0  0  0  0  0  0
  151.4065  139.4228  154.2002 H   0  0  0  0  0  0  0  0  0  0  0  0
  149.8514  140.2731  156.6830 H   0  0  0  0  0  0  0  0  0  0  0  0
  151.4268  140.8294  156.1715 H   0  0  0  0  0  0  0  0  0  0  0  0
  149.7122  142.5649  155.6988 H   0  0  0  0  0  0  0  0  0  0  0  0
  150.3875  141.9659  154.2032 H   0  0  0  0  0  0  0  0  0  0  0  0
  148.0109  142.0328  153.8516 H   0  0  0  0  0  0  0  0  0  0  0  0
  147.6690  141.3122  155.4106 H   0  0  0  0  0  0  0  0  0  0  0  0
  1  2  1  0  0  0  0
  1 21  1  0  0  0  0
  1 22  1  0  0  0  0
  1 23  1  0  0  0  0
  2 19  1  0  0  0  0
  2  3  1  0  0  0  0
  3  4  2  0  0  0  0
  3 24  1  0  0  0  0
  4  5  1  0  0  0  0
  4 25  1  0  0  0  0
  5  6  2  0  0  0  0
  5 26  1  0  0  0  0
  6  7  1  0  0  0  0
  6 19  1  0  0  0  0
  7  8  1  0  0  0  0
  7 27  1  0  0  0  0
  8  9  2  0  0  0  0
  8 10  1  0  0  0  0
 10 11  1  0  0  0  0
 10 28  1  0  0  0  0
 11 12  1  0  0  0  0
 11 29  1  0  0  0  0
 11 30  1  0  0  0  0
 12 13  1  0  0  0  0
 12 31  1  0  0  0  0
 12 32  1  0  0  0  0
 13 18  1  0  0  0  0
 13 14  2  0  0  0  0
 14 15  1  0  0  0  0
 14 33  1  0  0  0  0
 15 16  1  0  0  0  0
 15 34  1  0  0  0  0
 15 35  1  0  0  0  0
 16 17  1  0  0  0  0
 16 36  1  0  0  0  0
 16 37  1  0  0  0  0
 17 18  1  0  0  0  0
 17 38  1  0  0  0  0
 17 39  1  0  0  0  0
 18 40  1  0  0  0  0
 18 41  1  0  0  0  0
 19 20  2  0  0  0  0
M  END
> <s_m_source_file>
AV-unprocessed.smi

> <i_m_source_file_index>
973

> <i_lp_mmshare_version>
43012

> <i_f3d_flags>
0

> <s_epik_input>
W0NIM11uMVtjSF1bY0hdW2NIXWMoYzE9TylbTkhdQyg9TylbTkhdW0NIMl1bQ0gyXUMyPVtDSF1bQ0gyXVtDSDJdW0NIMl1bQ0gyXTI=

> <s_epik_cmdline>
J2VwaWtfcHl0aG9uJywgJy1waCcsICc3LjAnLCAnLXRuJywgJzgnLCAnLW1hJywgJzIwMCcsICctbWV0YWxfYmluZGluZycsICctaW1hZScsICc8aW5maWxlLm1hZT4nLCAnLW9tYWUnLCAnPG91dGZpbGUubWFlPic=

> <r_lp_tautomer_probability>
1

> <r_epik_Ionization_Penalty>
2.5397e-05

> <r_epik_Ionization_Penalty_Charging>
4.7783e-06

> <r_epik_Ionization_Penalty_Neutral>
2.06187e-05

> <r_epik_State_Penalty>
-0

> <r_epik_Charging_Adjusted_Penalty>
4.7783e-06

> <i_epik_Tot_Q>
0

> <i_epik_Tot_abs_Q>
0

> <r_epik_Metal_State_Penalty>
-0

> <b_epik_Metal_Only>
0

> <s_lp_Force_Field>
OPLS_2005

> <r_lp_Energy>
20.1854

> <b_lp_Chiralities_Consistent>
1

> <s_lp_Variant>
AV-unprocessed.smi:973-1

> <Gold.Version>
5.8.1

> <Gold.Id.Protein>
6NUR|6NUR_protein|mol2

> <Gold.PLP.Fitness>
42.8764

> <Gold.PLP.PLP>
-38.4488

> <Gold.PLP.part.hbond>
-2.0000

> <Gold.PLP.part.metal>
0.0000

> <Gold.PLP.part.buried>
-2.3307

> <Gold.PLP.part.nonpolar>
-34.0117

> <Gold.PLP.part.repulsive>
0.3081

> <Gold.PLP.ligand.clash>
0.0000

> <Gold.PLP.ligand.torsion>
0.7506

> <Gold.PLP.Chemscore.Hbond>
1.9760

> <Gold.PLP.Chemscore.CHOScore>
0.0000

> <Gold.PLP.Chemscore.Metal>
0.0000

> <Gold.Chemscore.Hbonds>
donor molecule, donor type, donor heavy atom, donor atom, acceptor molecule, acceptor atom, score
      L1  H     7    27       P1  7948  1.00
      L1  H    10    28       P1  7948  0.96

> <Gold.PLP.Chemscore.Internal.Correction>
0.0008

> <Gold.Rescore>
     Score         DG    S(hbond)    S(metal)    S(lipo)     H(rot)  DE(clash)    DE(int)     intcor
     18.48     -19.27       1.89        0.00      94.37       1.40       0.08       0.71       ----

> <Gold.Chemscore.Fitness>
18.4791

> <Gold.Chemscore.DG>
-19.2702

> <Gold.Chemscore.ZeroCoef>
-5.4800

> <Gold.Chemscore.Hbond>
1.8928

> <Gold.Chemscore.Metal>
0.0000

> <Gold.Chemscore.Lipo>
94.3708

> <Gold.Chemscore.Internal_Hbond>
0.0000

> <Gold.Chemscore.DEClash>
0.0832

> <Gold.Chemscore.DEInternal>
0.7079

> <Gold.Chemscore.Rot>
1.3958

> <Gold.Chemscore.Internal.Correction>
   9.000000E+99

> <Gold.Chemscore.Hbonds>
donor molecule, donor type, donor heavy atom, donor atom, acceptor molecule, acceptor atom, score
      L1  H     7    27       P1  7948  0.95
      L1  H    10    28       P1  7948  0.92

> <Gold.Chemscore.Hbond.Weighted>
-6.3221

> <Gold.Chemscore.Metal.Weighted>
-0.0000

> <Gold.Chemscore.Lipo.Weighted>
-11.0414

> <Gold.Chemscore.Internal_Hbond.Weighted>
0.0000

> <Gold.Chemscore.DEClash.Weighted>
0.0832

> <Gold.Chemscore.DEInternal.Weighted>
0.7079

> <Gold.Chemscore.Rot.Weighted>
3.5733

> <Gold.Chemscore.Internal.Correction.Weighted>
   9.000000E+99

> <Gold.Protein.RotatedTorsions>
[ 6907 6896 6895 6894 ] final  104.82 input  -60.11 | X-H torsion
[ 7974 7965 7964 7962 ] final -106.26 input  175.53 | X-H torsion
[ 8008 7997 7996 7995 ] final -116.75 input   59.86 | X-H torsion
[ 10167 10162 10161 10158 ] final   18.78 input  -65.29 | X-H torsion
[ 10718 10713 10712 10709 ] final    0.94 input   66.30 | X-H torsion
[ 10763 10752 10751 10750 ] final  -46.91 input  -60.55 | X-H torsion
[ 11005 11000 10999 10996 ] final -129.60 input  -57.11 | X-H torsion

> <Gold.Protein.ActiveResidues>
 VAL166  LYS551  ARG553  GLY616  TRP617  ASP618  TYR619  PRO620  LYS621  CYS622 
 ASP623  PHE694  ASN695  SER759  ASP760  ASP761  ALA762  ILE779  LEU786  VAL792 
 PHE793  MET794  SER795  GLU796  ALA797  LYS798  CYS799  TRP800  GLU811  SER814 

> <Gold.Protein.RotatedAtoms>
  152.5251  133.9619  159.7720 H   0  0  0  0  0  0  0  0  0  0  0  0  # atno 6907 bound_to 6896
  150.9908  133.6143  159.2715 H   0  0  0  0  0  0  0  0  0  0  0  0  # atno 6908 bound_to 6896
  151.3287  135.0842  159.9384 H   0  0  0  0  0  0  0  0  0  0  0  0  # atno 6909 bound_to 6896
  145.2201  140.9131  143.3264 H   0  0  0  0  0  0  0  0  0  0  0  0  # atno 7974 bound_to 7965
  155.0727  140.0393  157.2614 H   0  0  0  0  0  0  0  0  0  0  0  0  # atno 8008 bound_to 7997
  154.6969  140.2665  155.6732 H   0  0  0  0  0  0  0  0  0  0  0  0  # atno 8009 bound_to 7997
  156.2748  140.2748  156.1567 H   0  0  0  0  0  0  0  0  0  0  0  0  # atno 8010 bound_to 7997
  140.5628  143.9306  150.6655 H   0  0  0  0  0  0  0  0  0  0  0  0  # atno 10167 bound_to 10162
  156.8408  130.5520  149.5678 H   0  0  0  0  0  0  0  0  0  0  0  0  # atno 10718 bound_to 10713
  154.0528  135.6629  153.4802 H   0  0  0  0  0  0  0  0  0  0  0  0  # atno 10763 bound_to 10752
  153.0457  135.5116  154.7734 H   0  0  0  0  0  0  0  0  0  0  0  0  # atno 10764 bound_to 10752
  154.6746  135.3035  154.9662 H   0  0  0  0  0  0  0  0  0  0  0  0  # atno 10765 bound_to 10752
  140.9418  134.1183  157.4144 H   0  0  0  0  0  0  0  0  0  0  0  0  # atno 11005 bound_to 11000
  144.9774  139.3818  143.6279 LP  0  0  0  0  0  0  0  0  0  0  0  0  # atno 17320 bound_to 7965
  146.3378  139.8899  142.8811 LP  0  0  0  0  0  0  0  0  0  0  0  0  # atno 17321 bound_to 7965
  140.2761  143.3422  152.1194 LP  0  0  0  0  0  0  0  0  0  0  0  0  # atno 17342 bound_to 10162
  139.5078  144.6839  151.5938 LP  0  0  0  0  0  0  0  0  0  0  0  0  # atno 17343 bound_to 10162
  156.0881  130.5874  150.9685 LP  0  0  0  0  0  0  0  0  0  0  0  0  # atno 17370 bound_to 10713
  157.6356  131.0916  150.8354 LP  0  0  0  0  0  0  0  0  0  0  0  0  # atno 17371 bound_to 10713
  139.8822  135.0039  156.6214 LP  0  0  0  0  0  0  0  0  0  0  0  0  # atno 17394 bound_to 11000
  140.7724  133.8727  155.8502 LP  0  0  0  0  0  0  0  0  0  0  0  0  # atno 17395 bound_to 11000

$$$$
