AV-unprocessed.smi:1565|AV-procd|sdf|6299|dock10
  -GOLD-   22720 6503D 1   1.00000     0.00000
 Structure written by MMmdl.
 40 41  0  0  0  0  0  0  0  0  1 V2000
  152.1557  144.9716  159.3536 C   0  0  0  0  0  0  0  0  0  0  0  0
  152.0216  143.6248  158.6352 C   0  0  1  0  0  0  0  0  0  0  0  0
  152.4018  142.4471  159.5504 C   0  0  0  0  0  0  0  0  0  0  0  0
  152.1392  141.1779  158.8800 N   0  0  0  0  0  0  0  0  0  0  0  0
  152.7408  140.0425  159.4638 C   0  0  0  0  0  0  0  0  0  0  0  0
  153.8291  140.1947  160.3546 C   0  0  0  0  0  0  0  0  0  0  0  0
  154.4118  139.0495  160.9303 C   0  0  0  0  0  0  0  0  0  0  0  0
  153.8922  137.7780  160.6097 C   0  0  0  0  0  0  0  0  0  0  0  0
  154.5025  136.5341  161.1882 C   0  0  0  0  0  0  0  0  0  0  0  0
  154.2520  135.4280  160.7091 O   0  0  0  0  0  0  0  0  0  0  0  0
  155.3646  136.7260  162.1994 N   0  0  0  0  0  0  0  0  0  0  0  0
  156.1146  135.6723  162.8752 C   0  0  0  0  0  0  0  0  0  0  0  0
  155.1875  134.6573  163.5651 C   0  0  0  0  0  0  0  0  0  0  0  0
  155.9117  133.8815  164.3705 F   0  0  0  0  0  0  0  0  0  0  0  0
  154.2598  135.2773  164.2939 F   0  0  0  0  0  0  0  0  0  0  0  0
  154.5894  133.8874  162.6557 F   0  0  0  0  0  0  0  0  0  0  0  0
  152.8162  137.7240  159.6958 C   0  0  0  0  0  0  0  0  0  0  0  0
  152.2547  138.8188  159.1412 N   0  0  0  0  0  0  0  0  0  0  0  0
  150.7655  141.0567  158.3968 C   0  0  0  0  0  0  0  0  0  0  0  0
  150.3780  142.2650  157.5223 C   0  0  2  0  0  0  0  0  0  0  0  0
  151.0022  142.2287  156.1157 C   0  0  0  0  0  0  0  0  0  0  0  0
  150.6665  143.4842  158.2103 O   0  0  0  0  0  0  0  0  0  0  0  0
  153.1791  145.1356  159.6919 H   0  0  0  0  0  0  0  0  0  0  0  0
  151.5023  145.0207  160.2251 H   0  0  0  0  0  0  0  0  0  0  0  0
  151.8891  145.7948  158.6902 H   0  0  0  0  0  0  0  0  0  0  0  0
  152.6801  143.6403  157.7664 H   0  0  0  0  0  0  0  0  0  0  0  0
  153.4475  142.5432  159.8394 H   0  0  0  0  0  0  0  0  0  0  0  0
  151.8160  142.4819  160.4700 H   0  0  0  0  0  0  0  0  0  0  0  0
  154.2306  141.1691  160.5901 H   0  0  0  0  0  0  0  0  0  0  0  0
  155.2454  139.1551  161.6094 H   0  0  0  0  0  0  0  0  0  0  0  0
  155.5291  137.6723  162.5106 H   0  0  0  0  0  0  0  0  0  0  0  0
  156.7223  135.1629  162.1264 H   0  0  0  0  0  0  0  0  0  0  0  0
  156.8135  136.1001  163.5959 H   0  0  0  0  0  0  0  0  0  0  0  0
  152.3881  136.7800  159.3917 H   0  0  0  0  0  0  0  0  0  0  0  0
  150.6385  140.1357  157.8258 H   0  0  0  0  0  0  0  0  0  0  0  0
  150.0961  140.9978  159.2563 H   0  0  0  0  0  0  0  0  0  0  0  0
  149.2964  142.2415  157.3865 H   0  0  0  0  0  0  0  0  0  0  0  0
  150.6559  141.3553  155.5630 H   0  0  0  0  0  0  0  0  0  0  0  0
  152.0903  142.1793  156.1467 H   0  0  0  0  0  0  0  0  0  0  0  0
  150.7223  143.1131  155.5433 H   0  0  0  0  0  0  0  0  0  0  0  0
  1  2  1  0  0  0  0
  1 23  1  0  0  0  0
  1 24  1  0  0  0  0
  1 25  1  0  0  0  0
  2 22  1  0  0  0  0
  2  3  1  0  0  0  0
  2 26  1  0  0  0  0
  3  4  1  0  0  0  0
  3 27  1  0  0  0  0
  3 28  1  0  0  0  0
  4  5  1  0  0  0  0
  4 19  1  0  0  0  0
  5 18  1  0  0  0  0
  5  6  2  0  0  0  0
  6  7  1  0  0  0  0
  6 29  1  0  0  0  0
  7  8  2  0  0  0  0
  7 30  1  0  0  0  0
  8  9  1  0  0  0  0
  8 17  1  0  0  0  0
  9 10  2  0  0  0  0
  9 11  1  0  0  0  0
 11 12  1  0  0  0  0
 11 31  1  0  0  0  0
 12 13  1  0  0  0  0
 12 32  1  0  0  0  0
 12 33  1  0  0  0  0
 13 14  1  0  0  0  0
 13 15  1  0  0  0  0
 13 16  1  0  0  0  0
 17 18  2  0  0  0  0
 17 34  1  0  0  0  0
 19 20  1  0  0  0  0
 19 35  1  0  0  0  0
 19 36  1  0  0  0  0
 20 21  1  0  0  0  0
 20 22  1  0  0  0  0
 20 37  1  0  0  0  0
 21 38  1  0  0  0  0
 21 39  1  0  0  0  0
 21 40  1  0  0  0  0
M  END
> <s_m_source_file>
AV-unprocessed.smi

> <i_m_source_file_index>
1565

> <i_lp_mmshare_version>
43012

> <i_f3d_flags>
0

> <s_epik_input>
W0NIM11bQ0BASF0xW0NIMl1OKFtDSDJdW0NASF0oTzEpW0NIM10pYzJbY0hdW2NIXWMoW2NIXW4yKUMoPU8pW05IXVtDSDJdQyhGKShGKUY=

> <s_epik_cmdline>
J2VwaWtfcHl0aG9uJywgJy1waCcsICc3LjAnLCAnLXRuJywgJzgnLCAnLW1hJywgJzIwMCcsICctbWV0YWxfYmluZGluZycsICctaW1hZScsICc8aW5maWxlLm1hZT4nLCAnLW9tYWUnLCAnPG91dGZpbGUubWFlPic=

> <r_lp_tautomer_probability>
1

> <r_epik_Ionization_Penalty>
1.48031e-05

> <r_epik_Ionization_Penalty_Charging>
0

> <r_epik_Ionization_Penalty_Neutral>
1.48031e-05

> <r_epik_State_Penalty>
-0

> <r_epik_Charging_Adjusted_Penalty>
0

> <i_epik_Tot_Q>
0

> <i_epik_Tot_abs_Q>
0

> <r_epik_Metal_State_Penalty>
0.00620302

> <b_epik_Metal_Only>
0

> <s_lp_Force_Field>
OPLS_2005

> <r_lp_Energy>
19.4369

> <b_lp_Chiralities_Consistent>
1

> <s_lp_Variant>
AV-unprocessed.smi:1565-3

> <Gold.Version>
5.8.1

> <Gold.Id.Protein>
6NUR|6NUR_protein|mol2

> <Gold.PLP.Fitness>
38.2024

> <Gold.PLP.PLP>
-36.8110

> <Gold.PLP.part.hbond>
-0.8794

> <Gold.PLP.part.metal>
0.0000

> <Gold.PLP.part.buried>
-5.4600

> <Gold.PLP.part.nonpolar>
-29.3915

> <Gold.PLP.part.repulsive>
0.1538

> <Gold.PLP.ligand.clash>
0.0000

> <Gold.PLP.ligand.torsion>
0.7649

> <Gold.PLP.Chemscore.Hbond>
0.8613

> <Gold.PLP.Chemscore.CHOScore>
0.0000

> <Gold.PLP.Chemscore.Metal>
0.0000

> <Gold.Chemscore.Hbonds>
donor molecule, donor type, donor heavy atom, donor atom, acceptor molecule, acceptor atom, score
      P1  H  6896  6909       L1    10  0.93

> <Gold.PLP.Chemscore.Internal.Correction>
0.3375

> <Gold.Rescore>
     Score         DG    S(hbond)    S(metal)    S(lipo)     H(rot)  DE(clash)    DE(int)     intcor
     14.92     -16.04       1.00        0.00      90.39       1.31       0.07       1.04       ----

> <Gold.Chemscore.Fitness>
14.9210

> <Gold.Chemscore.DG>
-16.0381

> <Gold.Chemscore.ZeroCoef>
-5.4800

> <Gold.Chemscore.Hbond>
0.9951

> <Gold.Chemscore.Metal>
0.0000

> <Gold.Chemscore.Lipo>
90.3915

> <Gold.Chemscore.Internal_Hbond>
0.0000

> <Gold.Chemscore.DEClash>
0.0742

> <Gold.Chemscore.DEInternal>
1.0429

> <Gold.Chemscore.Rot>
1.3052

> <Gold.Chemscore.Internal.Correction>
   9.000000E+99

> <Gold.Chemscore.Hbonds>
donor molecule, donor type, donor heavy atom, donor atom, acceptor molecule, acceptor atom, score
      P1  H  6896  6909       L1    10  0.88

> <Gold.Chemscore.Hbond.Weighted>
-3.3238

> <Gold.Chemscore.Metal.Weighted>
-0.0000

> <Gold.Chemscore.Lipo.Weighted>
-10.5758

> <Gold.Chemscore.Internal_Hbond.Weighted>
0.0000

> <Gold.Chemscore.DEClash.Weighted>
0.0742

> <Gold.Chemscore.DEInternal.Weighted>
1.0429

> <Gold.Chemscore.Rot.Weighted>
3.3414

> <Gold.Chemscore.Internal.Correction.Weighted>
   9.000000E+99

> <Gold.Protein.RotatedTorsions>
[ 6907 6896 6895 6894 ] final -178.14 input  -60.11 | X-H torsion
[ 7974 7965 7964 7962 ] final   69.57 input  175.53 | X-H torsion
[ 8008 7997 7996 7995 ] final   -5.54 input   59.86 | X-H torsion
[ 10167 10162 10161 10158 ] final -114.92 input  -65.29 | X-H torsion
[ 10718 10713 10712 10709 ] final  161.51 input   66.30 | X-H torsion
[ 10763 10752 10751 10750 ] final  118.69 input  -60.55 | X-H torsion
[ 11005 11000 10999 10996 ] final  -42.38 input  -57.11 | X-H torsion

> <Gold.Protein.ActiveResidues>
 VAL166  LYS551  ARG553  GLY616  TRP617  ASP618  TYR619  PRO620  LYS621  CYS622 
 ASP623  PHE694  ASN695  SER759  ASP760  ASP761  ALA762  ILE779  LEU786  VAL792 
 PHE793  MET794  SER795  GLU796  ALA797  LYS798  CYS799  TRP800  GLU811  SER814 

> <Gold.Protein.RotatedAtoms>
  151.6324  133.3331  159.3111 H   0  0  0  0  0  0  0  0  0  0  0  0  # atno 6907 bound_to 6896
  150.8049  134.7172  159.6647 H   0  0  0  0  0  0  0  0  0  0  0  0  # atno 6908 bound_to 6896
  152.4144  134.6072  160.0067 H   0  0  0  0  0  0  0  0  0  0  0  0  # atno 6909 bound_to 6896
  145.7888  139.2923  143.1222 H   0  0  0  0  0  0  0  0  0  0  0  0  # atno 7974 bound_to 7965
  154.6028  140.2456  155.7770 H   0  0  0  0  0  0  0  0  0  0  0  0  # atno 8008 bound_to 7997
  156.2322  140.2962  156.0170 H   0  0  0  0  0  0  0  0  0  0  0  0  # atno 8009 bound_to 7997
  155.2182  140.0399  157.2934 H   0  0  0  0  0  0  0  0  0  0  0  0  # atno 8010 bound_to 7997
  140.0957  143.4659  152.1843 H   0  0  0  0  0  0  0  0  0  0  0  0  # atno 10167 bound_to 10162
  157.1355  131.0527  151.2351 H   0  0  0  0  0  0  0  0  0  0  0  0  # atno 10718 bound_to 10713
  153.5715  135.3501  155.2839 H   0  0  0  0  0  0  0  0  0  0  0  0  # atno 10763 bound_to 10752
  154.8681  135.4160  154.2720 H   0  0  0  0  0  0  0  0  0  0  0  0  # atno 10764 bound_to 10752
  153.3486  135.7054  153.6877 H   0  0  0  0  0  0  0  0  0  0  0  0  # atno 10765 bound_to 10752
  141.0311  133.6819  156.2587 H   0  0  0  0  0  0  0  0  0  0  0  0  # atno 11005 bound_to 11000
  145.9998  140.8530  143.0024 LP  0  0  0  0  0  0  0  0  0  0  0  0  # atno 17320 bound_to 7965
  144.6785  140.2336  143.7352 LP  0  0  0  0  0  0  0  0  0  0  0  0  # atno 17321 bound_to 7965
  139.5699  144.7457  151.3918 LP  0  0  0  0  0  0  0  0  0  0  0  0  # atno 17342 bound_to 10162
  140.7005  143.7644  150.7395 LP  0  0  0  0  0  0  0  0  0  0  0  0  # atno 17343 bound_to 10162
  157.4354  130.7514  149.7025 LP  0  0  0  0  0  0  0  0  0  0  0  0  # atno 17370 bound_to 10713
  155.9799  130.4035  150.3559 LP  0  0  0  0  0  0  0  0  0  0  0  0  # atno 17371 bound_to 10713
  140.6404  134.5172  157.5569 LP  0  0  0  0  0  0  0  0  0  0  0  0  # atno 17394 bound_to 11000
  139.9209  134.8151  156.1216 LP  0  0  0  0  0  0  0  0  0  0  0  0  # atno 17395 bound_to 11000

$$$$
