#       Name:                AV-unprocessed.smi:1947
#       Creating user name   scv26
#       Creation time:       Fri Mar 27 10:02:12 2020


#       File generated by GOLD software.
#

@<TRIPOS>MOLECULE
AV-unprocessed.smi:1947
    45    46     1
SMALL
NO_CHARGES


@<TRIPOS>ATOM
      1 ****         0.3495   1.6985  -1.6541 C.3            1 S1                 0.0000
      2 ****        -0.4780   1.8941  -0.3748 C.3            1 S1                 0.0000
      3 ****        -1.5944   0.8369  -0.2561 C.3            1 S1                 0.0000
      4 ****        -2.4631   1.0712   0.9896 C.3            1 S1                 0.0000
      5 ****        -1.6087   1.1159   2.2652 C.3            1 S1                 0.0000
      6 ****        -0.4908   2.1671   2.1536 C.3            1 S1                 0.0000
      7 ****         0.3877   1.9405   0.9092 C.3            1 S1                 0.0000
      8 ****         1.0684   0.7060   1.0936 O.3            1 S1                 0.0000
      9 ****         2.4605   0.7355   0.8181 C.3            1 S1                 0.0000
     10 ****         2.9937  -0.7046   0.7730 C.3            1 S1                 0.0000
     11 ****         2.4797  -1.4178  -0.3927 N.am           1 S1                 0.0000
     12 ****         1.3097  -2.0696  -0.4610 C.2            1 S1                 0.0000
     13 ****         0.6094  -2.1881   0.5472 O.2            1 S1                 0.0000
     14 ****         1.0119  -2.5272  -1.6982 N.pl3          1 S1                -1.0000
     15 ****        -0.1896  -3.0805  -1.9315 C.2            1 S1                 0.0000
     16 ****        -1.2149  -2.3770  -2.4392 N.2            1 S1                 0.0000
     17 ****        -2.3693  -3.1315  -2.5979 N.2            1 S1                 0.0000
     18 ****        -2.1807  -4.3936  -2.2133 C.2            1 S1                 0.0000
     19 ****        -0.5760  -4.7756  -1.6255 S.3            1 S1                 0.0000
     20 ****         0.8268   0.7188  -1.6751 H              1 S1                 0.0000
     21 ****         1.1295   2.4554  -1.7391 H              1 S1                 0.0000
     22 ****        -0.2796   1.7728  -2.5412 H              1 S1                 0.0000
     23 ****        -0.9633   2.8669  -0.4670 H              1 S1                 0.0000
     24 ****        -2.2230   0.8549  -1.1470 H              1 S1                 0.0000
     25 ****        -1.1580  -0.1614  -0.2135 H              1 S1                 0.0000
     26 ****        -3.0101   2.0087   0.8822 H              1 S1                 0.0000
     27 ****        -3.2123   0.2834   1.0718 H              1 S1                 0.0000
     28 ****        -2.2393   1.3339   3.1273 H              1 S1                 0.0000
     29 ****        -1.1716   0.1327   2.4448 H              1 S1                 0.0000
     30 ****        -0.9353   3.1619   2.1063 H              1 S1                 0.0000
     31 ****         0.1264   2.1497   3.0524 H              1 S1                 0.0000
     32 ****         1.0989   2.7662   0.8436 H              1 S1                 0.0000
     33 ****         2.6684   1.2378  -0.1274 H              1 S1                 0.0000
     34 ****         2.9651   1.3009   1.6024 H              1 S1                 0.0000
     35 ****         4.0808  -0.6862   0.6956 H              1 S1                 0.0000
     36 ****         2.7582  -1.2353   1.6967 H              1 S1                 0.0000
     37 ****         3.0232  -1.3555  -1.2408 H              1 S1                 0.0000
     38 ****        -2.9906  -5.1045  -2.2784 H              1 S1                 0.0000
     39 ****         0.6481   0.0280   0.4905 LP             1 S1                 0.0000
     40 ****         0.9475   0.4254   2.0458 LP             1 S1                 0.0000
     41 ****         0.9139  -1.7981   1.4162 LP             1 S1                 0.0000
     42 ****        -0.2629  -2.6743   0.4958 LP             1 S1                 0.0000
     43 ****         1.6831  -2.4540  -2.4359 LP             1 S1                 0.0000
     44 ****        -1.1530  -1.4081  -2.6786 LP             1 S1                 0.0000
     45 ****        -3.2321  -2.7738  -2.9551 LP             1 S1                 0.0000
@<TRIPOS>BOND
    1    1    2 1     
    2    1   20 1     
    3    1   21 1     
    4    1   22 1     
    5    2    7 1     
    6    2    3 1     
    7    2   23 1     
    8    3    4 1     
    9    3   24 1     
   10    3   25 1     
   11    4    5 1     
   12    4   26 1     
   13    4   27 1     
   14    5    6 1     
   15    5   28 1     
   16    5   29 1     
   17    6    7 1     
   18    6   30 1     
   19    6   31 1     
   20    7    8 1     
   21    7   32 1     
   22    8    9 1     
   23    9   10 1     
   24    9   33 1     
   25    9   34 1     
   26   10   11 1     
   27   10   35 1     
   28   10   36 1     
   29   11   12 am    
   30   11   37 1     
   31   12   13 2     
   32   12   14 1     
   33   14   15 1     
   34   15   19 1     
   35   15   16 2     
   36   16   17 1     
   37   17   18 2     
   38   18   19 1     
   39   18   38 1     
   40    8   39 1     
   41    8   40 1     
   42   13   41 1     
   43   13   42 1     
   44   14   43 1     
   45   16   44 1     
   46   17   45 1     
@<TRIPOS>SUBSTRUCTURE
      1 S1             1
@<TRIPOS>SET
LONE_PAIRS      STATIC     ATOMS    <user>   **** ""
7 39 40 41 42 43 44 45
DONOR_HYDROGENS      STATIC     ATOMS    <user>   **** ""
1 37
ATOM$BLUE        STATIC     ATOMS    COLORGROUP SYSTEM
7 39 40 41 42 43 44 45
ATOM$RED        STATIC     ATOMS    COLORGROUP SYSTEM
1 37
