AV-unprocessed.smi:618|AV-procd|sdf|3075|dock8
  -GOLD-   22720 0 03D 1   1.00000     0.00000
 Structure written by MMmdl.
 41 43  0  0  0  0  0  0  0  0  2 V2000
  144.4482  136.6696  151.5864 O   0  0  0  0  0  0  0  0  0  0  0  0
  145.6527  136.4267  151.6546 C   0  0  0  0  0  0  0  0  0  0  0  0
  146.5727  137.3515  151.9631 N   0  0  0  0  0  0  0  0  0  0  0  0
  146.2783  138.7480  152.2673 C   0  0  0  0  0  0  0  0  0  0  0  0
  147.1258  139.2719  153.4489 C   0  0  1  0  0  0  0  0  0  0  0  0
  147.3352  140.8055  153.4086 C   0  0  0  0  0  0  0  0  0  0  0  0
  146.0923  141.4756  153.8337 N   0  3  2  0  0  0  0  0  0  0  0  0
  146.0741  142.9485  153.8653 C   0  0  0  0  0  0  0  0  0  0  0  0
  144.9742  143.3100  154.8833 C   0  0  0  0  0  0  0  0  0  0  0  0
  144.5245  141.9750  155.5031 C   0  0  0  0  0  0  0  0  0  0  0  0
  145.6753  141.0325  155.1653 C   0  0  1  0  0  0  0  0  0  0  0  0
  145.3857  139.5279  155.1241 C   0  0  0  0  0  0  0  0  0  0  0  0
  146.5823  138.8600  154.7133 O   0  0  0  0  0  0  0  0  0  0  0  0
  146.2203  135.2326  151.4136 N   0  0  0  0  0  0  0  0  0  0  0  0
  145.5834  134.0061  151.0824 C   0  0  0  0  0  0  0  0  0  0  0  0
  144.1806  134.0051  150.9388 C   0  0  0  0  0  0  0  0  0  0  0  0
  143.5269  132.8071  150.5933 C   0  0  0  0  0  0  0  0  0  0  0  0
  144.3073  131.6518  150.3939 C   0  0  0  0  0  0  0  0  0  0  0  0
  145.6516  131.6380  150.5110 N   0  0  0  0  0  0  0  0  0  0  0  0
  146.2720  132.7904  150.8447 C   0  0  0  0  0  0  0  0  0  0  0  0
  147.5419  137.0701  151.9921 H   0  0  0  0  0  0  0  0  0  0  0  0
  146.4584  139.3564  151.3794 H   0  0  0  0  0  0  0  0  0  0  0  0
  145.2127  138.8371  152.4762 H   0  0  0  0  0  0  0  0  0  0  0  0
  148.1124  138.8135  153.3750 H   0  0  0  0  0  0  0  0  0  0  0  0
  148.1474  141.0891  154.0797 H   0  0  0  0  0  0  0  0  0  0  0  0
  147.6169  141.1352  152.4082 H   0  0  0  0  0  0  0  0  0  0  0  0
  147.0391  143.3276  154.2053 H   0  0  0  0  0  0  0  0  0  0  0  0
  145.8785  143.3575  152.8736 H   0  0  0  0  0  0  0  0  0  0  0  0
  145.3752  143.9765  155.6478 H   0  0  0  0  0  0  0  0  0  0  0  0
  144.1364  143.8218  154.4083 H   0  0  0  0  0  0  0  0  0  0  0  0
  144.3387  142.0466  156.5753 H   0  0  0  0  0  0  0  0  0  0  0  0
  143.6051  141.6355  155.0235 H   0  0  0  0  0  0  0  0  0  0  0  0
  146.4906  141.2199  155.8677 H   0  0  0  0  0  0  0  0  0  0  0  0
  145.1008  139.1686  156.1130 H   0  0  0  0  0  0  0  0  0  0  0  0
  144.5592  139.2970  154.4518 H   0  0  0  0  0  0  0  0  0  0  0  0
  147.2294  135.2085  151.4190 H   0  0  0  0  0  0  0  0  0  0  0  0
  143.6092  134.9085  151.0957 H   0  0  0  0  0  0  0  0  0  0  0  0
  142.4531  132.7744  150.4832 H   0  0  0  0  0  0  0  0  0  0  0  0
  143.8402  130.7151  150.1279 H   0  0  0  0  0  0  0  0  0  0  0  0
  147.3475  132.7231  150.8967 H   0  0  0  0  0  0  0  0  0  0  0  0
  145.3618  141.1939  153.1958 H   0  0  0  0  0  0  0  0  0  0  0  0
  1  2  2  0  0  0  0
  2  3  1  0  0  0  0
  2 14  1  0  0  0  0
  3  4  1  0  0  0  0
  3 21  1  0  0  0  0
  4  5  1  0  0  0  0
  4 22  1  0  0  0  0
  4 23  1  0  0  0  0
  5 13  1  0  0  0  0
  5  6  1  0  0  0  0
  5 24  1  0  0  0  0
  6  7  1  0  0  0  0
  6 25  1  0  0  0  0
  6 26  1  0  0  0  0
  7 11  1  0  0  0  0
  7  8  1  0  0  0  0
  7 41  1  0  0  0  0
  8  9  1  0  0  0  0
  8 27  1  0  0  0  0
  8 28  1  0  0  0  0
  9 10  1  0  0  0  0
  9 29  1  0  0  0  0
  9 30  1  0  0  0  0
 10 11  1  0  0  0  0
 10 31  1  0  0  0  0
 10 32  1  0  0  0  0
 11 12  1  0  0  0  0
 11 33  1  0  0  0  0
 12 13  1  0  0  0  0
 12 34  1  0  0  0  0
 12 35  1  0  0  0  0
 14 15  1  0  0  0  0
 14 36  1  0  0  0  0
 15 20  1  0  0  0  0
 15 16  2  0  0  0  0
 16 17  1  0  0  0  0
 16 37  1  0  0  0  0
 17 18  2  0  0  0  0
 17 38  1  0  0  0  0
 18 19  1  0  0  0  0
 18 39  1  0  0  0  0
 19 20  2  0  0  0  0
 20 40  1  0  0  0  0
M  CHG  1   7   1
M  END
> <s_m_source_file>
AV-unprocessed.smi

> <i_m_source_file_index>
618

> <i_lp_mmshare_version>
43012

> <i_f3d_flags>
0

> <s_epik_input>
W2NIXTFuW2NIXVtjSF1bY0hdYzFbTkhdQyg9TylbTkhdW0NIMl1bQ0BIXShbQ0gyXTIpT1tDSDJdW0NAQEhdKE4yMylbQ0gyXVtDSDJdW0NIMl0z

> <s_epik_cmdline>
J2VwaWtfcHl0aG9uJywgJy1waCcsICc3LjAnLCAnLXRuJywgJzgnLCAnLW1hJywgJzIwMCcsICctbWV0YWxfYmluZGluZycsICctaW1hZScsICc8aW5maWxlLm1hZT4nLCAnLW9tYWUnLCAnPG91dGZpbGUubWFlPic=

> <r_epik_Ionization_Penalty>
0.111044

> <r_epik_Ionization_Penalty_Charging>
0.10673

> <r_epik_Ionization_Penalty_Neutral>
0.00431361

> <r_epik_State_Penalty>
0.0978747

> <r_epik_Charging_Adjusted_Penalty>
0.204605

> <i_epik_Tot_Q>
1

> <i_epik_Tot_abs_Q>
1

> <r_epik_Metal_State_Penalty>
0.0947591

> <b_epik_Metal_Only>
0

> <s_lp_Force_Field>
OPLS_2005

> <r_lp_Energy>
41.905

> <b_lp_Chiralities_Consistent>
1

> <s_lp_Variant>
AV-unprocessed.smi:618-2

> <Gold.Version>
5.8.1

> <Gold.Id.Protein>
6NUR|6NUR_protein|mol2

> <Gold.PLP.Fitness>
48.5310

> <Gold.PLP.PLP>
-34.5294

> <Gold.PLP.part.hbond>
-3.0000

> <Gold.PLP.part.metal>
0.0000

> <Gold.PLP.part.buried>
-5.4430

> <Gold.PLP.part.nonpolar>
-28.0800

> <Gold.PLP.part.repulsive>
1.8507

> <Gold.PLP.ligand.clash>
0.0000

> <Gold.PLP.ligand.torsion>
0.3684

> <Gold.PLP.Chemscore.Hbond>
3.9120

> <Gold.PLP.Chemscore.CHOScore>
0.9975

> <Gold.PLP.Chemscore.Metal>
0.0000

> <Gold.Chemscore.Hbonds>
donor molecule, donor type, donor heavy atom, donor atom, acceptor molecule, acceptor atom, score
      L1  H     3    21       P1  7948  1.00
      L1  H     7    41       P1 10175  1.90
      L1  H    14    36       P1  7948  0.94
      L1  C    20    40       P1 10747  0.96

> <Gold.PLP.Chemscore.Internal.Correction>
0.0098

> <Gold.Rescore>
     Score         DG    S(hbond)    S(metal)    S(lipo)     H(rot)  DE(clash)    DE(int)     intcor
     15.31     -18.40       2.13        0.00      77.16       1.27       1.23       1.85       ----

> <Gold.Chemscore.Fitness>
15.3148

> <Gold.Chemscore.DG>
-18.3980

> <Gold.Chemscore.ZeroCoef>
-5.4800

> <Gold.Chemscore.Hbond>
2.1348

> <Gold.Chemscore.Metal>
0.0000

> <Gold.Chemscore.Lipo>
77.1589

> <Gold.Chemscore.Internal_Hbond>
0.0000

> <Gold.Chemscore.DEClash>
1.2291

> <Gold.Chemscore.DEInternal>
1.8541

> <Gold.Chemscore.Rot>
1.2656

> <Gold.Chemscore.Internal.Correction>
   9.000000E+99

> <Gold.Chemscore.Hbonds>
donor molecule, donor type, donor heavy atom, donor atom, acceptor molecule, acceptor atom, score
      L1  H     3    21       P1  7948  0.99
      L1  H     7    41       P1 10175  0.21
      L1  H    14    36       P1  7948  0.75

> <Gold.Chemscore.Hbond.Weighted>
-7.1303

> <Gold.Chemscore.Metal.Weighted>
-0.0000

> <Gold.Chemscore.Lipo.Weighted>
-9.0276

> <Gold.Chemscore.Internal_Hbond.Weighted>
0.0000

> <Gold.Chemscore.DEClash.Weighted>
1.2291

> <Gold.Chemscore.DEInternal.Weighted>
1.8541

> <Gold.Chemscore.Rot.Weighted>
3.2399

> <Gold.Chemscore.Internal.Correction.Weighted>
   9.000000E+99

> <Gold.Protein.RotatedTorsions>
[ 6907 6896 6895 6894 ] final  -96.40 input  -60.11 | X-H torsion
[ 7974 7965 7964 7962 ] final  121.50 input  175.53 | X-H torsion
[ 8008 7997 7996 7995 ] final -171.08 input   59.86 | X-H torsion
[ 10167 10162 10161 10158 ] final    7.37 input  -65.29 | X-H torsion
[ 10718 10713 10712 10709 ] final  -99.56 input   66.30 | X-H torsion
[ 10763 10752 10751 10750 ] final -157.34 input  -60.55 | X-H torsion
[ 11005 11000 10999 10996 ] final  139.15 input  -57.11 | X-H torsion

> <Gold.Protein.ActiveResidues>
 VAL166  LYS551  ARG553  GLY616  TRP617  ASP618  TYR619  PRO620  LYS621  CYS622 
 ASP623  PHE694  ASN695  SER759  ASP760  ASP761  ALA762  ILE779  LEU786  VAL792 
 PHE793  MET794  SER795  GLU796  ALA797  LYS798  CYS799  TRP800  GLU811  SER814 

> <Gold.Protein.RotatedAtoms>
  150.6988  134.1508  159.4139 H   0  0  0  0  0  0  0  0  0  0  0  0  # atno 6907 bound_to 6896
  151.9491  135.0175  160.0550 H   0  0  0  0  0  0  0  0  0  0  0  0  # atno 6908 bound_to 6896
  152.2027  133.4817  159.5104 H   0  0  0  0  0  0  0  0  0  0  0  0  # atno 6909 bound_to 6896
  145.1185  139.3405  143.4726 H   0  0  0  0  0  0  0  0  0  0  0  0  # atno 7974 bound_to 7965
  155.9269  140.1084  157.1163 H   0  0  0  0  0  0  0  0  0  0  0  0  # atno 8008 bound_to 7997
  154.4064  140.1245  156.4817 H   0  0  0  0  0  0  0  0  0  0  0  0  # atno 8009 bound_to 7997
  155.7128  140.3470  155.4983 H   0  0  0  0  0  0  0  0  0  0  0  0  # atno 8010 bound_to 7997
  140.6376  143.7850  150.7381 H   0  0  0  0  0  0  0  0  0  0  0  0  # atno 10167 bound_to 10162
  156.0137  130.5288  150.6687 H   0  0  0  0  0  0  0  0  0  0  0  0  # atno 10718 bound_to 10713
  154.7643  135.3126  154.8316 H   0  0  0  0  0  0  0  0  0  0  0  0  # atno 10763 bound_to 10752
  153.9069  135.6810  153.4757 H   0  0  0  0  0  0  0  0  0  0  0  0  # atno 10764 bound_to 10752
  153.1247  135.4806  154.9186 H   0  0  0  0  0  0  0  0  0  0  0  0  # atno 10765 bound_to 10752
  140.0234  134.9386  157.0520 H   0  0  0  0  0  0  0  0  0  0  0  0  # atno 11005 bound_to 11000
  146.3522  140.1135  142.8603 LP  0  0  0  0  0  0  0  0  0  0  0  0  # atno 17320 bound_to 7965
  145.0767  140.9193  143.4850 LP  0  0  0  0  0  0  0  0  0  0  0  0  # atno 17321 bound_to 7965
  140.1475  143.4387  152.2153 LP  0  0  0  0  0  0  0  0  0  0  0  0  # atno 17342 bound_to 10162
  139.5585  144.7390  151.4222 LP  0  0  0  0  0  0  0  0  0  0  0  0  # atno 17343 bound_to 10162
  157.4414  131.0862  151.0939 LP  0  0  0  0  0  0  0  0  0  0  0  0  # atno 17370 bound_to 10713
  157.1482  130.6172  149.5574 LP  0  0  0  0  0  0  0  0  0  0  0  0  # atno 17371 bound_to 10713
  140.4348  134.1743  155.7170 LP  0  0  0  0  0  0  0  0  0  0  0  0  # atno 17394 bound_to 11000
  141.1788  133.8458  157.1331 LP  0  0  0  0  0  0  0  0  0  0  0  0  # atno 17395 bound_to 11000

$$$$
