AV-unprocessed.smi:607|AV-procd|sdf|3042|dock3
  -GOLD-   2262023563D 1   1.00000     0.00000
 Structure written by MMmdl.
 42 43  0  0  0  0  0  0  0  0  1 V2000
  153.5282  140.5377  159.5637 C   0  0  0  0  0  0  0  0  0  0  0  0
  153.0612  141.8387  160.1515 C   0  0  0  0  0  0  0  0  0  0  0  0
  153.2233  142.0575  161.4449 N   0  0  0  0  0  0  0  0  0  0  0  0
  152.7100  143.2853  161.6526 N   0  0  0  0  0  0  0  0  0  0  0  0
  152.7233  143.8404  162.9922 C   0  0  0  0  0  0  0  0  0  0  0  0
  152.2272  143.8477  160.4866 C   0  0  0  0  0  0  0  0  0  0  0  0
  151.6065  145.2097  160.4688 C   0  0  0  0  0  0  0  0  0  0  0  0
  152.4286  142.9298  159.4850 C   0  0  0  0  0  0  0  0  0  0  0  0
  152.0810  143.0022  158.0106 C   0  0  2  0  0  0  0  0  0  0  0  0
  151.6733  144.4287  157.5977 C   0  0  0  0  0  0  0  0  0  0  0  0
  151.0233  141.9419  157.6607 C   0  0  0  0  0  0  0  0  0  0  0  0
  151.1483  140.7760  158.0364 O   0  0  0  0  0  0  0  0  0  0  0  0
  149.9822  142.3647  156.9245 N   0  0  0  0  0  0  0  0  0  0  0  0
  148.9066  141.5270  156.3971 C   0  0  0  0  0  0  0  0  0  0  0  0
  148.0980  140.9309  157.4785 C   0  0  0  0  0  0  0  0  0  0  0  0
  147.4630  140.4647  158.3262 N   0  0  0  0  0  0  0  0  0  0  0  0
  148.0183  142.2921  155.3971 C   0  0  0  0  0  0  0  0  0  0  0  0
  147.5345  141.2659  154.3623 C   0  0  0  0  0  0  0  0  0  0  0  0
  148.3787  140.0045  154.5750 C   0  0  0  0  0  0  0  0  0  0  0  0
  149.5057  140.4187  155.5218 C   0  0  0  0  0  0  0  0  0  0  0  0
  152.6834  139.9426  159.2168 H   0  0  0  0  0  0  0  0  0  0  0  0
  154.0796  139.9392  160.2896 H   0  0  0  0  0  0  0  0  0  0  0  0
  154.1862  140.7099  158.7117 H   0  0  0  0  0  0  0  0  0  0  0  0
  151.7401  144.2451  163.2334 H   0  0  0  0  0  0  0  0  0  0  0  0
  153.4625  144.6397  163.0493 H   0  0  0  0  0  0  0  0  0  0  0  0
  152.9739  143.0719  163.7251 H   0  0  0  0  0  0  0  0  0  0  0  0
  151.5876  145.6273  159.4635 H   0  0  0  0  0  0  0  0  0  0  0  0
  152.1615  145.9040  161.0996 H   0  0  0  0  0  0  0  0  0  0  0  0
  150.5797  145.1680  160.8322 H   0  0  0  0  0  0  0  0  0  0  0  0
  152.9567  142.7456  157.4136 H   0  0  0  0  0  0  0  0  0  0  0  0
  150.8013  144.7804  158.1492 H   0  0  0  0  0  0  0  0  0  0  0  0
  151.4387  144.4830  156.5340 H   0  0  0  0  0  0  0  0  0  0  0  0
  152.4854  145.1312  157.7864 H   0  0  0  0  0  0  0  0  0  0  0  0
  149.9625  143.3397  156.6631 H   0  0  0  0  0  0  0  0  0  0  0  0
  147.1879  142.8035  155.8858 H   0  0  0  0  0  0  0  0  0  0  0  0
  148.6039  143.0560  154.8825 H   0  0  0  0  0  0  0  0  0  0  0  0
  146.4763  141.0411  154.4995 H   0  0  0  0  0  0  0  0  0  0  0  0
  147.6559  141.6565  153.3514 H   0  0  0  0  0  0  0  0  0  0  0  0
  147.7691  139.2344  155.0490 H   0  0  0  0  0  0  0  0  0  0  0  0
  148.7572  139.5934  153.6389 H   0  0  0  0  0  0  0  0  0  0  0  0
  150.3361  140.8108  154.9319 H   0  0  0  0  0  0  0  0  0  0  0  0
  149.8883  139.5801  156.1051 H   0  0  0  0  0  0  0  0  0  0  0  0
  1  2  1  0  0  0  0
  1 21  1  0  0  0  0
  1 22  1  0  0  0  0
  1 23  1  0  0  0  0
  2  8  1  0  0  0  0
  2  3  2  0  0  0  0
  3  4  1  0  0  0  0
  4  5  1  0  0  0  0
  4  6  1  0  0  0  0
  5 24  1  0  0  0  0
  5 25  1  0  0  0  0
  5 26  1  0  0  0  0
  6  7  1  0  0  0  0
  6  8  2  0  0  0  0
  7 27  1  0  0  0  0
  7 28  1  0  0  0  0
  7 29  1  0  0  0  0
  8  9  1  0  0  0  0
  9 10  1  0  0  0  0
  9 11  1  0  0  0  0
  9 30  1  0  0  0  0
 10 31  1  0  0  0  0
 10 32  1  0  0  0  0
 10 33  1  0  0  0  0
 11 12  2  0  0  0  0
 11 13  1  0  0  0  0
 13 14  1  0  0  0  0
 13 34  1  0  0  0  0
 14 20  1  0  0  0  0
 14 15  1  0  0  0  0
 14 17  1  0  0  0  0
 15 16  3  0  0  0  0
 17 18  1  0  0  0  0
 17 35  1  0  0  0  0
 17 36  1  0  0  0  0
 18 19  1  0  0  0  0
 18 37  1  0  0  0  0
 18 38  1  0  0  0  0
 19 20  1  0  0  0  0
 19 39  1  0  0  0  0
 19 40  1  0  0  0  0
 20 41  1  0  0  0  0
 20 42  1  0  0  0  0
M  END
> <s_m_source_file>
AV-unprocessed.smi

> <i_m_source_file_index>
607

> <i_lp_mmshare_version>
43012

> <i_f3d_flags>
0

> <s_epik_input>
W0NIM11jMW5uKFtDSDNdKWMoW0NIM10pYzFbQ0BIXShbQ0gzXSlDKD1PKVtOSF1DMihDI04pW0NIMl1bQ0gyXVtDSDJdW0NIMl0y

> <s_epik_cmdline>
J2VwaWtfcHl0aG9uJywgJy1waCcsICc3LjAnLCAnLXRuJywgJzgnLCAnLW1hJywgJzIwMCcsICctbWV0YWxfYmluZGluZycsICctaW1hZScsICc8aW5maWxlLm1hZT4nLCAnLW9tYWUnLCAnPG91dGZpbGUubWFlPic=

> <r_lp_tautomer_probability>
1

> <r_epik_Ionization_Penalty>
0.00342632

> <r_epik_Ionization_Penalty_Charging>
0

> <r_epik_Ionization_Penalty_Neutral>
0.00342632

> <r_epik_State_Penalty>
0.00242724

> <r_epik_Charging_Adjusted_Penalty>
0.00242724

> <i_epik_Tot_Q>
0

> <i_epik_Tot_abs_Q>
0

> <r_epik_Metal_State_Penalty>
-0

> <b_epik_Metal_Only>
0

> <s_lp_Force_Field>
OPLS_2005

> <r_lp_Energy>
13.4407

> <b_lp_Chiralities_Consistent>
1

> <s_lp_Variant>
AV-unprocessed.smi:607-1

> <Gold.Version>
5.8.1

> <Gold.Id.Protein>
6NUR|6NUR_protein|mol2

> <Gold.PLP.Fitness>
44.2479

> <Gold.PLP.PLP>
-43.4115

> <Gold.PLP.part.hbond>
-2.0000

> <Gold.PLP.part.metal>
0.0000

> <Gold.PLP.part.buried>
-0.8716

> <Gold.PLP.part.nonpolar>
-41.6078

> <Gold.PLP.part.repulsive>
0.0645

> <Gold.PLP.ligand.clash>
0.7914

> <Gold.PLP.ligand.torsion>
0.3981

> <Gold.PLP.Chemscore.Hbond>
0.7717

> <Gold.PLP.Chemscore.CHOScore>
0.0000

> <Gold.PLP.Chemscore.Metal>
0.0000

> <Gold.Chemscore.Hbonds>
donor molecule, donor type, donor heavy atom, donor atom, acceptor molecule, acceptor atom, score
      L1  H    13    34       P1  8028  0.88

> <Gold.PLP.Chemscore.Internal.Correction>
0.1089

> <Gold.Rescore>
     Score         DG    S(hbond)    S(metal)    S(lipo)     H(rot)  DE(clash)    DE(int)     intcor
     12.94     -18.86       0.89        0.00     119.03       1.37       1.33       4.60       ----

> <Gold.Chemscore.Fitness>
12.9400

> <Gold.Chemscore.DG>
-18.8636

> <Gold.Chemscore.ZeroCoef>
-5.4800

> <Gold.Chemscore.Hbond>
0.8892

> <Gold.Chemscore.Metal>
0.0000

> <Gold.Chemscore.Lipo>
119.0253

> <Gold.Chemscore.Internal_Hbond>
0.0000

> <Gold.Chemscore.DEClash>
1.3263

> <Gold.Chemscore.DEInternal>
4.5974

> <Gold.Chemscore.Rot>
1.3720

> <Gold.Chemscore.Internal.Correction>
   9.000000E+99

> <Gold.Chemscore.Hbonds>
donor molecule, donor type, donor heavy atom, donor atom, acceptor molecule, acceptor atom, score
      L1  H    13    34       P1  8028  0.82

> <Gold.Chemscore.Hbond.Weighted>
-2.9699

> <Gold.Chemscore.Metal.Weighted>
-0.0000

> <Gold.Chemscore.Lipo.Weighted>
-13.9260

> <Gold.Chemscore.Internal_Hbond.Weighted>
0.0000

> <Gold.Chemscore.DEClash.Weighted>
1.3263

> <Gold.Chemscore.DEInternal.Weighted>
4.5974

> <Gold.Chemscore.Rot.Weighted>
3.5123

> <Gold.Chemscore.Internal.Correction.Weighted>
   9.000000E+99

> <Gold.Protein.RotatedTorsions>
[ 6907 6896 6895 6894 ] final  132.31 input  -60.11 | X-H torsion
[ 7974 7965 7964 7962 ] final  179.08 input  175.53 | X-H torsion
[ 8008 7997 7996 7995 ] final  -36.95 input   59.86 | X-H torsion
[ 10167 10162 10161 10158 ] final   84.92 input  -65.29 | X-H torsion
[ 10718 10713 10712 10709 ] final -172.42 input   66.30 | X-H torsion
[ 10763 10752 10751 10750 ] final  -31.76 input  -60.55 | X-H torsion
[ 11005 11000 10999 10996 ] final   41.09 input  -57.11 | X-H torsion

> <Gold.Protein.ActiveResidues>
 VAL166  LYS551  ARG553  GLY616  TRP617  ASP618  TYR619  PRO620  LYS621  CYS622 
 ASP623  PHE694  ASN695  SER759  ASP760  ASP761  ALA762  ILE779  LEU786  VAL792 
 PHE793  MET794  SER795  GLU796  ALA797  LYS798  CYS799  TRP800  GLU811  SER814 

> <Gold.Protein.RotatedAtoms>
  152.3337  133.5987  159.5827 H   0  0  0  0  0  0  0  0  0  0  0  0  # atno 6907 bound_to 6896
  150.7438  133.9828  159.3591 H   0  0  0  0  0  0  0  0  0  0  0  0  # atno 6908 bound_to 6896
  151.7700  135.0789  160.0409 H   0  0  0  0  0  0  0  0  0  0  0  0  # atno 6909 bound_to 6896
  144.7149  140.0494  143.6435 H   0  0  0  0  0  0  0  0  0  0  0  0  # atno 7974 bound_to 7965
  154.4063  140.1617  156.2457 H   0  0  0  0  0  0  0  0  0  0  0  0  # atno 8008 bound_to 7997
  155.9162  140.3424  155.6115 H   0  0  0  0  0  0  0  0  0  0  0  0  # atno 8009 bound_to 7997
  155.7276  140.0776  157.2294 H   0  0  0  0  0  0  0  0  0  0  0  0  # atno 8010 bound_to 7997
  139.9031  144.6317  150.8616 H   0  0  0  0  0  0  0  0  0  0  0  0  # atno 10167 bound_to 10162
  156.7553  130.9393  151.3116 H   0  0  0  0  0  0  0  0  0  0  0  0  # atno 10718 bound_to 10713
  153.8026  135.6889  153.4853 H   0  0  0  0  0  0  0  0  0  0  0  0  # atno 10763 bound_to 10752
  153.1679  135.4554  154.9861 H   0  0  0  0  0  0  0  0  0  0  0  0  # atno 10764 bound_to 10752
  154.8000  135.3334  154.7513 H   0  0  0  0  0  0  0  0  0  0  0  0  # atno 10765 bound_to 10752
  140.1868  134.4036  155.8169 H   0  0  0  0  0  0  0  0  0  0  0  0  # atno 11005 bound_to 11000
  145.9957  139.3050  143.0958 LP  0  0  0  0  0  0  0  0  0  0  0  0  # atno 17320 bound_to 7965
  145.8852  140.9338  143.0581 LP  0  0  0  0  0  0  0  0  0  0  0  0  # atno 17321 bound_to 7965
  140.7702  143.3422  151.2185 LP  0  0  0  0  0  0  0  0  0  0  0  0  # atno 17342 bound_to 10162
  139.7008  143.9537  152.2904 LP  0  0  0  0  0  0  0  0  0  0  0  0  # atno 17343 bound_to 10162
  157.6759  130.9094  150.0149 LP  0  0  0  0  0  0  0  0  0  0  0  0  # atno 17370 bound_to 10713
  156.1374  130.3642  149.9635 LP  0  0  0  0  0  0  0  0  0  0  0  0  # atno 17371 bound_to 10713
  141.2225  133.7027  156.8026 LP  0  0  0  0  0  0  0  0  0  0  0  0  # atno 17394 bound_to 11000
  140.2204  134.8761  157.3371 LP  0  0  0  0  0  0  0  0  0  0  0  0  # atno 17395 bound_to 11000

$$$$
