AV-unprocessed.smi:158|AV-procd|sdf|1333|dock2
  -GOLD-   2262019 33D 1   1.00000     0.00000
 Structure written by MMmdl.
 31 33  0  0  0  0  0  0  0  0  1 V2000
  147.2787  128.2879  155.7855 N   0  0  0  0  0  0  0  0  0  0  0  0
  147.1999  128.6832  154.5072 C   0  0  0  0  0  0  0  0  0  0  0  0
  147.5060  127.7903  153.5381 N   0  0  0  0  0  0  0  0  0  0  0  0
  147.4409  128.1453  152.2498 C   0  0  0  0  0  0  0  0  0  0  0  0
  147.8514  126.9312  151.0967 Cl  0  0  0  0  0  0  0  0  0  0  0  0
  147.0948  129.3378  151.7552 N   0  0  0  0  0  0  0  0  0  0  0  0
  146.7840  130.2456  152.7262 C   0  0  0  0  0  0  0  0  0  0  0  0
  146.8123  129.9907  154.1246 C   0  0  0  0  0  0  0  0  0  0  0  0
  146.4379  131.1291  154.8233 N   0  0  0  0  0  0  0  0  0  0  0  0
  146.2030  132.0067  153.8860 C   0  0  0  0  0  0  0  0  0  0  0  0
  146.3912  131.5668  152.5934 N   0  0  0  0  0  0  0  0  0  0  0  0
  146.1982  132.3780  151.3430 C   0  0  2  0  0  0  0  0  0  0  0  0
  145.7973  133.6757  151.6810 O   0  0  0  0  0  0  0  0  0  0  0  0
  144.4133  133.8989  151.3782 C   0  0  1  0  0  0  0  0  0  0  0  0
  144.3552  134.8969  150.2023 C   0  0  0  0  0  0  0  0  0  0  0  0
  145.0146  136.0935  150.5570 O   0  0  0  0  0  0  0  0  0  0  0  0
  143.8705  132.4912  151.0747 C   0  0  1  0  0  0  0  0  0  0  0  0
  142.7390  132.4299  150.2286 O   0  0  0  0  0  0  0  0  0  0  0  0
  145.0756  131.7722  150.5017 C   0  0  1  0  0  0  0  0  0  0  0  0
  145.2911  132.0993  149.2259 F   0  0  0  0  0  0  0  0  0  0  0  0
  147.1766  132.3664  150.8615 H   0  0  0  0  0  0  0  0  0  0  0  0
  143.8903  134.3143  152.2408 H   0  0  0  0  0  0  0  0  0  0  0  0
  143.5964  132.0114  152.0152 H   0  0  0  0  0  0  0  0  0  0  0  0
  145.0355  130.6848  150.5766 H   0  0  0  0  0  0  0  0  0  0  0  0
  147.0558  128.9366  156.5267 H   0  0  0  0  0  0  0  0  0  0  0  0
  147.5603  127.3436  156.0055 H   0  0  0  0  0  0  0  0  0  0  0  0
  145.8863  133.0142  154.1138 H   0  0  0  0  0  0  0  0  0  0  0  0
  144.7960  134.4824  149.2957 H   0  0  0  0  0  0  0  0  0  0  0  0
  143.3260  135.1671  149.9673 H   0  0  0  0  0  0  0  0  0  0  0  0
  144.5064  136.8231  150.2369 H   0  0  0  0  0  0  0  0  0  0  0  0
  142.5057  133.3103  149.9761 H   0  0  0  0  0  0  0  0  0  0  0  0
  1  2  1  0  0  0  0
  1 25  1  0  0  0  0
  1 26  1  0  0  0  0
  2  8  1  0  0  0  0
  2  3  2  0  0  0  0
  3  4  1  0  0  0  0
  4  5  1  0  0  0  0
  4  6  2  0  0  0  0
  6  7  1  0  0  0  0
  7 11  1  0  0  0  0
  7  8  2  0  0  0  0
  8  9  1  0  0  0  0
  9 10  2  0  0  0  0
 10 11  1  0  0  0  0
 10 27  1  0  0  0  0
 11 12  1  0  0  0  0
 12 21  1  0  0  0  0
 12 19  1  0  0  0  0
 12 13  1  0  0  0  0
 13 14  1  0  0  0  0
 14 22  1  0  0  0  0
 14 15  1  0  0  0  0
 14 17  1  0  0  0  0
 15 16  1  0  0  0  0
 15 28  1  0  0  0  0
 15 29  1  0  0  0  0
 16 30  1  0  0  0  0
 17 23  1  0  0  0  0
 17 18  1  0  0  0  0
 17 19  1  0  0  0  0
 18 31  1  0  0  0  0
 19 24  1  0  0  0  0
 19 20  1  0  0  0  0
M  END
> <s_m_source_file>
AV-unprocessed.smi

> <i_m_source_file_index>
158

> <i_lp_mmshare_version>
43012

> <i_f3d_flags>
0

> <s_epik_input>
Q2xjKG4xKW5jKFtOSDJdKWMoYzEyKW5bY0hdbjJbQ0BASF0zT1tDQEhdKFtDSDJdW09IXSlbQ0BASF0oW09IXSlbQ0BASF0zRg==

> <s_epik_cmdline>
J2VwaWtfcHl0aG9uJywgJy1waCcsICc3LjAnLCAnLXRuJywgJzgnLCAnLW1hJywgJzIwMCcsICctbWV0YWxfYmluZGluZycsICctaW1hZScsICc8aW5maWxlLm1hZT4nLCAnLW9tYWUnLCAnPG91dGZpbGUubWFlPic=

> <r_lp_tautomer_probability>
1

> <r_epik_Ionization_Penalty>
6.51543e-05

> <r_epik_Ionization_Penalty_Charging>
0

> <r_epik_Ionization_Penalty_Neutral>
6.51543e-05

> <r_epik_State_Penalty>
-0

> <r_epik_Charging_Adjusted_Penalty>
0

> <i_epik_Tot_Q>
0

> <i_epik_Tot_abs_Q>
0

> <r_epik_Metal_State_Penalty>
-0

> <b_epik_Metal_Only>
0

> <s_epik_Chemistry_Notes>
This compound contains an acetal/aminal-like group ( X-CH(R)-Y where X, Y are N, S, or O) that may be acid/base labile, releasing an aldehyde.

> <s_lp_Force_Field>
OPLS_2005

> <r_lp_Energy>
36.1336

> <b_lp_Chiralities_Consistent>
1

> <s_lp_Variant>
AV-unprocessed.smi:158-11

> <Gold.Version>
5.8.1

> <Gold.Id.Protein>
6NUR|6NUR_protein|mol2

> <Gold.PLP.Fitness>
39.4138

> <Gold.PLP.PLP>
-33.8997

> <Gold.PLP.part.hbond>
-3.0000

> <Gold.PLP.part.metal>
0.0000

> <Gold.PLP.part.buried>
-6.7519

> <Gold.PLP.part.nonpolar>
-25.6581

> <Gold.PLP.part.repulsive>
2.4053

> <Gold.PLP.ligand.clash>
0.0000

> <Gold.PLP.ligand.torsion>
0.0225

> <Gold.PLP.Chemscore.Hbond>
1.8480

> <Gold.PLP.Chemscore.CHOScore>
0.0000

> <Gold.PLP.Chemscore.Metal>
0.0000

> <Gold.Chemscore.Hbonds>
donor molecule, donor type, donor heavy atom, donor atom, acceptor molecule, acceptor atom, score
      L1  H    16    30       P1 10171  1.00
      L1  H    18    31       P1 10186  0.85

> <Gold.PLP.Chemscore.Internal.Correction>
0.0150

> <Gold.Rescore>
     Score         DG    S(hbond)    S(metal)    S(lipo)     H(rot)  DE(clash)    DE(int)     intcor
      8.52      -8.56       1.94        0.00      39.33       3.12       0.00       0.05       ----

> <Gold.Chemscore.Fitness>
8.5166

> <Gold.Chemscore.DG>
-8.5649

> <Gold.Chemscore.ZeroCoef>
-5.4800

> <Gold.Chemscore.Hbond>
1.9397

> <Gold.Chemscore.Metal>
0.0000

> <Gold.Chemscore.Lipo>
39.3277

> <Gold.Chemscore.Internal_Hbond>
0.0000

> <Gold.Chemscore.DEClash>
0.0009

> <Gold.Chemscore.DEInternal>
0.0475

> <Gold.Chemscore.Rot>
3.1230

> <Gold.Chemscore.Internal.Correction>
   9.000000E+99

> <Gold.Chemscore.Hbonds>
donor molecule, donor type, donor heavy atom, donor atom, acceptor molecule, acceptor atom, score
      L1  H    16    30       P1 10171  1.00
      L1  H    18    31       P1 10186  0.83

> <Gold.Chemscore.Hbond.Weighted>
-6.4785

> <Gold.Chemscore.Metal.Weighted>
-0.0000

> <Gold.Chemscore.Lipo.Weighted>
-4.6013

> <Gold.Chemscore.Internal_Hbond.Weighted>
0.0000

> <Gold.Chemscore.DEClash.Weighted>
0.0009

> <Gold.Chemscore.DEInternal.Weighted>
0.0475

> <Gold.Chemscore.Rot.Weighted>
7.9950

> <Gold.Chemscore.Internal.Correction.Weighted>
   9.000000E+99

> <Gold.Protein.RotatedTorsions>
[ 6907 6896 6895 6894 ] final  176.35 input  -60.11 | X-H torsion
[ 7974 7965 7964 7962 ] final  -36.58 input  175.53 | X-H torsion
[ 8008 7997 7996 7995 ] final  -83.21 input   59.86 | X-H torsion
[ 10167 10162 10161 10158 ] final   71.38 input  -65.29 | X-H torsion
[ 10718 10713 10712 10709 ] final  -34.76 input   66.30 | X-H torsion
[ 10763 10752 10751 10750 ] final   17.41 input  -60.55 | X-H torsion
[ 11005 11000 10999 10996 ] final  172.35 input  -57.11 | X-H torsion

> <Gold.Protein.ActiveResidues>
 VAL166  LYS551  ARG553  GLY616  TRP617  ASP618  TYR619  PRO620  LYS621  CYS622 
 ASP623  PHE694  ASN695  SER759  ASP760  ASP761  ALA762  ILE779  LEU786  VAL792 
 PHE793  MET794  SER795  GLU796  ALA797  LYS798  CYS799  TRP800  GLU811  SER814 

> <Gold.Protein.RotatedAtoms>
  151.7216  133.3314  159.3316 H   0  0  0  0  0  0  0  0  0  0  0  0  # atno 6907 bound_to 6896
  150.7650  134.6443  159.6263 H   0  0  0  0  0  0  0  0  0  0  0  0  # atno 6908 bound_to 6896
  152.3649  134.6822  160.0247 H   0  0  0  0  0  0  0  0  0  0  0  0  # atno 6909 bound_to 6896
  146.0649  140.6295  142.8979 H   0  0  0  0  0  0  0  0  0  0  0  0  # atno 7974 bound_to 7965
  154.6167  140.0622  156.9563 H   0  0  0  0  0  0  0  0  0  0  0  0  # atno 8008 bound_to 7997
  155.1885  140.3305  155.4344 H   0  0  0  0  0  0  0  0  0  0  0  0  # atno 8009 bound_to 7997
  156.2408  140.1885  156.6976 H   0  0  0  0  0  0  0  0  0  0  0  0  # atno 8010 bound_to 7997
  140.0467  144.5345  150.7393 H   0  0  0  0  0  0  0  0  0  0  0  0  # atno 10167 bound_to 10162
  156.3467  130.4302  149.7739 H   0  0  0  0  0  0  0  0  0  0  0  0  # atno 10718 bound_to 10713
  153.1341  135.6746  153.9131 H   0  0  0  0  0  0  0  0  0  0  0  0  # atno 10763 bound_to 10752
  153.8608  135.3081  155.3439 H   0  0  0  0  0  0  0  0  0  0  0  0  # atno 10764 bound_to 10752
  154.7733  135.4928  153.9774 H   0  0  0  0  0  0  0  0  0  0  0  0  # atno 10765 bound_to 10752
  140.3288  134.7375  157.4119 H   0  0  0  0  0  0  0  0  0  0  0  0  # atno 11005 bound_to 11000
  144.7196  140.4330  143.7018 LP  0  0  0  0  0  0  0  0  0  0  0  0  # atno 17320 bound_to 7965
  145.6495  139.1562  143.2870 LP  0  0  0  0  0  0  0  0  0  0  0  0  # atno 17321 bound_to 7965
  140.7235  143.2613  151.4198 LP  0  0  0  0  0  0  0  0  0  0  0  0  # atno 17342 bound_to 10162
  139.5979  144.1358  152.2165 LP  0  0  0  0  0  0  0  0  0  0  0  0  # atno 17343 bound_to 10162
  156.4955  130.8105  151.3112 LP  0  0  0  0  0  0  0  0  0  0  0  0  # atno 17370 bound_to 10713
  157.7455  130.9961  150.2769 LP  0  0  0  0  0  0  0  0  0  0  0  0  # atno 17371 bound_to 10713
  140.0879  134.5642  155.8474 LP  0  0  0  0  0  0  0  0  0  0  0  0  # atno 17394 bound_to 11000
  141.2068  133.6659  156.6269 LP  0  0  0  0  0  0  0  0  0  0  0  0  # atno 17395 bound_to 11000

$$$$
