AV-unprocessed.smi:2144|AV-procd|sdf|8733|dock2
  -GOLD-   2272011503D 1   1.00000     0.00000
 Structure written by MMmdl.
 41 43  0  0  0  0  0  0  0  0  2 V2000
  147.2365  138.6221  151.0757 O   0  0  0  0  0  0  0  0  0  0  0  0
  146.9486  139.1048  152.3717 C   0  0  0  0  0  0  0  0  0  0  0  0
  148.1697  139.2953  153.2149 C   0  0  0  0  0  0  0  0  0  0  0  0
  149.2684  138.4872  153.2399 N   0  3  0  0  0  0  0  0  0  0  0  0
  150.2007  138.9813  154.1527 C   0  0  0  0  0  0  0  0  0  0  0  0
  151.4562  138.5080  154.5207 C   0  0  0  0  0  0  0  0  0  0  0  0
  152.1532  139.2545  155.4935 C   0  0  0  0  0  0  0  0  0  0  0  0
  151.5995  140.4211  156.0601 C   0  0  0  0  0  0  0  0  0  0  0  0
  150.3260  140.8920  155.6774 C   0  0  0  0  0  0  0  0  0  0  0  0
  149.6440  140.1481  154.7150 C   0  0  0  0  0  0  0  0  0  0  0  0
  148.3945  140.3047  154.1052 N   0  0  0  0  0  0  0  0  0  0  0  0
  147.5511  141.4500  154.4835 C   0  0  0  0  0  0  0  0  0  0  0  0
  146.0986  141.0474  154.8100 C   0  0  1  0  0  0  0  0  0  0  0  0
  146.1179  139.9651  155.7197 O   0  0  0  0  0  0  0  0  0  0  0  0
  145.3096  142.2061  155.4400 C   0  0  0  0  0  0  0  0  0  0  0  0
  145.0869  143.1993  154.4477 O   0  0  0  0  0  0  0  0  0  0  0  0
  144.2119  144.2266  154.7314 C   0  0  0  0  0  0  0  0  0  0  0  0
  143.3441  144.2460  155.8532 C   0  0  0  0  0  0  0  0  0  0  0  0
  142.4807  145.3381  156.0686 C   0  0  0  0  0  0  0  0  0  0  0  0
  142.4724  146.4211  155.1705 C   0  0  0  0  0  0  0  0  0  0  0  0
  143.3295  146.4107  154.0548 C   0  0  0  0  0  0  0  0  0  0  0  0
  144.1935  145.3197  153.8383 C   0  0  0  0  0  0  0  0  0  0  0  0
  145.0142  145.3230  152.7608 F   0  0  0  0  0  0  0  0  0  0  0  0
  147.8420  137.9000  151.1518 H   0  0  0  0  0  0  0  0  0  0  0  0
  146.4198  140.0539  152.2822 H   0  0  0  0  0  0  0  0  0  0  0  0
  146.2778  138.4046  152.8704 H   0  0  0  0  0  0  0  0  0  0  0  0
  151.8820  137.6144  154.0883 H   0  0  0  0  0  0  0  0  0  0  0  0
  153.1320  138.9255  155.8117 H   0  0  0  0  0  0  0  0  0  0  0  0
  152.1632  140.9664  156.8032 H   0  0  0  0  0  0  0  0  0  0  0  0
  149.9107  141.7873  156.1164 H   0  0  0  0  0  0  0  0  0  0  0  0
  148.0130  141.9338  155.3450 H   0  0  0  0  0  0  0  0  0  0  0  0
  147.5807  142.1789  153.6726 H   0  0  0  0  0  0  0  0  0  0  0  0
  145.6009  140.7261  153.8943 H   0  0  0  0  0  0  0  0  0  0  0  0
  145.3248  139.9907  156.2326 H   0  0  0  0  0  0  0  0  0  0  0  0
  144.3738  141.8482  155.8733 H   0  0  0  0  0  0  0  0  0  0  0  0
  145.9010  142.6505  156.2424 H   0  0  0  0  0  0  0  0  0  0  0  0
  143.3211  143.4348  156.5646 H   0  0  0  0  0  0  0  0  0  0  0  0
  141.8232  145.3443  156.9255 H   0  0  0  0  0  0  0  0  0  0  0  0
  141.8100  147.2579  155.3365 H   0  0  0  0  0  0  0  0  0  0  0  0
  143.3247  147.2400  153.3631 H   0  0  0  0  0  0  0  0  0  0  0  0
  149.3659  137.6573  152.6690 H   0  0  0  0  0  0  0  0  0  0  0  0
  1  2  1  0  0  0  0
  1 24  1  0  0  0  0
  2  3  1  0  0  0  0
  2 25  1  0  0  0  0
  2 26  1  0  0  0  0
  3 11  1  0  0  0  0
  3  4  2  0  0  0  0
  4  5  1  0  0  0  0
  4 41  1  0  0  0  0
  5 10  2  0  0  0  0
  5  6  1  0  0  0  0
  6  7  2  0  0  0  0
  6 27  1  0  0  0  0
  7  8  1  0  0  0  0
  7 28  1  0  0  0  0
  8  9  2  0  0  0  0
  8 29  1  0  0  0  0
  9 10  1  0  0  0  0
  9 30  1  0  0  0  0
 10 11  1  0  0  0  0
 11 12  1  0  0  0  0
 12 13  1  0  0  0  0
 12 31  1  0  0  0  0
 12 32  1  0  0  0  0
 13 14  1  0  0  0  0
 13 15  1  0  0  0  0
 13 33  1  0  0  0  0
 14 34  1  0  0  0  0
 15 16  1  0  0  0  0
 15 35  1  0  0  0  0
 15 36  1  0  0  0  0
 16 17  1  0  0  0  0
 17 22  1  0  0  0  0
 17 18  2  0  0  0  0
 18 19  1  0  0  0  0
 18 37  1  0  0  0  0
 19 20  2  0  0  0  0
 19 38  1  0  0  0  0
 20 21  1  0  0  0  0
 20 39  1  0  0  0  0
 21 22  2  0  0  0  0
 21 40  1  0  0  0  0
 22 23  1  0  0  0  0
M  CHG  1   4   1
M  END
> <s_m_source_file>
AV-unprocessed.smi

> <i_m_source_file_index>
2144

> <i_lp_mmshare_version>
43012

> <i_f3d_flags>
0

> <s_epik_input>
W2NIXTFbY0hdW2NIXVtjSF1jKGMxMiluKGMobjIpW0NIMl1bT0hdKVtDSDJdW0NASF0oW09IXSlbQ0gyXU9jM1tjSF1bY0hdW2NIXVtjSF1jM0Y=

> <s_epik_cmdline>
J2VwaWtfcHl0aG9uJywgJy1waCcsICc3LjAnLCAnLXRuJywgJzgnLCAnLW1hJywgJzIwMCcsICctbWV0YWxfYmluZGluZycsICctaW1hZScsICc8aW5maWxlLm1hZT4nLCAnLW9tYWUnLCAnPG91dGZpbGUubWFlPic=

> <r_lp_tautomer_probability>
1

> <r_epik_Ionization_Penalty>
1.44003

> <r_epik_Ionization_Penalty_Charging>
1.43917

> <r_epik_Ionization_Penalty_Neutral>
0.000858184

> <r_epik_State_Penalty>
1.52442

> <r_epik_Charging_Adjusted_Penalty>
2.96359

> <i_epik_Tot_Q>
1

> <i_epik_Tot_abs_Q>
1

> <r_epik_Metal_State_Penalty>
5.57019

> <b_epik_Metal_Only>
0

> <s_lp_Force_Field>
OPLS_2005

> <r_lp_Energy>
20.1924

> <b_lp_Chiralities_Consistent>
1

> <s_lp_Variant>
AV-unprocessed.smi:2144-4

> <Gold.Version>
5.8.1

> <Gold.Id.Protein>
6NUR|6NUR_protein|mol2

> <Gold.PLP.Fitness>
57.1941

> <Gold.PLP.PLP>
-49.4476

> <Gold.PLP.part.hbond>
-5.0000

> <Gold.PLP.part.metal>
0.0000

> <Gold.PLP.part.buried>
-0.6645

> <Gold.PLP.part.nonpolar>
-43.5815

> <Gold.PLP.part.repulsive>
0.2872

> <Gold.PLP.ligand.clash>
0.0000

> <Gold.PLP.ligand.torsion>
0.6781

> <Gold.PLP.Chemscore.Hbond>
3.0000

> <Gold.PLP.Chemscore.CHOScore>
0.0000

> <Gold.PLP.Chemscore.Metal>
0.0000

> <Gold.Chemscore.Hbonds>
donor molecule, donor type, donor heavy atom, donor atom, acceptor molecule, acceptor atom, score
      L1  H     1    24       P1  7948  0.89
      L1  H     4    41       P1  7948  2.00

> <Gold.PLP.Chemscore.Internal.Correction>
0.1027

> <Gold.Rescore>
     Score         DG    S(hbond)    S(metal)    S(lipo)     H(rot)  DE(clash)    DE(int)     intcor
     14.17     -15.00       1.98        0.00      97.36       3.31       0.27       0.56       ----

> <Gold.Chemscore.Fitness>
14.1699

> <Gold.Chemscore.DG>
-14.9990

> <Gold.Chemscore.ZeroCoef>
-5.4800

> <Gold.Chemscore.Hbond>
1.9791

> <Gold.Chemscore.Metal>
0.0000

> <Gold.Chemscore.Lipo>
97.3618

> <Gold.Chemscore.Internal_Hbond>
0.0000

> <Gold.Chemscore.DEClash>
0.2667

> <Gold.Chemscore.DEInternal>
0.5624

> <Gold.Chemscore.Rot>
3.3134

> <Gold.Chemscore.Internal.Correction>
   9.000000E+99

> <Gold.Chemscore.Hbonds>
donor molecule, donor type, donor heavy atom, donor atom, acceptor molecule, acceptor atom, score
      L1  H     1    24       P1  7948  0.85
      L1  H     4    41       P1  7948  0.85

> <Gold.Chemscore.Hbond.Weighted>
-6.6100

> <Gold.Chemscore.Metal.Weighted>
-0.0000

> <Gold.Chemscore.Lipo.Weighted>
-11.3913

> <Gold.Chemscore.Internal_Hbond.Weighted>
0.0000

> <Gold.Chemscore.DEClash.Weighted>
0.2667

> <Gold.Chemscore.DEInternal.Weighted>
0.5624

> <Gold.Chemscore.Rot.Weighted>
8.4823

> <Gold.Chemscore.Internal.Correction.Weighted>
   9.000000E+99

> <Gold.Protein.RotatedTorsions>
[ 6907 6896 6895 6894 ] final -112.17 input  -60.11 | X-H torsion
[ 7974 7965 7964 7962 ] final   77.78 input  175.53 | X-H torsion
[ 8008 7997 7996 7995 ] final  158.52 input   59.86 | X-H torsion
[ 10167 10162 10161 10158 ] final  137.34 input  -65.29 | X-H torsion
[ 10718 10713 10712 10709 ] final  -23.95 input   66.30 | X-H torsion
[ 10763 10752 10751 10750 ] final  -86.31 input  -60.55 | X-H torsion
[ 11005 11000 10999 10996 ] final  175.64 input  -57.11 | X-H torsion

> <Gold.Protein.ActiveResidues>
 VAL166  LYS551  ARG553  GLY616  TRP617  ASP618  TYR619  PRO620  LYS621  CYS622 
 ASP623  PHE694  ASN695  SER759  ASP760  ASP761  ALA762  ILE779  LEU786  VAL792 
 PHE793  MET794  SER795  GLU796  ALA797  LYS798  CYS799  TRP800  GLU811  SER814 

> <Gold.Protein.RotatedAtoms>
  150.7740  133.9128  159.3374 H   0  0  0  0  0  0  0  0  0  0  0  0  # atno 6907 bound_to 6896
  151.7008  135.0928  160.0260 H   0  0  0  0  0  0  0  0  0  0  0  0  # atno 6908 bound_to 6896
  152.3769  133.6455  159.6166 H   0  0  0  0  0  0  0  0  0  0  0  0  # atno 6909 bound_to 6896
  145.6857  139.2537  143.1789 H   0  0  0  0  0  0  0  0  0  0  0  0  # atno 7974 bound_to 7965
  156.2297  140.1856  156.7273 H   0  0  0  0  0  0  0  0  0  0  0  0  # atno 8008 bound_to 7997
  154.6002  140.0637  156.9385 H   0  0  0  0  0  0  0  0  0  0  0  0  # atno 8009 bound_to 7997
  155.2188  140.3306  155.4321 H   0  0  0  0  0  0  0  0  0  0  0  0  # atno 8010 bound_to 7997
  139.5148  144.6415  151.5555 H   0  0  0  0  0  0  0  0  0  0  0  0  # atno 10167 bound_to 10162
  156.4842  130.4552  149.6794 H   0  0  0  0  0  0  0  0  0  0  0  0  # atno 10718 bound_to 10713
  154.6210  135.5454  153.7575 H   0  0  0  0  0  0  0  0  0  0  0  0  # atno 10763 bound_to 10752
  153.0238  135.6413  154.1440 H   0  0  0  0  0  0  0  0  0  0  0  0  # atno 10764 bound_to 10752
  154.1374  135.2910  155.3149 H   0  0  0  0  0  0  0  0  0  0  0  0  # atno 10765 bound_to 10752
  140.3644  134.7085  157.4352 H   0  0  0  0  0  0  0  0  0  0  0  0  # atno 11005 bound_to 11000
  146.0926  140.7638  142.9588 LP  0  0  0  0  0  0  0  0  0  0  0  0  # atno 17320 bound_to 7965
  144.7012  140.3661  143.7154 LP  0  0  0  0  0  0  0  0  0  0  0  0  # atno 17321 bound_to 7965
  140.6184  143.9305  150.6506 LP  0  0  0  0  0  0  0  0  0  0  0  0  # atno 17342 bound_to 10162
  140.2571  143.3551  152.1355 LP  0  0  0  0  0  0  0  0  0  0  0  0  # atno 17343 bound_to 10162
  156.3491  130.7423  151.2379 LP  0  0  0  0  0  0  0  0  0  0  0  0  # atno 17370 bound_to 10713
  157.7480  131.0382  150.4491 LP  0  0  0  0  0  0  0  0  0  0  0  0  # atno 17371 bound_to 10713
  140.0601  134.6008  155.8759 LP  0  0  0  0  0  0  0  0  0  0  0  0  # atno 17394 bound_to 11000
  141.1974  133.6596  156.5740 LP  0  0  0  0  0  0  0  0  0  0  0  0  # atno 17395 bound_to 11000

$$$$
