#       Name:                AV-unprocessed.smi:234
#       Creating user name   scv26
#       Creation time:       Thu Mar 26 20:36:27 2020


#       File generated by GOLD software.
#

@<TRIPOS>MOLECULE
AV-unprocessed.smi:234
    69    72     1
SMALL
NO_CHARGES


@<TRIPOS>ATOM
      1 ****        -6.4697   2.2893  -2.2687 C.3            1 S1                 0.0000
      2 ****        -6.0051   1.8885  -0.8620 C.3            1 S1                 0.0000
      3 ****        -4.6259   2.1661  -0.6671 O.3            1 S1                 0.0000
      4 ****        -3.7453   1.2728  -1.3430 C.3            1 S1                 0.0000
      5 ****        -2.6347   0.8199  -0.3945 C.3            1 S1                 0.0000
      6 ****        -1.8435   2.0439  -0.8772 C.3            1 S1                 0.0000
      7 ****        -0.4056   1.8045  -1.0409 N.3            1 S1                 0.0000
      8 ****         0.3757   2.8008  -1.7663 C.3            1 S1                 0.0000
      9 ****         0.2761   1.2930   0.0137 C.ar           1 S1                 0.0000
     10 ****        -0.1141   1.5785   1.2847 N.ar           1 S1                 0.0000
     11 ****         0.5653   1.0832   2.3232 C.ar           1 S1                 0.0000
     12 ****         1.6431   0.2964   2.3165 N.ar           1 S1                 0.0000
     13 ****         2.0397   0.0097   1.0433 C.ar           1 S1                 0.0000
     14 ****         1.4228   0.4695  -0.1539 C.ar           1 S1                 0.0000
     15 ****         2.1046  -0.0226  -1.2599 N.2            1 S1                 0.0000
     16 ****         3.0677  -0.7378  -0.7453 C.2            1 S1                 0.0000
     17 ****         3.0977  -0.7815   0.6308 N.pl3          1 S1                 0.0000
     18 ****         4.0490  -1.5090   1.4577 C.3            1 S1                 0.0000
     19 ****         3.6373  -2.9830   1.7139 C.3            1 S1                 0.0000
     20 ****         3.5752  -3.6403   0.4585 O.3            1 S1                 0.0000
     21 ****         2.2765  -3.1316   2.3876 C.3            1 S1                 0.0000
     22 ****         2.4011  -4.4606   3.1161 C.3            1 S1                 0.0000
     23 ****         3.7275  -4.4152   3.6118 O.3            1 S1                 0.0000
     24 ****         4.5746  -3.8158   2.6332 C.3            1 S1                 0.0000
     25 ****         5.6682  -3.0421   3.3861 C.3            1 S1                 0.0000
     26 ****        -2.6679   1.9945  -2.1941 C.3            1 S1                 0.0000
     27 ****        -2.1162   1.1444  -3.3504 C.3            1 S1                 0.0000
     28 ****        -3.0769   3.3410  -2.7979 C.3            1 S1                 0.0000
     29 ****        -7.5401   2.1195  -2.3848 H              1 S1                 0.0000
     30 ****        -5.9589   1.7150  -3.0416 H              1 S1                 0.0000
     31 ****        -6.2788   3.3463  -2.4553 H              1 S1                 0.0000
     32 ****        -6.5664   2.4638  -0.1256 H              1 S1                 0.0000
     33 ****        -6.2179   0.8373  -0.6609 H              1 S1                 0.0000
     34 ****        -4.2362   0.4404  -1.8509 H              1 S1                 0.0000
     35 ****        -2.9014   0.8352   0.6629 H              1 S1                 0.0000
     36 ****        -2.1932  -0.1356  -0.6832 H              1 S1                 0.0000
     37 ****        -2.0738   2.9311  -0.2842 H              1 S1                 0.0000
     38 ****         1.1379   3.2608  -1.1349 H              1 S1                 0.0000
     39 ****        -0.2588   3.6019  -2.1435 H              1 S1                 0.0000
     40 ****         0.8738   2.3366  -2.6176 H              1 S1                 0.0000
     41 ****         0.1911   1.3561   3.2988 H              1 S1                 0.0000
     42 ****         3.7829  -1.2658  -1.3593 H              1 S1                 0.0000
     43 ****         5.0237  -1.4656   0.9700 H              1 S1                 0.0000
     44 ****         4.1502  -0.9687   2.3992 H              1 S1                 0.0000
     45 ****         3.3086  -4.5356   0.6027 H              1 S1                 0.0000
     46 ****         2.1361  -2.3424   3.1269 H              1 S1                 0.0000
     47 ****         1.4332  -3.0940   1.6964 H              1 S1                 0.0000
     48 ****         1.6737  -4.5722   3.9203 H              1 S1                 0.0000
     49 ****         2.2909  -5.3000   2.4280 H              1 S1                 0.0000
     50 ****         5.0501  -4.6189   2.0670 H              1 S1                 0.0000
     51 ****         6.3667  -2.5663   2.6976 H              1 S1                 0.0000
     52 ****         6.2457  -3.7147   4.0208 H              1 S1                 0.0000
     53 ****         5.2430  -2.2715   4.0296 H              1 S1                 0.0000
     54 ****        -1.2950   1.6436  -3.8650 H              1 S1                 0.0000
     55 ****        -2.8876   0.9403  -4.0936 H              1 S1                 0.0000
     56 ****        -1.7401   0.1798  -3.0085 H              1 S1                 0.0000
     57 ****        -2.2447   3.8251  -3.3088 H              1 S1                 0.0000
     58 ****        -3.4292   4.0354  -2.0351 H              1 S1                 0.0000
     59 ****        -3.8801   3.2241  -3.5255 H              1 S1                 0.0000
     60 ****        -4.4319   2.1153   0.3126 LP             1 S1                 0.0000
     61 ****        -4.4439   3.0930  -0.9952 LP             1 S1                 0.0000
     62 ****        -0.5000   1.0411  -1.6798 LP             1 S1                 0.0000
     63 ****        -0.9117   2.1608   1.4426 LP             1 S1                 0.0000
     64 ****         2.1012  -0.0398   3.1394 LP             1 S1                 0.0000
     65 ****         1.9038   0.1348  -2.2268 LP             1 S1                 0.0000
     66 ****         4.4752  -3.6220   0.0230 LP             1 S1                 0.0000
     67 ****         2.9104  -3.1808  -0.1306 LP             1 S1                 0.0000
     68 ****         4.0443  -5.3439   3.8046 LP             1 S1                 0.0000
     69 ****         3.7520  -3.8735   4.4521 LP             1 S1                 0.0000
@<TRIPOS>BOND
    1    1    2 1     
    2    1   29 1     
    3    1   30 1     
    4    1   31 1     
    5    2    3 1     
    6    2   32 1     
    7    2   33 1     
    8    3    4 1     
    9    4   26 1     
   10    4    5 1     
   11    4   34 1     
   12    5    6 1     
   13    5   35 1     
   14    5   36 1     
   15    6    7 1     
   16    6   26 1     
   17    6   37 1     
   18    7    8 1     
   19    7    9 1     
   20    8   38 1     
   21    8   39 1     
   22    8   40 1     
   23    9   14 ar    
   24    9   10 ar    
   25   10   11 ar    
   26   11   12 ar    
   27   11   41 1     
   28   12   13 ar    
   29   13   17 1     
   30   13   14 ar    
   31   14   15 1     
   32   15   16 2     
   33   16   17 1     
   34   16   42 1     
   35   17   18 1     
   36   18   19 1     
   37   18   43 1     
   38   18   44 1     
   39   19   24 1     
   40   19   20 1     
   41   19   21 1     
   42   20   45 1     
   43   21   22 1     
   44   21   46 1     
   45   21   47 1     
   46   22   23 1     
   47   22   48 1     
   48   22   49 1     
   49   23   24 1     
   50   24   25 1     
   51   24   50 1     
   52   25   51 1     
   53   25   52 1     
   54   25   53 1     
   55   26   27 1     
   56   26   28 1     
   57   27   54 1     
   58   27   55 1     
   59   27   56 1     
   60   28   57 1     
   61   28   58 1     
   62   28   59 1     
   63    3   60 1     
   64    3   61 1     
   65    7   62 1     
   66   10   63 1     
   67   12   64 1     
   68   15   65 1     
   69   20   66 1     
   70   20   67 1     
   71   23   68 1     
   72   23   69 1     
@<TRIPOS>SUBSTRUCTURE
      1 S1             1
@<TRIPOS>SET
LONE_PAIRS      STATIC     ATOMS    <user>   **** ""
10 60 61 62 63 64 65 66 67 68 69
DONOR_HYDROGENS      STATIC     ATOMS    <user>   **** ""
1 45
ATOM$BLUE        STATIC     ATOMS    COLORGROUP SYSTEM
10 60 61 62 63 64 65 66 67 68 69
ATOM$RED        STATIC     ATOMS    COLORGROUP SYSTEM
1 45
