#       Name:                AV-unprocessed.smi:2414
#       Creating user name   scv26
#       Creation time:       Fri Mar 27 13:17:13 2020


#       File generated by GOLD software.
#

@<TRIPOS>MOLECULE
AV-unprocessed.smi:2414
    48    49     1
SMALL
NO_CHARGES


@<TRIPOS>ATOM
      1 ****        -3.0563  -0.8053  -2.4718 C.3            1 S1                 0.0000
      2 ****        -2.3123   0.4227  -2.0701 C.2            1 S1                 0.0000
      3 ****        -1.7599   1.3765  -2.8886 C.2            1 S1                 0.0000
      4 ****        -1.1167   2.4075  -2.2001 N.2            1 S1                 0.0000
      5 ****        -1.1759   2.2511  -0.8745 C.2            1 S1                 0.0000
      6 ****        -0.5453   3.1923   0.1070 C.3            1 S1                 0.0000
      7 ****        -1.1797   4.5892   0.0605 C.3            1 S1                 0.0000
      8 ****         0.9969   3.2275   0.0131 C.3            1 S1                 0.0000
      9 ****         1.5926   1.8956  -0.0398 N.am           1 S1                 0.0000
     10 ****         1.7072   1.0613   1.0017 C.2            1 S1                 0.0000
     11 ****         1.3688   1.3421   2.1515 O.2            1 S1                 0.0000
     12 ****         2.2091  -0.1233   0.6295 N.am           1 S1                 0.0000
     13 ****         2.4226  -1.2747   1.5023 C.3            1 S1                 0.0000
     14 ****         1.4040  -2.4106   1.2509 C.3            1 S1                 0.0000
     15 ****         1.8146  -3.6713   2.0315 C.3            1 S1                 0.0000
     16 ****        -0.0596  -2.0318   1.5549 C.3            1 S1                 0.0000
     17 ****        -0.8266  -2.7058   0.4385 C.3            1 S1                 0.0000
     18 ****         0.1474  -2.5596  -0.7210 C.3            1 S1                 0.0000
     19 ****         1.4277  -2.7640  -0.1350 O.3            1 S1                 0.0000
     20 ****        -2.0484   0.8019  -0.3888 S.3            1 S1                 0.0000
     21 ****        -3.1611  -0.8645  -3.5553 H              1 S1                 0.0000
     22 ****        -4.0553  -0.8121  -2.0358 H              1 S1                 0.0000
     23 ****        -2.5341  -1.7009  -2.1358 H              1 S1                 0.0000
     24 ****        -1.7734   1.3986  -3.9683 H              1 S1                 0.0000
     25 ****        -0.7834   2.7934   1.0938 H              1 S1                 0.0000
     26 ****        -2.2549   4.5374   0.2342 H              1 S1                 0.0000
     27 ****        -1.0206   5.0643  -0.9080 H              1 S1                 0.0000
     28 ****        -0.7525   5.2394   0.8242 H              1 S1                 0.0000
     29 ****         1.2933   3.7460  -0.8992 H              1 S1                 0.0000
     30 ****         1.4205   3.7969   0.8420 H              1 S1                 0.0000
     31 ****         1.9010   1.5719  -0.9448 H              1 S1                 0.0000
     32 ****         2.4435  -0.2513  -0.3440 H              1 S1                 0.0000
     33 ****         3.4314  -1.6389   1.3065 H              1 S1                 0.0000
     34 ****         2.4074  -0.9825   2.5537 H              1 S1                 0.0000
     35 ****         1.8141  -3.4876   3.1064 H              1 S1                 0.0000
     36 ****         2.8165  -3.9986   1.7524 H              1 S1                 0.0000
     37 ****         1.1341  -4.5008   1.8367 H              1 S1                 0.0000
     38 ****        -0.3910  -2.3481   2.5443 H              1 S1                 0.0000
     39 ****        -0.2195  -0.9566   1.4920 H              1 S1                 0.0000
     40 ****        -0.9857  -3.7599   0.6685 H              1 S1                 0.0000
     41 ****        -1.7964  -2.2471   0.2456 H              1 S1                 0.0000
     42 ****        -0.0440  -3.2684  -1.5265 H              1 S1                 0.0000
     43 ****         0.1017  -1.5508  -1.1341 H              1 S1                 0.0000
     44 ****        -0.6626   3.1769  -2.6492 LP             1 S1                 0.0000
     45 ****         0.9806   2.2414   2.3530 LP             1 S1                 0.0000
     46 ****         1.4820   0.6709   2.8841 LP             1 S1                 0.0000
     47 ****         1.6813  -3.7271  -0.2252 LP             1 S1                 0.0000
     48 ****         2.1011  -2.1962  -0.6084 LP             1 S1                 0.0000
@<TRIPOS>BOND
    1    1    2 1     
    2    1   21 1     
    3    1   22 1     
    4    1   23 1     
    5    2   20 1     
    6    2    3 2     
    7    3    4 1     
    8    3   24 1     
    9    4    5 2     
   10    5    6 1     
   11    5   20 1     
   12    6    7 1     
   13    6    8 1     
   14    6   25 1     
   15    7   26 1     
   16    7   27 1     
   17    7   28 1     
   18    8    9 1     
   19    8   29 1     
   20    8   30 1     
   21    9   10 am    
   22    9   31 1     
   23   10   11 2     
   24   10   12 am    
   25   12   13 1     
   26   12   32 1     
   27   13   14 1     
   28   13   33 1     
   29   13   34 1     
   30   14   19 1     
   31   14   15 1     
   32   14   16 1     
   33   15   35 1     
   34   15   36 1     
   35   15   37 1     
   36   16   17 1     
   37   16   38 1     
   38   16   39 1     
   39   17   18 1     
   40   17   40 1     
   41   17   41 1     
   42   18   19 1     
   43   18   42 1     
   44   18   43 1     
   45    4   44 1     
   46   11   45 1     
   47   11   46 1     
   48   19   47 1     
   49   19   48 1     
@<TRIPOS>SUBSTRUCTURE
      1 S1             1
@<TRIPOS>SET
LONE_PAIRS      STATIC     ATOMS    <user>   **** ""
5 44 45 46 47 48
DONOR_HYDROGENS      STATIC     ATOMS    <user>   **** ""
2 31 32
ATOM$BLUE        STATIC     ATOMS    COLORGROUP SYSTEM
5 44 45 46 47 48
ATOM$RED        STATIC     ATOMS    COLORGROUP SYSTEM
2 31 32
