#       Name:                AV-unprocessed.smi:2325
#       Creating user name   scv26
#       Creation time:       Fri Mar 27 12:51:51 2020


#       File generated by GOLD software.
#

@<TRIPOS>MOLECULE
AV-unprocessed.smi:2325
    46    47     1
SMALL
NO_CHARGES


@<TRIPOS>ATOM
      1 ****        -5.2955  -0.2589   0.0513 C.3            1 S1                 0.0000
      2 ****        -4.8292   1.1015   0.2376 N.pl3          1 S1                 0.0000
      3 ****        -5.7005   2.1364   0.2885 N.2            1 S1                 0.0000
      4 ****        -4.8984   3.1872   0.4621 C.2            1 S1                 0.0000
      5 ****        -3.5615   2.9155   0.5290 N.2            1 S1                 0.0000
      6 ****        -3.5957   1.5948   0.3808 C.2            1 S1                 0.0000
      7 ****        -2.4730   0.7246   0.3620 N.am           1 S1                 0.0000
      8 ****        -1.1764   1.0513   0.4920 C.2            1 S1                 0.0000
      9 ****        -0.7456   2.1902   0.6732 O.2            1 S1                 0.0000
     10 ****        -0.3929  -0.0317   0.3954 N.am           1 S1                 0.0000
     11 ****         1.0671  -0.0234   0.4622 C.3            1 S1                 0.0000
     12 ****         1.6083  -1.3564   0.9394 C.3            1 S1                 0.0000
     13 ****         3.0379  -1.3702   0.3860 C.3            1 S1                 0.0000
     14 ****         4.0427  -0.7462   1.3697 C.3            1 S1                 0.0000
     15 ****         3.4845  -2.7779  -0.0372 C.3            1 S1                 0.0000
     16 ****         3.0039  -0.5387  -0.7728 O.3            1 S1                 0.0000
     17 ****         1.7580   0.1437  -0.9095 C.3            1 S1                 0.0000
     18 ****         1.0162  -0.5323  -2.0817 C.3            1 S1                 0.0000
     19 ****         2.0635   1.6142  -1.2356 C.3            1 S1                 0.0000
     20 ****        -4.9302  -0.8870   0.8642 H              1 S1                 0.0000
     21 ****        -4.9203  -0.6474  -0.8956 H              1 S1                 0.0000
     22 ****        -6.3858  -0.2936   0.0419 H              1 S1                 0.0000
     23 ****        -5.2924   4.1895   0.5436 H              1 S1                 0.0000
     24 ****        -2.6819  -0.2531   0.2250 H              1 S1                 0.0000
     25 ****        -0.8339  -0.9275   0.2474 H              1 S1                 0.0000
     26 ****         1.4108   0.7484   1.1539 H              1 S1                 0.0000
     27 ****         1.5663  -1.4679   2.0235 H              1 S1                 0.0000
     28 ****         1.0272  -2.1714   0.5045 H              1 S1                 0.0000
     29 ****         4.1058  -1.3266   2.2907 H              1 S1                 0.0000
     30 ****         3.7607   0.2721   1.6384 H              1 S1                 0.0000
     31 ****         5.0422  -0.7038   0.9361 H              1 S1                 0.0000
     32 ****         3.4996  -3.4592   0.8140 H              1 S1                 0.0000
     33 ****         4.4860  -2.7605  -0.4679 H              1 S1                 0.0000
     34 ****         2.8132  -3.1963  -0.7878 H              1 S1                 0.0000
     35 ****         0.0649  -0.0428  -2.2915 H              1 S1                 0.0000
     36 ****         0.8131  -1.5835  -1.8768 H              1 S1                 0.0000
     37 ****         1.6108  -0.4886  -2.9946 H              1 S1                 0.0000
     38 ****         1.1473   2.1917  -1.3586 H              1 S1                 0.0000
     39 ****         2.6351   1.7018  -2.1599 H              1 S1                 0.0000
     40 ****         2.6482   2.0821  -0.4432 H              1 S1                 0.0000
     41 ****        -6.6976   2.1174   0.2144 LP             1 S1                 0.0000
     42 ****        -2.7833   3.5310   0.6533 LP             1 S1                 0.0000
     43 ****        -1.3799   2.9609   0.7342 LP             1 S1                 0.0000
     44 ****         0.2386   2.3447   0.7594 LP             1 S1                 0.0000
     45 ****         3.1500  -1.1077  -1.5820 LP             1 S1                 0.0000
     46 ****         3.7364   0.1386  -0.7049 LP             1 S1                 0.0000
@<TRIPOS>BOND
    1    1    2 1     
    2    1   20 1     
    3    1   21 1     
    4    1   22 1     
    5    2    6 1     
    6    2    3 1     
    7    3    4 2     
    8    4    5 1     
    9    4   23 1     
   10    5    6 2     
   11    6    7 1     
   12    7    8 am    
   13    7   24 1     
   14    8    9 2     
   15    8   10 am    
   16   10   11 1     
   17   10   25 1     
   18   11   17 1     
   19   11   12 1     
   20   11   26 1     
   21   12   13 1     
   22   12   27 1     
   23   12   28 1     
   24   13   14 1     
   25   13   15 1     
   26   13   16 1     
   27   14   29 1     
   28   14   30 1     
   29   14   31 1     
   30   15   32 1     
   31   15   33 1     
   32   15   34 1     
   33   16   17 1     
   34   17   18 1     
   35   17   19 1     
   36   18   35 1     
   37   18   36 1     
   38   18   37 1     
   39   19   38 1     
   40   19   39 1     
   41   19   40 1     
   42    3   41 1     
   43    5   42 1     
   44    9   43 1     
   45    9   44 1     
   46   16   45 1     
   47   16   46 1     
@<TRIPOS>SUBSTRUCTURE
      1 S1             1
@<TRIPOS>SET
LONE_PAIRS      STATIC     ATOMS    <user>   **** ""
6 41 42 43 44 45 46
DONOR_HYDROGENS      STATIC     ATOMS    <user>   **** ""
2 24 25
ATOM$BLUE        STATIC     ATOMS    COLORGROUP SYSTEM
6 41 42 43 44 45 46
ATOM$RED        STATIC     ATOMS    COLORGROUP SYSTEM
2 24 25
