AV-unprocessed.smi:927|AV-procd|sdf|4190|dock2
  -GOLD-   22720 2 93D 1   1.00000     0.00000
 Structure written by MMmdl.
 20 20  0  0  0  0  0  0  0  0  1 V2000
  145.7111  136.7577  149.4480 N   0  0  0  0  0  0  0  0  0  0  0  0
  146.0853  136.5704  150.8588 C   0  0  0  0  0  0  0  0  0  0  0  0
  145.0693  135.7180  151.6395 C   0  0  1  0  0  0  0  0  0  0  0  0
  143.8249  136.3893  151.6312 O   0  0  0  0  0  0  0  0  0  0  0  0
  144.9456  134.3274  151.0358 C   0  0  0  0  0  0  0  0  0  0  0  0
  146.0888  133.5951  150.6480 C   0  0  0  0  0  0  0  0  0  0  0  0
  145.9125  132.3082  150.1018 C   0  0  0  0  0  0  0  0  0  0  0  0
  144.7021  131.7351  149.9300 N   0  0  0  0  0  0  0  0  0  0  0  0
  143.6123  132.4388  150.3042 C   0  0  0  0  0  0  0  0  0  0  0  0
  143.6786  133.7324  150.8597 C   0  0  0  0  0  0  0  0  0  0  0  0
  145.6158  135.8567  148.9816 H   0  0  0  0  0  0  0  0  0  0  0  0
  144.8098  137.2277  149.3780 H   0  0  0  0  0  0  0  0  0  0  0  0
  147.0830  136.1361  150.9345 H   0  0  0  0  0  0  0  0  0  0  0  0
  146.1480  137.5528  151.3278 H   0  0  0  0  0  0  0  0  0  0  0  0
  145.3921  135.6201  152.6771 H   0  0  0  0  0  0  0  0  0  0  0  0
  143.8192  136.9985  150.9091 H   0  0  0  0  0  0  0  0  0  0  0  0
  147.0800  134.0074  150.7669 H   0  0  0  0  0  0  0  0  0  0  0  0
  146.7671  131.7232  149.7959 H   0  0  0  0  0  0  0  0  0  0  0  0
  142.6574  131.9563  150.1573 H   0  0  0  0  0  0  0  0  0  0  0  0
  142.7748  134.2510  151.1438 H   0  0  0  0  0  0  0  0  0  0  0  0
  1  2  1  0  0  0  0
  1 11  1  0  0  0  0
  1 12  1  0  0  0  0
  2  3  1  0  0  0  0
  2 13  1  0  0  0  0
  2 14  1  0  0  0  0
  3  4  1  0  0  0  0
  3  5  1  0  0  0  0
  3 15  1  0  0  0  0
  4 16  1  0  0  0  0
  5 10  1  0  0  0  0
  5  6  2  0  0  0  0
  6  7  1  0  0  0  0
  6 17  1  0  0  0  0
  7  8  2  0  0  0  0
  7 18  1  0  0  0  0
  8  9  1  0  0  0  0
  9 10  2  0  0  0  0
  9 19  1  0  0  0  0
 10 20  1  0  0  0  0
M  END
> <s_m_source_file>
AV-unprocessed.smi

> <i_m_source_file_index>
927

> <i_lp_mmshare_version>
43012

> <i_f3d_flags>
0

> <s_epik_input>
W05IMl1bQ0gyXVtDQEhdKFtPSF0pYzFbY0hdW2NIXW5bY0hdW2NIXTE=

> <s_epik_cmdline>
J2VwaWtfcHl0aG9uJywgJy1waCcsICc3LjAnLCAnLXRuJywgJzgnLCAnLW1hJywgJzIwMCcsICctbWV0YWxfYmluZGluZycsICctaW1hZScsICc8aW5maWxlLm1hZT4nLCAnLW9tYWUnLCAnPG91dGZpbGUubWFlPic=

> <r_epik_Ionization_Penalty>
2.24668

> <r_epik_Ionization_Penalty_Charging>
0

> <r_epik_Ionization_Penalty_Neutral>
2.24668

> <r_epik_State_Penalty>
2.36938

> <r_epik_Charging_Adjusted_Penalty>
2.36938

> <i_epik_Tot_Q>
0

> <i_epik_Tot_abs_Q>
0

> <r_epik_Metal_State_Penalty>
2.3492

> <b_epik_Metal_Only>
0

> <s_lp_Force_Field>
OPLS_2005

> <r_lp_Energy>
12.0252

> <b_lp_Chiralities_Consistent>
1

> <s_lp_Variant>
AV-unprocessed.smi:927-4

> <Gold.Version>
5.8.1

> <Gold.Id.Protein>
6NUR|6NUR_protein|mol2

> <Gold.PLP.Fitness>
34.1250

> <Gold.PLP.PLP>
-20.5544

> <Gold.PLP.part.hbond>
-3.4961

> <Gold.PLP.part.metal>
0.0000

> <Gold.PLP.part.buried>
-0.0535

> <Gold.PLP.part.nonpolar>
-17.1779

> <Gold.PLP.part.repulsive>
0.1425

> <Gold.PLP.ligand.clash>
0.0000

> <Gold.PLP.ligand.torsion>
0.4037

> <Gold.PLP.Chemscore.Hbond>
2.7920

> <Gold.PLP.Chemscore.CHOScore>
2.0000

> <Gold.PLP.Chemscore.Metal>
0.0000

> <Gold.Chemscore.Hbonds>
donor molecule, donor type, donor heavy atom, donor atom, acceptor molecule, acceptor atom, score
      L1  H     1    11       P1  7921  0.91
      L1  H     1    12       P1 10171  0.96
      L1  H     4    16       P1 10171  1.00
      L1  C     7    18       P1 10747  1.00
      L1  C     9    19       P1 10952  1.00

> <Gold.PLP.Chemscore.Internal.Correction>
0.0021

> <Gold.Rescore>
     Score         DG    S(hbond)    S(metal)    S(lipo)     H(rot)  DE(clash)    DE(int)     intcor
     14.69     -15.39       2.67        0.00      49.01       1.85       0.48       0.23       ----

> <Gold.Chemscore.Fitness>
14.6872

> <Gold.Chemscore.DG>
-15.3927

> <Gold.Chemscore.ZeroCoef>
-5.4800

> <Gold.Chemscore.Hbond>
2.6656

> <Gold.Chemscore.Metal>
0.0000

> <Gold.Chemscore.Lipo>
49.0091

> <Gold.Chemscore.Internal_Hbond>
0.0000

> <Gold.Chemscore.DEClash>
0.4783

> <Gold.Chemscore.DEInternal>
0.2273

> <Gold.Chemscore.Rot>
1.8455

> <Gold.Chemscore.Internal.Correction>
   9.000000E+99

> <Gold.Chemscore.Hbonds>
donor molecule, donor type, donor heavy atom, donor atom, acceptor molecule, acceptor atom, score
      L1  H     1    11       P1  7921  0.88
      L1  H     1    12       P1 10171  0.92
      L1  H     4    16       P1 10171  1.00

> <Gold.Chemscore.Hbond.Weighted>
-8.9032

> <Gold.Chemscore.Metal.Weighted>
-0.0000

> <Gold.Chemscore.Lipo.Weighted>
-5.7341

> <Gold.Chemscore.Internal_Hbond.Weighted>
0.0000

> <Gold.Chemscore.DEClash.Weighted>
0.4783

> <Gold.Chemscore.DEInternal.Weighted>
0.2273

> <Gold.Chemscore.Rot.Weighted>
4.7245

> <Gold.Chemscore.Internal.Correction.Weighted>
   9.000000E+99

> <Gold.Protein.RotatedTorsions>
[ 6907 6896 6895 6894 ] final  -22.41 input  -60.11 | X-H torsion
[ 7974 7965 7964 7962 ] final  128.57 input  175.53 | X-H torsion
[ 8008 7997 7996 7995 ] final -115.96 input   59.86 | X-H torsion
[ 10167 10162 10161 10158 ] final  -12.99 input  -65.29 | X-H torsion
[ 10718 10713 10712 10709 ] final -151.09 input   66.30 | X-H torsion
[ 10763 10752 10751 10750 ] final   14.91 input  -60.55 | X-H torsion
[ 11005 11000 10999 10996 ] final   39.91 input  -57.11 | X-H torsion

> <Gold.Protein.ActiveResidues>
 VAL166  LYS551  ARG553  GLY616  TRP617  ASP618  TYR619  PRO620  LYS621  CYS622 
 ASP623  PHE694  ASN695  SER759  ASP760  ASP761  ALA762  ILE779  LEU786  VAL792 
 PHE793  MET794  SER795  GLU796  ALA797  LYS798  CYS799  TRP800  GLU811  SER814 

> <Gold.Protein.RotatedAtoms>
  151.2191  135.0511  159.8941 H   0  0  0  0  0  0  0  0  0  0  0  0  # atno 6907 bound_to 6896
  152.5417  134.0661  159.8183 H   0  0  0  0  0  0  0  0  0  0  0  0  # atno 6908 bound_to 6896
  151.0824  133.5331  159.2651 H   0  0  0  0  0  0  0  0  0  0  0  0  # atno 6909 bound_to 6896
  145.0381  139.3987  143.5116 H   0  0  0  0  0  0  0  0  0  0  0  0  # atno 7974 bound_to 7965
  155.0603  140.0393  157.2574 H   0  0  0  0  0  0  0  0  0  0  0  0  # atno 8008 bound_to 7997
  154.7065  140.2684  155.6645 H   0  0  0  0  0  0  0  0  0  0  0  0  # atno 8009 bound_to 7997
  156.2776  140.2730  156.1693 H   0  0  0  0  0  0  0  0  0  0  0  0  # atno 8010 bound_to 7997
  140.7173  143.5473  150.9341 H   0  0  0  0  0  0  0  0  0  0  0  0  # atno 10167 bound_to 10162
  156.4547  130.8184  151.2415 H   0  0  0  0  0  0  0  0  0  0  0  0  # atno 10718 bound_to 10713
  153.1576  135.6790  153.8789 H   0  0  0  0  0  0  0  0  0  0  0  0  # atno 10763 bound_to 10752
  153.8195  135.3132  155.3410 H   0  0  0  0  0  0  0  0  0  0  0  0  # atno 10764 bound_to 10752
  154.7909  135.4835  154.0138 H   0  0  0  0  0  0  0  0  0  0  0  0  # atno 10765 bound_to 10752
  140.1982  134.3903  155.8110 H   0  0  0  0  0  0  0  0  0  0  0  0  # atno 11005 bound_to 11000
  146.3506  139.9967  142.8680 LP  0  0  0  0  0  0  0  0  0  0  0  0  # atno 17320 bound_to 7965
  145.1683  140.9708  143.4336 LP  0  0  0  0  0  0  0  0  0  0  0  0  # atno 17321 bound_to 7965
  139.9197  143.6621  152.3099 LP  0  0  0  0  0  0  0  0  0  0  0  0  # atno 17342 bound_to 10162
  139.7033  144.7632  151.1235 LP  0  0  0  0  0  0  0  0  0  0  0  0  # atno 17343 bound_to 10162
  157.7501  131.0126  150.3393 LP  0  0  0  0  0  0  0  0  0  0  0  0  # atno 17370 bound_to 10713
  156.3779  130.3875  149.7124 LP  0  0  0  0  0  0  0  0  0  0  0  0  # atno 17371 bound_to 10713
  141.2227  133.7080  156.8212 LP  0  0  0  0  0  0  0  0  0  0  0  0  # atno 17394 bound_to 11000
  140.2083  134.8846  157.3247 LP  0  0  0  0  0  0  0  0  0  0  0  0  # atno 17395 bound_to 11000

$$$$
