AV-unprocessed.smi:3250|AV-procd|sdf|12431|dock10
  -GOLD-   2272018323D 1   1.00000     0.00000
 Structure written by MMmdl.
 40 41  0  0  0  0  0  0  0  0  3 V2000
  143.8079  132.3846  149.6326 C   0  0  0  0  0  0  0  0  0  0  0  0
  144.9029  133.0450  150.4818 C   0  0  0  0  0  0  0  0  0  0  0  0
  144.5501  134.4272  150.8917 N   0  3  1  0  0  0  0  0  0  0  0  0
  143.5785  134.4508  152.0101 C   0  0  0  0  0  0  0  0  0  0  0  0
  143.2065  135.8979  152.3689 C   0  0  0  0  0  0  0  0  0  0  0  0
  144.3859  136.6247  152.6896 O   0  0  0  0  0  0  0  0  0  0  0  0
  145.2921  136.7004  151.5935 C   0  0  1  0  0  0  0  0  0  0  0  0
  146.4884  137.5609  152.0255 C   0  0  0  0  0  0  0  0  0  0  0  0
  146.0748  138.8911  152.4470 N   0  0  0  0  0  0  0  0  0  0  0  0
  146.8846  139.7594  153.1553 C   0  0  0  0  0  0  0  0  0  0  0  0
  146.3768  140.9574  153.4808 N   0  3  0  0  0  0  0  0  0  0  0  0
  147.1334  141.8440  154.1737 C   0  0  0  0  0  0  0  0  0  0  0  0
  148.4463  141.5129  154.5542 C   0  0  0  0  0  0  0  0  0  0  0  0
  148.9146  140.2415  154.1845 C   0  0  0  0  0  0  0  0  0  0  0  0
  150.1927  139.8588  154.5361 O   0  0  0  0  0  0  0  0  0  0  0  0
  150.5950  138.5199  154.2673 C   0  0  0  0  0  0  0  0  0  0  0  0
  148.1282  139.3858  153.4893 N   0  0  0  0  0  0  0  0  0  0  0  0
  145.7286  135.2704  151.2146 C   0  0  0  0  0  0  0  0  0  0  0  0
  144.0598  131.3440  149.4263 H   0  0  0  0  0  0  0  0  0  0  0  0
  143.6788  132.8812  148.6712 H   0  0  0  0  0  0  0  0  0  0  0  0
  142.8483  132.3939  150.1501 H   0  0  0  0  0  0  0  0  0  0  0  0
  145.0445  132.4345  151.3748 H   0  0  0  0  0  0  0  0  0  0  0  0
  145.8562  133.0418  149.9512 H   0  0  0  0  0  0  0  0  0  0  0  0
  142.6787  133.9003  151.7330 H   0  0  0  0  0  0  0  0  0  0  0  0
  144.0074  133.9484  152.8787 H   0  0  0  0  0  0  0  0  0  0  0  0
  142.6768  136.3815  151.5466 H   0  0  0  0  0  0  0  0  0  0  0  0
  142.5381  135.9109  153.2300 H   0  0  0  0  0  0  0  0  0  0  0  0
  144.8002  137.1679  150.7380 H   0  0  0  0  0  0  0  0  0  0  0  0
  147.0330  137.0694  152.8327 H   0  0  0  0  0  0  0  0  0  0  0  0
  147.1831  137.6716  151.1921 H   0  0  0  0  0  0  0  0  0  0  0  0
  145.1549  139.2153  152.1857 H   0  0  0  0  0  0  0  0  0  0  0  0
  146.6621  142.7889  154.4019 H   0  0  0  0  0  0  0  0  0  0  0  0
  149.0659  142.2038  155.1075 H   0  0  0  0  0  0  0  0  0  0  0  0
  151.6213  138.3767  154.6049 H   0  0  0  0  0  0  0  0  0  0  0  0
  150.5650  138.3006  153.1989 H   0  0  0  0  0  0  0  0  0  0  0  0
  149.9690  137.8012  154.7982 H   0  0  0  0  0  0  0  0  0  0  0  0
  146.2859  134.8167  152.0361 H   0  0  0  0  0  0  0  0  0  0  0  0
  146.4026  135.3163  150.3596 H   0  0  0  0  0  0  0  0  0  0  0  0
  144.0844  134.8521  150.1021 H   0  0  0  0  0  0  0  0  0  0  0  0
  145.4261  141.2144  153.2142 H   0  0  0  0  0  0  0  0  0  0  0  0
  1  2  1  0  0  0  0
  1 19  1  0  0  0  0
  1 20  1  0  0  0  0
  1 21  1  0  0  0  0
  2  3  1  0  0  0  0
  2 22  1  0  0  0  0
  2 23  1  0  0  0  0
  3 18  1  0  0  0  0
  3  4  1  0  0  0  0
  3 39  1  0  0  0  0
  4  5  1  0  0  0  0
  4 24  1  0  0  0  0
  4 25  1  0  0  0  0
  5  6  1  0  0  0  0
  5 26  1  0  0  0  0
  5 27  1  0  0  0  0
  6  7  1  0  0  0  0
  7  8  1  0  0  0  0
  7 18  1  0  0  0  0
  7 28  1  0  0  0  0
  8  9  1  0  0  0  0
  8 29  1  0  0  0  0
  8 30  1  0  0  0  0
  9 10  1  0  0  0  0
  9 31  1  0  0  0  0
 10 17  1  0  0  0  0
 10 11  2  0  0  0  0
 11 12  1  0  0  0  0
 11 40  1  0  0  0  0
 12 13  2  0  0  0  0
 12 32  1  0  0  0  0
 13 14  1  0  0  0  0
 13 33  1  0  0  0  0
 14 15  1  0  0  0  0
 14 17  2  0  0  0  0
 15 16  1  0  0  0  0
 16 34  1  0  0  0  0
 16 35  1  0  0  0  0
 16 36  1  0  0  0  0
 18 37  1  0  0  0  0
 18 38  1  0  0  0  0
M  CHG  1   3   1
M  CHG  1  11   1
M  END
> <s_m_source_file>
AV-unprocessed.smi

> <i_m_source_file_index>
3250

> <i_lp_mmshare_version>
43012

> <i_f3d_flags>
0

> <s_epik_input>
W0NIM11bQ0gyXU4xW0NIMl1bQ0gyXU9bQ0BIXShbQ0gyXTEpW0NIMl1bTkhdYzJuW2NIXVtjSF1jKG4yKU9bQ0gzXQ==

> <s_epik_cmdline>
J2VwaWtfcHl0aG9uJywgJy1waCcsICc3LjAnLCAnLXRuJywgJzgnLCAnLW1hJywgJzIwMCcsICctbWV0YWxfYmluZGluZycsICctaW1hZScsICc8aW5maWxlLm1hZT4nLCAnLW9tYWUnLCAnPG91dGZpbGUubWFlPic=

> <r_lp_tautomer_probability>
0.999985

> <r_epik_Ionization_Penalty>
2.24691

> <r_epik_Ionization_Penalty_Charging>
2.24686

> <r_epik_Ionization_Penalty_Neutral>
4.52111e-05

> <r_epik_State_Penalty>
2.24709

> <r_epik_Charging_Adjusted_Penalty>
4.49395

> <i_epik_Tot_Q>
2

> <i_epik_Tot_abs_Q>
2

> <r_epik_Metal_State_Penalty>
2.26327

> <b_epik_Metal_Only>
0

> <s_lp_Force_Field>
OPLS_2005

> <r_lp_Energy>
18.3796

> <b_lp_Chiralities_Consistent>
1

> <s_lp_Variant>
AV-unprocessed.smi:3250-7

> <Gold.Version>
5.8.1

> <Gold.Id.Protein>
6NUR|6NUR_protein|mol2

> <Gold.PLP.Fitness>
45.9248

> <Gold.PLP.PLP>
-32.1936

> <Gold.PLP.part.hbond>
-3.0000

> <Gold.PLP.part.metal>
0.0000

> <Gold.PLP.part.buried>
-2.1384

> <Gold.PLP.part.nonpolar>
-30.0998

> <Gold.PLP.part.repulsive>
2.7224

> <Gold.PLP.ligand.clash>
0.0000

> <Gold.PLP.ligand.torsion>
0.3303

> <Gold.PLP.Chemscore.Hbond>
4.7920

> <Gold.PLP.Chemscore.CHOScore>
0.0000

> <Gold.PLP.Chemscore.Metal>
0.0000

> <Gold.Chemscore.Hbonds>
donor molecule, donor type, donor heavy atom, donor atom, acceptor molecule, acceptor atom, score
      L1  H     9    31       P1 10175  1.98
      L1  H    11    40       P1 10175  1.70
      P1  H  7989  7998       L1    15  0.98

> <Gold.PLP.Chemscore.Internal.Correction>
0.0158

> <Gold.Rescore>
     Score         DG    S(hbond)    S(metal)    S(lipo)     H(rot)  DE(clash)    DE(int)     intcor
     13.27     -13.93       1.59        0.00      65.12       1.75       0.39       0.27       ----

> <Gold.Chemscore.Fitness>
13.2688

> <Gold.Chemscore.DG>
-13.9276

> <Gold.Chemscore.ZeroCoef>
-5.4800

> <Gold.Chemscore.Hbond>
1.5917

> <Gold.Chemscore.Metal>
0.0000

> <Gold.Chemscore.Lipo>
65.1192

> <Gold.Chemscore.Internal_Hbond>
0.0000

> <Gold.Chemscore.DEClash>
0.3907

> <Gold.Chemscore.DEInternal>
0.2681

> <Gold.Chemscore.Rot>
1.7530

> <Gold.Chemscore.Internal.Correction>
   9.000000E+99

> <Gold.Chemscore.Hbonds>
donor molecule, donor type, donor heavy atom, donor atom, acceptor molecule, acceptor atom, score
      L1  H     9    31       P1 10175  0.94
      L1  H    11    40       P1 10175  0.18
      P1  H  7989  7998       L1    15  0.19

> <Gold.Chemscore.Hbond.Weighted>
-5.3163

> <Gold.Chemscore.Metal.Weighted>
-0.0000

> <Gold.Chemscore.Lipo.Weighted>
-7.6189

> <Gold.Chemscore.Internal_Hbond.Weighted>
0.0000

> <Gold.Chemscore.DEClash.Weighted>
0.3907

> <Gold.Chemscore.DEInternal.Weighted>
0.2681

> <Gold.Chemscore.Rot.Weighted>
4.4876

> <Gold.Chemscore.Internal.Correction.Weighted>
   9.000000E+99

> <Gold.Protein.RotatedTorsions>
[ 6907 6896 6895 6894 ] final  122.23 input  -60.11 | X-H torsion
[ 7974 7965 7964 7962 ] final   66.05 input  175.53 | X-H torsion
[ 8008 7997 7996 7995 ] final    9.02 input   59.86 | X-H torsion
[ 10167 10162 10161 10158 ] final  162.83 input  -65.29 | X-H torsion
[ 10718 10713 10712 10709 ] final  -39.84 input   66.30 | X-H torsion
[ 10763 10752 10751 10750 ] final   96.06 input  -60.55 | X-H torsion
[ 11005 11000 10999 10996 ] final  167.25 input  -57.11 | X-H torsion

> <Gold.Protein.ActiveResidues>
 VAL166  LYS551  ARG553  GLY616  TRP617  ASP618  TYR619  PRO620  LYS621  CYS622 
 ASP623  PHE694  ASN695  SER759  ASP760  ASP761  ALA762  ILE779  LEU786  VAL792 
 PHE793  MET794  SER795  GLU796  ALA797  LYS798  CYS799  TRP800  GLU811  SER814 

> <Gold.Protein.RotatedAtoms>
  152.4259  133.7195  159.6524 H   0  0  0  0  0  0  0  0  0  0  0  0  # atno 6907 bound_to 6896
  150.8136  133.8366  159.3177 H   0  0  0  0  0  0  0  0  0  0  0  0  # atno 6908 bound_to 6896
  151.6069  135.1045  160.0124 H   0  0  0  0  0  0  0  0  0  0  0  0  # atno 6909 bound_to 6896
  145.8312  139.3140  143.0986 H   0  0  0  0  0  0  0  0  0  0  0  0  # atno 7974 bound_to 7965
  154.7745  140.2808  155.6111 H   0  0  0  0  0  0  0  0  0  0  0  0  # atno 8008 bound_to 7997
  156.2939  140.2635  156.2484 H   0  0  0  0  0  0  0  0  0  0  0  0  # atno 8009 bound_to 7997
  154.9859  140.0374  157.2288 H   0  0  0  0  0  0  0  0  0  0  0  0  # atno 8010 bound_to 7997
  139.4865  144.4398  151.8965 H   0  0  0  0  0  0  0  0  0  0  0  0  # atno 10167 bound_to 10162
  156.2879  130.4225  149.8268 H   0  0  0  0  0  0  0  0  0  0  0  0  # atno 10718 bound_to 10713
  153.2605  135.4232  155.0889 H   0  0  0  0  0  0  0  0  0  0  0  0  # atno 10763 bound_to 10752
  154.8418  135.3448  154.6384 H   0  0  0  0  0  0  0  0  0  0  0  0  # atno 10764 bound_to 10752
  153.6805  135.7039  153.5176 H   0  0  0  0  0  0  0  0  0  0  0  0  # atno 10765 bound_to 10752
  140.2749  134.7797  157.3708 H   0  0  0  0  0  0  0  0  0  0  0  0  # atno 11005 bound_to 11000
  145.9568  140.8866  143.0231 LP  0  0  0  0  0  0  0  0  0  0  0  0  # atno 17320 bound_to 7965
  144.6739  140.1757  143.7410 LP  0  0  0  0  0  0  0  0  0  0  0  0  # atno 17321 bound_to 7965
  140.3850  144.2688  150.5905 LP  0  0  0  0  0  0  0  0  0  0  0  0  # atno 17342 bound_to 10162
  140.5199  143.2268  151.8405 LP  0  0  0  0  0  0  0  0  0  0  0  0  # atno 17343 bound_to 10162
  156.5692  130.8417  151.3351 LP  0  0  0  0  0  0  0  0  0  0  0  0  # atno 17370 bound_to 10713
  157.7334  130.9730  150.1976 LP  0  0  0  0  0  0  0  0  0  0  0  0  # atno 17371 bound_to 10713
  140.1338  134.5061  155.8084 LP  0  0  0  0  0  0  0  0  0  0  0  0  # atno 17394 bound_to 11000
  141.2172  133.6799  156.7087 LP  0  0  0  0  0  0  0  0  0  0  0  0  # atno 17395 bound_to 11000

$$$$
