AV-unprocessed.smi:1916|AV-procd|sdf|7767|dock8
  -GOLD-   22720 9513D 1   1.00000     0.00000
 Structure written by MMmdl.
 46 48  0  0  0  0  0  0  0  0  2 V2000
  150.7784  140.2015  154.6469 O   0  0  0  0  0  0  0  0  0  0  0  0
  149.8963  139.6434  155.2997 C   0  0  0  0  0  0  0  0  0  0  0  0
  149.2057  140.2550  156.2737 N   0  0  0  0  0  0  0  0  0  0  0  0
  149.3913  141.6411  156.6940 C   0  0  0  0  0  0  0  0  0  0  0  0
  150.8724  142.0544  156.8276 C   0  0  0  0  0  0  0  0  0  0  0  0
  151.1213  143.1292  157.8721 C   0  0  0  0  0  0  0  0  0  0  0  0
  152.0244  142.9403  158.9406 C   0  0  0  0  0  0  0  0  0  0  0  0
  152.2219  143.9846  159.8683 C   0  0  0  0  0  0  0  0  0  0  0  0
  151.5153  145.1945  159.7074 C   0  0  0  0  0  0  0  0  0  0  0  0
  150.6262  145.3299  158.6217 C   0  0  0  0  0  0  0  0  0  0  0  0
  150.4631  144.3062  157.7557 N   0  3  0  0  0  0  0  0  0  0  0  0
  149.5537  138.1684  155.0391 C   0  0  1  0  0  0  0  0  0  0  0  0
  150.8211  137.2997  154.9400 C   0  0  0  0  0  0  0  0  0  0  0  0
  150.7685  136.4271  156.1828 C   0  0  0  0  0  0  0  0  0  0  0  0
  151.6774  135.6555  156.4836 O   0  0  0  0  0  0  0  0  0  0  0  0
  149.6321  136.6255  156.8683 N   0  0  0  0  0  0  0  0  0  0  0  0
  149.1923  135.9757  158.1113 C   0  0  0  0  0  0  0  0  0  0  0  0
  147.8219  135.2736  157.9833 C   0  0  0  0  0  0  0  0  0  0  0  0
  146.8681  136.0238  158.9161 C   0  0  0  0  0  0  0  0  0  0  0  0
  147.7701  136.5812  160.0132 C   0  0  0  0  0  0  0  0  0  0  0  0
  149.0597  136.9668  159.2871 C   0  0  0  0  0  0  0  0  0  0  0  0
  148.7340  137.5473  156.1897 C   0  0  0  0  0  0  0  0  0  0  0  0
  148.4962  139.7227  156.7570 H   0  0  0  0  0  0  0  0  0  0  0  0
  148.8716  142.3113  156.0075 H   0  0  0  0  0  0  0  0  0  0  0  0
  148.8995  141.7521  157.6608 H   0  0  0  0  0  0  0  0  0  0  0  0
  151.4783  141.1816  157.0749 H   0  0  0  0  0  0  0  0  0  0  0  0
  151.2406  142.4059  155.8632 H   0  0  0  0  0  0  0  0  0  0  0  0
  152.5613  142.0089  159.0480 H   0  0  0  0  0  0  0  0  0  0  0  0
  152.9089  143.8592  160.6925 H   0  0  0  0  0  0  0  0  0  0  0  0
  151.6535  146.0063  160.4067 H   0  0  0  0  0  0  0  0  0  0  0  0
  150.0456  146.2185  158.4208 H   0  0  0  0  0  0  0  0  0  0  0  0
  148.9856  138.0947  154.1100 H   0  0  0  0  0  0  0  0  0  0  0  0
  150.7948  136.6676  154.0520 H   0  0  0  0  0  0  0  0  0  0  0  0
  151.7482  137.8749  154.9164 H   0  0  0  0  0  0  0  0  0  0  0  0
  149.9284  135.2171  158.3829 H   0  0  0  0  0  0  0  0  0  0  0  0
  147.4436  135.2308  156.9611 H   0  0  0  0  0  0  0  0  0  0  0  0
  147.9170  134.2419  158.3243 H   0  0  0  0  0  0  0  0  0  0  0  0
  146.3942  136.8462  158.3792 H   0  0  0  0  0  0  0  0  0  0  0  0
  146.0762  135.3848  159.3076 H   0  0  0  0  0  0  0  0  0  0  0  0
  147.3193  137.4214  160.5419 H   0  0  0  0  0  0  0  0  0  0  0  0
  147.9802  135.8009  160.7459 H   0  0  0  0  0  0  0  0  0  0  0  0
  149.9255  136.9367  159.9491 H   0  0  0  0  0  0  0  0  0  0  0  0
  148.9682  137.9930  158.9296 H   0  0  0  0  0  0  0  0  0  0  0  0
  148.3485  138.2928  156.8876 H   0  0  0  0  0  0  0  0  0  0  0  0
  147.8800  136.9927  155.7986 H   0  0  0  0  0  0  0  0  0  0  0  0
  149.8156  144.4251  156.9759 H   0  0  0  0  0  0  0  0  0  0  0  0
  1  2  2  0  0  0  0
  2  3  1  0  0  0  0
  2 12  1  0  0  0  0
  3  4  1  0  0  0  0
  3 23  1  0  0  0  0
  4  5  1  0  0  0  0
  4 24  1  0  0  0  0
  4 25  1  0  0  0  0
  5  6  1  0  0  0  0
  5 26  1  0  0  0  0
  5 27  1  0  0  0  0
  6 11  1  0  0  0  0
  6  7  2  0  0  0  0
  7  8  1  0  0  0  0
  7 28  1  0  0  0  0
  8  9  2  0  0  0  0
  8 29  1  0  0  0  0
  9 10  1  0  0  0  0
  9 30  1  0  0  0  0
 10 11  2  0  0  0  0
 10 31  1  0  0  0  0
 11 46  1  0  0  0  0
 12 22  1  0  0  0  0
 12 13  1  0  0  0  0
 12 32  1  0  0  0  0
 13 14  1  0  0  0  0
 13 33  1  0  0  0  0
 13 34  1  0  0  0  0
 14 15  2  0  0  0  0
 14 16  1  0  0  0  0
 16 17  1  0  0  0  0
 16 22  1  0  0  0  0
 17 21  1  0  0  0  0
 17 18  1  0  0  0  0
 17 35  1  0  0  0  0
 18 19  1  0  0  0  0
 18 36  1  0  0  0  0
 18 37  1  0  0  0  0
 19 20  1  0  0  0  0
 19 38  1  0  0  0  0
 19 39  1  0  0  0  0
 20 21  1  0  0  0  0
 20 40  1  0  0  0  0
 20 41  1  0  0  0  0
 21 42  1  0  0  0  0
 21 43  1  0  0  0  0
 22 44  1  0  0  0  0
 22 45  1  0  0  0  0
M  CHG  1  11   1
M  END
> <s_m_source_file>
AV-unprocessed.smi

> <i_m_source_file_index>
1916

> <i_lp_mmshare_version>
43012

> <i_f3d_flags>
0

> <s_epik_input>
W0NIMl0xW0NIMl1bQ0gyXVtDSDJdW0NIXTFOKFtDSDJdMilDKD1PKVtDSDJdW0NASF0yQyg9TylbTkhdW0NIMl1bQ0gyXWMzW2NIXVtjSF1bY0hdW2NIXW4z

> <s_epik_cmdline>
J2VwaWtfcHl0aG9uJywgJy1waCcsICc3LjAnLCAnLXRuJywgJzgnLCAnLW1hJywgJzIwMCcsICctbWV0YWxfYmluZGluZycsICctaW1hZScsICc8aW5maWxlLm1hZT4nLCAnLW9tYWUnLCAnPG91dGZpbGUubWFlPic=

> <r_epik_Ionization_Penalty>
1.88249

> <r_epik_Ionization_Penalty_Charging>
1.88249

> <r_epik_Ionization_Penalty_Neutral>
3.64574e-08

> <r_epik_State_Penalty>
2.00238

> <r_epik_Charging_Adjusted_Penalty>
3.88487

> <i_epik_Tot_Q>
1

> <i_epik_Tot_abs_Q>
1

> <r_epik_Metal_State_Penalty>
2.02676

> <b_epik_Metal_Only>
0

> <s_lp_Force_Field>
OPLS_2005

> <r_lp_Energy>
36.1777

> <b_lp_Chiralities_Consistent>
1

> <s_lp_Variant>
AV-unprocessed.smi:1916-4

> <Gold.Version>
5.8.1

> <Gold.Id.Protein>
6NUR|6NUR_protein|mol2

> <Gold.PLP.Fitness>
48.4921

> <Gold.PLP.PLP>
-37.8885

> <Gold.PLP.part.hbond>
-3.0749

> <Gold.PLP.part.metal>
0.0000

> <Gold.PLP.part.buried>
-6.0305

> <Gold.PLP.part.nonpolar>
-29.1363

> <Gold.PLP.part.repulsive>
0.1811

> <Gold.PLP.ligand.clash>
0.0075

> <Gold.PLP.ligand.torsion>
0.7289

> <Gold.PLP.Chemscore.Hbond>
4.0000

> <Gold.PLP.Chemscore.CHOScore>
0.0000

> <Gold.PLP.Chemscore.Metal>
0.0000

> <Gold.Chemscore.Hbonds>
donor molecule, donor type, donor heavy atom, donor atom, acceptor molecule, acceptor atom, score
      L1  H    11    46       P1  8028  2.00
      P1  H  7989  7998       L1     1  1.00
      P1  H 10752 10765       L1    15  0.86

> <Gold.PLP.Chemscore.Internal.Correction>
0.0690

> <Gold.Rescore>
     Score         DG    S(hbond)    S(metal)    S(lipo)     H(rot)  DE(clash)    DE(int)     intcor
     20.45     -22.69       2.93        0.00     100.88       1.72       0.07       2.17       ----

> <Gold.Chemscore.Fitness>
20.4530

> <Gold.Chemscore.DG>
-22.6889

> <Gold.Chemscore.ZeroCoef>
-5.4800

> <Gold.Chemscore.Hbond>
2.9335

> <Gold.Chemscore.Metal>
0.0000

> <Gold.Chemscore.Lipo>
100.8825

> <Gold.Chemscore.Internal_Hbond>
0.0000

> <Gold.Chemscore.DEClash>
0.0650

> <Gold.Chemscore.DEInternal>
2.1708

> <Gold.Chemscore.Rot>
1.7158

> <Gold.Chemscore.Internal.Correction>
   9.000000E+99

> <Gold.Chemscore.Hbonds>
donor molecule, donor type, donor heavy atom, donor atom, acceptor molecule, acceptor atom, score
      L1  H    11    46       P1  8028  0.55
      P1  H  7989  7998       L1     1  0.97
      P1  H 10752 10765       L1    15  0.62

> <Gold.Chemscore.Hbond.Weighted>
-9.7980

> <Gold.Chemscore.Metal.Weighted>
-0.0000

> <Gold.Chemscore.Lipo.Weighted>
-11.8033

> <Gold.Chemscore.Internal_Hbond.Weighted>
0.0000

> <Gold.Chemscore.DEClash.Weighted>
0.0650

> <Gold.Chemscore.DEInternal.Weighted>
2.1708

> <Gold.Chemscore.Rot.Weighted>
4.3924

> <Gold.Chemscore.Internal.Correction.Weighted>
   9.000000E+99

> <Gold.Protein.RotatedTorsions>
[ 6907 6896 6895 6894 ] final -107.28 input  -60.11 | X-H torsion
[ 7974 7965 7964 7962 ] final -130.67 input  175.53 | X-H torsion
[ 8008 7997 7996 7995 ] final  -37.08 input   59.86 | X-H torsion
[ 10167 10162 10161 10158 ] final -132.42 input  -65.29 | X-H torsion
[ 10718 10713 10712 10709 ] final  -16.93 input   66.30 | X-H torsion
[ 10763 10752 10751 10750 ] final -161.55 input  -60.55 | X-H torsion
[ 11005 11000 10999 10996 ] final  110.30 input  -57.11 | X-H torsion

> <Gold.Protein.ActiveResidues>
 VAL166  LYS551  ARG553  GLY616  TRP617  ASP618  TYR619  PRO620  LYS621  CYS622 
 ASP623  PHE694  ASN695  SER759  ASP760  ASP761  ALA762  ILE779  LEU786  VAL792 
 PHE793  MET794  SER795  GLU796  ALA797  LYS798  CYS799  TRP800  GLU811  SER814 

> <Gold.Protein.RotatedAtoms>
  150.7435  133.9850  159.3588 H   0  0  0  0  0  0  0  0  0  0  0  0  # atno 6907 bound_to 6896
  151.7793  135.0764  160.0381 H   0  0  0  0  0  0  0  0  0  0  0  0  # atno 6908 bound_to 6896
  152.3285  133.5895  159.5829 H   0  0  0  0  0  0  0  0  0  0  0  0  # atno 6909 bound_to 6896
  144.9452  140.7284  143.4822 H   0  0  0  0  0  0  0  0  0  0  0  0  # atno 7974 bound_to 7965
  154.4060  140.1613  156.2479 H   0  0  0  0  0  0  0  0  0  0  0  0  # atno 8008 bound_to 7997
  155.9145  140.3425  155.6102 H   0  0  0  0  0  0  0  0  0  0  0  0  # atno 8009 bound_to 7997
  155.7296  140.0778  157.2285 H   0  0  0  0  0  0  0  0  0  0  0  0  # atno 8010 bound_to 7997
  139.9088  143.6519  152.2580 H   0  0  0  0  0  0  0  0  0  0  0  0  # atno 10167 bound_to 10162
  156.5806  130.4773  149.6322 H   0  0  0  0  0  0  0  0  0  0  0  0  # atno 10718 bound_to 10713
  154.7294  135.3043  154.8917 H   0  0  0  0  0  0  0  0  0  0  0  0  # atno 10763 bound_to 10752
  153.9764  135.6735  153.4752 H   0  0  0  0  0  0  0  0  0  0  0  0  # atno 10764 bound_to 10752
  153.0904  135.4962  154.8599 H   0  0  0  0  0  0  0  0  0  0  0  0  # atno 10765 bound_to 10752
  139.8879  134.9480  156.6258 H   0  0  0  0  0  0  0  0  0  0  0  0  # atno 11005 bound_to 11000
  145.2929  139.1877  143.4731 LP  0  0  0  0  0  0  0  0  0  0  0  0  # atno 17320 bound_to 7965
  146.3301  140.2908  142.8615 LP  0  0  0  0  0  0  0  0  0  0  0  0  # atno 17321 bound_to 7965
  139.6961  144.7641  151.1354 LP  0  0  0  0  0  0  0  0  0  0  0  0  # atno 17342 bound_to 10162
  140.7690  143.5522  150.9192 LP  0  0  0  0  0  0  0  0  0  0  0  0  # atno 17343 bound_to 10162
  156.2635  130.6976  151.1752 LP  0  0  0  0  0  0  0  0  0  0  0  0  # atno 17370 bound_to 10713
  157.7327  131.0597  150.5613 LP  0  0  0  0  0  0  0  0  0  0  0  0  # atno 17371 bound_to 10713
  140.7705  133.8743  155.8488 LP  0  0  0  0  0  0  0  0  0  0  0  0  # atno 17394 bound_to 11000
  140.9846  134.1360  157.4463 LP  0  0  0  0  0  0  0  0  0  0  0  0  # atno 17395 bound_to 11000

$$$$
