AV-unprocessed.smi:2061|AV-procd|sdf|8373|dock6
  -GOLD-   2272011 43D 1   1.00000     0.00000
 Structure written by MMmdl.
 46 47  0  0  0  0  0  0  0  0  2 V2000
  153.8645  138.1620  157.2152 C   0  0  0  0  0  0  0  0  0  0  0  0
  152.7565  138.1774  156.2184 C   0  0  0  0  0  0  0  0  0  0  0  0
  151.7257  137.3182  155.9605 C   0  0  0  0  0  0  0  0  0  0  0  0
  151.0502  137.9447  154.8797 C   0  0  0  0  0  0  0  0  0  0  0  0
  149.8974  137.3541  154.3025 N   0  0  0  0  0  0  0  0  0  0  0  0
  148.8549  136.7987  154.9427 C   0  0  0  0  0  0  0  0  0  0  0  0
  148.7431  136.6959  156.1649 O   0  0  0  0  0  0  0  0  0  0  0  0
  147.9244  136.3670  154.0791 N   0  0  0  0  0  0  0  0  0  0  0  0
  146.6624  135.7392  154.4604 C   0  0  0  0  0  0  0  0  0  0  0  0
  145.9052  135.1092  153.2591 C   0  0  1  0  0  0  0  0  0  0  0  0
  145.0252  136.1810  152.5709 C   0  0  0  0  0  0  0  0  0  0  0  0
  146.8689  134.4451  152.3169 N   0  3  1  0  0  0  0  0  0  0  0  0
  147.6900  133.3657  152.9325 C   0  0  0  0  0  0  0  0  0  0  0  0
  146.8819  132.0591  153.1043 C   0  0  2  0  0  0  0  0  0  0  0  0
  147.7522  130.9117  153.6291 C   0  0  0  0  0  0  0  0  0  0  0  0
  146.3479  131.6643  151.8444 O   0  0  0  0  0  0  0  0  0  0  0  0
  145.4904  132.6445  151.2688 C   0  0  2  0  0  0  0  0  0  0  0  0
  144.9284  132.0754  149.9618 C   0  0  0  0  0  0  0  0  0  0  0  0
  146.3070  133.9322  151.0379 C   0  0  0  0  0  0  0  0  0  0  0  0
  151.6171  139.0832  154.5106 N   0  0  0  0  0  0  0  0  0  0  0  0
  152.7130  139.2389  155.3678 O   0  0  0  0  0  0  0  0  0  0  0  0
  153.9410  137.1874  157.6976 H   0  0  0  0  0  0  0  0  0  0  0  0
  153.6969  138.9103  157.9899 H   0  0  0  0  0  0  0  0  0  0  0  0
  154.8200  138.3773  156.7368 H   0  0  0  0  0  0  0  0  0  0  0  0
  151.4957  136.3914  156.4651 H   0  0  0  0  0  0  0  0  0  0  0  0
  149.8585  137.3669  153.2941 H   0  0  0  0  0  0  0  0  0  0  0  0
  148.0968  136.4852  153.0911 H   0  0  0  0  0  0  0  0  0  0  0  0
  146.8813  134.9692  155.2008 H   0  0  0  0  0  0  0  0  0  0  0  0
  146.0678  136.4918  154.9756 H   0  0  0  0  0  0  0  0  0  0  0  0
  145.2242  134.3486  153.6389 H   0  0  0  0  0  0  0  0  0  0  0  0
  144.3754  136.6915  153.2815 H   0  0  0  0  0  0  0  0  0  0  0  0
  144.3557  135.7462  151.8293 H   0  0  0  0  0  0  0  0  0  0  0  0
  145.6336  136.9420  152.0811 H   0  0  0  0  0  0  0  0  0  0  0  0
  148.5384  133.1758  152.2732 H   0  0  0  0  0  0  0  0  0  0  0  0
  148.1255  133.6688  153.8817 H   0  0  0  0  0  0  0  0  0  0  0  0
  146.0622  132.2079  153.8078 H   0  0  0  0  0  0  0  0  0  0  0  0
  148.1787  131.1561  154.6022 H   0  0  0  0  0  0  0  0  0  0  0  0
  148.5753  130.6952  152.9478 H   0  0  0  0  0  0  0  0  0  0  0  0
  147.1669  129.9990  153.7436 H   0  0  0  0  0  0  0  0  0  0  0  0
  144.6572  132.8393  151.9456 H   0  0  0  0  0  0  0  0  0  0  0  0
  144.2555  132.7865  149.4820 H   0  0  0  0  0  0  0  0  0  0  0  0
  144.3662  131.1594  150.1458 H   0  0  0  0  0  0  0  0  0  0  0  0
  145.7264  131.8408  149.2567 H   0  0  0  0  0  0  0  0  0  0  0  0
  145.7308  134.6866  150.5048 H   0  0  0  0  0  0  0  0  0  0  0  0
  147.1420  133.7054  150.3730 H   0  0  0  0  0  0  0  0  0  0  0  0
  147.5126  135.1768  152.0515 H   0  0  0  0  0  0  0  0  0  0  0  0
  1  2  1  0  0  0  0
  1 22  1  0  0  0  0
  1 23  1  0  0  0  0
  1 24  1  0  0  0  0
  2 21  1  0  0  0  0
  2  3  2  0  0  0  0
  3  4  1  0  0  0  0
  3 25  1  0  0  0  0
  4  5  1  0  0  0  0
  4 20  2  0  0  0  0
  5  6  1  0  0  0  0
  5 26  1  0  0  0  0
  6  7  2  0  0  0  0
  6  8  1  0  0  0  0
  8  9  1  0  0  0  0
  8 27  1  0  0  0  0
  9 10  1  0  0  0  0
  9 28  1  0  0  0  0
  9 29  1  0  0  0  0
 10 11  1  0  0  0  0
 10 12  1  0  0  0  0
 10 30  1  0  0  0  0
 11 31  1  0  0  0  0
 11 32  1  0  0  0  0
 11 33  1  0  0  0  0
 12 19  1  0  0  0  0
 12 13  1  0  0  0  0
 12 46  1  0  0  0  0
 13 14  1  0  0  0  0
 13 34  1  0  0  0  0
 13 35  1  0  0  0  0
 14 15  1  0  0  0  0
 14 16  1  0  0  0  0
 14 36  1  0  0  0  0
 15 37  1  0  0  0  0
 15 38  1  0  0  0  0
 15 39  1  0  0  0  0
 16 17  1  0  0  0  0
 17 18  1  0  0  0  0
 17 19  1  0  0  0  0
 17 40  1  0  0  0  0
 18 41  1  0  0  0  0
 18 42  1  0  0  0  0
 18 43  1  0  0  0  0
 19 44  1  0  0  0  0
 19 45  1  0  0  0  0
 20 21  1  0  0  0  0
M  CHG  1  12   1
M  END
> <s_m_source_file>
AV-unprocessed.smi

> <i_m_source_file_index>
2061

> <i_lp_mmshare_version>
43012

> <i_f3d_flags>
0

> <s_epik_input>
W0NIM11jMVtjSF1jKG5vMSlbTkhdQyg9TylbTkhdW0NIMl1bQ0BIXShbQ0gzXSlOMltDSDJdW0NAQEhdKFtDSDNdKU9bQ0BASF0oW0NIM10pW0NIMl0y

> <s_epik_cmdline>
J2VwaWtfcHl0aG9uJywgJy1waCcsICc3LjAnLCAnLXRuJywgJzgnLCAnLW1hJywgJzIwMCcsICctbWV0YWxfYmluZGluZycsICctaW1hZScsICc8aW5maWxlLm1hZT4nLCAnLW9tYWUnLCAnPG91dGZpbGUubWFlPic=

> <r_epik_Ionization_Penalty>
0.707076

> <r_epik_Ionization_Penalty_Charging>
0.707039

> <r_epik_Ionization_Penalty_Neutral>
3.6548e-05

> <r_epik_State_Penalty>
0.730276

> <r_epik_Charging_Adjusted_Penalty>
1.43732

> <i_epik_Tot_Q>
1

> <i_epik_Tot_abs_Q>
1

> <r_epik_Metal_State_Penalty>
0.743132

> <b_epik_Metal_Only>
0

> <s_lp_Force_Field>
OPLS_2005

> <r_lp_Energy>
17.8186

> <b_lp_Chiralities_Consistent>
1

> <s_lp_Variant>
AV-unprocessed.smi:2061-14

> <Gold.Version>
5.8.1

> <Gold.Id.Protein>
6NUR|6NUR_protein|mol2

> <Gold.PLP.Fitness>
40.6297

> <Gold.PLP.PLP>
-25.1480

> <Gold.PLP.part.hbond>
-4.7597

> <Gold.PLP.part.metal>
0.0000

> <Gold.PLP.part.buried>
-2.9910

> <Gold.PLP.part.nonpolar>
-18.1087

> <Gold.PLP.part.repulsive>
0.2908

> <Gold.PLP.ligand.clash>
0.0000

> <Gold.PLP.ligand.torsion>
0.7074

> <Gold.PLP.Chemscore.Hbond>
5.6146

> <Gold.PLP.Chemscore.CHOScore>
0.0000

> <Gold.PLP.Chemscore.Metal>
0.0000

> <Gold.Chemscore.Hbonds>
donor molecule, donor type, donor heavy atom, donor atom, acceptor molecule, acceptor atom, score
      L1  H     5    26       P1  7948  0.74
      L1  H     8    27       P1  7948  0.98
      L1  H    12    46       P1  7948  2.00
      P1  H  7989  7998       L1    20  0.98
      P1  H  7997  8010       L1    21  0.85

> <Gold.PLP.Chemscore.Internal.Correction>
0.0528

> <Gold.Rescore>
     Score         DG    S(hbond)    S(metal)    S(lipo)     H(rot)  DE(clash)    DE(int)     intcor
     18.19     -19.03       3.18        0.00      59.52       1.58       0.04       0.80       ----

> <Gold.Chemscore.Fitness>
18.1870

> <Gold.Chemscore.DG>
-19.0250

> <Gold.Chemscore.ZeroCoef>
-5.4800

> <Gold.Chemscore.Hbond>
3.1839

> <Gold.Chemscore.Metal>
0.0000

> <Gold.Chemscore.Lipo>
59.5232

> <Gold.Chemscore.Internal_Hbond>
0.0000

> <Gold.Chemscore.DEClash>
0.0351

> <Gold.Chemscore.DEInternal>
0.8029

> <Gold.Chemscore.Rot>
1.5834

> <Gold.Chemscore.Internal.Correction>
   9.000000E+99

> <Gold.Chemscore.Hbonds>
donor molecule, donor type, donor heavy atom, donor atom, acceptor molecule, acceptor atom, score
      L1  H     5    26       P1  7948  0.35
      L1  H     8    27       P1  7948  0.86
      L1  H    12    46       P1  7948  0.97
      P1  H  7989  7998       L1    20  0.27
      P1  H  7997  8010       L1    21  0.14

> <Gold.Chemscore.Hbond.Weighted>
-10.6343

> <Gold.Chemscore.Metal.Weighted>
-0.0000

> <Gold.Chemscore.Lipo.Weighted>
-6.9642

> <Gold.Chemscore.Internal_Hbond.Weighted>
0.0000

> <Gold.Chemscore.DEClash.Weighted>
0.0351

> <Gold.Chemscore.DEInternal.Weighted>
0.8029

> <Gold.Chemscore.Rot.Weighted>
4.0535

> <Gold.Chemscore.Internal.Correction.Weighted>
   9.000000E+99

> <Gold.Protein.RotatedTorsions>
[ 6907 6896 6895 6894 ] final -123.22 input  -60.11 | X-H torsion
[ 7974 7965 7964 7962 ] final -108.92 input  175.53 | X-H torsion
[ 8008 7997 7996 7995 ] final   94.82 input   59.86 | X-H torsion
[ 10167 10162 10161 10158 ] final   -4.34 input  -65.29 | X-H torsion
[ 10718 10713 10712 10709 ] final  -33.23 input   66.30 | X-H torsion
[ 10763 10752 10751 10750 ] final   40.91 input  -60.55 | X-H torsion
[ 11005 11000 10999 10996 ] final -120.09 input  -57.11 | X-H torsion

> <Gold.Protein.ActiveResidues>
 VAL166  LYS551  ARG553  GLY616  TRP617  ASP618  TYR619  PRO620  LYS621  CYS622 
 ASP623  PHE694  ASN695  SER759  ASP760  ASP761  ALA762  ILE779  LEU786  VAL792 
 PHE793  MET794  SER795  GLU796  ALA797  LYS798  CYS799  TRP800  GLU811  SER814 

> <Gold.Protein.RotatedAtoms>
  150.8650  133.7588  159.2979 H   0  0  0  0  0  0  0  0  0  0  0  0  # atno 6907 bound_to 6896
  151.5218  135.1066  159.9890 H   0  0  0  0  0  0  0  0  0  0  0  0  # atno 6908 bound_to 6896
  152.4654  133.7867  159.6936 H   0  0  0  0  0  0  0  0  0  0  0  0  # atno 6909 bound_to 6896
  145.1869  140.8997  143.3447 H   0  0  0  0  0  0  0  0  0  0  0  0  # atno 7974 bound_to 7965
  156.0621  140.3295  155.7474 H   0  0  0  0  0  0  0  0  0  0  0  0  # atno 8008 bound_to 7997
  155.5438  140.0604  157.2882 H   0  0  0  0  0  0  0  0  0  0  0  0  # atno 8009 bound_to 7997
  154.4487  140.1906  156.0605 H   0  0  0  0  0  0  0  0  0  0  0  0  # atno 8010 bound_to 7997
  140.6924  143.6435  150.8414 H   0  0  0  0  0  0  0  0  0  0  0  0  # atno 10167 bound_to 10162
  156.3652  130.4330  149.7590 H   0  0  0  0  0  0  0  0  0  0  0  0  # atno 10718 bound_to 10713
  152.9923  135.6177  154.2702 H   0  0  0  0  0  0  0  0  0  0  0  0  # atno 10763 bound_to 10752
  154.2435  135.2788  155.2846 H   0  0  0  0  0  0  0  0  0  0  0  0  # atno 10764 bound_to 10752
  154.5349  135.5777  153.6847 H   0  0  0  0  0  0  0  0  0  0  0  0  # atno 10765 bound_to 10752
  141.0169  134.0182  157.3337 H   0  0  0  0  0  0  0  0  0  0  0  0  # atno 11005 bound_to 11000
  145.0080  139.3536  143.6134 LP  0  0  0  0  0  0  0  0  0  0  0  0  # atno 17320 bound_to 7965
  146.3443  139.9331  142.8751 LP  0  0  0  0  0  0  0  0  0  0  0  0  # atno 17321 bound_to 7965
  140.0150  143.5603  152.2824 LP  0  0  0  0  0  0  0  0  0  0  0  0  # atno 17342 bound_to 10162
  139.6340  144.7648  151.2476 LP  0  0  0  0  0  0  0  0  0  0  0  0  # atno 17343 bound_to 10162
  156.4739  130.8009  151.3026 LP  0  0  0  0  0  0  0  0  0  0  0  0  # atno 17370 bound_to 10713
  157.7478  131.0027  150.3011 LP  0  0  0  0  0  0  0  0  0  0  0  0  # atno 17371 bound_to 10713
  139.9122  135.0192  156.7738 LP  0  0  0  0  0  0  0  0  0  0  0  0  # atno 17394 bound_to 11000
  140.6640  133.9619  155.7820 LP  0  0  0  0  0  0  0  0  0  0  0  0  # atno 17395 bound_to 11000

$$$$
