AV-unprocessed.smi:1250|AV-procd|sdf|5254|dock5
  -GOLD-   22720 4363D 1   1.00000     0.00000
 Structure written by MMmdl.
 41 42  0  0  0  0  0  0  0  0  1 V2000
  148.3124  133.3493  152.9789 C   0  0  0  0  0  0  0  0  0  0  0  0
  149.3634  133.3022  154.1022 C   0  0  0  0  0  0  0  0  0  0  0  0
  149.3317  131.9161  154.7790 C   0  0  0  0  0  0  0  0  0  0  0  0
  149.1901  134.4617  155.1195 C   0  0  2  0  0  0  0  0  0  0  0  0
  147.7205  134.7531  155.4738 C   0  0  0  0  0  0  0  0  0  0  0  0
  149.7966  135.6815  154.5917 N   0  0  0  0  0  0  0  0  0  0  0  0
  150.7177  136.4373  155.2128 C   0  0  0  0  0  0  0  0  0  0  0  0
  151.0917  136.2367  156.3681 O   0  0  0  0  0  0  0  0  0  0  0  0
  151.3159  137.5972  154.4082 C   0  0  0  0  0  0  0  0  0  0  0  0
  150.8624  138.9254  154.9502 C   0  0  0  0  0  0  0  0  0  0  0  0
  149.8552  139.7143  154.4504 C   0  0  0  0  0  0  0  0  0  0  0  0
  149.6819  141.1987  155.3459 S   0  0  0  0  0  0  0  0  0  0  0  0
  151.0067  140.6827  156.3936 C   0  0  0  0  0  0  0  0  0  0  0  0
  151.5604  141.4162  157.4848 N   0  0  0  0  0  0  0  0  0  0  0  0
  151.0612  142.7379  157.8524 C   0  0  0  0  0  0  0  0  0  0  0  0
  152.0214  143.2699  158.9217 C   0  0  0  0  0  0  0  0  0  0  0  0
  152.8289  142.0575  159.3802 C   0  0  0  0  0  0  0  0  0  0  0  0
  152.5317  141.0089  158.3210 C   0  0  0  0  0  0  0  0  0  0  0  0
  153.1393  139.9398  158.2880 O   0  0  0  0  0  0  0  0  0  0  0  0
  151.4967  139.4827  156.0664 N   0  0  0  0  0  0  0  0  0  0  0  0
  147.2999  133.3097  153.3821 H   0  0  0  0  0  0  0  0  0  0  0  0
  148.4296  132.5066  152.2969 H   0  0  0  0  0  0  0  0  0  0  0  0
  148.3998  134.2540  152.3782 H   0  0  0  0  0  0  0  0  0  0  0  0
  150.3435  133.4071  153.6344 H   0  0  0  0  0  0  0  0  0  0  0  0
  148.4010  131.7649  155.3268 H   0  0  0  0  0  0  0  0  0  0  0  0
  150.1556  131.7844  155.4804 H   0  0  0  0  0  0  0  0  0  0  0  0
  149.4159  131.1166  154.0424 H   0  0  0  0  0  0  0  0  0  0  0  0
  149.7096  134.1776  156.0368 H   0  0  0  0  0  0  0  0  0  0  0  0
  147.2530  133.9116  155.9839 H   0  0  0  0  0  0  0  0  0  0  0  0
  147.1332  134.9742  154.5821 H   0  0  0  0  0  0  0  0  0  0  0  0
  147.6413  135.6100  156.1436 H   0  0  0  0  0  0  0  0  0  0  0  0
  149.5466  135.9339  153.6464 H   0  0  0  0  0  0  0  0  0  0  0  0
  152.4030  137.5166  154.4390 H   0  0  0  0  0  0  0  0  0  0  0  0
  151.0277  137.4977  153.3609 H   0  0  0  0  0  0  0  0  0  0  0  0
  149.2140  139.5180  153.6038 H   0  0  0  0  0  0  0  0  0  0  0  0
  151.0211  143.4061  156.9913 H   0  0  0  0  0  0  0  0  0  0  0  0
  150.0513  142.6398  158.2531 H   0  0  0  0  0  0  0  0  0  0  0  0
  152.6879  144.0177  158.4895 H   0  0  0  0  0  0  0  0  0  0  0  0
  151.4868  143.7428  159.7465 H   0  0  0  0  0  0  0  0  0  0  0  0
  153.8963  142.2722  159.4413 H   0  0  0  0  0  0  0  0  0  0  0  0
  152.4879  141.6972  160.3512 H   0  0  0  0  0  0  0  0  0  0  0  0
  1  2  1  0  0  0  0
  1 21  1  0  0  0  0
  1 22  1  0  0  0  0
  1 23  1  0  0  0  0
  2  3  1  0  0  0  0
  2  4  1  0  0  0  0
  2 24  1  0  0  0  0
  3 25  1  0  0  0  0
  3 26  1  0  0  0  0
  3 27  1  0  0  0  0
  4  5  1  0  0  0  0
  4  6  1  0  0  0  0
  4 28  1  0  0  0  0
  5 29  1  0  0  0  0
  5 30  1  0  0  0  0
  5 31  1  0  0  0  0
  6  7  1  0  0  0  0
  6 32  1  0  0  0  0
  7  8  2  0  0  0  0
  7  9  1  0  0  0  0
  9 10  1  0  0  0  0
  9 33  1  0  0  0  0
  9 34  1  0  0  0  0
 10 20  1  0  0  0  0
 10 11  2  0  0  0  0
 11 12  1  0  0  0  0
 11 35  1  0  0  0  0
 12 13  1  0  0  0  0
 13 14  1  0  0  0  0
 13 20  2  0  0  0  0
 14 18  1  0  0  0  0
 14 15  1  0  0  0  0
 15 16  1  0  0  0  0
 15 36  1  0  0  0  0
 15 37  1  0  0  0  0
 16 17  1  0  0  0  0
 16 38  1  0  0  0  0
 16 39  1  0  0  0  0
 17 18  1  0  0  0  0
 17 40  1  0  0  0  0
 17 41  1  0  0  0  0
 18 19  2  0  0  0  0
M  END
> <s_m_source_file>
AV-unprocessed.smi

> <i_m_source_file_index>
1250

> <i_lp_mmshare_version>
43012

> <i_f3d_flags>
0

> <s_epik_input>
W0NIM11bQ0hdKFtDSDNdKVtDQEhdKFtDSDNdKVtOSF1DKD1PKVtDSDJdYzFbY0hdc2MobjEpTjJbQ0gyXVtDSDJdW0NIMl1DMj1P

> <s_epik_cmdline>
J2VwaWtfcHl0aG9uJywgJy1waCcsICc3LjAnLCAnLXRuJywgJzgnLCAnLW1hJywgJzIwMCcsICctbWV0YWxfYmluZGluZycsICctaW1hZScsICc8aW5maWxlLm1hZT4nLCAnLW9tYWUnLCAnPG91dGZpbGUubWFlPic=

> <r_lp_tautomer_probability>
1

> <r_epik_Ionization_Penalty>
3.03552e-05

> <r_epik_Ionization_Penalty_Charging>
0

> <r_epik_Ionization_Penalty_Neutral>
3.03552e-05

> <r_epik_State_Penalty>
-0

> <r_epik_Charging_Adjusted_Penalty>
0

> <i_epik_Tot_Q>
0

> <i_epik_Tot_abs_Q>
0

> <r_epik_Metal_State_Penalty>
-0

> <b_epik_Metal_Only>
0

> <s_lp_Force_Field>
OPLS_2005

> <r_lp_Energy>
18.568

> <b_lp_Chiralities_Consistent>
1

> <s_lp_Variant>
AV-unprocessed.smi:1250-1

> <Gold.Version>
5.8.1

> <Gold.Id.Protein>
6NUR|6NUR_protein|mol2

> <Gold.PLP.Fitness>
47.3032

> <Gold.PLP.PLP>
-40.0608

> <Gold.PLP.part.hbond>
-2.0000

> <Gold.PLP.part.metal>
0.0000

> <Gold.PLP.part.buried>
-3.5611

> <Gold.PLP.part.nonpolar>
-34.8936

> <Gold.PLP.part.repulsive>
0.0542

> <Gold.PLP.ligand.clash>
0.0000

> <Gold.PLP.ligand.torsion>
0.8965

> <Gold.PLP.Chemscore.Hbond>
2.0000

> <Gold.PLP.Chemscore.CHOScore>
1.0000

> <Gold.PLP.Chemscore.Metal>
0.0000

> <Gold.Chemscore.Hbonds>
donor molecule, donor type, donor heavy atom, donor atom, acceptor molecule, acceptor atom, score
      L1  H     6    32       P1  7948  1.00
      P1  H  7997  8009       L1    19  0.99
      L1  C    11    35       P1  7957  0.98

> <Gold.PLP.Chemscore.Internal.Correction>
0.0355

> <Gold.Rescore>
     Score         DG    S(hbond)    S(metal)    S(lipo)     H(rot)  DE(clash)    DE(int)     intcor
     14.18     -16.72       1.73        0.00      81.10       1.58       0.05       2.48       ----

> <Gold.Chemscore.Fitness>
14.1825

> <Gold.Chemscore.DG>
-16.7156

> <Gold.Chemscore.ZeroCoef>
-5.4800

> <Gold.Chemscore.Hbond>
1.7321

> <Gold.Chemscore.Metal>
0.0000

> <Gold.Chemscore.Lipo>
81.1022

> <Gold.Chemscore.Internal_Hbond>
0.0000

> <Gold.Chemscore.DEClash>
0.0509

> <Gold.Chemscore.DEInternal>
2.4822

> <Gold.Chemscore.Rot>
1.5775

> <Gold.Chemscore.Internal.Correction>
   9.000000E+99

> <Gold.Chemscore.Hbonds>
donor molecule, donor type, donor heavy atom, donor atom, acceptor molecule, acceptor atom, score
      L1  H     6    32       P1  7948  0.40
      P1  H  7997  8009       L1    19  0.77

> <Gold.Chemscore.Hbond.Weighted>
-5.7852

> <Gold.Chemscore.Metal.Weighted>
-0.0000

> <Gold.Chemscore.Lipo.Weighted>
-9.4890

> <Gold.Chemscore.Internal_Hbond.Weighted>
0.0000

> <Gold.Chemscore.DEClash.Weighted>
0.0509

> <Gold.Chemscore.DEInternal.Weighted>
2.4822

> <Gold.Chemscore.Rot.Weighted>
4.0385

> <Gold.Chemscore.Internal.Correction.Weighted>
   9.000000E+99

> <Gold.Protein.RotatedTorsions>
[ 6907 6896 6895 6894 ] final  -21.05 input  -60.11 | X-H torsion
[ 7974 7965 7964 7962 ] final  121.50 input  175.53 | X-H torsion
[ 8008 7997 7996 7995 ] final  142.77 input   59.86 | X-H torsion
[ 10167 10162 10161 10158 ] final -168.77 input  -65.29 | X-H torsion
[ 10718 10713 10712 10709 ] final  -37.28 input   66.30 | X-H torsion
[ 10763 10752 10751 10750 ] final   49.94 input  -60.55 | X-H torsion
[ 11005 11000 10999 10996 ] final  121.57 input  -57.11 | X-H torsion

> <Gold.Protein.ActiveResidues>
 VAL166  LYS551  ARG553  GLY616  TRP617  ASP618  TYR619  PRO620  LYS621  CYS622 
 ASP623  PHE694  ASN695  SER759  ASP760  ASP761  ALA762  ILE779  LEU786  VAL792 
 PHE793  MET794  SER795  GLU796  ALA797  LYS798  CYS799  TRP800  GLU811  SER814 

> <Gold.Protein.RotatedAtoms>
  151.2391  135.0582  159.9017 H   0  0  0  0  0  0  0  0  0  0  0  0  # atno 6907 bound_to 6896
  152.5395  134.0454  159.8096 H   0  0  0  0  0  0  0  0  0  0  0  0  # atno 6908 bound_to 6896
  151.0645  133.5468  159.2663 H   0  0  0  0  0  0  0  0  0  0  0  0  # atno 6909 bound_to 6896
  145.1185  139.3404  143.4726 H   0  0  0  0  0  0  0  0  0  0  0  0  # atno 7974 bound_to 7965
  156.2943  140.2280  156.4781 H   0  0  0  0  0  0  0  0  0  0  0  0  # atno 8008 bound_to 7997
  154.7876  140.0456  157.1197 H   0  0  0  0  0  0  0  0  0  0  0  0  # atno 8009 bound_to 7997
  154.9683  140.3063  155.5002 H   0  0  0  0  0  0  0  0  0  0  0  0  # atno 8010 bound_to 7997
  139.5964  144.1102  152.1694 H   0  0  0  0  0  0  0  0  0  0  0  0  # atno 10167 bound_to 10162
  156.3171  130.4260  149.7995 H   0  0  0  0  0  0  0  0  0  0  0  0  # atno 10718 bound_to 10713
  152.9785  135.5895  154.4171 H   0  0  0  0  0  0  0  0  0  0  0  0  # atno 10763 bound_to 10752
  154.3799  135.2767  155.2219 H   0  0  0  0  0  0  0  0  0  0  0  0  # atno 10764 bound_to 10752
  154.4137  135.6075  153.6022 H   0  0  0  0  0  0  0  0  0  0  0  0  # atno 10765 bound_to 10752
  139.9231  134.9639  156.7979 H   0  0  0  0  0  0  0  0  0  0  0  0  # atno 11005 bound_to 11000
  146.3522  140.1135  142.8603 LP  0  0  0  0  0  0  0  0  0  0  0  0  # atno 17320 bound_to 7965
  145.0766  140.9192  143.4850 LP  0  0  0  0  0  0  0  0  0  0  0  0  # atno 17321 bound_to 7965
  140.0688  144.5796  150.7207 LP  0  0  0  0  0  0  0  0  0  0  0  0  # atno 17342 bound_to 10162
  140.7215  143.2594  151.4261 LP  0  0  0  0  0  0  0  0  0  0  0  0  # atno 17343 bound_to 10162
  156.5317  130.8260  151.3239 LP  0  0  0  0  0  0  0  0  0  0  0  0  # atno 17370 bound_to 10713
  157.7404  130.9849  150.2374 LP  0  0  0  0  0  0  0  0  0  0  0  0  # atno 17371 bound_to 10713
  140.6414  133.9815  155.7709 LP  0  0  0  0  0  0  0  0  0  0  0  0  # atno 17394 bound_to 11000
  141.0769  134.0122  157.3445 LP  0  0  0  0  0  0  0  0  0  0  0  0  # atno 17395 bound_to 11000

$$$$
