AV-unprocessed.smi:2009|AV-procd|sdf|8147|dock8
  -GOLD-   2272010383D 1   1.00000     0.00000
 Structure written by MMmdl.
 37 38  0  0  0  0  0  0  0  0  2 V2000
  152.5953  139.6089  158.1678 C   0  0  0  0  0  0  0  0  0  0  0  0
  152.1324  141.0715  158.1292 C   0  0  2  0  0  0  0  0  0  0  0  0
  152.0974  141.7052  159.5429 C   0  0  0  0  0  0  0  0  0  0  0  0
  152.0347  143.1642  159.5468 N   0  0  0  0  0  0  0  0  0  0  0  0
  152.1037  144.0272  158.4704 C   0  0  0  0  0  0  0  0  0  0  0  0
  151.9920  145.2988  158.9543 C   0  0  0  0  0  0  0  0  0  0  0  0
  151.8430  145.1132  160.3567 C   0  0  0  0  0  0  0  0  0  0  0  0
  151.8558  143.8377  160.7082 N   0  0  0  0  0  0  0  0  0  0  0  0
  150.8095  141.1294  157.5218 N   0  5  0  0  0  0  0  0  0  0  0  0
  150.4656  140.1488  156.2765 S   0  0  0  0  0  0  0  0  0  0  0  0
  151.4270  140.2350  155.1649 O   0  0  0  0  0  0  0  0  0  0  0  0
  150.0427  138.8086  156.7150 O   0  0  0  0  0  0  0  0  0  0  0  0
  149.0331  140.9690  155.7291 N   0  0  0  0  0  0  0  0  0  0  0  0
  147.9507  141.1479  156.7199 C   0  0  0  0  0  0  0  0  0  0  0  0
  146.9035  142.1693  156.2453 C   0  0  0  0  0  0  0  0  0  0  0  0
  146.3446  141.7950  154.8710 C   0  0  0  0  0  0  0  0  0  0  0  0
  147.5032  141.6705  153.8795 C   0  0  0  0  0  0  0  0  0  0  0  0
  148.5449  140.6505  154.3667 C   0  0  0  0  0  0  0  0  0  0  0  0
  153.5918  139.5266  158.6018 H   0  0  0  0  0  0  0  0  0  0  0  0
  152.6392  139.1832  157.1644 H   0  0  0  0  0  0  0  0  0  0  0  0
  151.9215  138.9922  158.7637 H   0  0  0  0  0  0  0  0  0  0  0  0
  152.8678  141.6209  157.5397 H   0  0  0  0  0  0  0  0  0  0  0  0
  151.2449  141.3243  160.1072 H   0  0  0  0  0  0  0  0  0  0  0  0
  152.9859  141.4059  160.1007 H   0  0  0  0  0  0  0  0  0  0  0  0
  152.2339  143.6647  157.4618 H   0  0  0  0  0  0  0  0  0  0  0  0
  152.0141  146.2200  158.3919 H   0  0  0  0  0  0  0  0  0  0  0  0
  151.7218  145.8624  161.1248 H   0  0  0  0  0  0  0  0  0  0  0  0
  147.4826  140.1812  156.9087 H   0  0  0  0  0  0  0  0  0  0  0  0
  148.3686  141.4877  157.6671 H   0  0  0  0  0  0  0  0  0  0  0  0
  146.0935  142.2337  156.9721 H   0  0  0  0  0  0  0  0  0  0  0  0
  147.3562  143.1608  156.1990 H   0  0  0  0  0  0  0  0  0  0  0  0
  145.8008  140.8516  154.9322 H   0  0  0  0  0  0  0  0  0  0  0  0
  145.6352  142.5501  154.5318 H   0  0  0  0  0  0  0  0  0  0  0  0
  147.1255  141.3746  152.9005 H   0  0  0  0  0  0  0  0  0  0  0  0
  147.9800  142.6425  153.7466 H   0  0  0  0  0  0  0  0  0  0  0  0
  149.3748  140.6313  153.6621 H   0  0  0  0  0  0  0  0  0  0  0  0
  148.1178  139.6471  154.3715 H   0  0  0  0  0  0  0  0  0  0  0  0
  1  2  1  0  0  0  0
  1 19  1  0  0  0  0
  1 20  1  0  0  0  0
  1 21  1  0  0  0  0
  2  3  1  0  0  0  0
  2  9  1  0  0  0  0
  2 22  1  0  0  0  0
  3  4  1  0  0  0  0
  3 23  1  0  0  0  0
  3 24  1  0  0  0  0
  4  8  1  0  0  0  0
  4  5  1  0  0  0  0
  5  6  2  0  0  0  0
  5 25  1  0  0  0  0
  6  7  1  0  0  0  0
  6 26  1  0  0  0  0
  7  8  2  0  0  0  0
  7 27  1  0  0  0  0
  9 10  1  0  0  0  0
 10 11  2  0  0  0  0
 10 12  2  0  0  0  0
 10 13  1  0  0  0  0
 13 18  1  0  0  0  0
 13 14  1  0  0  0  0
 14 15  1  0  0  0  0
 14 28  1  0  0  0  0
 14 29  1  0  0  0  0
 15 16  1  0  0  0  0
 15 30  1  0  0  0  0
 15 31  1  0  0  0  0
 16 17  1  0  0  0  0
 16 32  1  0  0  0  0
 16 33  1  0  0  0  0
 17 18  1  0  0  0  0
 17 34  1  0  0  0  0
 17 35  1  0  0  0  0
 18 36  1  0  0  0  0
 18 37  1  0  0  0  0
M  CHG  1   9  -1
M  END
> <s_m_source_file>
AV-unprocessed.smi

> <i_m_source_file_index>
2009

> <i_lp_mmshare_version>
43012

> <i_f3d_flags>
0

> <s_epik_input>
bjFbY0hdW2NIXVtjSF1uMVtDSDJdW0NAQEhdKFtDSDNdKVtOSF1TKD1PKSg9TylOMltDSDJdW0NIMl1bQ0gyXVtDSDJdW0NIMl0y

> <s_epik_cmdline>
J2VwaWtfcHl0aG9uJywgJy1waCcsICc3LjAnLCAnLXRuJywgJzgnLCAnLW1hJywgJzIwMCcsICctbWV0YWxfYmluZGluZycsICctaW1hZScsICc8aW5maWxlLm1hZT4nLCAnLW9tYWUnLCAnPG91dGZpbGUubWFlPic=

> <r_lp_tautomer_probability>
1

> <r_epik_Ionization_Penalty>
1.75622

> <r_epik_Ionization_Penalty_Charging>
1.7562

> <r_epik_Ionization_Penalty_Neutral>
2.38826e-05

> <r_epik_State_Penalty>
1.86645

> <r_epik_Charging_Adjusted_Penalty>
3.62264

> <i_epik_Tot_Q>
-1

> <i_epik_Tot_abs_Q>
1

> <r_epik_Metal_State_Penalty>
0.460135

> <b_epik_Metal_Only>
0

> <s_lp_Force_Field>
OPLS_2005

> <r_lp_Energy>
5.98775

> <b_lp_Chiralities_Consistent>
1

> <s_lp_Variant>
AV-unprocessed.smi:2009-3

> <Gold.Version>
5.8.1

> <Gold.Id.Protein>
6NUR|6NUR_protein|mol2

> <Gold.PLP.Fitness>
38.4750

> <Gold.PLP.PLP>
-36.8089

> <Gold.PLP.part.hbond>
-1.0000

> <Gold.PLP.part.metal>
0.0000

> <Gold.PLP.part.buried>
-5.6574

> <Gold.PLP.part.nonpolar>
-30.4576

> <Gold.PLP.part.repulsive>
0.2395

> <Gold.PLP.ligand.clash>
0.0000

> <Gold.PLP.ligand.torsion>
1.4427

> <Gold.PLP.Chemscore.Hbond>
1.0000

> <Gold.PLP.Chemscore.CHOScore>
0.0000

> <Gold.PLP.Chemscore.Metal>
0.0000

> <Gold.Chemscore.Hbonds>
donor molecule, donor type, donor heavy atom, donor atom, acceptor molecule, acceptor atom, score
      P1  H  7989  7998       L1    11  1.00

> <Gold.PLP.Chemscore.Internal.Correction>
1.5517

> <Gold.Rescore>
     Score         DG    S(hbond)    S(metal)    S(lipo)     H(rot)  DE(clash)    DE(int)     intcor
     13.45     -14.87       0.98        0.00      86.52       1.57       0.09       1.32       ----

> <Gold.Chemscore.Fitness>
13.4521

> <Gold.Chemscore.DG>
-14.8663

> <Gold.Chemscore.ZeroCoef>
-5.4800

> <Gold.Chemscore.Hbond>
0.9807

> <Gold.Chemscore.Metal>
0.0000

> <Gold.Chemscore.Lipo>
86.5189

> <Gold.Chemscore.Internal_Hbond>
0.0000

> <Gold.Chemscore.DEClash>
0.0938

> <Gold.Chemscore.DEInternal>
1.3204

> <Gold.Chemscore.Rot>
1.5672

> <Gold.Chemscore.Internal.Correction>
   9.000000E+99

> <Gold.Chemscore.Hbonds>
donor molecule, donor type, donor heavy atom, donor atom, acceptor molecule, acceptor atom, score
      P1  H  7989  7998       L1    11  0.95

> <Gold.Chemscore.Hbond.Weighted>
-3.2755

> <Gold.Chemscore.Metal.Weighted>
-0.0000

> <Gold.Chemscore.Lipo.Weighted>
-10.1227

> <Gold.Chemscore.Internal_Hbond.Weighted>
0.0000

> <Gold.Chemscore.DEClash.Weighted>
0.0938

> <Gold.Chemscore.DEInternal.Weighted>
1.3204

> <Gold.Chemscore.Rot.Weighted>
4.0119

> <Gold.Chemscore.Internal.Correction.Weighted>
   9.000000E+99

> <Gold.Protein.RotatedTorsions>
[ 6907 6896 6895 6894 ] final    7.46 input  -60.11 | X-H torsion
[ 7974 7965 7964 7962 ] final   13.88 input  175.53 | X-H torsion
[ 8008 7997 7996 7995 ] final    5.69 input   59.86 | X-H torsion
[ 10167 10162 10161 10158 ] final    1.36 input  -65.29 | X-H torsion
[ 10718 10713 10712 10709 ] final  142.47 input   66.30 | X-H torsion
[ 10763 10752 10751 10750 ] final -108.94 input  -60.55 | X-H torsion
[ 11005 11000 10999 10996 ] final  125.17 input  -57.11 | X-H torsion

> <Gold.Protein.ActiveResidues>
 VAL166  LYS551  ARG553  GLY616  TRP617  ASP618  TYR619  PRO620  LYS621  CYS622 
 ASP623  PHE694  ASN695  SER759  ASP760  ASP761  ALA762  ILE779  LEU786  VAL792 
 PHE793  MET794  SER795  GLU796  ALA797  LYS798  CYS799  TRP800  GLU811  SER814 

> <Gold.Protein.RotatedAtoms>
  151.6903  135.0947  160.0232 H   0  0  0  0  0  0  0  0  0  0  0  0  # atno 6907 bound_to 6896
  152.3782  133.6506  159.6149 H   0  0  0  0  0  0  0  0  0  0  0  0  # atno 6908 bound_to 6896
  150.7726  133.9074  159.3400 H   0  0  0  0  0  0  0  0  0  0  0  0  # atno 6909 bound_to 6896
  146.2318  139.9123  142.8522 H   0  0  0  0  0  0  0  0  0  0  0  0  # atno 7974 bound_to 7965
  154.7315  140.2731  155.6452 H   0  0  0  0  0  0  0  0  0  0  0  0  # atno 8008 bound_to 7997
  156.2851  140.2715  156.1942 H   0  0  0  0  0  0  0  0  0  0  0  0  # atno 8009 bound_to 7997
  155.0375  140.0371  157.2487 H   0  0  0  0  0  0  0  0  0  0  0  0  # atno 8010 bound_to 7997
  140.6686  143.7110  150.7877 H   0  0  0  0  0  0  0  0  0  0  0  0  # atno 10167 bound_to 10162
  157.3802  131.0991  151.0746 H   0  0  0  0  0  0  0  0  0  0  0  0  # atno 10718 bound_to 10713
  154.8164  135.4619  154.0656 H   0  0  0  0  0  0  0  0  0  0  0  0  # atno 10763 bound_to 10752
  153.2045  135.6873  153.8196 H   0  0  0  0  0  0  0  0  0  0  0  0  # atno 10764 bound_to 10752
  153.7669  135.3276  155.3323 H   0  0  0  0  0  0  0  0  0  0  0  0  # atno 10765 bound_to 10752
  139.9393  134.9637  156.8518 H   0  0  0  0  0  0  0  0  0  0  0  0  # atno 11005 bound_to 11000
  145.2218  140.9938  143.4041 LP  0  0  0  0  0  0  0  0  0  0  0  0  # atno 17320 bound_to 7965
  144.9604  139.3986  143.6358 LP  0  0  0  0  0  0  0  0  0  0  0  0  # atno 17321 bound_to 7965
  140.0792  143.4985  152.2539 LP  0  0  0  0  0  0  0  0  0  0  0  0  # atno 17342 bound_to 10162
  139.5945  144.7562  151.3319 LP  0  0  0  0  0  0  0  0  0  0  0  0  # atno 17343 bound_to 10162
  157.1817  130.6312  149.5674 LP  0  0  0  0  0  0  0  0  0  0  0  0  # atno 17370 bound_to 10713
  155.9774  130.4751  150.6591 LP  0  0  0  0  0  0  0  0  0  0  0  0  # atno 17371 bound_to 10713
  140.5992  134.0188  155.7530 LP  0  0  0  0  0  0  0  0  0  0  0  0  # atno 17394 bound_to 11000
  141.1021  133.9751  157.3060 LP  0  0  0  0  0  0  0  0  0  0  0  0  # atno 17395 bound_to 11000

$$$$
