AV-unprocessed.smi:245|AV-procd|sdf|1877|dock4
  -GOLD-   2262020523D 1   1.00000     0.00000
 Structure written by MMmdl.
 54 58  0  0  0  0  0  0  0  0  1 V2000
  152.7453  137.6815  158.3779 O   0  0  0  0  0  0  0  0  0  0  0  0
  152.4806  138.8683  158.2017 C   0  0  0  0  0  0  0  0  0  0  0  0
  151.5106  139.2687  157.0754 C   0  0  0  0  0  0  0  0  0  0  0  0
  151.2207  140.7091  156.9723 N   0  0  0  0  0  0  0  0  0  0  0  0
  150.1261  140.9234  156.2028 C   0  0  0  0  0  0  0  0  0  0  0  0
  150.1561  140.6268  154.8764 N   0  0  0  0  0  0  0  0  0  0  0  0
  149.0824  140.8577  154.1154 C   0  0  0  0  0  0  0  0  0  0  0  0
  147.9052  141.3787  154.4683 N   0  0  0  0  0  0  0  0  0  0  0  0
  147.8782  141.6923  155.7959 C   0  0  0  0  0  0  0  0  0  0  0  0
  148.9375  141.4986  156.7259 C   0  0  0  0  0  0  0  0  0  0  0  0
  148.5483  141.9252  157.9886 N   0  0  0  0  0  0  0  0  0  0  0  0
  147.3237  142.3432  157.8165 C   0  0  0  0  0  0  0  0  0  0  0  0
  146.8449  142.2545  156.5269 N   0  0  0  0  0  0  0  0  0  0  0  0
  145.5357  142.6175  156.0608 C   0  0  0  0  0  0  0  0  0  0  0  0
  145.3269  143.6914  154.9879 C   0  0  0  0  0  0  0  0  0  0  0  0
  144.0609  144.1915  155.7206 C   0  0  0  0  0  0  0  0  0  0  0  0
  143.9751  145.7136  155.9125 C   0  0  0  0  0  0  0  0  0  0  0  0
  143.7505  146.3781  154.6857 O   0  0  0  0  0  0  0  0  0  0  0  0
  142.6970  143.7261  155.1632 C   0  0  0  0  0  0  0  0  0  0  0  0
  142.3375  144.3698  153.9575 O   0  0  0  0  0  0  0  0  0  0  0  0
  144.5934  143.4261  156.9537 C   0  0  0  0  0  0  0  0  0  0  0  0
  151.3874  141.5296  158.1785 C   0  0  2  0  0  0  0  0  0  0  0  0
  151.2432  143.0512  157.9257 C   0  0  0  0  0  0  0  0  0  0  0  0
  151.4453  143.8510  159.2241 C   0  0  0  0  0  0  0  0  0  0  0  0
  152.7999  143.5370  159.8786 C   0  0  0  0  0  0  0  0  0  0  0  0
  152.9777  142.0266  160.1012 C   0  0  0  0  0  0  0  0  0  0  0  0
  152.7814  141.2547  158.7850 C   0  0  1  0  0  0  0  0  0  0  0  0
  153.0032  139.8277  158.9808 N   0  0  0  0  0  0  0  0  0  0  0  0
  151.9348  138.9271  156.1304 H   0  0  0  0  0  0  0  0  0  0  0  0
  150.5850  138.7091  157.2258 H   0  0  0  0  0  0  0  0  0  0  0  0
  149.1811  140.5887  153.0741 H   0  0  0  0  0  0  0  0  0  0  0  0
  146.7345  142.7269  158.6362 H   0  0  0  0  0  0  0  0  0  0  0  0
  145.0538  141.6914  155.7451 H   0  0  0  0  0  0  0  0  0  0  0  0
  146.1199  144.4396  154.9650 H   0  0  0  0  0  0  0  0  0  0  0  0
  145.1456  143.2937  153.9888 H   0  0  0  0  0  0  0  0  0  0  0  0
  143.1804  145.9799  156.6103 H   0  0  0  0  0  0  0  0  0  0  0  0
  144.9007  146.1051  156.3358 H   0  0  0  0  0  0  0  0  0  0  0  0
  143.3744  145.7627  154.0750 H   0  0  0  0  0  0  0  0  0  0  0  0
  142.7033  142.6522  154.9749 H   0  0  0  0  0  0  0  0  0  0  0  0
  141.8976  143.9123  155.8809 H   0  0  0  0  0  0  0  0  0  0  0  0
  142.3628  143.7341  153.2585 H   0  0  0  0  0  0  0  0  0  0  0  0
  143.8499  142.8249  157.4779 H   0  0  0  0  0  0  0  0  0  0  0  0
  145.1352  144.0654  157.6525 H   0  0  0  0  0  0  0  0  0  0  0  0
  150.6270  141.2217  158.8994 H   0  0  0  0  0  0  0  0  0  0  0  0
  151.9717  143.3722  157.1796 H   0  0  0  0  0  0  0  0  0  0  0  0
  150.2624  143.2968  157.5201 H   0  0  0  0  0  0  0  0  0  0  0  0
  151.3723  144.9190  159.0174 H   0  0  0  0  0  0  0  0  0  0  0  0
  150.6410  143.6167  159.9227 H   0  0  0  0  0  0  0  0  0  0  0  0
  153.6051  143.9080  159.2431 H   0  0  0  0  0  0  0  0  0  0  0  0
  152.8870  144.0666  160.8276 H   0  0  0  0  0  0  0  0  0  0  0  0
  153.9706  141.8316  160.5083 H   0  0  0  0  0  0  0  0  0  0  0  0
  152.2616  141.6784  160.8469 H   0  0  0  0  0  0  0  0  0  0  0  0
  153.5426  141.5874  158.0767 H   0  0  0  0  0  0  0  0  0  0  0  0
  153.6236  139.5527  159.7285 H   0  0  0  0  0  0  0  0  0  0  0  0
  1  2  2  0  0  0  0
  2 28  1  0  0  0  0
  2  3  1  0  0  0  0
  3  4  1  0  0  0  0
  3 29  1  0  0  0  0
  3 30  1  0  0  0  0
  4  5  1  0  0  0  0
  4 22  1  0  0  0  0
  5 10  1  0  0  0  0
  5  6  2  0  0  0  0
  6  7  1  0  0  0  0
  7  8  2  0  0  0  0
  7 31  1  0  0  0  0
  8  9  1  0  0  0  0
  9 13  1  0  0  0  0
  9 10  2  0  0  0  0
 10 11  1  0  0  0  0
 11 12  2  0  0  0  0
 12 13  1  0  0  0  0
 12 32  1  0  0  0  0
 13 14  1  0  0  0  0
 14 21  1  0  0  0  0
 14 15  1  0  0  0  0
 14 33  1  0  0  0  0
 15 16  1  0  0  0  0
 15 34  1  0  0  0  0
 15 35  1  0  0  0  0
 16 17  1  0  0  0  0
 16 19  1  0  0  0  0
 16 21  1  0  0  0  0
 17 18  1  0  0  0  0
 17 36  1  0  0  0  0
 17 37  1  0  0  0  0
 18 38  1  0  0  0  0
 19 20  1  0  0  0  0
 19 39  1  0  0  0  0
 19 40  1  0  0  0  0
 20 41  1  0  0  0  0
 21 42  1  0  0  0  0
 21 43  1  0  0  0  0
 22 27  1  0  0  0  0
 22 23  1  0  0  0  0
 22 44  1  0  0  0  0
 23 24  1  0  0  0  0
 23 45  1  0  0  0  0
 23 46  1  0  0  0  0
 24 25  1  0  0  0  0
 24 47  1  0  0  0  0
 24 48  1  0  0  0  0
 25 26  1  0  0  0  0
 25 49  1  0  0  0  0
 25 50  1  0  0  0  0
 26 27  1  0  0  0  0
 26 51  1  0  0  0  0
 26 52  1  0  0  0  0
 27 28  1  0  0  0  0
 27 53  1  0  0  0  0
 28 54  1  0  0  0  0
M  END
> <s_m_source_file>
AV-unprocessed.smi

> <i_m_source_file_index>
245

> <i_lp_mmshare_version>
43012

> <i_f3d_flags>
0

> <s_epik_input>
W0NIMl0xW0NIMl1bQ0gyXVtDSDJdW0NASF0oW0NASF0xMilbTkhdQyg9TylbQ0gyXU4yYyhuW2NIXW4zKWMoYzM0KW5bY0hdbjRbQ0hdKFtDSDJdNSlbQ0gyXUM1KFtDSDJdW09IXSlbQ0gyXVtPSF0=

> <s_epik_cmdline>
J2VwaWtfcHl0aG9uJywgJy1waCcsICc3LjAnLCAnLXRuJywgJzgnLCAnLW1hJywgJzIwMCcsICctbWV0YWxfYmluZGluZycsICctaW1hZScsICc8aW5maWxlLm1hZT4nLCAnLW9tYWUnLCAnPG91dGZpbGUubWFlPic=

> <r_lp_tautomer_probability>
1

> <r_epik_Ionization_Penalty>
0.000702616

> <r_epik_Ionization_Penalty_Charging>
0

> <r_epik_Ionization_Penalty_Neutral>
0.000702616

> <r_epik_State_Penalty>
0.000343985

> <r_epik_Charging_Adjusted_Penalty>
0.000343985

> <i_epik_Tot_Q>
0

> <i_epik_Tot_abs_Q>
0

> <r_epik_Metal_State_Penalty>
-0

> <b_epik_Metal_Only>
0

> <s_lp_Force_Field>
OPLS_2005

> <r_lp_Energy>
50.1647

> <b_lp_Chiralities_Consistent>
1

> <s_lp_Variant>
AV-unprocessed.smi:245-2

> <Gold.Version>
5.8.1

> <Gold.Id.Protein>
6NUR|6NUR_protein|mol2

> <Gold.PLP.Fitness>
49.0547

> <Gold.PLP.PLP>
-40.7974

> <Gold.PLP.part.hbond>
-3.0000

> <Gold.PLP.part.metal>
0.0000

> <Gold.PLP.part.buried>
-6.1935

> <Gold.PLP.part.nonpolar>
-31.4664

> <Gold.PLP.part.repulsive>
0.4570

> <Gold.PLP.ligand.clash>
0.0000

> <Gold.PLP.ligand.torsion>
0.6118

> <Gold.PLP.Chemscore.Hbond>
1.8960

> <Gold.PLP.Chemscore.CHOScore>
1.0000

> <Gold.PLP.Chemscore.Metal>
0.0000

> <Gold.Chemscore.Hbonds>
donor molecule, donor type, donor heavy atom, donor atom, acceptor molecule, acceptor atom, score
      L1  H    20    41       P1 10174  1.00
      P1  H  7989  7998       L1     6  0.88
      L1  C     7    31       P1  7957  1.00

> <Gold.PLP.Chemscore.Internal.Correction>
0.7928

> <Gold.Rescore>
     Score         DG    S(hbond)    S(metal)    S(lipo)     H(rot)  DE(clash)    DE(int)     intcor
     10.52     -12.67       1.30        0.00      95.95       3.28       0.23       1.92       ----

> <Gold.Chemscore.Fitness>
10.5195

> <Gold.Chemscore.DG>
-12.6697

> <Gold.Chemscore.ZeroCoef>
-5.4800

> <Gold.Chemscore.Hbond>
1.3022

> <Gold.Chemscore.Metal>
0.0000

> <Gold.Chemscore.Lipo>
95.9507

> <Gold.Chemscore.Internal_Hbond>
0.0000

> <Gold.Chemscore.DEClash>
0.2287

> <Gold.Chemscore.DEInternal>
1.9214

> <Gold.Chemscore.Rot>
3.2758

> <Gold.Chemscore.Internal.Correction>
   9.000000E+99

> <Gold.Chemscore.Hbonds>
donor molecule, donor type, donor heavy atom, donor atom, acceptor molecule, acceptor atom, score
      L1  H    20    41       P1 10174  1.00
      P1  H  7989  7998       L1     6  0.21

> <Gold.Chemscore.Hbond.Weighted>
-4.3494

> <Gold.Chemscore.Metal.Weighted>
-0.0000

> <Gold.Chemscore.Lipo.Weighted>
-11.2262

> <Gold.Chemscore.Internal_Hbond.Weighted>
0.0000

> <Gold.Chemscore.DEClash.Weighted>
0.2287

> <Gold.Chemscore.DEInternal.Weighted>
1.9214

> <Gold.Chemscore.Rot.Weighted>
8.3859

> <Gold.Chemscore.Internal.Correction.Weighted>
   9.000000E+99

> <Gold.Protein.RotatedTorsions>
[ 6907 6896 6895 6894 ] final -132.27 input  -60.11 | X-H torsion
[ 7974 7965 7964 7962 ] final   13.57 input  175.53 | X-H torsion
[ 8008 7997 7996 7995 ] final -151.39 input   59.86 | X-H torsion
[ 10167 10162 10161 10158 ] final -156.92 input  -65.29 | X-H torsion
[ 10718 10713 10712 10709 ] final    2.19 input   66.30 | X-H torsion
[ 10763 10752 10751 10750 ] final   -1.87 input  -60.55 | X-H torsion
[ 11005 11000 10999 10996 ] final -137.39 input  -57.11 | X-H torsion

> <Gold.Protein.ActiveResidues>
 VAL166  LYS551  ARG553  GLY616  TRP617  ASP618  TYR619  PRO620  LYS621  CYS622 
 ASP623  PHE694  ASN695  SER759  ASP760  ASP761  ALA762  ILE779  LEU786  VAL792 
 PHE793  MET794  SER795  GLU796  ALA797  LYS798  CYS799  TRP800  GLU811  SER814 

> <Gold.Protein.RotatedAtoms>
  150.9605  133.6451  159.2755 H   0  0  0  0  0  0  0  0  0  0  0  0  # atno 6907 bound_to 6896
  151.3775  135.0932  159.9495 H   0  0  0  0  0  0  0  0  0  0  0  0  # atno 6908 bound_to 6896
  152.5146  133.9146  159.7559 H   0  0  0  0  0  0  0  0  0  0  0  0  # atno 6909 bound_to 6896
  146.2326  139.9169  142.8516 H   0  0  0  0  0  0  0  0  0  0  0  0  # atno 7974 bound_to 7965
  155.6386  140.0699  157.2626 H   0  0  0  0  0  0  0  0  0  0  0  0  # atno 8008 bound_to 7997
  154.4189  140.1754  156.1598 H   0  0  0  0  0  0  0  0  0  0  0  0  # atno 8009 bound_to 7997
  155.9874  140.3348  155.6723 H   0  0  0  0  0  0  0  0  0  0  0  0  # atno 8010 bound_to 7997
  139.6812  143.9578  152.2337 H   0  0  0  0  0  0  0  0  0  0  0  0  # atno 10167 bound_to 10162
  156.8594  130.5581  149.5664 H   0  0  0  0  0  0  0  0  0  0  0  0  # atno 10718 bound_to 10713
  153.3505  135.6985  153.6793 H   0  0  0  0  0  0  0  0  0  0  0  0  # atno 10763 bound_to 10752
  153.5521  135.3551  155.2764 H   0  0  0  0  0  0  0  0  0  0  0  0  # atno 10764 bound_to 10752
  154.8652  135.4229  154.2739 H   0  0  0  0  0  0  0  0  0  0  0  0  # atno 10765 bound_to 10752
  140.8715  134.2045  157.4648 H   0  0  0  0  0  0  0  0  0  0  0  0  # atno 11005 bound_to 11000
  145.2175  140.9921  143.4065 LP  0  0  0  0  0  0  0  0  0  0  0  0  # atno 17320 bound_to 7965
  144.9638  139.3951  143.6342 LP  0  0  0  0  0  0  0  0  0  0  0  0  # atno 17321 bound_to 7965
  139.9369  144.6706  150.8306 LP  0  0  0  0  0  0  0  0  0  0  0  0  # atno 17342 bound_to 10162
  140.7653  143.3271  151.2492 LP  0  0  0  0  0  0  0  0  0  0  0  0  # atno 17343 bound_to 10162
  156.0785  130.5801  150.9519 LP  0  0  0  0  0  0  0  0  0  0  0  0  # atno 17370 bound_to 10713
  157.6259  131.0925  150.8535 LP  0  0  0  0  0  0  0  0  0  0  0  0  # atno 17371 bound_to 10713
  139.8712  134.9776  156.4966 LP  0  0  0  0  0  0  0  0  0  0  0  0  # atno 17394 bound_to 11000
  140.8568  133.8090  155.9224 LP  0  0  0  0  0  0  0  0  0  0  0  0  # atno 17395 bound_to 11000

$$$$
