#       Name:                AV-unprocessed.smi:2775
#       Creating user name   scv26
#       Creation time:       Fri Mar 27 15:14:07 2020


#       File generated by GOLD software.
#

@<TRIPOS>MOLECULE
AV-unprocessed.smi:2775
    47    50     1
SMALL
NO_CHARGES


@<TRIPOS>ATOM
      1 ****        -5.3511   1.8320   0.1913 C.3            1 S1                 0.0000
      2 ****        -4.5410   0.7309  -0.4654 C.ar           1 S1                 0.0000
      3 ****        -5.2162  -0.2816  -1.0520 N.pl3          1 S1                 1.0000
      4 ****        -4.6037  -1.3179  -1.6605 C.ar           1 S1                 0.0000
      5 ****        -3.1972  -1.3751  -1.7070 C.ar           1 S1                 0.0000
      6 ****        -2.4368  -0.3330  -1.1165 C.ar           1 S1                 0.0000
      7 ****        -1.0138  -0.2998  -1.0984 N.am           1 S1                 0.0000
      8 ****        -0.1174  -1.0693  -1.7451 C.2            1 S1                 0.0000
      9 ****        -0.3962  -1.9488  -2.5561 O.2            1 S1                 0.0000
     10 ****         1.1600  -0.7817  -1.4419 N.am           1 S1                 0.0000
     11 ****         2.3654  -1.4248  -1.9650 C.3            1 S1                 0.0000
     12 ****         3.6448  -0.8132  -1.3903 C.3            1 S1                 0.0000
     13 ****         4.6835  -1.2894  -0.4405 C.3            1 S1                 0.0000
     14 ****         5.9254  -0.8029  -1.2302 C.3            1 S1                 0.0000
     15 ****         5.4292  -0.3767  -2.5225 O.3            1 S1                 0.0000
     16 ****         4.2715  -1.1629  -2.7307 C.3            1 S1                 0.0000
     17 ****         2.8913  -0.8138  -3.3069 C.3            1 S1                 0.0000
     18 ****         2.5650   0.6054  -3.8083 C.3            1 S1                 0.0000
     19 ****         2.6980   0.0681  -5.2371 C.3            1 S1                 0.0000
     20 ****         2.4667  -1.3421  -4.6830 C.3            1 S1                 0.0000
     21 ****        -3.1263   0.7293  -0.4800 C.ar           1 S1                 0.0000
     22 ****        -2.2496   2.0181   0.2765 Cl             1 S1                 0.0000
     23 ****        -5.1340   2.7934  -0.2755 H              1 S1                 0.0000
     24 ****        -5.1078   1.9010   1.2520 H              1 S1                 0.0000
     25 ****        -6.4222   1.6461   0.1018 H              1 S1                 0.0000
     26 ****        -5.2532  -2.0693  -2.0857 H              1 S1                 0.0000
     27 ****        -2.7394  -2.2245  -2.1883 H              1 S1                 0.0000
     28 ****        -0.6161   0.4184  -0.5103 H              1 S1                 0.0000
     29 ****         1.3120  -0.0295  -0.7851 H              1 S1                 0.0000
     30 ****         2.3586  -2.5179  -1.9366 H              1 S1                 0.0000
     31 ****         3.5111   0.2685  -1.2703 H              1 S1                 0.0000
     32 ****         4.6035  -0.8266   0.5435 H              1 S1                 0.0000
     33 ****         4.6686  -2.3744  -0.3294 H              1 S1                 0.0000
     34 ****         6.4237   0.0313  -0.7355 H              1 S1                 0.0000
     35 ****         6.6503  -1.6094  -1.3480 H              1 S1                 0.0000
     36 ****         4.5169  -2.2244  -2.8411 H              1 S1                 0.0000
     37 ****         1.5477   0.9244  -3.5783 H              1 S1                 0.0000
     38 ****         3.2973   1.3682  -3.5425 H              1 S1                 0.0000
     39 ****         1.9315   0.4181  -5.9292 H              1 S1                 0.0000
     40 ****         3.7018   0.2010  -5.6436 H              1 S1                 0.0000
     41 ****         3.1203  -2.1080  -5.1010 H              1 S1                 0.0000
     42 ****         1.4189  -1.6390  -4.7275 H              1 S1                 0.0000
     43 ****        -6.2362  -0.2640  -1.0302 H              1 S1                 0.0000
     44 ****        -1.3524  -2.1378  -2.7798 LP             1 S1                 0.0000
     45 ****         0.3330  -2.4758  -2.9926 LP             1 S1                 0.0000
     46 ****         6.1075  -0.5494  -3.2367 LP             1 S1                 0.0000
     47 ****         5.1988   0.5963  -2.5099 LP             1 S1                 0.0000
@<TRIPOS>BOND
    1    1    2 1     
    2    1   23 1     
    3    1   24 1     
    4    1   25 1     
    5    2   21 ar    
    6    2    3 ar    
    7    3    4 ar    
    8    3   43 1     
    9    4    5 ar    
   10    4   26 1     
   11    5    6 ar    
   12    5   27 1     
   13    6    7 1     
   14    6   21 ar    
   15    7    8 am    
   16    7   28 1     
   17    8    9 2     
   18    8   10 am    
   19   10   11 1     
   20   10   29 1     
   21   11   17 1     
   22   11   12 1     
   23   11   30 1     
   24   12   16 1     
   25   12   13 1     
   26   12   31 1     
   27   13   14 1     
   28   13   32 1     
   29   13   33 1     
   30   14   15 1     
   31   14   34 1     
   32   14   35 1     
   33   15   16 1     
   34   16   17 1     
   35   16   36 1     
   36   17   20 1     
   37   17   18 1     
   38   18   19 1     
   39   18   37 1     
   40   18   38 1     
   41   19   20 1     
   42   19   39 1     
   43   19   40 1     
   44   20   41 1     
   45   20   42 1     
   46   21   22 1     
   47    9   44 1     
   48    9   45 1     
   49   15   46 1     
   50   15   47 1     
@<TRIPOS>SUBSTRUCTURE
      1 S1             1
@<TRIPOS>SET
LONE_PAIRS      STATIC     ATOMS    <user>   **** ""
4 44 45 46 47
DONOR_HYDROGENS      STATIC     ATOMS    <user>   **** ""
3 43 28 29
ATOM$BLUE        STATIC     ATOMS    COLORGROUP SYSTEM
4 44 45 46 47
ATOM$RED        STATIC     ATOMS    COLORGROUP SYSTEM
3 43 28 29
