#       Name:                AV-unprocessed.smi:1764
#       Creating user name   scv26
#       Creation time:       Fri Mar 27 08:36:57 2020


#       File generated by GOLD software.
#

@<TRIPOS>MOLECULE
AV-unprocessed.smi:1764
    36    37     1
SMALL
NO_CHARGES


@<TRIPOS>ATOM
      1 ****         0.0959   1.2671   0.8152 O.2            1 S1                 0.0000
      2 ****        -0.3637   0.1289   0.9131 C.2            1 S1                 0.0000
      3 ****         0.3970  -0.9742   0.9677 N.am           1 S1                 0.0000
      4 ****         1.8544  -0.9926   0.9055 C.3            1 S1                 0.0000
      5 ****         2.3551  -1.1327  -0.5415 C.3            1 S1                 0.0000
      6 ****         3.8732  -1.2632  -0.6581 C.3            1 S1                 0.0000
      7 ****         4.1788  -0.7233  -2.0475 C.3            1 S1                 0.0000
      8 ****         2.8809  -0.0332  -2.4755 C.3            1 S1                 0.0000
      9 ****         2.0989   0.0431  -1.2929 O.3            1 S1                 0.0000
     10 ****        -1.6712  -0.1788   0.9785 N.am           1 S1                 0.0000
     11 ****        -2.7834   0.7051   0.9678 C.ar           1 S1                 0.0000
     12 ****        -4.0476   0.0773   1.0409 C.ar           1 S1                 0.0000
     13 ****        -5.2145   0.8659   1.0392 C.ar           1 S1                 0.0000
     14 ****        -5.0873   2.2644   0.9651 C.ar           1 S1                 0.0000
     15 ****        -3.7919   2.8095   0.8955 C.ar           1 S1                 0.0000
     16 ****        -2.6724   2.0553   0.8968 N.ar           1 S1                 0.0000
     17 ****        -0.0647  -1.8680   1.0504 H              1 S1                 0.0000
     18 ****         2.2772  -0.1042   1.3781 H              1 S1                 0.0000
     19 ****         2.1969  -1.8452   1.4922 H              1 S1                 0.0000
     20 ****         1.8736  -1.9811  -1.0318 H              1 S1                 0.0000
     21 ****         4.3647  -0.6385   0.0893 H              1 S1                 0.0000
     22 ****         4.2168  -2.2882  -0.5160 H              1 S1                 0.0000
     23 ****         5.0127  -0.0213  -2.0135 H              1 S1                 0.0000
     24 ****         4.4398  -1.5217  -2.7431 H              1 S1                 0.0000
     25 ****         3.0514   0.9566  -2.8996 H              1 S1                 0.0000
     26 ****         2.3523  -0.6355  -3.2158 H              1 S1                 0.0000
     27 ****        -1.8974  -1.1597   1.0487 H              1 S1                 0.0000
     28 ****        -4.1274  -0.9987   1.0980 H              1 S1                 0.0000
     29 ****        -6.1897   0.4051   1.0941 H              1 S1                 0.0000
     30 ****        -5.9585   2.9026   0.9618 H              1 S1                 0.0000
     31 ****        -3.6500   3.8786   0.8378 H              1 S1                 0.0000
     32 ****         1.0854   1.4048   0.7722 LP             1 S1                 0.0000
     33 ****        -0.5204   2.0538   0.7787 LP             1 S1                 0.0000
     34 ****         2.3574   0.8509  -0.7632 LP             1 S1                 0.0000
     35 ****         1.1281   0.0948  -1.5273 LP             1 S1                 0.0000
     36 ****        -1.7717   2.4868   0.8460 LP             1 S1                 0.0000
@<TRIPOS>BOND
    1    1    2 2     
    2    2    3 am    
    3    2   10 am    
    4    3    4 1     
    5    3   17 1     
    6    4    5 1     
    7    4   18 1     
    8    4   19 1     
    9    5    9 1     
   10    5    6 1     
   11    5   20 1     
   12    6    7 1     
   13    6   21 1     
   14    6   22 1     
   15    7    8 1     
   16    7   23 1     
   17    7   24 1     
   18    8    9 1     
   19    8   25 1     
   20    8   26 1     
   21   10   11 1     
   22   10   27 1     
   23   11   16 ar    
   24   11   12 ar    
   25   12   13 ar    
   26   12   28 1     
   27   13   14 ar    
   28   13   29 1     
   29   14   15 ar    
   30   14   30 1     
   31   15   16 ar    
   32   15   31 1     
   33    1   32 1     
   34    1   33 1     
   35    9   34 1     
   36    9   35 1     
   37   16   36 1     
@<TRIPOS>SUBSTRUCTURE
      1 S1             1
@<TRIPOS>SET
LONE_PAIRS      STATIC     ATOMS    <user>   **** ""
5 32 33 34 35 36
DONOR_HYDROGENS      STATIC     ATOMS    <user>   **** ""
2 17 27
ATOM$BLUE        STATIC     ATOMS    COLORGROUP SYSTEM
5 32 33 34 35 36
ATOM$RED        STATIC     ATOMS    COLORGROUP SYSTEM
2 17 27
