AV-unprocessed.smi:1196|AV-procd|sdf|4999|dock7
  -GOLD-   22720 4 03D 1   1.00000     0.00000
 Structure written by MMmdl.
 37 38  0  0  0  0  0  0  0  0  1 V2000
  151.9630  139.5303  157.5784 C   0  0  0  0  0  0  0  0  0  0  0  0
  150.6213  140.2785  157.6045 C   0  0  1  0  0  0  0  0  0  0  0  0
  150.8009  141.7729  157.2742 C   0  0  0  0  0  0  0  0  0  0  0  0
  151.4634  142.4971  158.3450 N   0  0  0  0  0  0  0  0  0  0  0  0
  152.0429  143.7475  158.3005 C   0  0  0  0  0  0  0  0  0  0  0  0
  152.5507  144.0042  159.5417 C   0  0  0  0  0  0  0  0  0  0  0  0
  152.2293  142.8353  160.2868 C   0  0  0  0  0  0  0  0  0  0  0  0
  151.5770  141.9356  159.5685 N   0  0  0  0  0  0  0  0  0  0  0  0
  149.6894  139.6664  156.6597 N   0  0  0  0  0  0  0  0  0  0  0  0
  149.8811  139.5491  155.3373 C   0  0  0  0  0  0  0  0  0  0  0  0
  150.8698  139.9964  154.7552 O   0  0  0  0  0  0  0  0  0  0  0  0
  148.7813  138.8128  154.5665 C   0  0  0  0  0  0  0  0  0  0  0  0
  147.3826  139.4332  154.7518 C   0  0  0  0  0  0  0  0  0  0  0  0
  147.0829  140.5522  153.7356 C   0  0  1  0  0  0  0  0  0  0  0  0
  145.7988  141.1918  153.9665 N   0  0  0  0  0  0  0  0  0  0  0  0
  145.9157  142.5053  154.2029 C   0  0  0  0  0  0  0  0  0  0  0  0
  144.9914  143.2838  154.4242 O   0  0  0  0  0  0  0  0  0  0  0  0
  147.2151  142.8192  154.1561 N   0  0  0  0  0  0  0  0  0  0  0  0
  147.9850  141.7620  153.9042 C   0  0  0  0  0  0  0  0  0  0  0  0
  149.2114  141.7427  153.8191 O   0  0  0  0  0  0  0  0  0  0  0  0
  152.6647  139.9613  158.2931 H   0  0  0  0  0  0  0  0  0  0  0  0
  152.4242  139.5753  156.5912 H   0  0  0  0  0  0  0  0  0  0  0  0
  151.8349  138.4793  157.8398 H   0  0  0  0  0  0  0  0  0  0  0  0
  150.2114  140.2044  158.6136 H   0  0  0  0  0  0  0  0  0  0  0  0
  151.4031  141.8870  156.3722 H   0  0  0  0  0  0  0  0  0  0  0  0
  149.8377  142.2420  157.0653 H   0  0  0  0  0  0  0  0  0  0  0  0
  152.0481  144.3421  157.3988 H   0  0  0  0  0  0  0  0  0  0  0  0
  153.0739  144.8912  159.8670 H   0  0  0  0  0  0  0  0  0  0  0  0
  152.4489  142.6150  161.3210 H   0  0  0  0  0  0  0  0  0  0  0  0
  148.8481  139.2678  157.0507 H   0  0  0  0  0  0  0  0  0  0  0  0
  149.0381  138.8133  153.5059 H   0  0  0  0  0  0  0  0  0  0  0  0
  148.7781  137.7711  154.8887 H   0  0  0  0  0  0  0  0  0  0  0  0
  146.6225  138.6532  154.6762 H   0  0  0  0  0  0  0  0  0  0  0  0
  147.3010  139.8412  155.7609 H   0  0  0  0  0  0  0  0  0  0  0  0
  147.1384  140.1847  152.7102 H   0  0  0  0  0  0  0  0  0  0  0  0
  144.9227  140.6901  153.9443 H   0  0  0  0  0  0  0  0  0  0  0  0
  147.5727  143.7513  154.3054 H   0  0  0  0  0  0  0  0  0  0  0  0
  1  2  1  0  0  0  0
  1 21  1  0  0  0  0
  1 22  1  0  0  0  0
  1 23  1  0  0  0  0
  2  3  1  0  0  0  0
  2  9  1  0  0  0  0
  2 24  1  0  0  0  0
  3  4  1  0  0  0  0
  3 25  1  0  0  0  0
  3 26  1  0  0  0  0
  4  8  1  0  0  0  0
  4  5  1  0  0  0  0
  5  6  2  0  0  0  0
  5 27  1  0  0  0  0
  6  7  1  0  0  0  0
  6 28  1  0  0  0  0
  7  8  2  0  0  0  0
  7 29  1  0  0  0  0
  9 10  1  0  0  0  0
  9 30  1  0  0  0  0
 10 11  2  0  0  0  0
 10 12  1  0  0  0  0
 12 13  1  0  0  0  0
 12 31  1  0  0  0  0
 12 32  1  0  0  0  0
 13 14  1  0  0  0  0
 13 33  1  0  0  0  0
 13 34  1  0  0  0  0
 14 19  1  0  0  0  0
 14 15  1  0  0  0  0
 14 35  1  0  0  0  0
 15 16  1  0  0  0  0
 15 36  1  0  0  0  0
 16 17  2  0  0  0  0
 16 18  1  0  0  0  0
 18 19  1  0  0  0  0
 18 37  1  0  0  0  0
 19 20  2  0  0  0  0
M  END
> <s_m_source_file>
AV-unprocessed.smi

> <i_m_source_file_index>
1196

> <i_lp_mmshare_version>
43012

> <i_f3d_flags>
0

> <s_epik_input>
bjFbY0hdW2NIXVtjSF1uMVtDSDJdW0NAQEhdKFtDSDNdKVtOSF1DKD1PKVtDSDJdW0NIMl1bQ0BASF0yW05IXUMoPU8pW05IXUMyPU8=

> <s_epik_cmdline>
J2VwaWtfcHl0aG9uJywgJy1waCcsICc3LjAnLCAnLXRuJywgJzgnLCAnLW1hJywgJzIwMCcsICctbWV0YWxfYmluZGluZycsICctaW1hZScsICc8aW5maWxlLm1hZT4nLCAnLW9tYWUnLCAnPG91dGZpbGUubWFlPic=

> <r_lp_tautomer_probability>
1

> <r_epik_Ionization_Penalty>
0.00815973

> <r_epik_Ionization_Penalty_Charging>
0

> <r_epik_Ionization_Penalty_Neutral>
0.00815973

> <r_epik_State_Penalty>
0.00583796

> <r_epik_Charging_Adjusted_Penalty>
0.00583796

> <i_epik_Tot_Q>
0

> <i_epik_Tot_abs_Q>
0

> <r_epik_Metal_State_Penalty>
0.409204

> <b_epik_Metal_Only>
0

> <s_lp_Force_Field>
OPLS_2005

> <r_lp_Energy>
17.2443

> <b_lp_Chiralities_Consistent>
1

> <s_lp_Variant>
AV-unprocessed.smi:1196-4

> <Gold.Version>
5.8.1

> <Gold.Id.Protein>
6NUR|6NUR_protein|mol2

> <Gold.PLP.Fitness>
44.7362

> <Gold.PLP.PLP>
-36.7289

> <Gold.PLP.part.hbond>
-4.9397

> <Gold.PLP.part.metal>
0.0000

> <Gold.PLP.part.buried>
-5.0087

> <Gold.PLP.part.nonpolar>
-26.5723

> <Gold.PLP.part.repulsive>
0.6850

> <Gold.PLP.ligand.clash>
0.0000

> <Gold.PLP.ligand.torsion>
0.4556

> <Gold.PLP.Chemscore.Hbond>
2.9520

> <Gold.PLP.Chemscore.CHOScore>
0.0000

> <Gold.PLP.Chemscore.Metal>
0.0000

> <Gold.Chemscore.Hbonds>
donor molecule, donor type, donor heavy atom, donor atom, acceptor molecule, acceptor atom, score
      L1  H    15    36       P1 10175  0.58
      L1  H    18    37       P1  8028  0.67
      P1  H  7989  7998       L1    11  1.00
      P1  H  8011  8017       L1    20  0.61

> <Gold.PLP.Chemscore.Internal.Correction>
0.0626

> <Gold.Rescore>
     Score         DG    S(hbond)    S(metal)    S(lipo)     H(rot)  DE(clash)    DE(int)     intcor
      8.50     -12.90       2.20        0.00      65.31       2.96       0.06       4.34       ----

> <Gold.Chemscore.Fitness>
8.5004

> <Gold.Chemscore.DG>
-12.8973

> <Gold.Chemscore.ZeroCoef>
-5.4800

> <Gold.Chemscore.Hbond>
2.1998

> <Gold.Chemscore.Metal>
0.0000

> <Gold.Chemscore.Lipo>
65.3111

> <Gold.Chemscore.Internal_Hbond>
0.0000

> <Gold.Chemscore.DEClash>
0.0580

> <Gold.Chemscore.DEInternal>
4.3389

> <Gold.Chemscore.Rot>
2.9575

> <Gold.Chemscore.Internal.Correction>
   9.000000E+99

> <Gold.Chemscore.Hbonds>
donor molecule, donor type, donor heavy atom, donor atom, acceptor molecule, acceptor atom, score
      L1  H    15    36       P1 10175  0.57
      L1  H    18    37       P1  8028  0.12
      P1  H  7989  7998       L1    11  1.00
      P1  H  8011  8017       L1    20  0.51

> <Gold.Chemscore.Hbond.Weighted>
-7.3473

> <Gold.Chemscore.Metal.Weighted>
-0.0000

> <Gold.Chemscore.Lipo.Weighted>
-7.6414

> <Gold.Chemscore.Internal_Hbond.Weighted>
0.0000

> <Gold.Chemscore.DEClash.Weighted>
0.0580

> <Gold.Chemscore.DEInternal.Weighted>
4.3389

> <Gold.Chemscore.Rot.Weighted>
7.5713

> <Gold.Chemscore.Internal.Correction.Weighted>
   9.000000E+99

> <Gold.Protein.RotatedTorsions>
[ 6907 6896 6895 6894 ] final  -21.09 input  -60.11 | X-H torsion
[ 7974 7965 7964 7962 ] final  107.01 input  175.53 | X-H torsion
[ 8008 7997 7996 7995 ] final   12.45 input   59.86 | X-H torsion
[ 10167 10162 10161 10158 ] final   16.42 input  -65.29 | X-H torsion
[ 10718 10713 10712 10709 ] final   48.36 input   66.30 | X-H torsion
[ 10763 10752 10751 10750 ] final   68.75 input  -60.55 | X-H torsion
[ 11005 11000 10999 10996 ] final  -94.74 input  -57.11 | X-H torsion

> <Gold.Protein.ActiveResidues>
 VAL166  LYS551  ARG553  GLY616  TRP617  ASP618  TYR619  PRO620  LYS621  CYS622 
 ASP623  PHE694  ASN695  SER759  ASP760  ASP761  ALA762  ILE779  LEU786  VAL792 
 PHE793  MET794  SER795  GLU796  ALA797  LYS798  CYS799  TRP800  GLU811  SER814 

> <Gold.Protein.RotatedAtoms>
  151.2385  135.0580  159.9015 H   0  0  0  0  0  0  0  0  0  0  0  0  # atno 6907 bound_to 6896
  152.5396  134.0460  159.8099 H   0  0  0  0  0  0  0  0  0  0  0  0  # atno 6908 bound_to 6896
  151.0650  133.5464  159.2663 H   0  0  0  0  0  0  0  0  0  0  0  0  # atno 6909 bound_to 6896
  145.2992  139.2575  143.3823 H   0  0  0  0  0  0  0  0  0  0  0  0  # atno 7974 bound_to 7965
  154.8208  140.2883  155.5788 H   0  0  0  0  0  0  0  0  0  0  0  0  # atno 8008 bound_to 7997
  156.2997  140.2550  156.3046 H   0  0  0  0  0  0  0  0  0  0  0  0  # atno 8009 bound_to 7997
  154.9340  140.0383  157.2052 H   0  0  0  0  0  0  0  0  0  0  0  0  # atno 8010 bound_to 7997
  140.5798  143.9002  150.6780 H   0  0  0  0  0  0  0  0  0  0  0  0  # atno 10167 bound_to 10162
  157.4679  130.8237  149.7955 H   0  0  0  0  0  0  0  0  0  0  0  0  # atno 10718 bound_to 10713
  153.0251  135.5236  154.7182 H   0  0  0  0  0  0  0  0  0  0  0  0  # atno 10763 bound_to 10752
  154.6245  135.2893  155.0290 H   0  0  0  0  0  0  0  0  0  0  0  0  # atno 10764 bound_to 10752
  154.1265  135.6599  153.4966 H   0  0  0  0  0  0  0  0  0  0  0  0  # atno 10765 bound_to 10752
  141.1462  133.7977  157.0339 H   0  0  0  0  0  0  0  0  0  0  0  0  # atno 11005 bound_to 11000
  146.3158  140.3501  142.8655 LP  0  0  0  0  0  0  0  0  0  0  0  0  # atno 17320 bound_to 7965
  144.9108  140.7755  143.5809 LP  0  0  0  0  0  0  0  0  0  0  0  0  # atno 17321 bound_to 7965
  140.2498  143.3601  152.1415 LP  0  0  0  0  0  0  0  0  0  0  0  0  # atno 17342 bound_to 10162
  139.5163  144.6976  151.5586 LP  0  0  0  0  0  0  0  0  0  0  0  0  # atno 17343 bound_to 10162
  156.0059  130.3856  150.2434 LP  0  0  0  0  0  0  0  0  0  0  0  0  # atno 17370 bound_to 10713
  157.0615  131.0091  151.3221 LP  0  0  0  0  0  0  0  0  0  0  0  0  # atno 17371 bound_to 10713
  140.0736  134.9688  157.1508 LP  0  0  0  0  0  0  0  0  0  0  0  0  # atno 17394 bound_to 11000
  140.3676  134.2426  155.7181 LP  0  0  0  0  0  0  0  0  0  0  0  0  # atno 17395 bound_to 11000

$$$$
