AV-unprocessed.smi:100|AV-procd|sdf|901|dock1
  -GOLD-   2262017393D 1   1.00000     0.00000
 Structure written by MMmdl.
 31 33  0  0  0  0  0  0  0  0  1 V2000
  152.9399  138.5456  158.7530 N   0  0  0  0  0  0  0  0  0  0  0  0
  152.3894  139.0492  157.6398 C   0  0  0  0  0  0  0  0  0  0  0  0
  152.9905  138.7958  156.4537 N   0  0  0  0  0  0  0  0  0  0  0  0
  152.4612  139.2882  155.3288 C   0  0  0  0  0  0  0  0  0  0  0  0
  151.3651  140.0373  155.1785 N   0  0  0  0  0  0  0  0  0  0  0  0
  150.7608  140.2918  156.3767 C   0  0  0  0  0  0  0  0  0  0  0  0
  151.2088  139.8347  157.6467 C   0  0  0  0  0  0  0  0  0  0  0  0
  150.3500  140.2840  158.6398 N   0  0  0  0  0  0  0  0  0  0  0  0
  149.4494  140.9709  157.9893 C   0  0  0  0  0  0  0  0  0  0  0  0
  149.6175  141.0241  156.6203 N   0  0  0  0  0  0  0  0  0  0  0  0
  148.7846  141.7233  155.5895 C   0  0  2  0  0  0  0  0  0  0  0  0
  147.5373  141.9952  156.1615 O   0  0  0  0  0  0  0  0  0  0  0  0
  146.5497  141.1242  155.6152 C   0  0  1  0  0  0  0  0  0  0  0  0
  145.1442  141.7314  155.7481 C   0  0  0  0  0  0  0  0  0  0  0  0
  144.1902  140.8728  155.1607 O   0  0  0  0  0  0  0  0  0  0  0  0
  147.0364  140.9655  154.1757 C   0  0  1  0  0  0  0  0  0  0  0  0
  146.7651  142.0867  153.5001 F   0  0  0  0  0  0  0  0  0  0  0  0
  148.5352  140.8062  154.3800 C   0  0  1  0  0  0  0  0  0  0  0  0
  149.2444  141.1852  153.2174 O   0  0  0  0  0  0  0  0  0  0  0  0
  152.5095  138.7220  159.6495 H   0  0  0  0  0  0  0  0  0  0  0  0
  153.7848  137.9959  158.6939 H   0  0  0  0  0  0  0  0  0  0  0  0
  152.9910  139.0474  154.4189 H   0  0  0  0  0  0  0  0  0  0  0  0
  148.6336  141.4563  158.5022 H   0  0  0  0  0  0  0  0  0  0  0  0
  149.2978  142.6561  155.3535 H   0  0  0  0  0  0  0  0  0  0  0  0
  146.5888  140.1519  156.1072 H   0  0  0  0  0  0  0  0  0  0  0  0
  144.8899  141.9239  156.7908 H   0  0  0  0  0  0  0  0  0  0  0  0
  145.0957  142.6840  155.2198 H   0  0  0  0  0  0  0  0  0  0  0  0
  144.2137  140.9927  154.2237 H   0  0  0  0  0  0  0  0  0  0  0  0
  146.5758  140.1305  153.6470 H   0  0  0  0  0  0  0  0  0  0  0  0
  148.7676  139.7715  154.6373 H   0  0  0  0  0  0  0  0  0  0  0  0
  149.1288  140.5120  152.5641 H   0  0  0  0  0  0  0  0  0  0  0  0
  1  2  1  0  0  0  0
  1 20  1  0  0  0  0
  1 21  1  0  0  0  0
  2  7  1  0  0  0  0
  2  3  2  0  0  0  0
  3  4  1  0  0  0  0
  4  5  2  0  0  0  0
  4 22  1  0  0  0  0
  5  6  1  0  0  0  0
  6 10  1  0  0  0  0
  6  7  2  0  0  0  0
  7  8  1  0  0  0  0
  8  9  2  0  0  0  0
  9 10  1  0  0  0  0
  9 23  1  0  0  0  0
 10 11  1  0  0  0  0
 11 18  1  0  0  0  0
 11 12  1  0  0  0  0
 11 24  1  0  0  0  0
 12 13  1  0  0  0  0
 13 14  1  0  0  0  0
 13 16  1  0  0  0  0
 13 25  1  0  0  0  0
 14 15  1  0  0  0  0
 14 26  1  0  0  0  0
 14 27  1  0  0  0  0
 15 28  1  0  0  0  0
 16 17  1  0  0  0  0
 16 18  1  0  0  0  0
 16 29  1  0  0  0  0
 18 19  1  0  0  0  0
 18 30  1  0  0  0  0
 19 31  1  0  0  0  0
M  END
> <s_m_source_file>
AV-unprocessed.smi

> <i_m_source_file_index>
100

> <i_lp_mmshare_version>
43012

> <i_f3d_flags>
0

> <s_epik_input>
bjFbY0hdbmMoW05IMl0pYyhjMTIpbltjSF1uMltDQEBIXTNPW0NAQEhdKFtDSDJdW09IXSlbQ0BIXShGKVtDQEhdM1tPSF0=

> <s_epik_cmdline>
J2VwaWtfcHl0aG9uJywgJy1waCcsICc3LjAnLCAnLXRuJywgJzgnLCAnLW1hJywgJzIwMCcsICctbWV0YWxfYmluZGluZycsICctaW1hZScsICc8aW5maWxlLm1hZT4nLCAnLW9tYWUnLCAnPG91dGZpbGUubWFlPic=

> <r_lp_tautomer_probability>
1

> <r_epik_Ionization_Penalty>
0.000750324

> <r_epik_Ionization_Penalty_Charging>
0

> <r_epik_Ionization_Penalty_Neutral>
0.000750324

> <r_epik_State_Penalty>
-0

> <r_epik_Charging_Adjusted_Penalty>
0

> <i_epik_Tot_Q>
0

> <i_epik_Tot_abs_Q>
0

> <r_epik_Metal_State_Penalty>
-0

> <b_epik_Metal_Only>
0

> <s_epik_Chemistry_Notes>
This compound contains an acetal/aminal-like group ( X-CH(R)-Y where X, Y are N, S, or O) that may be acid/base labile, releasing an aldehyde.

> <s_lp_Force_Field>
OPLS_2005

> <r_lp_Energy>
31.3803

> <b_lp_Chiralities_Consistent>
1

> <s_lp_Variant>
AV-unprocessed.smi:100-5

> <Gold.Version>
5.8.1

> <Gold.Id.Protein>
6NUR|6NUR_protein|mol2

> <Gold.PLP.Fitness>
39.1950

> <Gold.PLP.PLP>
-25.9900

> <Gold.PLP.part.hbond>
-5.5346

> <Gold.PLP.part.metal>
0.0000

> <Gold.PLP.part.buried>
-3.0911

> <Gold.PLP.part.nonpolar>
-17.4853

> <Gold.PLP.part.repulsive>
0.4077

> <Gold.PLP.ligand.clash>
0.0000

> <Gold.PLP.ligand.torsion>
0.4274

> <Gold.PLP.Chemscore.Hbond>
4.6800

> <Gold.PLP.Chemscore.CHOScore>
0.0000

> <Gold.PLP.Chemscore.Metal>
0.0000

> <Gold.Chemscore.Hbonds>
donor molecule, donor type, donor heavy atom, donor atom, acceptor molecule, acceptor atom, score
      L1  H    15    28       P1 10175  1.00
      L1  H    19    31       P1  7957  0.85
      P1  H  7989  7998       L1     5  1.00
      P1  H  7997  8008       L1     3  0.72
      P1  H  8011  8017       L1    19  1.00

> <Gold.PLP.Chemscore.Internal.Correction>
0.0199

> <Gold.Rescore>
     Score         DG    S(hbond)    S(metal)    S(lipo)     H(rot)  DE(clash)    DE(int)     intcor
      8.69      -9.88       3.03        0.00      20.74       3.19       0.09       1.09       ----

> <Gold.Chemscore.Fitness>
8.6940

> <Gold.Chemscore.DG>
-9.8758

> <Gold.Chemscore.ZeroCoef>
-5.4800

> <Gold.Chemscore.Hbond>
3.0346

> <Gold.Chemscore.Metal>
0.0000

> <Gold.Chemscore.Lipo>
20.7438

> <Gold.Chemscore.Internal_Hbond>
0.0000

> <Gold.Chemscore.DEClash>
0.0874

> <Gold.Chemscore.DEInternal>
1.0944

> <Gold.Chemscore.Rot>
3.1901

> <Gold.Chemscore.Internal.Correction>
   9.000000E+99

> <Gold.Chemscore.Hbonds>
donor molecule, donor type, donor heavy atom, donor atom, acceptor molecule, acceptor atom, score
      L1  H    15    28       P1 10175  0.84
      L1  H    19    31       P1  7957  0.81
      P1  H  7989  7998       L1     5  0.39
      P1  H  7997  8008       L1     3  0.02
      P1  H  8011  8017       L1    19  0.29

> <Gold.Chemscore.Hbond.Weighted>
-10.1354

> <Gold.Chemscore.Metal.Weighted>
-0.0000

> <Gold.Chemscore.Lipo.Weighted>
-2.4270

> <Gold.Chemscore.Internal_Hbond.Weighted>
0.0000

> <Gold.Chemscore.DEClash.Weighted>
0.0874

> <Gold.Chemscore.DEInternal.Weighted>
1.0944

> <Gold.Chemscore.Rot.Weighted>
8.1667

> <Gold.Chemscore.Internal.Correction.Weighted>
   9.000000E+99

> <Gold.Protein.RotatedTorsions>
[ 6907 6896 6895 6894 ] final   83.12 input  -60.11 | X-H torsion
[ 7974 7965 7964 7962 ] final  169.42 input  175.53 | X-H torsion
[ 8008 7997 7996 7995 ] final  -57.78 input   59.86 | X-H torsion
[ 10167 10162 10161 10158 ] final -104.95 input  -65.29 | X-H torsion
[ 10718 10713 10712 10709 ] final  -24.18 input   66.30 | X-H torsion
[ 10763 10752 10751 10750 ] final   34.13 input  -60.55 | X-H torsion
[ 11005 11000 10999 10996 ] final -130.66 input  -57.11 | X-H torsion

> <Gold.Protein.ActiveResidues>
 VAL166  LYS551  ARG553  GLY616  TRP617  ASP618  TYR619  PRO620  LYS621  CYS622 
 ASP623  PHE694  ASN695  SER759  ASP760  ASP761  ALA762  ILE779  LEU786  VAL792 
 PHE793  MET794  SER795  GLU796  ALA797  LYS798  CYS799  TRP800  GLU811  SER814 

> <Gold.Protein.RotatedAtoms>
  152.5318  134.2945  159.9055 H   0  0  0  0  0  0  0  0  0  0  0  0  # atno 6907 bound_to 6896
  151.2896  133.4165  159.2640 H   0  0  0  0  0  0  0  0  0  0  0  0  # atno 6908 bound_to 6896
  151.0212  134.9486  159.8117 H   0  0  0  0  0  0  0  0  0  0  0  0  # atno 6909 bound_to 6896
  144.7356  139.9052  143.6412 H   0  0  0  0  0  0  0  0  0  0  0  0  # atno 7974 bound_to 7965
  154.4281  140.1099  156.5851 H   0  0  0  0  0  0  0  0  0  0  0  0  # atno 8008 bound_to 7997
  155.6071  140.3494  155.4592 H   0  0  0  0  0  0  0  0  0  0  0  0  # atno 8009 bound_to 7997
  156.0128  140.1223  157.0426 H   0  0  0  0  0  0  0  0  0  0  0  0  # atno 8010 bound_to 7997
  140.2037  143.3799  152.1108 H   0  0  0  0  0  0  0  0  0  0  0  0  # atno 10167 bound_to 10162
  156.4811  130.4545  149.6811 H   0  0  0  0  0  0  0  0  0  0  0  0  # atno 10718 bound_to 10713
  153.0178  135.6368  154.1620 H   0  0  0  0  0  0  0  0  0  0  0  0  # atno 10763 bound_to 10752
  154.1358  135.2837  155.3175 H   0  0  0  0  0  0  0  0  0  0  0  0  # atno 10764 bound_to 10752
  154.6161  135.5540  153.7586 H   0  0  0  0  0  0  0  0  0  0  0  0  # atno 10765 bound_to 10752
  140.9326  134.1299  157.4221 H   0  0  0  0  0  0  0  0  0  0  0  0  # atno 11005 bound_to 11000
  146.1042  139.4040  143.0328 LP  0  0  0  0  0  0  0  0  0  0  0  0  # atno 17320 bound_to 7965
  145.7535  140.9963  143.1238 LP  0  0  0  0  0  0  0  0  0  0  0  0  # atno 17321 bound_to 7965
  139.5207  144.7036  151.5421 LP  0  0  0  0  0  0  0  0  0  0  0  0  # atno 17342 bound_to 10162
  140.6372  143.8960  150.6658 LP  0  0  0  0  0  0  0  0  0  0  0  0  # atno 17343 bound_to 10162
  156.3521  130.7437  151.2398 LP  0  0  0  0  0  0  0  0  0  0  0  0  # atno 17370 bound_to 10713
  157.7483  131.0374  150.4455 LP  0  0  0  0  0  0  0  0  0  0  0  0  # atno 17371 bound_to 10713
  139.8800  135.0010  156.6043 LP  0  0  0  0  0  0  0  0  0  0  0  0  # atno 17394 bound_to 11000
  140.7842  133.8635  155.8592 LP  0  0  0  0  0  0  0  0  0  0  0  0  # atno 17395 bound_to 11000

$$$$
