AV-unprocessed.smi:3027|AV-procd|sdf|11515|dock8
  -GOLD-   2272016453D 1   1.00000     0.00000
 Structure written by MMmdl.
 37 38  0  0  0  0  0  0  0  0  2 V2000
  150.7929  135.7802  155.5008 C   0  0  0  0  0  0  0  0  0  0  0  0
  150.9926  137.2615  155.3578 C   0  0  0  0  0  0  0  0  0  0  0  0
  151.0013  138.0310  154.1597 C   0  0  0  0  0  0  0  0  0  0  0  0
  151.2085  139.3196  154.3776 N   0  0  0  0  0  0  0  0  0  0  0  0
  151.3361  139.4184  155.7177 N   0  0  0  0  0  0  0  0  0  0  0  0
  151.5805  140.7117  156.3298 C   0  0  0  0  0  0  0  0  0  0  0  0
  150.3470  141.6407  156.2817 C   0  0  2  0  0  0  0  0  0  0  0  0
  149.5519  141.4954  154.9735 C   0  0  0  0  0  0  0  0  0  0  0  0
  150.7551  143.0544  156.4500 N   0  3  0  0  0  0  0  0  0  0  0  0
  151.3273  143.4104  157.7686 C   0  0  0  0  0  0  0  0  0  0  0  0
  150.2430  143.7437  158.7937 C   0  0  0  0  0  0  0  0  0  0  0  0
  150.9688  144.5414  159.8828 C   0  0  0  0  0  0  0  0  0  0  0  0
  152.2156  145.1434  159.2150 C   0  0  0  0  0  0  0  0  0  0  0  0
  152.1887  144.6758  157.7556 C   0  0  0  0  0  0  0  0  0  0  0  0
  151.2125  138.1914  156.3339 C   0  0  0  0  0  0  0  0  0  0  0  0
  150.2705  135.3572  154.6426 H   0  0  0  0  0  0  0  0  0  0  0  0
  150.2056  135.5356  156.3860 H   0  0  0  0  0  0  0  0  0  0  0  0
  151.7436  135.2543  155.5894 H   0  0  0  0  0  0  0  0  0  0  0  0
  150.8648  137.6920  153.1433 H   0  0  0  0  0  0  0  0  0  0  0  0
  151.8933  140.5321  157.3574 H   0  0  0  0  0  0  0  0  0  0  0  0
  152.4284  141.1841  155.8306 H   0  0  0  0  0  0  0  0  0  0  0  0
  149.6729  141.3717  157.0965 H   0  0  0  0  0  0  0  0  0  0  0  0
  149.1504  140.4885  154.8571 H   0  0  0  0  0  0  0  0  0  0  0  0
  150.1753  141.7073  154.1044 H   0  0  0  0  0  0  0  0  0  0  0  0
  148.7052  142.1822  154.9506 H   0  0  0  0  0  0  0  0  0  0  0  0
  151.4031  143.3052  155.7171 H   0  0  0  0  0  0  0  0  0  0  0  0
  151.9154  142.5724  158.1471 H   0  0  0  0  0  0  0  0  0  0  0  0
  149.4776  144.3731  158.3367 H   0  0  0  0  0  0  0  0  0  0  0  0
  149.7482  142.8551  159.1876 H   0  0  0  0  0  0  0  0  0  0  0  0
  150.3236  145.3096  160.3102 H   0  0  0  0  0  0  0  0  0  0  0  0
  151.2702  143.8799  160.6961 H   0  0  0  0  0  0  0  0  0  0  0  0
  152.2302  146.2318  159.2829 H   0  0  0  0  0  0  0  0  0  0  0  0
  153.1138  144.7745  159.7117 H   0  0  0  0  0  0  0  0  0  0  0  0
  153.1902  144.4999  157.3616 H   0  0  0  0  0  0  0  0  0  0  0  0
  151.7170  145.4440  157.1409 H   0  0  0  0  0  0  0  0  0  0  0  0
  151.2905  138.0825  157.4058 H   0  0  0  0  0  0  0  0  0  0  0  0
  149.9218  143.6146  156.3388 H   0  0  0  0  0  0  0  0  0  0  0  0
  1  2  1  0  0  0  0
  1 16  1  0  0  0  0
  1 17  1  0  0  0  0
  1 18  1  0  0  0  0
  2 15  2  0  0  0  0
  2  3  1  0  0  0  0
  3  4  2  0  0  0  0
  3 19  1  0  0  0  0
  4  5  1  0  0  0  0
  5  6  1  0  0  0  0
  5 15  1  0  0  0  0
  6  7  1  0  0  0  0
  6 20  1  0  0  0  0
  6 21  1  0  0  0  0
  7  8  1  0  0  0  0
  7  9  1  0  0  0  0
  7 22  1  0  0  0  0
  8 23  1  0  0  0  0
  8 24  1  0  0  0  0
  8 25  1  0  0  0  0
  9 10  1  0  0  0  0
  9 26  1  0  0  0  0
  9 37  1  0  0  0  0
 10 14  1  0  0  0  0
 10 11  1  0  0  0  0
 10 27  1  0  0  0  0
 11 12  1  0  0  0  0
 11 28  1  0  0  0  0
 11 29  1  0  0  0  0
 12 13  1  0  0  0  0
 12 30  1  0  0  0  0
 12 31  1  0  0  0  0
 13 14  1  0  0  0  0
 13 32  1  0  0  0  0
 13 33  1  0  0  0  0
 14 34  1  0  0  0  0
 14 35  1  0  0  0  0
 15 36  1  0  0  0  0
M  CHG  1   9   1
M  END
> <s_m_source_file>
AV-unprocessed.smi

> <i_m_source_file_index>
3027

> <i_lp_mmshare_version>
43012

> <i_f3d_flags>
0

> <s_epik_input>
W0NIM11jMVtjSF1ubihbY0hdMSlbQ0gyXVtDQEhdKFtDSDNdKVtOSF1bQ0hdMltDSDJdW0NIMl1bQ0gyXVtDSDJdMg==

> <s_epik_cmdline>
J2VwaWtfcHl0aG9uJywgJy1waCcsICc3LjAnLCAnLXRuJywgJzgnLCAnLW1hJywgJzIwMCcsICctbWV0YWxfYmluZGluZycsICctaW1hZScsICc8aW5maWxlLm1hZT4nLCAnLW9tYWUnLCAnPG91dGZpbGUubWFlPic=

> <r_lp_tautomer_probability>
1

> <r_epik_Ionization_Penalty>
0.00150056

> <r_epik_Ionization_Penalty_Charging>
0.00149132

> <r_epik_Ionization_Penalty_Neutral>
9.24096e-06

> <r_epik_State_Penalty>
0.00099871

> <r_epik_Charging_Adjusted_Penalty>
0.00249003

> <i_epik_Tot_Q>
1

> <i_epik_Tot_abs_Q>
1

> <r_epik_Metal_State_Penalty>
-0

> <b_epik_Metal_Only>
0

> <s_lp_Force_Field>
OPLS_2005

> <r_lp_Energy>
26.7441

> <b_lp_Chiralities_Consistent>
1

> <s_lp_Variant>
AV-unprocessed.smi:3027-1

> <Gold.Version>
5.8.1

> <Gold.Id.Protein>
6NUR|6NUR_protein|mol2

> <Gold.PLP.Fitness>
47.4140

> <Gold.PLP.PLP>
-36.3469

> <Gold.PLP.part.hbond>
-2.0000

> <Gold.PLP.part.metal>
0.0000

> <Gold.PLP.part.buried>
-4.9675

> <Gold.PLP.part.nonpolar>
-29.6329

> <Gold.PLP.part.repulsive>
0.2156

> <Gold.PLP.ligand.clash>
0.0000

> <Gold.PLP.ligand.torsion>
0.6087

> <Gold.PLP.Chemscore.Hbond>
3.0000

> <Gold.PLP.Chemscore.CHOScore>
1.0915

> <Gold.PLP.Chemscore.Metal>
0.0000

> <Gold.Chemscore.Hbonds>
donor molecule, donor type, donor heavy atom, donor atom, acceptor molecule, acceptor atom, score
      L1  H     9    37       P1  8028  2.00
      P1  H  7989  7998       L1     4  1.00
      L1  C     3    19       P1  7948  0.18
      L1  C     3    19       P1  7949  0.90

> <Gold.PLP.Chemscore.Internal.Correction>
0.0100

> <Gold.Rescore>
     Score         DG    S(hbond)    S(metal)    S(lipo)     H(rot)  DE(clash)    DE(int)     intcor
     18.55     -20.70       1.95        0.00     104.95       1.40       0.10       2.04       ----

> <Gold.Chemscore.Fitness>
18.5463

> <Gold.Chemscore.DG>
-20.6957

> <Gold.Chemscore.ZeroCoef>
-5.4800

> <Gold.Chemscore.Hbond>
1.9517

> <Gold.Chemscore.Metal>
0.0000

> <Gold.Chemscore.Lipo>
104.9474

> <Gold.Chemscore.Internal_Hbond>
0.0000

> <Gold.Chemscore.DEClash>
0.1045

> <Gold.Chemscore.DEInternal>
2.0449

> <Gold.Chemscore.Rot>
1.3991

> <Gold.Chemscore.Internal.Correction>
   9.000000E+99

> <Gold.Chemscore.Hbonds>
donor molecule, donor type, donor heavy atom, donor atom, acceptor molecule, acceptor atom, score
      L1  H     9    37       P1  8028  0.99
      P1  H  7989  7998       L1     4  0.88

> <Gold.Chemscore.Hbond.Weighted>
-6.5187

> <Gold.Chemscore.Metal.Weighted>
-0.0000

> <Gold.Chemscore.Lipo.Weighted>
-12.2788

> <Gold.Chemscore.Internal_Hbond.Weighted>
0.0000

> <Gold.Chemscore.DEClash.Weighted>
0.1045

> <Gold.Chemscore.DEInternal.Weighted>
2.0449

> <Gold.Chemscore.Rot.Weighted>
3.5818

> <Gold.Chemscore.Internal.Correction.Weighted>
   9.000000E+99

> <Gold.Protein.RotatedTorsions>
[ 6907 6896 6895 6894 ] final    8.23 input  -60.11 | X-H torsion
[ 7974 7965 7964 7962 ] final   32.13 input  175.53 | X-H torsion
[ 8008 7997 7996 7995 ] final   -3.78 input   59.86 | X-H torsion
[ 10167 10162 10161 10158 ] final  158.89 input  -65.29 | X-H torsion
[ 10718 10713 10712 10709 ] final  172.27 input   66.30 | X-H torsion
[ 10763 10752 10751 10750 ] final -100.90 input  -60.55 | X-H torsion
[ 11005 11000 10999 10996 ] final   47.39 input  -57.11 | X-H torsion

> <Gold.Protein.ActiveResidues>
 VAL166  LYS551  ARG553  GLY616  TRP617  ASP618  TYR619  PRO620  LYS621  CYS622 
 ASP623  PHE694  ASN695  SER759  ASP760  ASP761  ALA762  ILE779  LEU786  VAL792 
 PHE793  MET794  SER795  GLU796  ALA797  LYS798  CYS799  TRP800  GLU811  SER814 

> <Gold.Protein.RotatedAtoms>
  151.7028  135.0927  160.0253 H   0  0  0  0  0  0  0  0  0  0  0  0  # atno 6907 bound_to 6896
  152.3710  133.6415  159.6096 H   0  0  0  0  0  0  0  0  0  0  0  0  # atno 6908 bound_to 6896
  150.7673  133.9186  159.3432 H   0  0  0  0  0  0  0  0  0  0  0  0  # atno 6909 bound_to 6896
  146.1506  139.6567  142.9101 H   0  0  0  0  0  0  0  0  0  0  0  0  # atno 7974 bound_to 7965
  154.6213  140.2500  155.7546 H   0  0  0  0  0  0  0  0  0  0  0  0  # atno 8008 bound_to 7997
  156.2428  140.2926  156.0441 H   0  0  0  0  0  0  0  0  0  0  0  0  # atno 8009 bound_to 7997
  155.1893  140.0391  157.2887 H   0  0  0  0  0  0  0  0  0  0  0  0  # atno 8010 bound_to 7997
  139.4829  144.4782  151.8481 H   0  0  0  0  0  0  0  0  0  0  0  0  # atno 10167 bound_to 10162
  156.9813  131.0120  151.2881 H   0  0  0  0  0  0  0  0  0  0  0  0  # atno 10718 bound_to 10713
  154.7615  135.4918  153.9474 H   0  0  0  0  0  0  0  0  0  0  0  0  # atno 10763 bound_to 10752
  153.1257  135.6742  153.9268 H   0  0  0  0  0  0  0  0  0  0  0  0  # atno 10764 bound_to 10752
  153.8987  135.3112  155.3427 H   0  0  0  0  0  0  0  0  0  0  0  0  # atno 10765 bound_to 10752
  140.1283  134.4739  155.8542 H   0  0  0  0  0  0  0  0  0  0  0  0  # atno 11005 bound_to 11000
  145.4831  141.0438  143.2634 LP  0  0  0  0  0  0  0  0  0  0  0  0  # atno 17320 bound_to 7965
  144.7900  139.6348  143.7117 LP  0  0  0  0  0  0  0  0  0  0  0  0  # atno 17321 bound_to 7965
  140.4256  144.2184  150.5887 LP  0  0  0  0  0  0  0  0  0  0  0  0  # atno 17342 bound_to 10162
  140.4830  143.2372  151.8928 LP  0  0  0  0  0  0  0  0  0  0  0  0  # atno 17343 bound_to 10162
  157.5524  130.8191  149.8162 LP  0  0  0  0  0  0  0  0  0  0  0  0  # atno 17370 bound_to 10713
  156.0243  130.3785  150.1869 LP  0  0  0  0  0  0  0  0  0  0  0  0  # atno 17371 bound_to 10713
  141.2165  133.6786  156.7021 LP  0  0  0  0  0  0  0  0  0  0  0  0  # atno 17394 bound_to 11000
  140.2875  134.8267  157.3988 LP  0  0  0  0  0  0  0  0  0  0  0  0  # atno 17395 bound_to 11000

$$$$
