AV-unprocessed.smi:1247|AV-procd|sdf|5249|dock9
  -GOLD-   22720 4363D 1   1.00000     0.00000
 Structure written by MMmdl.
 47 48  0  0  0  0  0  0  0  0  2 V2000
  151.0046  142.4063  156.8345 C   0  0  0  0  0  0  0  0  0  0  0  0
  150.7511  141.2241  155.9463 C   0  0  0  0  0  0  0  0  0  0  0  0
  149.5721  140.9189  155.2057 C   0  0  0  0  0  0  0  0  0  0  0  0
  149.9008  139.7431  154.5884 C   0  0  0  0  0  0  0  0  0  0  0  0
  149.1459  138.9767  153.7573 N   0  0  0  0  0  0  0  0  0  0  0  0
  147.8264  139.0594  153.5137 C   0  0  0  0  0  0  0  0  0  0  0  0
  147.0589  139.8850  154.0091 O   0  0  0  0  0  0  0  0  0  0  0  0
  147.4338  138.1272  152.6333 N   0  0  0  0  0  0  0  0  0  0  0  0
  146.0694  137.9701  152.1416 C   0  0  0  0  0  0  0  0  0  0  0  0
  145.8955  136.6359  151.3911 C   0  0  0  0  0  0  0  0  0  0  0  0
  144.4753  136.3518  151.0533 N   0  3  1  0  0  0  0  0  0  0  0  0
  144.2914  135.0986  150.2808 C   0  0  0  0  0  0  0  0  0  0  0  0
  144.3925  133.8592  151.1930 C   0  0  2  0  0  0  0  0  0  0  0  0
  144.1267  132.5566  150.4309 C   0  0  0  0  0  0  0  0  0  0  0  0
  143.4222  133.9715  152.2286 O   0  0  0  0  0  0  0  0  0  0  0  0
  143.6276  135.1090  153.0600 C   0  0  2  0  0  0  0  0  0  0  0  0
  142.5698  135.0815  154.1686 C   0  0  0  0  0  0  0  0  0  0  0  0
  143.5359  136.3907  152.2036 C   0  0  0  0  0  0  0  0  0  0  0  0
  151.1796  139.3887  154.9564 N   0  0  0  0  0  0  0  0  0  0  0  0
  151.9620  138.2313  154.5692 C   0  0  0  0  0  0  0  0  0  0  0  0
  151.7033  140.3105  155.7931 N   0  0  0  0  0  0  0  0  0  0  0  0
  150.1535  143.0874  156.8368 H   0  0  0  0  0  0  0  0  0  0  0  0
  151.8776  142.9683  156.5017 H   0  0  0  0  0  0  0  0  0  0  0  0
  151.1809  142.0928  157.8638 H   0  0  0  0  0  0  0  0  0  0  0  0
  148.6504  141.4787  155.1541 H   0  0  0  0  0  0  0  0  0  0  0  0
  149.6538  138.2744  153.2398 H   0  0  0  0  0  0  0  0  0  0  0  0
  148.1266  137.4855  152.2757 H   0  0  0  0  0  0  0  0  0  0  0  0
  145.4078  138.0199  153.0054 H   0  0  0  0  0  0  0  0  0  0  0  0
  145.8038  138.8105  151.4977 H   0  0  0  0  0  0  0  0  0  0  0  0
  146.4674  136.6905  150.4638 H   0  0  0  0  0  0  0  0  0  0  0  0
  146.3280  135.8169  151.9656 H   0  0  0  0  0  0  0  0  0  0  0  0
  143.3056  135.1276  149.8141 H   0  0  0  0  0  0  0  0  0  0  0  0
  145.0126  135.0424  149.4643 H   0  0  0  0  0  0  0  0  0  0  0  0
  145.3878  133.7983  151.6361 H   0  0  0  0  0  0  0  0  0  0  0  0
  144.8527  132.4149  149.6299 H   0  0  0  0  0  0  0  0  0  0  0  0
  143.1312  132.5538  149.9858 H   0  0  0  0  0  0  0  0  0  0  0  0
  144.1962  131.6960  151.0966 H   0  0  0  0  0  0  0  0  0  0  0  0
  144.6104  135.0374  153.5276 H   0  0  0  0  0  0  0  0  0  0  0  0
  142.6845  135.9307  154.8425 H   0  0  0  0  0  0  0  0  0  0  0  0
  142.6538  134.1721  154.7639 H   0  0  0  0  0  0  0  0  0  0  0  0
  141.5615  135.1160  153.7549 H   0  0  0  0  0  0  0  0  0  0  0  0
  143.6993  137.2765  152.8161 H   0  0  0  0  0  0  0  0  0  0  0  0
  142.5250  136.4846  151.8042 H   0  0  0  0  0  0  0  0  0  0  0  0
  152.0778  138.2142  153.4852 H   0  0  0  0  0  0  0  0  0  0  0  0
  151.4531  137.3217  154.8884 H   0  0  0  0  0  0  0  0  0  0  0  0
  152.9504  138.2634  155.0294 H   0  0  0  0  0  0  0  0  0  0  0  0
  144.2004  137.0988  150.4310 H   0  0  0  0  0  0  0  0  0  0  0  0
  1  2  1  0  0  0  0
  1 22  1  0  0  0  0
  1 23  1  0  0  0  0
  1 24  1  0  0  0  0
  2 21  2  0  0  0  0
  2  3  1  0  0  0  0
  3  4  2  0  0  0  0
  3 25  1  0  0  0  0
  4  5  1  0  0  0  0
  4 19  1  0  0  0  0
  5  6  1  0  0  0  0
  5 26  1  0  0  0  0
  6  7  2  0  0  0  0
  6  8  1  0  0  0  0
  8  9  1  0  0  0  0
  8 27  1  0  0  0  0
  9 10  1  0  0  0  0
  9 28  1  0  0  0  0
  9 29  1  0  0  0  0
 10 11  1  0  0  0  0
 10 30  1  0  0  0  0
 10 31  1  0  0  0  0
 11 18  1  0  0  0  0
 11 12  1  0  0  0  0
 11 47  1  0  0  0  0
 12 13  1  0  0  0  0
 12 32  1  0  0  0  0
 12 33  1  0  0  0  0
 13 14  1  0  0  0  0
 13 15  1  0  0  0  0
 13 34  1  0  0  0  0
 14 35  1  0  0  0  0
 14 36  1  0  0  0  0
 14 37  1  0  0  0  0
 15 16  1  0  0  0  0
 16 17  1  0  0  0  0
 16 18  1  0  0  0  0
 16 38  1  0  0  0  0
 17 39  1  0  0  0  0
 17 40  1  0  0  0  0
 17 41  1  0  0  0  0
 18 42  1  0  0  0  0
 18 43  1  0  0  0  0
 19 20  1  0  0  0  0
 19 21  1  0  0  0  0
 20 44  1  0  0  0  0
 20 45  1  0  0  0  0
 20 46  1  0  0  0  0
M  CHG  1  11   1
M  END
> <s_m_source_file>
AV-unprocessed.smi

> <i_m_source_file_index>
1247

> <i_lp_mmshare_version>
43012

> <i_f3d_flags>
0

> <s_epik_input>
W0NIM11jMVtjSF1jKG4objEpW0NIM10pW05IXUMoPU8pW05IXVtDSDJdW0NIMl1OMltDSDJdW0NAQEhdKFtDSDNdKU9bQ0BASF0oW0NIM10pW0NIMl0y

> <s_epik_cmdline>
J2VwaWtfcHl0aG9uJywgJy1waCcsICc3LjAnLCAnLXRuJywgJzgnLCAnLW1hJywgJzIwMCcsICctbWV0YWxfYmluZGluZycsICctaW1hZScsICc8aW5maWxlLm1hZT4nLCAnLW9tYWUnLCAnPG91dGZpbGUubWFlPic=

> <r_lp_tautomer_probability>
1

> <r_epik_Ionization_Penalty>
0.663902

> <r_epik_Ionization_Penalty_Charging>
0.663826

> <r_epik_Ionization_Penalty_Neutral>
7.65444e-05

> <r_epik_State_Penalty>
0.683414

> <r_epik_Charging_Adjusted_Penalty>
1.34724

> <i_epik_Tot_Q>
1

> <i_epik_Tot_abs_Q>
1

> <r_epik_Metal_State_Penalty>
0.683419

> <b_epik_Metal_Only>
0

> <s_lp_Force_Field>
OPLS_2005

> <r_lp_Energy>
18.7227

> <b_lp_Chiralities_Consistent>
1

> <s_lp_Variant>
AV-unprocessed.smi:1247-7

> <Gold.Version>
5.8.1

> <Gold.Id.Protein>
6NUR|6NUR_protein|mol2

> <Gold.PLP.Fitness>
46.8812

> <Gold.PLP.PLP>
-41.1249

> <Gold.PLP.part.hbond>
-3.9126

> <Gold.PLP.part.metal>
0.0000

> <Gold.PLP.part.buried>
-2.4403

> <Gold.PLP.part.nonpolar>
-36.2361

> <Gold.PLP.part.repulsive>
0.5049

> <Gold.PLP.ligand.clash>
0.0000

> <Gold.PLP.ligand.torsion>
0.1348

> <Gold.PLP.Chemscore.Hbond>
2.0000

> <Gold.PLP.Chemscore.CHOScore>
0.0000

> <Gold.PLP.Chemscore.Metal>
0.0000

> <Gold.Chemscore.Hbonds>
donor molecule, donor type, donor heavy atom, donor atom, acceptor molecule, acceptor atom, score
      L1  H     8    27       P1  7948  1.00
      L1  H    11    47       P1 10171  1.00

> <Gold.PLP.Chemscore.Internal.Correction>
0.0259

> <Gold.Rescore>
     Score         DG    S(hbond)    S(metal)    S(lipo)     H(rot)  DE(clash)    DE(int)     intcor
     15.42     -17.44       1.98        0.00      78.90       1.52       0.74       1.28       ----

> <Gold.Chemscore.Fitness>
15.4152

> <Gold.Chemscore.DG>
-17.4363

> <Gold.Chemscore.ZeroCoef>
-5.4800

> <Gold.Chemscore.Hbond>
1.9827

> <Gold.Chemscore.Metal>
0.0000

> <Gold.Chemscore.Lipo>
78.8956

> <Gold.Chemscore.Internal_Hbond>
0.0000

> <Gold.Chemscore.DEClash>
0.7413

> <Gold.Chemscore.DEInternal>
1.2798

> <Gold.Chemscore.Rot>
1.5221

> <Gold.Chemscore.Internal.Correction>
   9.000000E+99

> <Gold.Chemscore.Hbonds>
donor molecule, donor type, donor heavy atom, donor atom, acceptor molecule, acceptor atom, score
      L1  H     8    27       P1  7948  0.94
      L1  H    11    47       P1 10171  0.99

> <Gold.Chemscore.Hbond.Weighted>
-6.6222

> <Gold.Chemscore.Metal.Weighted>
-0.0000

> <Gold.Chemscore.Lipo.Weighted>
-9.2308

> <Gold.Chemscore.Internal_Hbond.Weighted>
0.0000

> <Gold.Chemscore.DEClash.Weighted>
0.7413

> <Gold.Chemscore.DEInternal.Weighted>
1.2798

> <Gold.Chemscore.Rot.Weighted>
3.8967

> <Gold.Chemscore.Internal.Correction.Weighted>
   9.000000E+99

> <Gold.Protein.RotatedTorsions>
[ 6907 6896 6895 6894 ] final   41.40 input  -60.11 | X-H torsion
[ 7974 7965 7964 7962 ] final   48.95 input  175.53 | X-H torsion
[ 8008 7997 7996 7995 ] final  164.28 input   59.86 | X-H torsion
[ 10167 10162 10161 10158 ] final  -13.14 input  -65.29 | X-H torsion
[ 10718 10713 10712 10709 ] final   35.02 input   66.30 | X-H torsion
[ 10763 10752 10751 10750 ] final   17.34 input  -60.55 | X-H torsion
[ 11005 11000 10999 10996 ] final   87.91 input  -57.11 | X-H torsion

> <Gold.Protein.ActiveResidues>
 VAL166  LYS551  ARG553  GLY616  TRP617  ASP618  TYR619  PRO620  LYS621  CYS622 
 ASP623  PHE694  ASN695  SER759  ASP760  ASP761  ALA762  ILE779  LEU786  VAL792 
 PHE793  MET794  SER795  GLU796  ALA797  LYS798  CYS799  TRP800  GLU811  SER814 

> <Gold.Protein.RotatedAtoms>
  152.1948  134.8640  160.0513 H   0  0  0  0  0  0  0  0  0  0  0  0  # atno 6907 bound_to 6896
  151.9516  133.3662  159.4010 H   0  0  0  0  0  0  0  0  0  0  0  0  # atno 6908 bound_to 6896
  150.6942  134.4258  159.5270 H   0  0  0  0  0  0  0  0  0  0  0  0  # atno 6909 bound_to 6896
  146.0155  139.4592  142.9929 H   0  0  0  0  0  0  0  0  0  0  0  0  # atno 7974 bound_to 7965
  156.1892  140.1701  156.8125 H   0  0  0  0  0  0  0  0  0  0  0  0  # atno 8008 bound_to 7997
  154.5451  140.0729  156.8607 H   0  0  0  0  0  0  0  0  0  0  0  0  # atno 8009 bound_to 7997
  155.3138  140.3369  155.4245 H   0  0  0  0  0  0  0  0  0  0  0  0  # atno 8010 bound_to 7997
  140.7176  143.5457  150.9358 H   0  0  0  0  0  0  0  0  0  0  0  0  # atno 10167 bound_to 10162
  157.3175  130.7431  149.6764 H   0  0  0  0  0  0  0  0  0  0  0  0  # atno 10718 bound_to 10713
  153.1347  135.6747  153.9121 H   0  0  0  0  0  0  0  0  0  0  0  0  # atno 10763 bound_to 10752
  153.8597  135.3083  155.3438 H   0  0  0  0  0  0  0  0  0  0  0  0  # atno 10764 bound_to 10752
  154.7738  135.4925  153.9784 H   0  0  0  0  0  0  0  0  0  0  0  0  # atno 10765 bound_to 10752
  139.8908  134.8453  156.2926 H   0  0  0  0  0  0  0  0  0  0  0  0  # atno 11005 bound_to 11000
  145.7275  141.0054  143.1369 LP  0  0  0  0  0  0  0  0  0  0  0  0  # atno 17320 bound_to 7965
  144.6969  139.8944  143.7455 LP  0  0  0  0  0  0  0  0  0  0  0  0  # atno 17321 bound_to 7965
  139.9181  143.6639  152.3102 LP  0  0  0  0  0  0  0  0  0  0  0  0  # atno 17342 bound_to 10162
  139.7046  144.7630  151.1215 LP  0  0  0  0  0  0  0  0  0  0  0  0  # atno 17343 bound_to 10162
  155.9683  130.4233  150.4555 LP  0  0  0  0  0  0  0  0  0  0  0  0  # atno 17370 bound_to 10713
  157.2565  131.0557  151.2347 LP  0  0  0  0  0  0  0  0  0  0  0  0  # atno 17371 bound_to 10713
  140.9966  133.7176  156.0895 LP  0  0  0  0  0  0  0  0  0  0  0  0  # atno 17394 bound_to 11000
  140.7554  134.3998  157.5534 LP  0  0  0  0  0  0  0  0  0  0  0  0  # atno 17395 bound_to 11000

$$$$
