AV-unprocessed.smi:2032|AV-procd|sdf|8235|dock3
  -GOLD-   2272010503D 1   1.00000     0.00000
 Structure written by MMmdl.
 42 43  0  0  0  0  0  0  0  0  1 V2000
  151.0129  142.0628  156.1595 C   0  0  0  0  0  0  0  0  0  0  0  0
  150.5535  140.6255  155.8927 C   0  0  1  0  0  0  0  0  0  0  0  0
  149.0701  140.5566  155.4869 C   0  0  0  0  0  0  0  0  0  0  0  0
  148.6328  139.1981  155.1509 N   0  0  0  0  0  0  0  0  0  0  0  0
  147.1982  139.1304  154.7818 C   0  0  2  0  0  0  0  0  0  0  0  0
  146.5016  137.8507  155.3112 C   0  0  0  0  0  0  0  0  0  0  0  0
  146.9609  139.2448  153.2485 C   0  0  0  0  0  0  0  0  0  0  0  0
  147.0220  137.9593  152.5556 N   0  0  0  0  0  0  0  0  0  0  0  0
  145.9705  137.1779  152.2672 C   0  0  0  0  0  0  0  0  0  0  0  0
  144.8075  137.4693  152.5469 O   0  0  0  0  0  0  0  0  0  0  0  0
  146.3584  136.0551  151.6371 N   0  0  0  0  0  0  0  0  0  0  0  0
  145.5490  134.9844  151.1741 C   0  0  0  0  0  0  0  0  0  0  0  0
  146.0243  133.8694  150.6065 N   0  0  0  0  0  0  0  0  0  0  0  0
  145.0026  132.9871  150.2470 C   0  0  0  0  0  0  0  0  0  0  0  0
  143.7462  133.4488  150.5515 C   0  0  0  0  0  0  0  0  0  0  0  0
  143.7967  135.0203  151.3054 S   0  0  0  0  0  0  0  0  0  0  0  0
  149.5146  138.6881  154.0940 C   0  0  0  0  0  0  0  0  0  0  0  0
  151.0138  138.7713  154.4432 C   0  0  2  0  0  0  0  0  0  0  0  0
  151.4580  137.7217  155.4767 C   0  0  0  0  0  0  0  0  0  0  0  0
  151.3582  140.0945  154.8459 O   0  0  0  0  0  0  0  0  0  0  0  0
  150.4348  142.5173  156.9644 H   0  0  0  0  0  0  0  0  0  0  0  0
  150.8982  142.6850  155.2715 H   0  0  0  0  0  0  0  0  0  0  0  0
  152.0634  142.0881  156.4501 H   0  0  0  0  0  0  0  0  0  0  0  0
  150.7095  140.0447  156.8021 H   0  0  0  0  0  0  0  0  0  0  0  0
  148.4985  140.9471  156.3266 H   0  0  0  0  0  0  0  0  0  0  0  0
  148.8880  141.2222  154.6418 H   0  0  0  0  0  0  0  0  0  0  0  0
  146.6927  139.9790  155.2458 H   0  0  0  0  0  0  0  0  0  0  0  0
  145.4564  137.7915  155.0119 H   0  0  0  0  0  0  0  0  0  0  0  0
  146.4797  137.8079  156.3990 H   0  0  0  0  0  0  0  0  0  0  0  0
  146.9983  136.9514  154.9456 H   0  0  0  0  0  0  0  0  0  0  0  0
  145.9616  139.6181  153.0331 H   0  0  0  0  0  0  0  0  0  0  0  0
  147.6569  139.9662  152.8164 H   0  0  0  0  0  0  0  0  0  0  0  0
  147.9393  137.6384  152.2829 H   0  0  0  0  0  0  0  0  0  0  0  0
  147.3488  135.9522  151.4723 H   0  0  0  0  0  0  0  0  0  0  0  0
  145.2604  132.0494  149.7775 H   0  0  0  0  0  0  0  0  0  0  0  0
  142.7984  132.9616  150.3779 H   0  0  0  0  0  0  0  0  0  0  0  0
  149.2974  137.6451  153.8734 H   0  0  0  0  0  0  0  0  0  0  0  0
  149.3342  139.2462  153.1740 H   0  0  0  0  0  0  0  0  0  0  0  0
  151.5793  138.5761  153.5317 H   0  0  0  0  0  0  0  0  0  0  0  0
  151.3083  136.7126  155.0924 H   0  0  0  0  0  0  0  0  0  0  0  0
  150.8985  137.7998  156.4086 H   0  0  0  0  0  0  0  0  0  0  0  0
  152.5167  137.8313  155.7117 H   0  0  0  0  0  0  0  0  0  0  0  0
  1  2  1  0  0  0  0
  1 21  1  0  0  0  0
  1 22  1  0  0  0  0
  1 23  1  0  0  0  0
  2 20  1  0  0  0  0
  2  3  1  0  0  0  0
  2 24  1  0  0  0  0
  3  4  1  0  0  0  0
  3 25  1  0  0  0  0
  3 26  1  0  0  0  0
  4  5  1  0  0  0  0
  4 17  1  0  0  0  0
  5  6  1  0  0  0  0
  5  7  1  0  0  0  0
  5 27  1  0  0  0  0
  6 28  1  0  0  0  0
  6 29  1  0  0  0  0
  6 30  1  0  0  0  0
  7  8  1  0  0  0  0
  7 31  1  0  0  0  0
  7 32  1  0  0  0  0
  8  9  1  0  0  0  0
  8 33  1  0  0  0  0
  9 10  2  0  0  0  0
  9 11  1  0  0  0  0
 11 12  1  0  0  0  0
 11 34  1  0  0  0  0
 12 16  1  0  0  0  0
 12 13  2  0  0  0  0
 13 14  1  0  0  0  0
 14 15  2  0  0  0  0
 14 35  1  0  0  0  0
 15 16  1  0  0  0  0
 15 36  1  0  0  0  0
 17 18  1  0  0  0  0
 17 37  1  0  0  0  0
 17 38  1  0  0  0  0
 18 19  1  0  0  0  0
 18 20  1  0  0  0  0
 18 39  1  0  0  0  0
 19 40  1  0  0  0  0
 19 41  1  0  0  0  0
 19 42  1  0  0  0  0
M  END
> <s_m_source_file>
AV-unprocessed.smi

> <i_m_source_file_index>
2032

> <i_lp_mmshare_version>
43012

> <i_f3d_flags>
0

> <s_epik_input>
W0NIM11bQ0BASF0xW0NIMl1OKFtDSDJdW0NASF0oTzEpW0NIM10pW0NASF0oW0NIM10pW0NIMl1bTkhdQyg9TylbTkhdYzJuW2NIXVtjSF1zMg==

> <s_epik_cmdline>
J2VwaWtfcHl0aG9uJywgJy1waCcsICc3LjAnLCAnLXRuJywgJzgnLCAnLW1hJywgJzIwMCcsICctbWV0YWxfYmluZGluZycsICctaW1hZScsICc8aW5maWxlLm1hZT4nLCAnLW9tYWUnLCAnPG91dGZpbGUubWFlPic=

> <r_lp_tautomer_probability>
0.999

> <r_epik_Ionization_Penalty>
0.219202

> <r_epik_Ionization_Penalty_Charging>
0

> <r_epik_Ionization_Penalty_Neutral>
0.219202

> <r_epik_State_Penalty>
0.209349

> <r_epik_Charging_Adjusted_Penalty>
0.209349

> <i_epik_Tot_Q>
0

> <i_epik_Tot_abs_Q>
0

> <r_epik_Metal_State_Penalty>
0.247737

> <b_epik_Metal_Only>
0

> <s_lp_Force_Field>
OPLS_2005

> <r_lp_Energy>
29.5908

> <b_lp_Chiralities_Consistent>
1

> <s_lp_Variant>
AV-unprocessed.smi:2032-5

> <Gold.Version>
5.8.1

> <Gold.Id.Protein>
6NUR|6NUR_protein|mol2

> <Gold.PLP.Fitness>
38.3546

> <Gold.PLP.PLP>
-30.2805

> <Gold.PLP.part.hbond>
-2.9865

> <Gold.PLP.part.metal>
0.0000

> <Gold.PLP.part.buried>
-5.2987

> <Gold.PLP.part.nonpolar>
-21.9555

> <Gold.PLP.part.repulsive>
0.6835

> <Gold.PLP.ligand.clash>
0.1069

> <Gold.PLP.ligand.torsion>
1.3696

> <Gold.PLP.Chemscore.Hbond>
2.9440

> <Gold.PLP.Chemscore.CHOScore>
0.6785

> <Gold.PLP.Chemscore.Metal>
0.0000

> <Gold.Chemscore.Hbonds>
donor molecule, donor type, donor heavy atom, donor atom, acceptor molecule, acceptor atom, score
      L1  H     8    33       P1  7948  0.94
      L1  H    11    34       P1  7948  1.00
      P1  H  7989  7998       L1    20  1.00
      L1  C    15    36       P1 10186  0.71

> <Gold.PLP.Chemscore.Internal.Correction>
0.0527

> <Gold.Rescore>
     Score         DG    S(hbond)    S(metal)    S(lipo)     H(rot)  DE(clash)    DE(int)     intcor
     14.64     -18.78       2.67        0.00      72.07       1.57       0.75       3.39       ----

> <Gold.Chemscore.Fitness>
14.6365

> <Gold.Chemscore.DG>
-18.7842

> <Gold.Chemscore.ZeroCoef>
-5.4800

> <Gold.Chemscore.Hbond>
2.6657

> <Gold.Chemscore.Metal>
0.0000

> <Gold.Chemscore.Lipo>
72.0728

> <Gold.Chemscore.Internal_Hbond>
0.0000

> <Gold.Chemscore.DEClash>
0.7530

> <Gold.Chemscore.DEInternal>
3.3947

> <Gold.Chemscore.Rot>
1.5750

> <Gold.Chemscore.Internal.Correction>
   9.000000E+99

> <Gold.Chemscore.Hbonds>
donor molecule, donor type, donor heavy atom, donor atom, acceptor molecule, acceptor atom, score
      L1  H     8    33       P1  7948  0.91
      L1  H    11    34       P1  7948  0.97
      P1  H  7989  7998       L1    20  0.48

> <Gold.Chemscore.Hbond.Weighted>
-8.9036

> <Gold.Chemscore.Metal.Weighted>
-0.0000

> <Gold.Chemscore.Lipo.Weighted>
-8.4325

> <Gold.Chemscore.Internal_Hbond.Weighted>
0.0000

> <Gold.Chemscore.DEClash.Weighted>
0.7530

> <Gold.Chemscore.DEInternal.Weighted>
3.3947

> <Gold.Chemscore.Rot.Weighted>
4.0319

> <Gold.Chemscore.Internal.Correction.Weighted>
   9.000000E+99

> <Gold.Protein.RotatedTorsions>
[ 6907 6896 6895 6894 ] final  169.37 input  -60.11 | X-H torsion
[ 7974 7965 7964 7962 ] final -102.21 input  175.53 | X-H torsion
[ 8008 7997 7996 7995 ] final   39.29 input   59.86 | X-H torsion
[ 10167 10162 10161 10158 ] final   84.50 input  -65.29 | X-H torsion
[ 10718 10713 10712 10709 ] final  -84.23 input   66.30 | X-H torsion
[ 10763 10752 10751 10750 ] final  -46.46 input  -60.55 | X-H torsion
[ 11005 11000 10999 10996 ] final  -58.60 input  -57.11 | X-H torsion

> <Gold.Protein.ActiveResidues>
 VAL166  LYS551  ARG553  GLY616  TRP617  ASP618  TYR619  PRO620  LYS621  CYS622 
 ASP623  PHE694  ASN695  SER759  ASP760  ASP761  ALA762  ILE779  LEU786  VAL792 
 PHE793  MET794  SER795  GLU796  ALA797  LYS798  CYS799  TRP800  GLU811  SER814 

> <Gold.Protein.RotatedAtoms>
  151.8330  133.3411  159.3618 H   0  0  0  0  0  0  0  0  0  0  0  0  # atno 6907 bound_to 6896
  150.7258  134.5465  159.5782 H   0  0  0  0  0  0  0  0  0  0  0  0  # atno 6908 bound_to 6896
  152.2922  134.7709  160.0426 H   0  0  0  0  0  0  0  0  0  0  0  0  # atno 6909 bound_to 6896
  145.2716  140.9300  143.2983 H   0  0  0  0  0  0  0  0  0  0  0  0  # atno 7974 bound_to 7965
  155.2341  140.3340  155.4300 H   0  0  0  0  0  0  0  0  0  0  0  0  # atno 8008 bound_to 7997
  156.2283  140.1839  156.7354 H   0  0  0  0  0  0  0  0  0  0  0  0  # atno 8009 bound_to 7997
  154.5935  140.0634  156.9256 H   0  0  0  0  0  0  0  0  0  0  0  0  # atno 8010 bound_to 7997
  139.9074  144.6292  150.8573 H   0  0  0  0  0  0  0  0  0  0  0  0  # atno 10167 bound_to 10162
  156.0008  130.4691  150.4379 H   0  0  0  0  0  0  0  0  0  0  0  0  # atno 10718 bound_to 10713
  154.0454  135.6638  153.4794 H   0  0  0  0  0  0  0  0  0  0  0  0  # atno 10763 bound_to 10752
  153.0485  135.5099  154.7802 H   0  0  0  0  0  0  0  0  0  0  0  0  # atno 10764 bound_to 10752
  154.6791  135.3042  154.9603 H   0  0  0  0  0  0  0  0  0  0  0  0  # atno 10765 bound_to 10752
  141.1214  133.6613  156.4945 H   0  0  0  0  0  0  0  0  0  0  0  0  # atno 11005 bound_to 11000
  144.9330  139.4276  143.6486 LP  0  0  0  0  0  0  0  0  0  0  0  0  # atno 17320 bound_to 7965
  146.3244  139.8251  142.8919 LP  0  0  0  0  0  0  0  0  0  0  0  0  # atno 17321 bound_to 7965
  140.7693  143.3391  151.2246 LP  0  0  0  0  0  0  0  0  0  0  0  0  # atno 17342 bound_to 10162
  139.6972  143.9593  152.2888 LP  0  0  0  0  0  0  0  0  0  0  0  0  # atno 17343 bound_to 10162
  157.2422  131.0528  151.2429 LP  0  0  0  0  0  0  0  0  0  0  0  0  # atno 17370 bound_to 10713
  157.3609  130.7131  149.6501 LP  0  0  0  0  0  0  0  0  0  0  0  0  # atno 17371 bound_to 10713
  140.4496  134.6941  157.5033 LP  0  0  0  0  0  0  0  0  0  0  0  0  # atno 17394 bound_to 11000
  140.0174  134.6598  155.9289 LP  0  0  0  0  0  0  0  0  0  0  0  0  # atno 17395 bound_to 11000

$$$$
