AV-unprocessed.smi:1844|AV-procd|sdf|7508|dock6
  -GOLD-   22720 9213D 1   1.00000     0.00000
 Structure written by MMmdl.
 45 46  0  0  0  0  0  0  0  0  1 V2000
  144.2582  143.9765  159.1239 C   0  0  0  0  0  0  0  0  0  0  0  0
  145.0346  143.4664  158.0040 N   0  0  0  0  0  0  0  0  0  0  0  0
  146.0259  142.5664  158.1119 C   0  0  0  0  0  0  0  0  0  0  0  0
  146.3525  142.0925  159.2014 O   0  0  0  0  0  0  0  0  0  0  0  0
  146.6536  142.2202  156.8342 C   0  0  0  0  0  0  0  0  0  0  0  0
  146.2628  142.8185  155.5661 C   0  0  0  0  0  0  0  0  0  0  0  0
  146.8832  142.4678  154.4224 C   0  0  0  0  0  0  0  0  0  0  0  0
  147.9644  141.4785  154.4024 C   0  0  0  0  0  0  0  0  0  0  0  0
  148.5375  141.1577  153.3608 O   0  0  0  0  0  0  0  0  0  0  0  0
  148.2944  140.9349  155.6131 N   0  0  0  0  0  0  0  0  0  0  0  0
  149.3625  139.9270  155.7217 C   0  0  0  0  0  0  0  0  0  0  0  0
  150.7040  140.5017  156.1987 C   0  0  0  0  0  0  0  0  0  0  0  0
  151.6882  140.5202  155.4577 O   0  0  0  0  0  0  0  0  0  0  0  0
  150.7183  140.9801  157.4519 N   0  0  0  0  0  0  0  0  0  0  0  0
  151.8741  141.5734  158.1212 C   0  0  2  0  0  0  0  0  0  0  0  0
  152.1924  140.7788  159.4054 C   0  0  0  0  0  0  0  0  0  0  0  0
  153.3578  141.4021  160.1866 C   0  0  0  0  0  0  0  0  0  0  0  0
  153.0764  142.8750  160.5114 C   0  0  0  0  0  0  0  0  0  0  0  0
  152.7804  143.6729  159.2329 C   0  0  0  0  0  0  0  0  0  0  0  0
  151.6080  143.0673  158.4345 C   0  0  1  0  0  0  0  0  0  0  0  0
  151.3350  143.8955  157.1658 C   0  0  0  0  0  0  0  0  0  0  0  0
  147.6467  141.3100  156.8066 C   0  0  0  0  0  0  0  0  0  0  0  0
  143.4788  144.6461  158.7608 H   0  0  0  0  0  0  0  0  0  0  0  0
  144.8937  144.5341  159.8126 H   0  0  0  0  0  0  0  0  0  0  0  0
  143.7804  143.1633  159.6714 H   0  0  0  0  0  0  0  0  0  0  0  0
  144.8078  143.8203  157.0862 H   0  0  0  0  0  0  0  0  0  0  0  0
  145.4742  143.5544  155.5109 H   0  0  0  0  0  0  0  0  0  0  0  0
  146.5770  142.9272  153.4939 H   0  0  0  0  0  0  0  0  0  0  0  0
  149.0681  139.1331  156.4097 H   0  0  0  0  0  0  0  0  0  0  0  0
  149.5093  139.4291  154.7612 H   0  0  0  0  0  0  0  0  0  0  0  0
  149.8631  140.9282  157.9863 H   0  0  0  0  0  0  0  0  0  0  0  0
  152.7386  141.5191  157.4566 H   0  0  0  0  0  0  0  0  0  0  0  0
  151.3094  140.7424  160.0451 H   0  0  0  0  0  0  0  0  0  0  0  0
  152.4345  139.7446  159.1575 H   0  0  0  0  0  0  0  0  0  0  0  0
  153.5288  140.8437  161.1074 H   0  0  0  0  0  0  0  0  0  0  0  0
  154.2747  141.3237  159.6013 H   0  0  0  0  0  0  0  0  0  0  0  0
  152.2280  142.9451  161.1933 H   0  0  0  0  0  0  0  0  0  0  0  0
  153.9296  143.3105  161.0325 H   0  0  0  0  0  0  0  0  0  0  0  0
  152.5580  144.7077  159.4957 H   0  0  0  0  0  0  0  0  0  0  0  0
  153.6748  143.7001  158.6088 H   0  0  0  0  0  0  0  0  0  0  0  0
  150.7173  143.1276  159.0620 H   0  0  0  0  0  0  0  0  0  0  0  0
  152.1812  143.8557  156.4791 H   0  0  0  0  0  0  0  0  0  0  0  0
  151.1579  144.9426  157.4130 H   0  0  0  0  0  0  0  0  0  0  0  0
  150.4555  143.5380  156.6302 H   0  0  0  0  0  0  0  0  0  0  0  0
  148.0196  140.8109  157.6902 H   0  0  0  0  0  0  0  0  0  0  0  0
  1  2  1  0  0  0  0
  1 23  1  0  0  0  0
  1 24  1  0  0  0  0
  1 25  1  0  0  0  0
  2  3  1  0  0  0  0
  2 26  1  0  0  0  0
  3  4  2  0  0  0  0
  3  5  1  0  0  0  0
  5 22  2  0  0  0  0
  5  6  1  0  0  0  0
  6  7  2  0  0  0  0
  6 27  1  0  0  0  0
  7  8  1  0  0  0  0
  7 28  1  0  0  0  0
  8  9  2  0  0  0  0
  8 10  1  0  0  0  0
 10 11  1  0  0  0  0
 10 22  1  0  0  0  0
 11 12  1  0  0  0  0
 11 29  1  0  0  0  0
 11 30  1  0  0  0  0
 12 13  2  0  0  0  0
 12 14  1  0  0  0  0
 14 15  1  0  0  0  0
 14 31  1  0  0  0  0
 15 20  1  0  0  0  0
 15 16  1  0  0  0  0
 15 32  1  0  0  0  0
 16 17  1  0  0  0  0
 16 33  1  0  0  0  0
 16 34  1  0  0  0  0
 17 18  1  0  0  0  0
 17 35  1  0  0  0  0
 17 36  1  0  0  0  0
 18 19  1  0  0  0  0
 18 37  1  0  0  0  0
 18 38  1  0  0  0  0
 19 20  1  0  0  0  0
 19 39  1  0  0  0  0
 19 40  1  0  0  0  0
 20 21  1  0  0  0  0
 20 41  1  0  0  0  0
 21 42  1  0  0  0  0
 21 43  1  0  0  0  0
 21 44  1  0  0  0  0
 22 45  1  0  0  0  0
M  END
> <s_m_source_file>
AV-unprocessed.smi

> <i_m_source_file_index>
1844

> <i_lp_mmshare_version>
43012

> <i_f3d_flags>
0

> <s_epik_input>
W0NIM11bTkhdQyg9TyljMVtjSF1bY0hdYyg9TyluKFtjSF0xKVtDSDJdQyg9TylbTkhdW0NAQEhdMltDSDJdW0NIMl1bQ0gyXVtDSDJdW0NASF0yW0NIM10=

> <s_epik_cmdline>
J2VwaWtfcHl0aG9uJywgJy1waCcsICc3LjAnLCAnLXRuJywgJzgnLCAnLW1hJywgJzIwMCcsICctbWV0YWxfYmluZGluZycsICctaW1hZScsICc8aW5maWxlLm1hZT4nLCAnLW9tYWUnLCAnPG91dGZpbGUubWFlPic=

> <r_lp_tautomer_probability>
1

> <r_epik_Ionization_Penalty>
3.66612e-07

> <r_epik_Ionization_Penalty_Charging>
5.18929e-08

> <r_epik_Ionization_Penalty_Neutral>
3.14719e-07

> <r_epik_State_Penalty>
-0

> <r_epik_Charging_Adjusted_Penalty>
5.18929e-08

> <i_epik_Tot_Q>
0

> <i_epik_Tot_abs_Q>
0

> <r_epik_Metal_State_Penalty>
-0

> <b_epik_Metal_Only>
0

> <s_lp_Force_Field>
OPLS_2005

> <r_lp_Energy>
22.707

> <b_lp_Chiralities_Consistent>
1

> <s_lp_Variant>
AV-unprocessed.smi:1844-1

> <Gold.Version>
5.8.1

> <Gold.Id.Protein>
6NUR|6NUR_protein|mol2

> <Gold.PLP.Fitness>
42.4467

> <Gold.PLP.PLP>
-35.0846

> <Gold.PLP.part.hbond>
-3.0000

> <Gold.PLP.part.metal>
0.0000

> <Gold.PLP.part.buried>
-2.0629

> <Gold.PLP.part.nonpolar>
-32.7981

> <Gold.PLP.part.repulsive>
3.0957

> <Gold.PLP.ligand.clash>
0.0000

> <Gold.PLP.ligand.torsion>
0.3303

> <Gold.PLP.Chemscore.Hbond>
2.6720

> <Gold.PLP.Chemscore.CHOScore>
0.0000

> <Gold.PLP.Chemscore.Metal>
0.0000

> <Gold.Chemscore.Hbonds>
donor molecule, donor type, donor heavy atom, donor atom, acceptor molecule, acceptor atom, score
      P1  H  6934  6946       L1     4  0.99
      P1  H  7989  7998       L1    13  0.75
      P1  H  8011  8017       L1     9  0.89

> <Gold.PLP.Chemscore.Internal.Correction>
0.0066

> <Gold.Rescore>
     Score         DG    S(hbond)    S(metal)    S(lipo)     H(rot)  DE(clash)    DE(int)     intcor
     18.72     -20.82       2.54        0.00      91.12       1.49       1.73       0.37       ----

> <Gold.Chemscore.Fitness>
18.7228

> <Gold.Chemscore.DG>
-20.8184

> <Gold.Chemscore.ZeroCoef>
-5.4800

> <Gold.Chemscore.Hbond>
2.5441

> <Gold.Chemscore.Metal>
0.0000

> <Gold.Chemscore.Lipo>
91.1234

> <Gold.Chemscore.Internal_Hbond>
0.0000

> <Gold.Chemscore.DEClash>
1.7281

> <Gold.Chemscore.DEInternal>
0.3676

> <Gold.Chemscore.Rot>
1.4923

> <Gold.Chemscore.Internal.Correction>
   9.000000E+99

> <Gold.Chemscore.Hbonds>
donor molecule, donor type, donor heavy atom, donor atom, acceptor molecule, acceptor atom, score
      P1  H  6934  6946       L1     4  0.88
      P1  H  7989  7998       L1    13  0.74
      P1  H  8011  8017       L1     9  0.80

> <Gold.Chemscore.Hbond.Weighted>
-8.4974

> <Gold.Chemscore.Metal.Weighted>
-0.0000

> <Gold.Chemscore.Lipo.Weighted>
-10.6614

> <Gold.Chemscore.Internal_Hbond.Weighted>
0.0000

> <Gold.Chemscore.DEClash.Weighted>
1.7281

> <Gold.Chemscore.DEInternal.Weighted>
0.3676

> <Gold.Chemscore.Rot.Weighted>
3.8204

> <Gold.Chemscore.Internal.Correction.Weighted>
   9.000000E+99

> <Gold.Protein.RotatedTorsions>
[ 6907 6896 6895 6894 ] final  104.15 input  -60.11 | X-H torsion
[ 7974 7965 7964 7962 ] final  -80.84 input  175.53 | X-H torsion
[ 8008 7997 7996 7995 ] final -144.74 input   59.86 | X-H torsion
[ 10167 10162 10161 10158 ] final  -87.11 input  -65.29 | X-H torsion
[ 10718 10713 10712 10709 ] final  167.14 input   66.30 | X-H torsion
[ 10763 10752 10751 10750 ] final  113.62 input  -60.55 | X-H torsion
[ 11005 11000 10999 10996 ] final   25.07 input  -57.11 | X-H torsion

> <Gold.Protein.ActiveResidues>
 VAL166  LYS551  ARG553  GLY616  TRP617  ASP618  TYR619  PRO620  LYS621  CYS622 
 ASP623  PHE694  ASN695  SER759  ASP760  ASP761  ALA762  ILE779  LEU786  VAL792 
 PHE793  MET794  SER795  GLU796  ALA797  LYS798  CYS799  TRP800  GLU811  SER814 

> <Gold.Protein.RotatedAtoms>
  152.5273  133.9719  159.7765 H   0  0  0  0  0  0  0  0  0  0  0  0  # atno 6907 bound_to 6896
  150.9989  133.6067  159.2705 H   0  0  0  0  0  0  0  0  0  0  0  0  # atno 6908 bound_to 6896
  151.3184  135.0818  159.9350 H   0  0  0  0  0  0  0  0  0  0  0  0  # atno 6909 bound_to 6896
  145.5546  140.9491  143.1480 H   0  0  0  0  0  0  0  0  0  0  0  0  # atno 7974 bound_to 7965
  155.5319  140.0600  157.2887 H   0  0  0  0  0  0  0  0  0  0  0  0  # atno 8008 bound_to 7997
  154.4481  140.1934  156.0548 H   0  0  0  0  0  0  0  0  0  0  0  0  # atno 8009 bound_to 7997
  156.0646  140.3268  155.7506 H   0  0  0  0  0  0  0  0  0  0  0  0  # atno 8010 bound_to 7997
  140.3876  143.2719  151.9305 H   0  0  0  0  0  0  0  0  0  0  0  0  # atno 10167 bound_to 10162
  157.0557  131.0326  151.2665 H   0  0  0  0  0  0  0  0  0  0  0  0  # atno 10718 bound_to 10713
  153.4951  135.3650  155.2512 H   0  0  0  0  0  0  0  0  0  0  0  0  # atno 10763 bound_to 10752
  154.8750  135.3986  154.3543 H   0  0  0  0  0  0  0  0  0  0  0  0  # atno 10764 bound_to 10752
  153.4169  135.7079  153.6386 H   0  0  0  0  0  0  0  0  0  0  0  0  # atno 10765 bound_to 10752
  140.3518  134.2220  155.7679 H   0  0  0  0  0  0  0  0  0  0  0  0  # atno 11005 bound_to 11000
  144.7512  139.7189  143.7272 LP  0  0  0  0  0  0  0  0  0  0  0  0  # atno 17320 bound_to 7965
  146.1893  139.5124  142.9816 LP  0  0  0  0  0  0  0  0  0  0  0  0  # atno 17321 bound_to 7965
  139.4791  144.5758  151.8013 LP  0  0  0  0  0  0  0  0  0  0  0  0  # atno 17342 bound_to 10162
  140.4873  144.1362  150.5943 LP  0  0  0  0  0  0  0  0  0  0  0  0  # atno 17343 bound_to 10162
  157.4995  130.7871  149.7589 LP  0  0  0  0  0  0  0  0  0  0  0  0  # atno 17370 bound_to 10713
  155.9994  130.3889  150.2667 LP  0  0  0  0  0  0  0  0  0  0  0  0  # atno 17371 bound_to 10713
  141.2010  133.7974  157.0463 LP  0  0  0  0  0  0  0  0  0  0  0  0  # atno 17394 bound_to 11000
  140.0697  134.9709  157.1446 LP  0  0  0  0  0  0  0  0  0  0  0  0  # atno 17395 bound_to 11000

$$$$
