AV-unprocessed.smi:1350|AV-procd|sdf|5523|dock1
  -GOLD-   22720 5113D 1   1.00000     0.00000
 Structure written by MMmdl.
 44 46  0  0  0  0  0  0  0  0  2 V2000
  147.2027  137.3931  163.5412 C   0  0  0  0  0  0  0  0  0  0  0  0
  147.6786  137.1650  162.2227 O   0  0  0  0  0  0  0  0  0  0  0  0
  147.5456  135.9004  161.6851 C   0  0  0  0  0  0  0  0  0  0  0  0
  146.9776  134.8092  162.3925 C   0  0  0  0  0  0  0  0  0  0  0  0
  146.8575  133.5448  161.7863 C   0  0  0  0  0  0  0  0  0  0  0  0
  147.2972  133.3523  160.4656 C   0  0  0  0  0  0  0  0  0  0  0  0
  147.8639  134.4246  159.7542 C   0  0  0  0  0  0  0  0  0  0  0  0
  148.0005  135.6936  160.3589 C   0  0  0  0  0  0  0  0  0  0  0  0
  148.6022  136.8411  159.5604 C   0  0  0  0  0  0  0  0  0  0  0  0
  149.7484  136.4430  158.8237 O   0  0  0  0  0  0  0  0  0  0  0  0
  149.7688  136.9649  157.5053 C   0  0  0  0  0  0  0  0  0  0  0  0
  150.9926  137.8817  157.3487 C   0  0  1  0  0  0  0  0  0  0  0  0
  151.2718  138.0313  155.9704 O   0  0  0  0  0  0  0  0  0  0  0  0
  150.7544  139.2710  157.9724 C   0  0  0  0  0  0  0  0  0  0  0  0
  151.8632  139.7038  158.8356 N   0  0  0  0  0  0  0  0  0  0  0  0
  152.8592  138.9661  159.3973 C   0  0  0  0  0  0  0  0  0  0  0  0
  153.6467  139.8144  160.1143 N   0  3  0  0  0  0  0  0  0  0  0  0
  153.1488  141.1145  160.0081 C   0  0  0  0  0  0  0  0  0  0  0  0
  153.6043  142.3102  160.5548 C   0  0  0  0  0  0  0  0  0  0  0  0
  152.8635  143.4699  160.2463 C   0  0  0  0  0  0  0  0  0  0  0  0
  151.7201  143.4134  159.4233 C   0  0  0  0  0  0  0  0  0  0  0  0
  151.2666  142.1953  158.8752 C   0  0  0  0  0  0  0  0  0  0  0  0
  152.0031  141.0522  159.1862 C   0  0  0  0  0  0  0  0  0  0  0  0
  147.3948  138.4295  163.8177 H   0  0  0  0  0  0  0  0  0  0  0  0
  147.7158  136.7594  164.2656 H   0  0  0  0  0  0  0  0  0  0  0  0
  146.1269  137.2272  163.6115 H   0  0  0  0  0  0  0  0  0  0  0  0
  146.6212  134.9157  163.4055 H   0  0  0  0  0  0  0  0  0  0  0  0
  146.4228  132.7225  162.3352 H   0  0  0  0  0  0  0  0  0  0  0  0
  147.1994  132.3841  159.9972 H   0  0  0  0  0  0  0  0  0  0  0  0
  148.1934  134.2655  158.7379 H   0  0  0  0  0  0  0  0  0  0  0  0
  147.8373  137.2236  158.8832 H   0  0  0  0  0  0  0  0  0  0  0  0
  148.8822  137.6549  160.2303 H   0  0  0  0  0  0  0  0  0  0  0  0
  149.7727  136.1672  156.7605 H   0  0  0  0  0  0  0  0  0  0  0  0
  148.8566  137.5440  157.3529 H   0  0  0  0  0  0  0  0  0  0  0  0
  151.8552  137.4236  157.8344 H   0  0  0  0  0  0  0  0  0  0  0  0
  151.0213  137.2368  155.5249 H   0  0  0  0  0  0  0  0  0  0  0  0
  150.5695  140.0255  157.2077 H   0  0  0  0  0  0  0  0  0  0  0  0
  149.8609  139.2462  158.5975 H   0  0  0  0  0  0  0  0  0  0  0  0
  152.9995  137.8999  159.2925 H   0  0  0  0  0  0  0  0  0  0  0  0
  154.4810  142.3562  161.1842 H   0  0  0  0  0  0  0  0  0  0  0  0
  153.1795  144.4219  160.6477 H   0  0  0  0  0  0  0  0  0  0  0  0
  151.1796  144.3235  159.2069 H   0  0  0  0  0  0  0  0  0  0  0  0
  150.3918  142.1670  158.2432 H   0  0  0  0  0  0  0  0  0  0  0  0
  154.4644  139.5242  160.6352 H   0  0  0  0  0  0  0  0  0  0  0  0
  1  2  1  0  0  0  0
  1 24  1  0  0  0  0
  1 25  1  0  0  0  0
  1 26  1  0  0  0  0
  2  3  1  0  0  0  0
  3  8  1  0  0  0  0
  3  4  2  0  0  0  0
  4  5  1  0  0  0  0
  4 27  1  0  0  0  0
  5  6  2  0  0  0  0
  5 28  1  0  0  0  0
  6  7  1  0  0  0  0
  6 29  1  0  0  0  0
  7  8  2  0  0  0  0
  7 30  1  0  0  0  0
  8  9  1  0  0  0  0
  9 10  1  0  0  0  0
  9 31  1  0  0  0  0
  9 32  1  0  0  0  0
 10 11  1  0  0  0  0
 11 12  1  0  0  0  0
 11 33  1  0  0  0  0
 11 34  1  0  0  0  0
 12 13  1  0  0  0  0
 12 14  1  0  0  0  0
 12 35  1  0  0  0  0
 13 36  1  0  0  0  0
 14 15  1  0  0  0  0
 14 37  1  0  0  0  0
 14 38  1  0  0  0  0
 15 23  1  0  0  0  0
 15 16  1  0  0  0  0
 16 17  2  0  0  0  0
 16 39  1  0  0  0  0
 17 18  1  0  0  0  0
 17 44  1  0  0  0  0
 18 23  2  0  0  0  0
 18 19  1  0  0  0  0
 19 20  2  0  0  0  0
 19 40  1  0  0  0  0
 20 21  1  0  0  0  0
 20 41  1  0  0  0  0
 21 22  2  0  0  0  0
 21 42  1  0  0  0  0
 22 23  1  0  0  0  0
 22 43  1  0  0  0  0
M  CHG  1  17   1
M  END
> <s_m_source_file>
AV-unprocessed.smi

> <i_m_source_file_index>
1350

> <i_lp_mmshare_version>
43012

> <i_f3d_flags>
0

> <s_epik_input>
W0NIM11PYzFbY0hdW2NIXVtjSF1bY0hdYzFbQ0gyXU9bQ0gyXVtDQEhdKFtPSF0pW0NIMl1uKFtjSF1uMiljKGMyMylbY0hdW2NIXVtjSF1bY0hdMw==

> <s_epik_cmdline>
J2VwaWtfcHl0aG9uJywgJy1waCcsICc3LjAnLCAnLXRuJywgJzgnLCAnLW1hJywgJzIwMCcsICctbWV0YWxfYmluZGluZycsICctaW1hZScsICc8aW5maWxlLm1hZT4nLCAnLW9tYWUnLCAnPG91dGZpbGUubWFlPic=

> <r_lp_tautomer_probability>
1

> <r_epik_Ionization_Penalty>
1.28975

> <r_epik_Ionization_Penalty_Charging>
1.28975

> <r_epik_Ionization_Penalty_Neutral>
1.07667e-06

> <r_epik_State_Penalty>
1.36276

> <r_epik_Charging_Adjusted_Penalty>
2.65251

> <i_epik_Tot_Q>
1

> <i_epik_Tot_abs_Q>
1

> <r_epik_Metal_State_Penalty>
5.39298

> <b_epik_Metal_Only>
0

> <s_lp_Force_Field>
OPLS_2005

> <r_lp_Energy>
25.8807

> <b_lp_Chiralities_Consistent>
1

> <s_lp_Variant>
AV-unprocessed.smi:1350-4

> <Gold.Version>
5.8.1

> <Gold.Id.Protein>
6NUR|6NUR_protein|mol2

> <Gold.PLP.Fitness>
49.4311

> <Gold.PLP.PLP>
-46.1550

> <Gold.PLP.part.hbond>
-3.0000

> <Gold.PLP.part.metal>
0.0000

> <Gold.PLP.part.buried>
-5.2687

> <Gold.PLP.part.nonpolar>
-37.5830

> <Gold.PLP.part.repulsive>
0.0710

> <Gold.PLP.ligand.clash>
0.0000

> <Gold.PLP.ligand.torsion>
2.0016

> <Gold.PLP.Chemscore.Hbond>
2.3159

> <Gold.PLP.Chemscore.CHOScore>
0.0000

> <Gold.PLP.Chemscore.Metal>
0.0000

> <Gold.Chemscore.Hbonds>
donor molecule, donor type, donor heavy atom, donor atom, acceptor molecule, acceptor atom, score
      P1  H  6896  6907       L1    10  0.80
      P1  H  6931  6943       L1     2  0.96
      P1  H  6934  6947       L1     2  0.18

> <Gold.PLP.Chemscore.Internal.Correction>
0.3315

> <Gold.Rescore>
     Score         DG    S(hbond)    S(metal)    S(lipo)     H(rot)  DE(clash)    DE(int)     intcor
     17.08     -19.56       1.79        0.00     129.14       2.74       0.48       2.01       ----

> <Gold.Chemscore.Fitness>
17.0766

> <Gold.Chemscore.DG>
-19.5632

> <Gold.Chemscore.ZeroCoef>
-5.4800

> <Gold.Chemscore.Hbond>
1.7922

> <Gold.Chemscore.Metal>
0.0000

> <Gold.Chemscore.Lipo>
129.1364

> <Gold.Chemscore.Internal_Hbond>
0.0000

> <Gold.Chemscore.DEClash>
0.4787

> <Gold.Chemscore.DEInternal>
2.0080

> <Gold.Chemscore.Rot>
2.7390

> <Gold.Chemscore.Internal.Correction>
   9.000000E+99

> <Gold.Chemscore.Hbonds>
donor molecule, donor type, donor heavy atom, donor atom, acceptor molecule, acceptor atom, score
      P1  H  6896  6907       L1    10  0.69
      P1  H  6931  6943       L1     2  0.60
      P1  H  6934  6947       L1     2  0.12

> <Gold.Chemscore.Hbond.Weighted>
-5.9861

> <Gold.Chemscore.Metal.Weighted>
-0.0000

> <Gold.Chemscore.Lipo.Weighted>
-15.1090

> <Gold.Chemscore.Internal_Hbond.Weighted>
0.0000

> <Gold.Chemscore.DEClash.Weighted>
0.4787

> <Gold.Chemscore.DEInternal.Weighted>
2.0080

> <Gold.Chemscore.Rot.Weighted>
7.0118

> <Gold.Chemscore.Internal.Correction.Weighted>
   9.000000E+99

> <Gold.Protein.RotatedTorsions>
[ 6907 6896 6895 6894 ] final  -55.85 input  -60.11 | X-H torsion
[ 7974 7965 7964 7962 ] final   91.16 input  175.53 | X-H torsion
[ 8008 7997 7996 7995 ] final  108.31 input   59.86 | X-H torsion
[ 10167 10162 10161 10158 ] final  -84.75 input  -65.29 | X-H torsion
[ 10718 10713 10712 10709 ] final  136.38 input   66.30 | X-H torsion
[ 10763 10752 10751 10750 ] final -156.84 input  -60.55 | X-H torsion
[ 11005 11000 10999 10996 ] final   59.65 input  -57.11 | X-H torsion

> <Gold.Protein.ActiveResidues>
 VAL166  LYS551  ARG553  GLY616  TRP617  ASP618  TYR619  PRO620  LYS621  CYS622 
 ASP623  PHE694  ASN695  SER759  ASP760  ASP761  ALA762  ILE779  LEU786  VAL792 
 PHE793  MET794  SER795  GLU796  ALA797  LYS798  CYS799  TRP800  GLU811  SER814 

> <Gold.Protein.RotatedAtoms>
  150.8217  134.7428  159.6777 H   0  0  0  0  0  0  0  0  0  0  0  0  # atno 6907 bound_to 6896
  152.4332  134.5734  159.9937 H   0  0  0  0  0  0  0  0  0  0  0  0  # atno 6908 bound_to 6896
  151.5917  133.3328  159.3065 H   0  0  0  0  0  0  0  0  0  0  0  0  # atno 6909 bound_to 6896
  145.5094  139.2276  143.2733 H   0  0  0  0  0  0  0  0  0  0  0  0  # atno 7974 bound_to 7965
  156.1893  140.3079  155.9300 H   0  0  0  0  0  0  0  0  0  0  0  0  # atno 8008 bound_to 7997
  155.3210  140.0456  157.3056 H   0  0  0  0  0  0  0  0  0  0  0  0  # atno 8009 bound_to 7997
  154.5433  140.2268  155.8614 H   0  0  0  0  0  0  0  0  0  0  0  0  # atno 8010 bound_to 7997
  140.4103  143.2625  151.9027 H   0  0  0  0  0  0  0  0  0  0  0  0  # atno 10167 bound_to 10162
  157.4472  131.1063  151.0075 H   0  0  0  0  0  0  0  0  0  0  0  0  # atno 10718 bound_to 10713
  154.7682  135.3137  154.8243 H   0  0  0  0  0  0  0  0  0  0  0  0  # atno 10763 bound_to 10752
  153.8985  135.6818  153.4761 H   0  0  0  0  0  0  0  0  0  0  0  0  # atno 10764 bound_to 10752
  153.1292  135.4788  154.9254 H   0  0  0  0  0  0  0  0  0  0  0  0  # atno 10765 bound_to 10752
  140.0289  134.6042  155.9535 H   0  0  0  0  0  0  0  0  0  0  0  0  # atno 11005 bound_to 11000
  146.2176  140.5900  142.9031 LP  0  0  0  0  0  0  0  0  0  0  0  0  # atno 17320 bound_to 7965
  144.7736  140.5691  143.6653 LP  0  0  0  0  0  0  0  0  0  0  0  0  # atno 17321 bound_to 7965
  139.4782  144.5544  151.8336 LP  0  0  0  0  0  0  0  0  0  0  0  0  # atno 17342 bound_to 10162
  140.4645  144.1675  150.5910 LP  0  0  0  0  0  0  0  0  0  0  0  0  # atno 17343 bound_to 10162
  157.0918  130.5945  149.5441 LP  0  0  0  0  0  0  0  0  0  0  0  0  # atno 17370 bound_to 10713
  155.9972  130.5043  150.7526 LP  0  0  0  0  0  0  0  0  0  0  0  0  # atno 17371 bound_to 10713
  141.1819  133.6548  156.5055 LP  0  0  0  0  0  0  0  0  0  0  0  0  # atno 17394 bound_to 11000
  140.4260  134.7145  157.4916 LP  0  0  0  0  0  0  0  0  0  0  0  0  # atno 17395 bound_to 11000

$$$$
