AV-unprocessed.smi:2591|AV-procd|sdf|10157|dock7
  -GOLD-   2272014173D 1   1.00000     0.00000
 Structure written by MMmdl.
 34 35  0  0  0  0  0  0  0  0  1 V2000
  147.0786  138.0674  154.1266 C   0  0  0  0  0  0  0  0  0  0  0  0
  147.7541  139.3413  153.9318 N   0  0  0  0  0  0  0  0  0  0  0  0
  146.8159  140.4553  153.9350 C   0  0  0  0  0  0  0  0  0  0  0  0
  147.5344  141.7998  153.7329 C   0  0  0  0  0  0  0  0  0  0  0  0
  148.5340  141.9635  154.7346 O   0  0  0  0  0  0  0  0  0  0  0  0
  149.5040  140.9147  154.7398 C   0  0  1  0  0  0  0  0  0  0  0  0
  150.5447  141.2063  155.8307 C   0  0  0  0  0  0  0  0  0  0  0  0
  151.4103  140.3713  156.0980 O   0  0  0  0  0  0  0  0  0  0  0  0
  150.4434  142.4108  156.4249 N   0  0  0  0  0  0  0  0  0  0  0  0
  151.2594  142.9619  157.4480 C   0  0  0  0  0  0  0  0  0  0  0  0
  151.8764  142.0154  158.2960 C   0  0  0  0  0  0  0  0  0  0  0  0
  152.7019  142.4556  159.3533 C   0  0  0  0  0  0  0  0  0  0  0  0
  153.3818  141.4591  160.2795 C   0  0  0  0  0  0  0  0  0  0  0  0
  152.8331  140.2498  160.1604 F   0  0  0  0  0  0  0  0  0  0  0  0
  154.6809  141.3584  159.9954 F   0  0  0  0  0  0  0  0  0  0  0  0
  153.2483  141.8692  161.5401 F   0  0  0  0  0  0  0  0  0  0  0  0
  152.8939  143.8424  159.5174 C   0  0  0  0  0  0  0  0  0  0  0  0
  152.2455  144.7167  158.6268 C   0  0  0  0  0  0  0  0  0  0  0  0
  151.4504  144.2927  157.6231 N   0  0  0  0  0  0  0  0  0  0  0  0
  148.7812  139.5629  154.9416 C   0  0  0  0  0  0  0  0  0  0  0  0
  146.3359  137.9004  153.3458 H   0  0  0  0  0  0  0  0  0  0  0  0
  146.5717  138.0334  155.0919 H   0  0  0  0  0  0  0  0  0  0  0  0
  147.7916  137.2433  154.0882 H   0  0  0  0  0  0  0  0  0  0  0  0
  146.0742  140.3174  153.1476 H   0  0  0  0  0  0  0  0  0  0  0  0
  146.2694  140.4767  154.8793 H   0  0  0  0  0  0  0  0  0  0  0  0
  147.9905  141.8490  152.7430 H   0  0  0  0  0  0  0  0  0  0  0  0
  146.8240  142.6236  153.7997 H   0  0  0  0  0  0  0  0  0  0  0  0
  150.0254  140.9103  153.7808 H   0  0  0  0  0  0  0  0  0  0  0  0
  149.6889  142.9998  156.1040 H   0  0  0  0  0  0  0  0  0  0  0  0
  151.7166  140.9585  158.1375 H   0  0  0  0  0  0  0  0  0  0  0  0
  153.5236  144.2317  160.3040 H   0  0  0  0  0  0  0  0  0  0  0  0
  152.3695  145.7853  158.7214 H   0  0  0  0  0  0  0  0  0  0  0  0
  148.3314  139.5331  155.9359 H   0  0  0  0  0  0  0  0  0  0  0  0
  149.5071  138.7494  154.9034 H   0  0  0  0  0  0  0  0  0  0  0  0
  1  2  1  0  0  0  0
  1 21  1  0  0  0  0
  1 22  1  0  0  0  0
  1 23  1  0  0  0  0
  2 20  1  0  0  0  0
  2  3  1  0  0  0  0
  3  4  1  0  0  0  0
  3 24  1  0  0  0  0
  3 25  1  0  0  0  0
  4  5  1  0  0  0  0
  4 26  1  0  0  0  0
  4 27  1  0  0  0  0
  5  6  1  0  0  0  0
  6  7  1  0  0  0  0
  6 20  1  0  0  0  0
  6 28  1  0  0  0  0
  7  8  2  0  0  0  0
  7  9  1  0  0  0  0
  9 10  1  0  0  0  0
  9 29  1  0  0  0  0
 10 19  1  0  0  0  0
 10 11  2  0  0  0  0
 11 12  1  0  0  0  0
 11 30  1  0  0  0  0
 12 13  1  0  0  0  0
 12 17  2  0  0  0  0
 13 14  1  0  0  0  0
 13 15  1  0  0  0  0
 13 16  1  0  0  0  0
 17 18  1  0  0  0  0
 17 31  1  0  0  0  0
 18 19  2  0  0  0  0
 18 32  1  0  0  0  0
 20 33  1  0  0  0  0
 20 34  1  0  0  0  0
M  END
> <s_m_source_file>
AV-unprocessed.smi

> <i_m_source_file_index>
2591

> <i_lp_mmshare_version>
43012

> <i_f3d_flags>
0

> <s_epik_input>
W0NIM11OMVtDSDJdW0NIMl1PW0NASF0oW0NIMl0xKUMoPU8pW05IXWMyW2NIXWMoQyhGKShGKUYpW2NIXVtjSF1uMg==

> <s_epik_cmdline>
J2VwaWtfcHl0aG9uJywgJy1waCcsICc3LjAnLCAnLXRuJywgJzgnLCAnLW1hJywgJzIwMCcsICctbWV0YWxfYmluZGluZycsICctaW1hZScsICc8aW5maWxlLm1hZT4nLCAnLW9tYWUnLCAnPG91dGZpbGUubWFlPic=

> <r_epik_Ionization_Penalty>
0.526245

> <r_epik_Ionization_Penalty_Charging>
0

> <r_epik_Ionization_Penalty_Neutral>
0.526245

> <r_epik_State_Penalty>
0.534659

> <r_epik_Charging_Adjusted_Penalty>
0.534659

> <i_epik_Tot_Q>
0

> <i_epik_Tot_abs_Q>
0

> <r_epik_Metal_State_Penalty>
0.534657

> <b_epik_Metal_Only>
0

> <s_lp_Force_Field>
OPLS_2005

> <r_lp_Energy>
21.9247

> <b_lp_Chiralities_Consistent>
1

> <s_lp_Variant>
AV-unprocessed.smi:2591-5

> <Gold.Version>
5.8.1

> <Gold.Id.Protein>
6NUR|6NUR_protein|mol2

> <Gold.PLP.Fitness>
45.0164

> <Gold.PLP.PLP>
-42.9876

> <Gold.PLP.part.hbond>
-1.0570

> <Gold.PLP.part.metal>
0.0000

> <Gold.PLP.part.buried>
-6.8687

> <Gold.PLP.part.nonpolar>
-36.2197

> <Gold.PLP.part.repulsive>
2.1342

> <Gold.PLP.ligand.clash>
0.3566

> <Gold.PLP.ligand.torsion>
0.8384

> <Gold.PLP.Chemscore.Hbond>
0.9920

> <Gold.PLP.Chemscore.CHOScore>
0.0000

> <Gold.PLP.Chemscore.Metal>
0.0000

> <Gold.Chemscore.Hbonds>
donor molecule, donor type, donor heavy atom, donor atom, acceptor molecule, acceptor atom, score
      L1  H     9    29       P1  8028  1.00

> <Gold.PLP.Chemscore.Internal.Correction>
1.0861

> <Gold.Rescore>
     Score         DG    S(hbond)    S(metal)    S(lipo)     H(rot)  DE(clash)    DE(int)     intcor
     13.29     -16.41       0.98        0.00      87.47       1.00       1.26       1.86       ----

> <Gold.Chemscore.Fitness>
13.2904

> <Gold.Chemscore.DG>
-16.4126

> <Gold.Chemscore.ZeroCoef>
-5.4800

> <Gold.Chemscore.Hbond>
0.9755

> <Gold.Chemscore.Metal>
0.0000

> <Gold.Chemscore.Lipo>
87.4746

> <Gold.Chemscore.Internal_Hbond>
0.0000

> <Gold.Chemscore.DEClash>
1.2609

> <Gold.Chemscore.DEInternal>
1.8613

> <Gold.Chemscore.Rot>
1.0000

> <Gold.Chemscore.Internal.Correction>
   9.000000E+99

> <Gold.Chemscore.Hbonds>
donor molecule, donor type, donor heavy atom, donor atom, acceptor molecule, acceptor atom, score
      L1  H     9    29       P1  8028  0.96

> <Gold.Chemscore.Hbond.Weighted>
-3.2581

> <Gold.Chemscore.Metal.Weighted>
-0.0000

> <Gold.Chemscore.Lipo.Weighted>
-10.2345

> <Gold.Chemscore.Internal_Hbond.Weighted>
0.0000

> <Gold.Chemscore.DEClash.Weighted>
1.2609

> <Gold.Chemscore.DEInternal.Weighted>
1.8613

> <Gold.Chemscore.Rot.Weighted>
2.5600

> <Gold.Chemscore.Internal.Correction.Weighted>
   9.000000E+99

> <Gold.Protein.RotatedTorsions>
[ 6907 6896 6895 6894 ] final   76.45 input  -60.11 | X-H torsion
[ 7974 7965 7964 7962 ] final  -40.88 input  175.53 | X-H torsion
[ 8008 7997 7996 7995 ] final    0.58 input   59.86 | X-H torsion
[ 10167 10162 10161 10158 ] final -166.26 input  -65.29 | X-H torsion
[ 10718 10713 10712 10709 ] final  -11.44 input   66.30 | X-H torsion
[ 10763 10752 10751 10750 ] final   58.19 input  -60.55 | X-H torsion
[ 11005 11000 10999 10996 ] final -139.25 input  -57.11 | X-H torsion

> <Gold.Protein.ActiveResidues>
 VAL166  LYS551  ARG553  GLY616  TRP617  ASP618  TYR619  PRO620  LYS621  CYS622 
 ASP623  PHE694  ASN695  SER759  ASP760  ASP761  ALA762  ILE779  LEU786  VAL792 
 PHE793  MET794  SER795  GLU796  ALA797  LYS798  CYS799  TRP800  GLU811  SER814 

> <Gold.Protein.RotatedAtoms>
  152.5073  134.3967  159.9402 H   0  0  0  0  0  0  0  0  0  0  0  0  # atno 6907 bound_to 6896
  151.3930  133.3776  159.2731 H   0  0  0  0  0  0  0  0  0  0  0  0  # atno 6908 bound_to 6896
  150.9418  134.8848  159.7676 H   0  0  0  0  0  0  0  0  0  0  0  0  # atno 6909 bound_to 6896
  146.0264  140.6787  142.9154 H   0  0  0  0  0  0  0  0  0  0  0  0  # atno 7974 bound_to 7965
  154.6697  140.2609  155.7020 H   0  0  0  0  0  0  0  0  0  0  0  0  # atno 8008 bound_to 7997
  156.2654  140.2832  156.1124 H   0  0  0  0  0  0  0  0  0  0  0  0  # atno 8009 bound_to 7997
  155.1186  140.0376  157.2734 H   0  0  0  0  0  0  0  0  0  0  0  0  # atno 8010 bound_to 7997
  139.6127  144.0783  152.1857 H   0  0  0  0  0  0  0  0  0  0  0  0  # atno 10167 bound_to 10162
  156.6590  130.4976  149.6037 H   0  0  0  0  0  0  0  0  0  0  0  0  # atno 10718 bound_to 10713
  152.9865  135.5615  154.5513 H   0  0  0  0  0  0  0  0  0  0  0  0  # atno 10763 bound_to 10752
  154.4949  135.2794  155.1469 H   0  0  0  0  0  0  0  0  0  0  0  0  # atno 10764 bound_to 10752
  154.2923  135.6324  153.5443 H   0  0  0  0  0  0  0  0  0  0  0  0  # atno 10765 bound_to 10752
  140.8537  134.2254  157.4746 H   0  0  0  0  0  0  0  0  0  0  0  0  # atno 11005 bound_to 11000
  144.7011  140.3657  143.7155 LP  0  0  0  0  0  0  0  0  0  0  0  0  # atno 17320 bound_to 7965
  145.7112  139.1685  143.2538 LP  0  0  0  0  0  0  0  0  0  0  0  0  # atno 17321 bound_to 7965
  140.0405  144.6011  150.7415 LP  0  0  0  0  0  0  0  0  0  0  0  0  # atno 17342 bound_to 10162
  140.7330  143.2712  151.3884 LP  0  0  0  0  0  0  0  0  0  0  0  0  # atno 17343 bound_to 10162
  156.2026  130.6629  151.1183 LP  0  0  0  0  0  0  0  0  0  0  0  0  # atno 17370 bound_to 10713
  157.7116  131.0731  150.6480 LP  0  0  0  0  0  0  0  0  0  0  0  0  # atno 17371 bound_to 10713
  139.8704  134.9696  156.4671 LP  0  0  0  0  0  0  0  0  0  0  0  0  # atno 17394 bound_to 11000
  140.8761  133.7952  155.9416 LP  0  0  0  0  0  0  0  0  0  0  0  0  # atno 17395 bound_to 11000

$$$$
