AV-unprocessed.smi:618|AV-procd|sdf|3081|dock10
  -GOLD-   22720 0 03D 1   1.00000     0.00000
 Structure written by MMmdl.
 41 43  0  0  0  0  0  0  0  0  2 V2000
  150.6864  135.0669  155.9976 O   0  0  0  0  0  0  0  0  0  0  0  0
  150.2858  135.3569  154.8706 C   0  0  0  0  0  0  0  0  0  0  0  0
  149.7054  134.4755  154.0440 N   0  0  0  0  0  0  0  0  0  0  0  0
  149.4678  133.0680  154.3492 C   0  0  0  0  0  0  0  0  0  0  0  0
  148.6289  132.3776  153.2588 C   0  0  1  0  0  0  0  0  0  0  0  0
  148.2884  130.9166  153.6394 C   0  0  0  0  0  0  0  0  0  0  0  0
  147.3967  130.3617  152.6044 N   0  3  1  0  0  0  0  0  0  0  0  0
  146.9486  128.9651  152.7407 C   0  0  0  0  0  0  0  0  0  0  0  0
  145.6386  128.8911  151.9302 C   0  0  0  0  0  0  0  0  0  0  0  0
  145.3219  130.3395  151.5135 C   0  0  0  0  0  0  0  0  0  0  0  0
  146.1815  131.1666  152.4637 C   0  0  2  0  0  0  0  0  0  0  0  0
  146.5709  132.5886  152.0418 C   0  0  0  0  0  0  0  0  0  0  0  0
  147.4188  133.1190  153.0615 O   0  0  0  0  0  0  0  0  0  0  0  0
  150.3448  136.5793  154.3151 N   0  0  0  0  0  0  0  0  0  0  0  0
  150.8850  137.7728  154.8657 C   0  0  0  0  0  0  0  0  0  0  0  0
  151.7936  137.8080  155.9512 C   0  0  0  0  0  0  0  0  0  0  0  0
  152.2727  139.0550  156.3961 C   0  0  0  0  0  0  0  0  0  0  0  0
  151.8338  140.2191  155.7363 C   0  0  0  0  0  0  0  0  0  0  0  0
  150.9799  140.1995  154.6911 N   0  0  0  0  0  0  0  0  0  0  0  0
  150.5253  139.0002  154.2693 C   0  0  0  0  0  0  0  0  0  0  0  0
  149.4083  134.8011  153.1355 H   0  0  0  0  0  0  0  0  0  0  0  0
  150.4417  132.5836  154.4228 H   0  0  0  0  0  0  0  0  0  0  0  0
  148.9956  132.9559  155.3269 H   0  0  0  0  0  0  0  0  0  0  0  0
  149.1948  132.3784  152.3252 H   0  0  0  0  0  0  0  0  0  0  0  0
  149.1947  130.3136  153.7045 H   0  0  0  0  0  0  0  0  0  0  0  0
  147.7981  130.8756  154.6135 H   0  0  0  0  0  0  0  0  0  0  0  0
  147.7075  128.2727  152.3752 H   0  0  0  0  0  0  0  0  0  0  0  0
  146.7545  128.7354  153.7895 H   0  0  0  0  0  0  0  0  0  0  0  0
  145.7414  128.2485  151.0549 H   0  0  0  0  0  0  0  0  0  0  0  0
  144.8380  128.4801  152.5468 H   0  0  0  0  0  0  0  0  0  0  0  0
  145.6335  130.5060  150.4814 H   0  0  0  0  0  0  0  0  0  0  0  0
  144.2607  130.5797  151.5885 H   0  0  0  0  0  0  0  0  0  0  0  0
  145.6768  131.2098  153.4316 H   0  0  0  0  0  0  0  0  0  0  0  0
  147.0831  132.5968  151.0784 H   0  0  0  0  0  0  0  0  0  0  0  0
  145.6854  133.2173  151.9478 H   0  0  0  0  0  0  0  0  0  0  0  0
  149.8975  136.6822  153.4160 H   0  0  0  0  0  0  0  0  0  0  0  0
  152.1411  136.9105  156.4387 H   0  0  0  0  0  0  0  0  0  0  0  0
  152.9657  139.1170  157.2219 H   0  0  0  0  0  0  0  0  0  0  0  0
  152.1827  141.1908  156.0526 H   0  0  0  0  0  0  0  0  0  0  0  0
  149.8460  139.0232  153.4297 H   0  0  0  0  0  0  0  0  0  0  0  0
  147.8837  130.4209  151.7214 H   0  0  0  0  0  0  0  0  0  0  0  0
  1  2  2  0  0  0  0
  2  3  1  0  0  0  0
  2 14  1  0  0  0  0
  3  4  1  0  0  0  0
  3 21  1  0  0  0  0
  4  5  1  0  0  0  0
  4 22  1  0  0  0  0
  4 23  1  0  0  0  0
  5 13  1  0  0  0  0
  5  6  1  0  0  0  0
  5 24  1  0  0  0  0
  6  7  1  0  0  0  0
  6 25  1  0  0  0  0
  6 26  1  0  0  0  0
  7 11  1  0  0  0  0
  7  8  1  0  0  0  0
  7 41  1  0  0  0  0
  8  9  1  0  0  0  0
  8 27  1  0  0  0  0
  8 28  1  0  0  0  0
  9 10  1  0  0  0  0
  9 29  1  0  0  0  0
  9 30  1  0  0  0  0
 10 11  1  0  0  0  0
 10 31  1  0  0  0  0
 10 32  1  0  0  0  0
 11 12  1  0  0  0  0
 11 33  1  0  0  0  0
 12 13  1  0  0  0  0
 12 34  1  0  0  0  0
 12 35  1  0  0  0  0
 14 15  1  0  0  0  0
 14 36  1  0  0  0  0
 15 20  1  0  0  0  0
 15 16  2  0  0  0  0
 16 17  1  0  0  0  0
 16 37  1  0  0  0  0
 17 18  2  0  0  0  0
 17 38  1  0  0  0  0
 18 19  1  0  0  0  0
 18 39  1  0  0  0  0
 19 20  2  0  0  0  0
 20 40  1  0  0  0  0
M  CHG  1   7   1
M  END
> <s_m_source_file>
AV-unprocessed.smi

> <i_m_source_file_index>
618

> <i_lp_mmshare_version>
43012

> <i_f3d_flags>
0

> <s_epik_input>
W2NIXTFuW2NIXVtjSF1bY0hdYzFbTkhdQyg9TylbTkhdW0NIMl1bQ0BIXShbQ0gyXTIpT1tDSDJdW0NAQEhdKE4yMylbQ0gyXVtDSDJdW0NIMl0z

> <s_epik_cmdline>
J2VwaWtfcHl0aG9uJywgJy1waCcsICc3LjAnLCAnLXRuJywgJzgnLCAnLW1hJywgJzIwMCcsICctbWV0YWxfYmluZGluZycsICctaW1hZScsICc8aW5maWxlLm1hZT4nLCAnLW9tYWUnLCAnPG91dGZpbGUubWFlPic=

> <r_epik_Ionization_Penalty>
0.111044

> <r_epik_Ionization_Penalty_Charging>
0.10673

> <r_epik_Ionization_Penalty_Neutral>
0.00431361

> <r_epik_State_Penalty>
0.0978747

> <r_epik_Charging_Adjusted_Penalty>
0.204605

> <i_epik_Tot_Q>
1

> <i_epik_Tot_abs_Q>
1

> <r_epik_Metal_State_Penalty>
0.0947591

> <b_epik_Metal_Only>
0

> <s_lp_Force_Field>
OPLS_2005

> <r_lp_Energy>
39.3215

> <b_lp_Chiralities_Consistent>
1

> <s_lp_Variant>
AV-unprocessed.smi:618-8

> <Gold.Version>
5.8.1

> <Gold.Id.Protein>
6NUR|6NUR_protein|mol2

> <Gold.PLP.Fitness>
51.7289

> <Gold.PLP.PLP>
-38.7450

> <Gold.PLP.part.hbond>
-5.0227

> <Gold.PLP.part.metal>
0.0000

> <Gold.PLP.part.buried>
-4.6713

> <Gold.PLP.part.nonpolar>
-29.9379

> <Gold.PLP.part.repulsive>
0.3402

> <Gold.PLP.ligand.clash>
0.0000

> <Gold.PLP.ligand.torsion>
0.1071

> <Gold.PLP.Chemscore.Hbond>
3.4000

> <Gold.PLP.Chemscore.CHOScore>
0.9990

> <Gold.PLP.Chemscore.Metal>
0.0000

> <Gold.Chemscore.Hbonds>
donor molecule, donor type, donor heavy atom, donor atom, acceptor molecule, acceptor atom, score
      L1  H     3    21       P1  7948  0.30
      L1  H     7    41       P1 10747  1.00
      L1  H    14    36       P1  7948  0.95
      P1  H  7989  7998       L1    19  0.96
      L1  C    20    40       P1  7957  1.00

> <Gold.PLP.Chemscore.Internal.Correction>
0.0010

> <Gold.Rescore>
     Score         DG    S(hbond)    S(metal)    S(lipo)     H(rot)  DE(clash)    DE(int)     intcor
     18.63     -19.95       2.10        0.00      91.57       1.27       0.03       1.29       ----

> <Gold.Chemscore.Fitness>
18.6305

> <Gold.Chemscore.DG>
-19.9542

> <Gold.Chemscore.ZeroCoef>
-5.4800

> <Gold.Chemscore.Hbond>
2.0960

> <Gold.Chemscore.Metal>
0.0000

> <Gold.Chemscore.Lipo>
91.5687

> <Gold.Chemscore.Internal_Hbond>
0.0000

> <Gold.Chemscore.DEClash>
0.0323

> <Gold.Chemscore.DEInternal>
1.2914

> <Gold.Chemscore.Rot>
1.2656

> <Gold.Chemscore.Internal.Correction>
   9.000000E+99

> <Gold.Chemscore.Hbonds>
donor molecule, donor type, donor heavy atom, donor atom, acceptor molecule, acceptor atom, score
      L1  H     7    41       P1 10747  1.00
      L1  H    14    36       P1  7948  0.21
      P1  H  7989  7998       L1    19  0.39

> <Gold.Chemscore.Hbond.Weighted>
-7.0005

> <Gold.Chemscore.Metal.Weighted>
-0.0000

> <Gold.Chemscore.Lipo.Weighted>
-10.7135

> <Gold.Chemscore.Internal_Hbond.Weighted>
0.0000

> <Gold.Chemscore.DEClash.Weighted>
0.0323

> <Gold.Chemscore.DEInternal.Weighted>
1.2914

> <Gold.Chemscore.Rot.Weighted>
3.2399

> <Gold.Chemscore.Internal.Correction.Weighted>
   9.000000E+99

> <Gold.Protein.RotatedTorsions>
[ 6907 6896 6895 6894 ] final   68.90 input  -60.11 | X-H torsion
[ 7974 7965 7964 7962 ] final -178.87 input  175.53 | X-H torsion
[ 8008 7997 7996 7995 ] final -174.21 input   59.86 | X-H torsion
[ 10167 10162 10161 10158 ] final  150.10 input  -65.29 | X-H torsion
[ 10718 10713 10712 10709 ] final  139.99 input   66.30 | X-H torsion
[ 10763 10752 10751 10750 ] final  -92.05 input  -60.55 | X-H torsion
[ 11005 11000 10999 10996 ] final  150.84 input  -57.11 | X-H torsion

> <Gold.Protein.ActiveResidues>
 VAL166  LYS551  ARG553  GLY616  TRP617  ASP618  TYR619  PRO620  LYS621  CYS622 
 ASP623  PHE694  ASN695  SER759  ASP760  ASP761  ALA762  ILE779  LEU786  VAL792 
 PHE793  MET794  SER795  GLU796  ALA797  LYS798  CYS799  TRP800  GLU811  SER814 

> <Gold.Protein.RotatedAtoms>
  152.4651  134.5095  159.9749 H   0  0  0  0  0  0  0  0  0  0  0  0  # atno 6907 bound_to 6896
  151.5134  133.3474  159.2897 H   0  0  0  0  0  0  0  0  0  0  0  0  # atno 6908 bound_to 6896
  150.8631  134.8017  159.7160 H   0  0  0  0  0  0  0  0  0  0  0  0  # atno 6909 bound_to 6896
  144.7133  140.0804  143.6426 H   0  0  0  0  0  0  0  0  0  0  0  0  # atno 7974 bound_to 7965
  155.9673  140.1156  157.0843 H   0  0  0  0  0  0  0  0  0  0  0  0  # atno 8008 bound_to 7997
  154.4147  140.1170  156.5326 H   0  0  0  0  0  0  0  0  0  0  0  0  # atno 8009 bound_to 7997
  155.6643  140.3473  155.4796 H   0  0  0  0  0  0  0  0  0  0  0  0  # atno 8010 bound_to 7997
  139.4854  144.5549  151.7335 H   0  0  0  0  0  0  0  0  0  0  0  0  # atno 10167 bound_to 10162
  157.4083  131.1025  151.0481 H   0  0  0  0  0  0  0  0  0  0  0  0  # atno 10718 bound_to 10713
  154.6822  135.5245  153.8279 H   0  0  0  0  0  0  0  0  0  0  0  0  # atno 10763 bound_to 10752
  153.0573  135.6555  154.0557 H   0  0  0  0  0  0  0  0  0  0  0  0  # atno 10764 bound_to 10752
  154.0442  135.2974  155.3330 H   0  0  0  0  0  0  0  0  0  0  0  0  # atno 10765 bound_to 10752
  140.1166  134.8890  157.2013 H   0  0  0  0  0  0  0  0  0  0  0  0  # atno 11005 bound_to 11000
  145.9707  139.2868  143.1100 LP  0  0  0  0  0  0  0  0  0  0  0  0  # atno 17320 bound_to 7965
  145.9119  140.9174  143.0449 LP  0  0  0  0  0  0  0  0  0  0  0  0  # atno 17321 bound_to 7965
  140.5109  144.1026  150.5995 LP  0  0  0  0  0  0  0  0  0  0  0  0  # atno 17342 bound_to 10162
  140.3951  143.2732  152.0014 LP  0  0  0  0  0  0  0  0  0  0  0  0  # atno 17343 bound_to 10162
  157.1454  130.6161  149.5567 LP  0  0  0  0  0  0  0  0  0  0  0  0  # atno 17370 bound_to 10713
  155.9843  130.4867  150.6976 LP  0  0  0  0  0  0  0  0  0  0  0  0  # atno 17371 bound_to 10713
  140.3020  134.3121  155.7287 LP  0  0  0  0  0  0  0  0  0  0  0  0  # atno 17394 bound_to 11000
  141.2142  133.7597  156.9654 LP  0  0  0  0  0  0  0  0  0  0  0  0  # atno 17395 bound_to 11000

$$$$
