AV-unprocessed.smi:101|AV-procd|sdf|923|dock9
  -GOLD-   2262017433D 1   1.00000     0.00000
 Structure written by MMmdl.
 44 46  0  0  0  0  0  0  0  0  1 V2000
  143.9952  137.4406  155.7665 C   0  0  0  0  0  0  0  0  0  0  0  0
  144.7233  137.6251  154.4455 C   0  0  0  0  0  0  0  0  0  0  0  0
  145.8497  138.3744  154.3338 C   0  0  0  0  0  0  0  0  0  0  0  0
  146.5329  138.5648  153.1407 N   0  0  0  0  0  0  0  0  0  0  0  0
  147.7894  139.4077  153.0999 C   0  0  2  0  0  0  0  0  0  0  0  0
  148.6471  138.9449  154.0937 O   0  0  0  0  0  0  0  0  0  0  0  0
  149.3662  140.0438  154.6292 C   0  0  2  0  0  0  0  0  0  0  0  0
  149.8804  139.6894  156.0288 C   0  0  0  0  0  0  0  0  0  0  0  0
  150.4759  140.8383  156.6084 O   0  0  0  0  0  0  0  0  0  0  0  0
  151.6505  140.7333  157.2592 C   0  0  0  0  0  0  0  0  0  0  0  0
  152.4465  139.8085  157.0846 O   0  0  0  0  0  0  0  0  0  0  0  0
  151.8875  141.8542  158.2143 C   0  0  0  0  0  0  0  0  0  0  0  0
  152.7699  141.6611  159.3030 C   0  0  0  0  0  0  0  0  0  0  0  0
  153.0144  142.7006  160.2212 C   0  0  0  0  0  0  0  0  0  0  0  0
  152.3804  143.9465  160.0617 C   0  0  0  0  0  0  0  0  0  0  0  0
  151.5004  144.1513  158.9829 C   0  0  0  0  0  0  0  0  0  0  0  0
  151.2541  143.1128  158.0638 C   0  0  0  0  0  0  0  0  0  0  0  0
  148.3352  141.1755  154.6238 C   0  0  1  0  0  0  0  0  0  0  0  0
  148.9841  142.4302  154.5593 O   0  0  0  0  0  0  0  0  0  0  0  0
  147.5309  140.9115  153.3544 C   0  0  2  0  0  0  0  0  0  0  0  0
  146.1689  141.2514  153.5448 O   0  0  0  0  0  0  0  0  0  0  0  0
  146.0446  137.9695  151.9594 C   0  0  0  0  0  0  0  0  0  0  0  0
  146.5811  138.1152  150.8619 O   0  0  0  0  0  0  0  0  0  0  0  0
  144.8914  137.1953  152.0744 N   0  0  0  0  0  0  0  0  0  0  0  0
  144.1776  136.9682  153.2541 C   0  0  0  0  0  0  0  0  0  0  0  0
  143.1715  136.2615  153.2282 O   0  0  0  0  0  0  0  0  0  0  0  0
  144.5390  136.7637  151.2324 H   0  0  0  0  0  0  0  0  0  0  0  0
  144.4842  137.9822  156.5769 H   0  0  0  0  0  0  0  0  0  0  0  0
  143.9641  136.3854  156.0402 H   0  0  0  0  0  0  0  0  0  0  0  0
  142.9704  137.8063  155.6914 H   0  0  0  0  0  0  0  0  0  0  0  0
  146.2323  138.8579  155.2217 H   0  0  0  0  0  0  0  0  0  0  0  0
  148.2786  139.2272  152.1414 H   0  0  0  0  0  0  0  0  0  0  0  0
  150.1928  140.2825  153.9567 H   0  0  0  0  0  0  0  0  0  0  0  0
  149.0515  139.3654  156.6596 H   0  0  0  0  0  0  0  0  0  0  0  0
  150.5957  138.8673  155.9743 H   0  0  0  0  0  0  0  0  0  0  0  0
  153.2689  140.7132  159.4460 H   0  0  0  0  0  0  0  0  0  0  0  0
  153.6900  142.5413  161.0487 H   0  0  0  0  0  0  0  0  0  0  0  0
  152.5685  144.7435  160.7657 H   0  0  0  0  0  0  0  0  0  0  0  0
  151.0128  145.1073  158.8597 H   0  0  0  0  0  0  0  0  0  0  0  0
  150.5736  143.3040  157.2468 H   0  0  0  0  0  0  0  0  0  0  0  0
  147.7004  141.1129  155.5097 H   0  0  0  0  0  0  0  0  0  0  0  0
  148.6092  142.9987  155.2145 H   0  0  0  0  0  0  0  0  0  0  0  0
  147.9305  141.4650  152.5032 H   0  0  0  0  0  0  0  0  0  0  0  0
  145.6461  140.7335  152.9516 H   0  0  0  0  0  0  0  0  0  0  0  0
  1  2  1  0  0  0  0
  1 28  1  0  0  0  0
  1 29  1  0  0  0  0
  1 30  1  0  0  0  0
  2 25  1  0  0  0  0
  2  3  2  0  0  0  0
  3  4  1  0  0  0  0
  3 31  1  0  0  0  0
  4  5  1  0  0  0  0
  4 22  1  0  0  0  0
  5 20  1  0  0  0  0
  5  6  1  0  0  0  0
  5 32  1  0  0  0  0
  6  7  1  0  0  0  0
  7  8  1  0  0  0  0
  7 18  1  0  0  0  0
  7 33  1  0  0  0  0
  8  9  1  0  0  0  0
  8 34  1  0  0  0  0
  8 35  1  0  0  0  0
  9 10  1  0  0  0  0
 10 11  2  0  0  0  0
 10 12  1  0  0  0  0
 12 17  1  0  0  0  0
 12 13  2  0  0  0  0
 13 14  1  0  0  0  0
 13 36  1  0  0  0  0
 14 15  2  0  0  0  0
 14 37  1  0  0  0  0
 15 16  1  0  0  0  0
 15 38  1  0  0  0  0
 16 17  2  0  0  0  0
 16 39  1  0  0  0  0
 17 40  1  0  0  0  0
 18 19  1  0  0  0  0
 18 20  1  0  0  0  0
 18 41  1  0  0  0  0
 19 42  1  0  0  0  0
 20 21  1  0  0  0  0
 20 43  1  0  0  0  0
 21 44  1  0  0  0  0
 22 23  2  0  0  0  0
 22 24  1  0  0  0  0
 24 27  1  0  0  0  0
 24 25  1  0  0  0  0
 25 26  2  0  0  0  0
M  END
> <s_m_source_file>
AV-unprocessed.smi

> <i_m_source_file_index>
101

> <i_lp_mmshare_version>
43012

> <i_f3d_flags>
0

> <s_epik_input>
Tz1jMVtuSF1jKD1PKW4oW2NIXWMxW0NIM10pW0NAQEhdMk9bQ0BIXShbQ0BASF0oW09IXSlbQ0BIXTJbT0hdKVtDSDJdT0MoPU8pYzNbY0hdW2NIXVtjSF1bY0hdW2NIXTM=

> <s_epik_cmdline>
J2VwaWtfcHl0aG9uJywgJy1waCcsICc3LjAnLCAnLXRuJywgJzgnLCAnLW1hJywgJzIwMCcsICctbWV0YWxfYmluZGluZycsICctaW1hZScsICc8aW5maWxlLm1hZT4nLCAnLW9tYWUnLCAnPG91dGZpbGUubWFlPic=

> <r_lp_tautomer_probability>
0.999537

> <r_epik_Ionization_Penalty>
0.00263537

> <r_epik_Ionization_Penalty_Charging>
0.00263428

> <r_epik_Ionization_Penalty_Neutral>
1.09111e-06

> <r_epik_State_Penalty>
0.00183335

> <r_epik_Charging_Adjusted_Penalty>
0.00446763

> <i_epik_Tot_Q>
0

> <i_epik_Tot_abs_Q>
0

> <r_epik_Metal_State_Penalty>
1.00528

> <b_epik_Metal_Only>
0

> <s_epik_Chemistry_Notes>
This compound has an ester and may undergo hydrolysis at high or low pH. This compound contains an acetal/aminal-like group ( X-CH(R)-Y where X, Y are N, S, or O) that may be acid/base labile, releasing an aldehyde.

> <s_lp_Force_Field>
OPLS_2005

> <r_lp_Energy>
35.5527

> <b_lp_Chiralities_Consistent>
1

> <s_lp_Variant>
AV-unprocessed.smi:101-11

> <Gold.Version>
5.8.1

> <Gold.Id.Protein>
6NUR|6NUR_protein|mol2

> <Gold.PLP.Fitness>
50.3953

> <Gold.PLP.PLP>
-41.0095

> <Gold.PLP.part.hbond>
-6.0000

> <Gold.PLP.part.metal>
0.0000

> <Gold.PLP.part.buried>
-2.6911

> <Gold.PLP.part.nonpolar>
-35.8792

> <Gold.PLP.part.repulsive>
2.1210

> <Gold.PLP.ligand.clash>
0.0000

> <Gold.PLP.ligand.torsion>
1.0081

> <Gold.PLP.Chemscore.Hbond>
3.6762

> <Gold.PLP.Chemscore.CHOScore>
0.0000

> <Gold.PLP.Chemscore.Metal>
0.0000

> <Gold.Chemscore.Hbonds>
donor molecule, donor type, donor heavy atom, donor atom, acceptor molecule, acceptor atom, score
      L1  H    19    42       P1  8028  0.67
      L1  H    21    44       P1 10175  0.77
      L1  H    24    27       P1 10171  0.01
      P1  H  7954  7966       L1    23  1.00
      P1  H  7997  8010       L1    11  1.00
      P1  H  8011  8017       L1    19  0.03

> <Gold.PLP.Chemscore.Internal.Correction>
0.3734

> <Gold.Rescore>
     Score         DG    S(hbond)    S(metal)    S(lipo)     H(rot)  DE(clash)    DE(int)     intcor
     13.89     -19.54       3.39        0.00      95.84       3.32       2.55       3.10       ----

> <Gold.Chemscore.Fitness>
13.8910

> <Gold.Chemscore.DG>
-19.5397

> <Gold.Chemscore.ZeroCoef>
-5.4800

> <Gold.Chemscore.Hbond>
3.3948

> <Gold.Chemscore.Metal>
0.0000

> <Gold.Chemscore.Lipo>
95.8389

> <Gold.Chemscore.Internal_Hbond>
0.0000

> <Gold.Chemscore.DEClash>
2.5536

> <Gold.Chemscore.DEInternal>
3.0951

> <Gold.Chemscore.Rot>
3.3172

> <Gold.Chemscore.Internal.Correction>
   9.000000E+99

> <Gold.Chemscore.Hbonds>
donor molecule, donor type, donor heavy atom, donor atom, acceptor molecule, acceptor atom, score
      L1  H    19    42       P1  8028  0.66
      L1  H    21    44       P1 10175  0.43
      L1  H    24    27       P1 10171  0.02
      P1  H  7954  7966       L1    23  0.98
      P1  H  7997  8010       L1    11  0.95
      P1  H  8011  8017       L1    19  0.01

> <Gold.Chemscore.Hbond.Weighted>
-11.3386

> <Gold.Chemscore.Metal.Weighted>
-0.0000

> <Gold.Chemscore.Lipo.Weighted>
-11.2131

> <Gold.Chemscore.Internal_Hbond.Weighted>
0.0000

> <Gold.Chemscore.DEClash.Weighted>
2.5536

> <Gold.Chemscore.DEInternal.Weighted>
3.0951

> <Gold.Chemscore.Rot.Weighted>
8.4920

> <Gold.Chemscore.Internal.Correction.Weighted>
   9.000000E+99

> <Gold.Protein.RotatedTorsions>
[ 6907 6896 6895 6894 ] final   89.91 input  -60.11 | X-H torsion
[ 7974 7965 7964 7962 ] final  138.37 input  175.53 | X-H torsion
[ 8008 7997 7996 7995 ] final   65.43 input   59.86 | X-H torsion
[ 10167 10162 10161 10158 ] final  146.32 input  -65.29 | X-H torsion
[ 10718 10713 10712 10709 ] final  -15.04 input   66.30 | X-H torsion
[ 10763 10752 10751 10750 ] final -167.88 input  -60.55 | X-H torsion
[ 11005 11000 10999 10996 ] final  177.24 input  -57.11 | X-H torsion

> <Gold.Protein.ActiveResidues>
 VAL166  LYS551  ARG553  GLY616  TRP617  ASP618  TYR619  PRO620  LYS621  CYS622 
 ASP623  PHE694  ASN695  SER759  ASP760  ASP761  ALA762  ILE779  LEU786  VAL792 
 PHE793  MET794  SER795  GLU796  ALA797  LYS798  CYS799  TRP800  GLU811  SER814 

> <Gold.Protein.RotatedAtoms>
  152.5440  134.1894  159.8667 H   0  0  0  0  0  0  0  0  0  0  0  0  # atno 6907 bound_to 6896
  151.1890  133.4672  159.2602 H   0  0  0  0  0  0  0  0  0  0  0  0  # atno 6908 bound_to 6896
  151.1102  135.0034  159.8546 H   0  0  0  0  0  0  0  0  0  0  0  0  # atno 6909 bound_to 6896
  144.9379  139.4967  143.5586 H   0  0  0  0  0  0  0  0  0  0  0  0  # atno 7974 bound_to 7965
  155.6616  140.3497  155.4785 H   0  0  0  0  0  0  0  0  0  0  0  0  # atno 8008 bound_to 7997
  155.9764  140.1166  157.0789 H   0  0  0  0  0  0  0  0  0  0  0  0  # atno 8009 bound_to 7997
  154.4179  140.1147  156.5361 H   0  0  0  0  0  0  0  0  0  0  0  0  # atno 8010 bound_to 7997
  139.4909  144.5837  151.6820 H   0  0  0  0  0  0  0  0  0  0  0  0  # atno 10167 bound_to 10162
  156.6073  130.4840  149.6215 H   0  0  0  0  0  0  0  0  0  0  0  0  # atno 10718 bound_to 10713
  154.6686  135.2936  154.9772 H   0  0  0  0  0  0  0  0  0  0  0  0  # atno 10763 bound_to 10752
  154.0806  135.6605  153.4841 H   0  0  0  0  0  0  0  0  0  0  0  0  # atno 10764 bound_to 10752
  153.0473  135.5196  154.7671 H   0  0  0  0  0  0  0  0  0  0  0  0  # atno 10765 bound_to 10752
  140.3819  134.6939  157.4456 H   0  0  0  0  0  0  0  0  0  0  0  0  # atno 11005 bound_to 11000
  146.3274  139.8376  142.8896 LP  0  0  0  0  0  0  0  0  0  0  0  0  # atno 17320 bound_to 7965
  145.3038  141.0201  143.3593 LP  0  0  0  0  0  0  0  0  0  0  0  0  # atno 17321 bound_to 7965
  140.5449  144.0519  150.6103 LP  0  0  0  0  0  0  0  0  0  0  0  0  # atno 17342 bound_to 10162
  140.3554  143.2939  152.0442 LP  0  0  0  0  0  0  0  0  0  0  0  0  # atno 17343 bound_to 10162
  156.2419  130.6856  151.1563 LP  0  0  0  0  0  0  0  0  0  0  0  0  # atno 17370 bound_to 10713
  157.7263  131.0647  150.5913 LP  0  0  0  0  0  0  0  0  0  0  0  0  # atno 17371 bound_to 10713
  140.0472  134.6182  155.8906 LP  0  0  0  0  0  0  0  0  0  0  0  0  # atno 17394 bound_to 11000
  141.1920  133.6574  156.5484 LP  0  0  0  0  0  0  0  0  0  0  0  0  # atno 17395 bound_to 11000

$$$$
