AV-unprocessed.smi:1697|AV-procd|sdf|6811|dock1
  -GOLD-   22720 7583D 1   1.00000     0.00000
 Structure written by MMmdl.
 53 55  0  0  0  0  0  0  0  0  1 V2000
  150.5967  141.5484  157.5324 C   0  0  0  0  0  0  0  0  0  0  0  0
  151.0494  141.8695  156.1063 C   0  0  0  0  0  0  0  0  0  0  0  0
  150.9599  140.6892  155.3219 O   0  0  0  0  0  0  0  0  0  0  0  0
  149.6340  140.2168  155.1172 C   0  0  0  0  0  0  0  0  0  0  0  0
  149.6222  138.7901  154.5352 C   0  0  0  0  0  0  0  0  0  0  0  0
  148.1912  138.3772  154.1512 C   0  0  0  0  0  0  0  0  0  0  0  0
  147.5713  139.2972  153.1968 N   0  0  0  0  0  0  0  0  0  0  0  0
  146.2409  138.8198  152.8130 C   0  0  0  0  0  0  0  0  0  0  0  0
  146.1986  137.4350  152.1371 C   0  0  2  0  0  0  0  0  0  0  0  0
  146.3611  137.6244  150.7460 O   0  0  0  0  0  0  0  0  0  0  0  0
  144.8760  136.6856  152.3936 C   0  0  0  0  0  0  0  0  0  0  0  0
  144.8429  135.3935  151.7336 N   0  0  0  0  0  0  0  0  0  0  0  0
  144.3423  135.1077  150.5163 C   0  0  0  0  0  0  0  0  0  0  0  0
  144.4257  133.8451  150.1062 N   0  0  0  0  0  0  0  0  0  0  0  0
  145.0482  133.2411  151.1856 C   0  0  0  0  0  0  0  0  0  0  0  0
  145.4302  131.8972  151.3916 C   0  0  0  0  0  0  0  0  0  0  0  0
  146.0625  131.4993  152.5915 C   0  0  0  0  0  0  0  0  0  0  0  0
  146.4553  130.0436  152.7713 C   0  0  0  0  0  0  0  0  0  0  0  0
  146.3208  132.4529  153.6091 C   0  0  0  0  0  0  0  0  0  0  0  0
  146.9945  132.0483  154.9085 C   0  0  0  0  0  0  0  0  0  0  0  0
  145.9489  133.7998  153.4182 C   0  0  0  0  0  0  0  0  0  0  0  0
  145.3205  134.1827  152.2204 C   0  0  0  0  0  0  0  0  0  0  0  0
  147.5403  140.6493  153.7633 C   0  0  0  0  0  0  0  0  0  0  0  0
  148.9406  141.1683  154.1300 C   0  0  0  0  0  0  0  0  0  0  0  0
  150.6578  142.4318  158.1679 H   0  0  0  0  0  0  0  0  0  0  0  0
  151.2213  140.7729  157.9764 H   0  0  0  0  0  0  0  0  0  0  0  0
  149.5645  141.1970  157.5457 H   0  0  0  0  0  0  0  0  0  0  0  0
  150.4220  142.6588  155.6930 H   0  0  0  0  0  0  0  0  0  0  0  0
  152.0766  142.2363  156.1204 H   0  0  0  0  0  0  0  0  0  0  0  0
  149.0817  140.2378  156.0587 H   0  0  0  0  0  0  0  0  0  0  0  0
  150.2643  138.7448  153.6545 H   0  0  0  0  0  0  0  0  0  0  0  0
  150.0239  138.0750  155.2524 H   0  0  0  0  0  0  0  0  0  0  0  0
  148.2200  137.3731  153.7266 H   0  0  0  0  0  0  0  0  0  0  0  0
  147.5791  138.3119  155.0521 H   0  0  0  0  0  0  0  0  0  0  0  0
  145.6102  138.7746  153.7021 H   0  0  0  0  0  0  0  0  0  0  0  0
  145.7738  139.5550  152.1556 H   0  0  0  0  0  0  0  0  0  0  0  0
  147.0392  136.8260  152.4677 H   0  0  0  0  0  0  0  0  0  0  0  0
  145.5209  137.8480  150.3754 H   0  0  0  0  0  0  0  0  0  0  0  0
  144.7353  136.5179  153.4621 H   0  0  0  0  0  0  0  0  0  0  0  0
  144.0239  137.2780  152.0568 H   0  0  0  0  0  0  0  0  0  0  0  0
  143.8965  135.8704  149.8942 H   0  0  0  0  0  0  0  0  0  0  0  0
  145.2322  131.1712  150.6168 H   0  0  0  0  0  0  0  0  0  0  0  0
  145.9021  129.6004  153.5994 H   0  0  0  0  0  0  0  0  0  0  0  0
  147.5216  129.9564  152.9801 H   0  0  0  0  0  0  0  0  0  0  0  0
  146.2420  129.4596  151.8756 H   0  0  0  0  0  0  0  0  0  0  0  0
  147.0599  132.8885  155.6004 H   0  0  0  0  0  0  0  0  0  0  0  0
  148.0066  131.6910  154.7177 H   0  0  0  0  0  0  0  0  0  0  0  0
  146.4326  131.2543  155.4007 H   0  0  0  0  0  0  0  0  0  0  0  0
  146.1416  134.5379  154.1829 H   0  0  0  0  0  0  0  0  0  0  0  0
  147.1042  141.3478  153.0508 H   0  0  0  0  0  0  0  0  0  0  0  0
  146.9006  140.6672  154.6469 H   0  0  0  0  0  0  0  0  0  0  0  0
  148.8678  142.1672  154.5608 H   0  0  0  0  0  0  0  0  0  0  0  0
  149.5404  141.2636  153.2238 H   0  0  0  0  0  0  0  0  0  0  0  0
  1  2  1  0  0  0  0
  1 25  1  0  0  0  0
  1 26  1  0  0  0  0
  1 27  1  0  0  0  0
  2  3  1  0  0  0  0
  2 28  1  0  0  0  0
  2 29  1  0  0  0  0
  3  4  1  0  0  0  0
  4 24  1  0  0  0  0
  4  5  1  0  0  0  0
  4 30  1  0  0  0  0
  5  6  1  0  0  0  0
  5 31  1  0  0  0  0
  5 32  1  0  0  0  0
  6  7  1  0  0  0  0
  6 33  1  0  0  0  0
  6 34  1  0  0  0  0
  7  8  1  0  0  0  0
  7 23  1  0  0  0  0
  8  9  1  0  0  0  0
  8 35  1  0  0  0  0
  8 36  1  0  0  0  0
  9 10  1  0  0  0  0
  9 11  1  0  0  0  0
  9 37  1  0  0  0  0
 10 38  1  0  0  0  0
 11 12  1  0  0  0  0
 11 39  1  0  0  0  0
 11 40  1  0  0  0  0
 12 22  1  0  0  0  0
 12 13  1  0  0  0  0
 13 14  2  0  0  0  0
 13 41  1  0  0  0  0
 14 15  1  0  0  0  0
 15 22  2  0  0  0  0
 15 16  1  0  0  0  0
 16 17  2  0  0  0  0
 16 42  1  0  0  0  0
 17 18  1  0  0  0  0
 17 19  1  0  0  0  0
 18 43  1  0  0  0  0
 18 44  1  0  0  0  0
 18 45  1  0  0  0  0
 19 20  1  0  0  0  0
 19 21  2  0  0  0  0
 20 46  1  0  0  0  0
 20 47  1  0  0  0  0
 20 48  1  0  0  0  0
 21 22  1  0  0  0  0
 21 49  1  0  0  0  0
 23 24  1  0  0  0  0
 23 50  1  0  0  0  0
 23 51  1  0  0  0  0
 24 52  1  0  0  0  0
 24 53  1  0  0  0  0
M  END
> <s_m_source_file>
AV-unprocessed.smi

> <i_m_source_file_index>
1697

> <i_lp_mmshare_version>
43012

> <i_f3d_flags>
0

> <s_epik_input>
W0NIM11bQ0gyXU9bQ0hdMVtDSDJdW0NIMl1OKFtDSDJdW0NIMl0xKVtDSDJdW0NASF0oW09IXSlbQ0gyXW4oW2NIXW4yKWMoYzIzKVtjSF1jKFtDSDNdKWMoW2NIXTMpW0NIM10=

> <s_epik_cmdline>
J2VwaWtfcHl0aG9uJywgJy1waCcsICc3LjAnLCAnLXRuJywgJzgnLCAnLW1hJywgJzIwMCcsICctbWV0YWxfYmluZGluZycsICctaW1hZScsICc8aW5maWxlLm1hZT4nLCAnLW9tYWUnLCAnPG91dGZpbGUubWFlPic=

> <r_epik_Ionization_Penalty>
1.9836

> <r_epik_Ionization_Penalty_Charging>
0

> <r_epik_Ionization_Penalty_Neutral>
1.9836

> <r_epik_State_Penalty>
2.07269

> <r_epik_Charging_Adjusted_Penalty>
2.07269

> <i_epik_Tot_Q>
0

> <i_epik_Tot_abs_Q>
0

> <r_epik_Metal_State_Penalty>
2.00215

> <b_epik_Metal_Only>
0

> <s_lp_Force_Field>
OPLS_2005

> <r_lp_Energy>
30.2153

> <b_lp_Chiralities_Consistent>
1

> <s_lp_Variant>
AV-unprocessed.smi:1697-9

> <Gold.Version>
5.8.1

> <Gold.Id.Protein>
6NUR|6NUR_protein|mol2

> <Gold.PLP.Fitness>
50.8532

> <Gold.PLP.PLP>
-40.1562

> <Gold.PLP.part.hbond>
-3.5285

> <Gold.PLP.part.metal>
0.0000

> <Gold.PLP.part.buried>
-4.4866

> <Gold.PLP.part.nonpolar>
-34.3151

> <Gold.PLP.part.repulsive>
2.9383

> <Gold.PLP.ligand.clash>
0.0000

> <Gold.PLP.ligand.torsion>
0.8054

> <Gold.PLP.Chemscore.Hbond>
2.9280

> <Gold.PLP.Chemscore.CHOScore>
1.0000

> <Gold.PLP.Chemscore.Metal>
0.0000

> <Gold.Chemscore.Hbonds>
donor molecule, donor type, donor heavy atom, donor atom, acceptor molecule, acceptor atom, score
      L1  H    10    38       P1 10171  1.00
      P1  H  7954  7966       L1    10  1.00
      P1  H  7989  7998       L1     3  0.86
      L1  C    13    41       P1 10171  0.61

> <Gold.PLP.Chemscore.Internal.Correction>
0.5238

> <Gold.Rescore>
     Score         DG    S(hbond)    S(metal)    S(lipo)     H(rot)  DE(clash)    DE(int)     intcor
     15.92     -18.59       2.06        0.00     101.23       2.19       1.90       0.77       ----

> <Gold.Chemscore.Fitness>
15.9169

> <Gold.Chemscore.DG>
-18.5893

> <Gold.Chemscore.ZeroCoef>
-5.4800

> <Gold.Chemscore.Hbond>
2.0607

> <Gold.Chemscore.Metal>
0.0000

> <Gold.Chemscore.Lipo>
101.2311

> <Gold.Chemscore.Internal_Hbond>
0.0000

> <Gold.Chemscore.DEClash>
1.8975

> <Gold.Chemscore.DEInternal>
0.7748

> <Gold.Chemscore.Rot>
2.1943

> <Gold.Chemscore.Internal.Correction>
   9.000000E+99

> <Gold.Chemscore.Hbonds>
donor molecule, donor type, donor heavy atom, donor atom, acceptor molecule, acceptor atom, score
      L1  H    10    38       P1 10171  1.00
      P1  H  7954  7966       L1    10  0.92
      P1  H  7989  7998       L1     3  0.29

> <Gold.Chemscore.Hbond.Weighted>
-6.8826

> <Gold.Chemscore.Metal.Weighted>
-0.0000

> <Gold.Chemscore.Lipo.Weighted>
-11.8440

> <Gold.Chemscore.Internal_Hbond.Weighted>
0.0000

> <Gold.Chemscore.DEClash.Weighted>
1.8975

> <Gold.Chemscore.DEInternal.Weighted>
0.7748

> <Gold.Chemscore.Rot.Weighted>
5.6174

> <Gold.Chemscore.Internal.Correction.Weighted>
   9.000000E+99

> <Gold.Protein.RotatedTorsions>
[ 6907 6896 6895 6894 ] final  177.06 input  -60.11 | X-H torsion
[ 7974 7965 7964 7962 ] final   57.13 input  175.53 | X-H torsion
[ 8008 7997 7996 7995 ] final   75.74 input   59.86 | X-H torsion
[ 10167 10162 10161 10158 ] final  -80.85 input  -65.29 | X-H torsion
[ 10718 10713 10712 10709 ] final  -48.13 input   66.30 | X-H torsion
[ 10763 10752 10751 10750 ] final -149.98 input  -60.55 | X-H torsion
[ 11005 11000 10999 10996 ] final  171.16 input  -57.11 | X-H torsion

> <Gold.Protein.ActiveResidues>
 VAL166  LYS551  ARG553  GLY616  TRP617  ASP618  TYR619  PRO620  LYS621  CYS622 
 ASP623  PHE694  ASN695  SER759  ASP760  ASP761  ALA762  ILE779  LEU786  VAL792 
 PHE793  MET794  SER795  GLU796  ALA797  LYS798  CYS799  TRP800  GLU811  SER814 

> <Gold.Protein.RotatedAtoms>
  151.7100  133.3312  159.3288 H   0  0  0  0  0  0  0  0  0  0  0  0  # atno 6907 bound_to 6896
  150.7698  134.6540  159.6313 H   0  0  0  0  0  0  0  0  0  0  0  0  # atno 6908 bound_to 6896
  152.3717  134.6727  160.0225 H   0  0  0  0  0  0  0  0  0  0  0  0  # atno 6909 bound_to 6896
  145.9324  139.3819  143.0413 H   0  0  0  0  0  0  0  0  0  0  0  0  # atno 7974 bound_to 7965
  155.8172  140.3471  155.5493 H   0  0  0  0  0  0  0  0  0  0  0  0  # atno 8008 bound_to 7997
  155.8379  140.0937  157.1772 H   0  0  0  0  0  0  0  0  0  0  0  0  # atno 8009 bound_to 7997
  154.4004  140.1400  156.3680 H   0  0  0  0  0  0  0  0  0  0  0  0  # atno 8010 bound_to 7997
  140.4465  143.2497  151.8550 H   0  0  0  0  0  0  0  0  0  0  0  0  # atno 10167 bound_to 10162
  156.2018  130.4156  149.9231 H   0  0  0  0  0  0  0  0  0  0  0  0  # atno 10718 bound_to 10713
  154.8146  135.3296  154.7212 H   0  0  0  0  0  0  0  0  0  0  0  0  # atno 10763 bound_to 10752
  153.7855  135.6915  153.4885 H   0  0  0  0  0  0  0  0  0  0  0  0  # atno 10764 bound_to 10752
  153.1951  135.4536  155.0145 H   0  0  0  0  0  0  0  0  0  0  0  0  # atno 10765 bound_to 10752
  140.3160  134.7477  157.4028 H   0  0  0  0  0  0  0  0  0  0  0  0  # atno 11005 bound_to 11000
  145.8408  140.9581  143.0800 LP  0  0  0  0  0  0  0  0  0  0  0  0  # atno 17320 bound_to 7965
  144.6767  140.0282  143.7483 LP  0  0  0  0  0  0  0  0  0  0  0  0  # atno 17321 bound_to 7965
  139.4793  144.5169  151.8856 LP  0  0  0  0  0  0  0  0  0  0  0  0  # atno 17342 bound_to 10162
  140.4257  144.2184  150.5887 LP  0  0  0  0  0  0  0  0  0  0  0  0  # atno 17343 bound_to 10162
  156.6938  130.8906  151.3591 LP  0  0  0  0  0  0  0  0  0  0  0  0  # atno 17370 bound_to 10713
  157.6990  130.9312  150.0728 LP  0  0  0  0  0  0  0  0  0  0  0  0  # atno 17371 bound_to 10713
  140.0983  134.5507  155.8377 LP  0  0  0  0  0  0  0  0  0  0  0  0  # atno 17394 bound_to 11000
  141.2097  133.6687  156.6460 LP  0  0  0  0  0  0  0  0  0  0  0  0  # atno 17395 bound_to 11000

$$$$
