#       Name:                AV-unprocessed.smi:1200
#       Creating user name   scv26
#       Creation time:       Fri Mar 27 04:04:51 2020


#       File generated by GOLD software.
#

@<TRIPOS>MOLECULE
AV-unprocessed.smi:1200
    48    49     1
SMALL
NO_CHARGES


@<TRIPOS>ATOM
      1 ****        -4.4586   4.3731  -1.2975 C.3            1 S1                 0.0000
      2 ****        -3.9656   3.0007  -1.2871 N.pl3          1 S1                -1.0000
      3 ****        -3.3739   2.4083  -2.3587 C.2            1 S1                 0.0000
      4 ****        -3.1278   2.8460  -3.4878 O.2            1 S1                 0.0000
      5 ****        -2.9499   0.9716  -2.0324 C.3            1 S1                 0.0000
      6 ****        -1.4708   0.8562  -2.0665 N.4            1 S1                 1.0000
      7 ****        -1.0197  -0.5221  -2.3836 C.3            1 S1                 0.0000
      8 ****         0.5082  -0.5821  -2.5633 C.3            1 S1                 0.0000
      9 ****         1.2585  -0.0305  -1.3386 C.3            1 S1                 0.0000
     10 ****         1.1511  -0.9558  -0.2109 N.am           1 S1                 0.0000
     11 ****         2.0047  -1.0223   0.8211 C.2            1 S1                 0.0000
     12 ****         2.9821  -0.2843   0.9405 O.2            1 S1                 0.0000
     13 ****         1.6361  -1.9750   1.6947 N.am           1 S1                 0.0000
     14 ****         2.2736  -2.3658   2.9035 C.ar           1 S1                 0.0000
     15 ****         3.6314  -2.1074   3.2117 C.ar           1 S1                 0.0000
     16 ****         4.1483  -2.5626   4.4400 C.ar           1 S1                 0.0000
     17 ****         3.2935  -3.2652   5.3113 C.ar           1 S1                 0.0000
     18 ****         2.0018  -3.5306   5.0250 N.ar           1 S1                 0.0000
     19 ****         1.5133  -3.0912   3.8456 C.ar           1 S1                 0.0000
     20 ****         0.7192   1.3692  -0.9838 C.3            1 S1                 0.0000
     21 ****        -0.8127   1.3791  -0.8390 C.3            1 S1                 0.0000
     22 ****        -4.9223   4.6444  -0.3493 H              1 S1                 0.0000
     23 ****        -5.2111   4.5405  -2.0688 H              1 S1                 0.0000
     24 ****        -3.6626   5.0980  -1.4700 H              1 S1                 0.0000
     25 ****        -3.3395   0.6179  -1.0750 H              1 S1                 0.0000
     26 ****        -3.3920   0.3330  -2.7984 H              1 S1                 0.0000
     27 ****        -1.3386  -1.2017  -1.5918 H              1 S1                 0.0000
     28 ****        -1.4977  -0.8621  -3.3030 H              1 S1                 0.0000
     29 ****         0.8217  -1.6060  -2.7709 H              1 S1                 0.0000
     30 ****         0.7836   0.0022  -3.4423 H              1 S1                 0.0000
     31 ****         2.3139   0.0570  -1.6034 H              1 S1                 0.0000
     32 ****         0.3744  -1.6003  -0.2231 H              1 S1                 0.0000
     33 ****         0.7651  -2.4451   1.4965 H              1 S1                 0.0000
     34 ****         4.2876  -1.5858   2.5330 H              1 S1                 0.0000
     35 ****         5.1789  -2.3807   4.7060 H              1 S1                 0.0000
     36 ****         3.6587  -3.6283   6.2605 H              1 S1                 0.0000
     37 ****         0.4764  -3.3232   3.6501 H              1 S1                 0.0000
     38 ****         1.1841   1.7402  -0.0697 H              1 S1                 0.0000
     39 ****         1.0038   2.0700  -1.7698 H              1 S1                 0.0000
     40 ****        -1.1409   2.3998  -0.6408 H              1 S1                 0.0000
     41 ****        -1.1160   0.7816   0.0221 H              1 S1                 0.0000
     42 ****        -1.1695   1.4397  -2.8342 H              1 S1                 0.0000
     43 ****        -4.0681   2.4670  -0.4477 LP             1 S1                 0.0000
     44 ****        -3.3770   3.7849  -3.7254 LP             1 S1                 0.0000
     45 ****        -2.6795   2.2613  -4.1640 LP             1 S1                 0.0000
     46 ****         3.1725   0.4096   0.2460 LP             1 S1                 0.0000
     47 ****         3.5860  -0.3784   1.7320 LP             1 S1                 0.0000
     48 ****         1.4247  -4.0367   5.6660 LP             1 S1                 0.0000
@<TRIPOS>BOND
    1    1    2 1     
    2    1   22 1     
    3    1   23 1     
    4    1   24 1     
    5    2    3 1     
    6    3    4 2     
    7    3    5 1     
    8    5    6 1     
    9    5   25 1     
   10    5   26 1     
   11    6   21 1     
   12    6    7 1     
   13    6   42 1     
   14    7    8 1     
   15    7   27 1     
   16    7   28 1     
   17    8    9 1     
   18    8   29 1     
   19    8   30 1     
   20    9   10 1     
   21    9   20 1     
   22    9   31 1     
   23   10   11 am    
   24   10   32 1     
   25   11   12 2     
   26   11   13 am    
   27   13   14 1     
   28   13   33 1     
   29   14   19 ar    
   30   14   15 ar    
   31   15   16 ar    
   32   15   34 1     
   33   16   17 ar    
   34   16   35 1     
   35   17   18 ar    
   36   17   36 1     
   37   18   19 ar    
   38   19   37 1     
   39   20   21 1     
   40   20   38 1     
   41   20   39 1     
   42   21   40 1     
   43   21   41 1     
   44    2   43 1     
   45    4   44 1     
   46    4   45 1     
   47   12   46 1     
   48   12   47 1     
   49   18   48 1     
@<TRIPOS>SUBSTRUCTURE
      1 S1             1
@<TRIPOS>SET
LONE_PAIRS      STATIC     ATOMS    <user>   **** ""
6 43 44 45 46 47 48
DONOR_HYDROGENS      STATIC     ATOMS    <user>   **** ""
3 42 32 33
ATOM$BLUE        STATIC     ATOMS    COLORGROUP SYSTEM
6 43 44 45 46 47 48
ATOM$RED        STATIC     ATOMS    COLORGROUP SYSTEM
3 42 32 33
