AV-unprocessed.smi:817|AV-procd|sdf|3830|dock3
  -GOLD-   22720 1273D 1   1.00000     0.00000
 Structure written by MMmdl.
 48 49  0  0  0  0  0  0  0  0  2 V2000
  150.2031  137.8923  154.8959 C   0  0  0  0  0  0  0  0  0  0  0  0
  149.1637  138.7719  154.1858 C   0  0  2  0  0  0  0  0  0  0  0  0
  149.4333  140.2652  154.4406 C   0  0  0  0  0  0  0  0  0  0  0  0
  148.3854  141.1557  153.7601 C   0  0  0  0  0  0  0  0  0  0  0  0
  146.9632  140.7593  154.1936 C   0  0  0  0  0  0  0  0  0  0  0  0
  146.6135  139.2562  153.9419 C   0  0  2  0  0  0  0  0  0  0  0  0
  146.5874  138.9911  152.4044 C   0  0  0  0  0  0  0  0  0  0  0  0
  146.8288  137.5850  152.0731 N   0  0  0  0  0  0  0  0  0  0  0  0
  145.9189  136.6625  151.7161 C   0  0  0  0  0  0  0  0  0  0  0  0
  144.7292  136.9530  151.6205 O   0  0  0  0  0  0  0  0  0  0  0  0
  146.4408  135.4445  151.4699 N   0  0  0  0  0  0  0  0  0  0  0  0
  145.7831  134.2461  151.0808 C   0  0  0  0  0  0  0  0  0  0  0  0
  144.3839  134.1153  150.9048 C   0  0  0  0  0  0  0  0  0  0  0  0
  143.8602  132.8623  150.5316 C   0  0  0  0  0  0  0  0  0  0  0  0
  144.7506  131.7857  150.3544 C   0  0  0  0  0  0  0  0  0  0  0  0
  146.0844  131.8929  150.5294 N   0  0  0  0  0  0  0  0  0  0  0  0
  146.5790  133.0971  150.8867 C   0  0  0  0  0  0  0  0  0  0  0  0
  145.2513  138.9208  154.5075 N   0  3  0  0  0  0  0  0  0  0  0  0
  144.9564  139.4301  155.8726 C   0  0  0  0  0  0  0  0  0  0  0  0
  144.8456  137.4949  154.3916 C   0  0  0  0  0  0  0  0  0  0  0  0
  147.7260  138.3901  154.6070 C   0  0  0  0  0  0  0  0  0  0  0  0
  150.1651  138.0247  155.9776 H   0  0  0  0  0  0  0  0  0  0  0  0
  151.2137  138.1356  154.5668 H   0  0  0  0  0  0  0  0  0  0  0  0
  150.0348  136.8362  154.6837 H   0  0  0  0  0  0  0  0  0  0  0  0
  149.2752  138.5862  153.1176 H   0  0  0  0  0  0  0  0  0  0  0  0
  149.4307  140.4608  155.5139 H   0  0  0  0  0  0  0  0  0  0  0  0
  150.4279  140.5333  154.0826 H   0  0  0  0  0  0  0  0  0  0  0  0
  148.5682  142.1967  154.0286 H   0  0  0  0  0  0  0  0  0  0  0  0
  148.4947  141.1097  152.6773 H   0  0  0  0  0  0  0  0  0  0  0  0
  146.9173  140.9909  155.2570 H   0  0  0  0  0  0  0  0  0  0  0  0
  146.2353  141.4124  153.7108 H   0  0  0  0  0  0  0  0  0  0  0  0
  145.6370  139.2815  151.9608 H   0  0  0  0  0  0  0  0  0  0  0  0
  147.3281  139.6110  151.8993 H   0  0  0  0  0  0  0  0  0  0  0  0
  147.7863  137.2699  152.1340 H   0  0  0  0  0  0  0  0  0  0  0  0
  147.4467  135.3795  151.5269 H   0  0  0  0  0  0  0  0  0  0  0  0
  143.7017  134.9361  151.0579 H   0  0  0  0  0  0  0  0  0  0  0  0
  142.7982  132.7289  150.3880 H   0  0  0  0  0  0  0  0  0  0  0  0
  144.3813  130.8117  150.0695 H   0  0  0  0  0  0  0  0  0  0  0  0
  147.6500  133.1444  151.0202 H   0  0  0  0  0  0  0  0  0  0  0  0
  145.7031  139.1045  156.5967 H   0  0  0  0  0  0  0  0  0  0  0  0
  143.9854  139.0739  156.2178 H   0  0  0  0  0  0  0  0  0  0  0  0
  144.8949  140.5177  155.8919 H   0  0  0  0  0  0  0  0  0  0  0  0
  145.4238  136.8576  155.0610 H   0  0  0  0  0  0  0  0  0  0  0  0
  144.9426  137.1099  153.3783 H   0  0  0  0  0  0  0  0  0  0  0  0
  143.7952  137.3810  154.6613 H   0  0  0  0  0  0  0  0  0  0  0  0
  147.5734  137.3357  154.3753 H   0  0  0  0  0  0  0  0  0  0  0  0
  147.6557  138.4711  155.6920 H   0  0  0  0  0  0  0  0  0  0  0  0
  144.6036  139.4178  153.9130 H   0  0  0  0  0  0  0  0  0  0  0  0
  1  2  1  0  0  0  0
  1 22  1  0  0  0  0
  1 23  1  0  0  0  0
  1 24  1  0  0  0  0
  2 21  1  0  0  0  0
  2  3  1  0  0  0  0
  2 25  1  0  0  0  0
  3  4  1  0  0  0  0
  3 26  1  0  0  0  0
  3 27  1  0  0  0  0
  4  5  1  0  0  0  0
  4 28  1  0  0  0  0
  4 29  1  0  0  0  0
  5  6  1  0  0  0  0
  5 30  1  0  0  0  0
  5 31  1  0  0  0  0
  6  7  1  0  0  0  0
  6 18  1  0  0  0  0
  6 21  1  0  0  0  0
  7  8  1  0  0  0  0
  7 32  1  0  0  0  0
  7 33  1  0  0  0  0
  8  9  1  0  0  0  0
  8 34  1  0  0  0  0
  9 10  2  0  0  0  0
  9 11  1  0  0  0  0
 11 12  1  0  0  0  0
 11 35  1  0  0  0  0
 12 17  1  0  0  0  0
 12 13  2  0  0  0  0
 13 14  1  0  0  0  0
 13 36  1  0  0  0  0
 14 15  2  0  0  0  0
 14 37  1  0  0  0  0
 15 16  1  0  0  0  0
 15 38  1  0  0  0  0
 16 17  2  0  0  0  0
 17 39  1  0  0  0  0
 18 19  1  0  0  0  0
 18 20  1  0  0  0  0
 18 48  1  0  0  0  0
 19 40  1  0  0  0  0
 19 41  1  0  0  0  0
 19 42  1  0  0  0  0
 20 43  1  0  0  0  0
 20 44  1  0  0  0  0
 20 45  1  0  0  0  0
 21 46  1  0  0  0  0
 21 47  1  0  0  0  0
M  CHG  1  18   1
M  END
> <s_m_source_file>
AV-unprocessed.smi

> <i_m_source_file_index>
817

> <i_lp_mmshare_version>
43012

> <i_f3d_flags>
0

> <s_epik_input>
W0NIM11bQ0BASF0oW0NIMl0xKVtDSDJdW0NIMl1bQ0gyXVtDQF0xKE4oW0NIM10pW0NIM10pW0NIMl1bTkhdQyg9TylbTkhdYzJbY0hdW2NIXVtjSF1uW2NIXTI=

> <s_epik_cmdline>
J2VwaWtfcHl0aG9uJywgJy1waCcsICc3LjAnLCAnLXRuJywgJzgnLCAnLW1hJywgJzIwMCcsICctbWV0YWxfYmluZGluZycsICctaW1hZScsICc8aW5maWxlLm1hZT4nLCAnLW9tYWUnLCAnPG91dGZpbGUubWFlPic=

> <r_lp_tautomer_probability>
1

> <r_epik_Ionization_Penalty>
0.00584939

> <r_epik_Ionization_Penalty_Charging>
0.00160539

> <r_epik_Ionization_Penalty_Neutral>
0.004244

> <r_epik_State_Penalty>
-0

> <r_epik_Charging_Adjusted_Penalty>
0.00160539

> <i_epik_Tot_Q>
1

> <i_epik_Tot_abs_Q>
1

> <r_epik_Metal_State_Penalty>
-0

> <b_epik_Metal_Only>
0

> <s_lp_Force_Field>
OPLS_2005

> <r_lp_Energy>
49.7529

> <b_lp_Chiralities_Consistent>
1

> <s_lp_Variant>
AV-unprocessed.smi:817-3

> <Gold.Version>
5.8.1

> <Gold.Id.Protein>
6NUR|6NUR_protein|mol2

> <Gold.PLP.Fitness>
43.1934

> <Gold.PLP.PLP>
-31.5613

> <Gold.PLP.part.hbond>
-2.9877

> <Gold.PLP.part.metal>
0.0000

> <Gold.PLP.part.buried>
-2.8072

> <Gold.PLP.part.nonpolar>
-29.9656

> <Gold.PLP.part.repulsive>
3.8959

> <Gold.PLP.ligand.clash>
0.0000

> <Gold.PLP.ligand.torsion>
0.6562

> <Gold.PLP.Chemscore.Hbond>
3.9600

> <Gold.PLP.Chemscore.CHOScore>
0.3109

> <Gold.PLP.Chemscore.Metal>
0.0000

> <Gold.Chemscore.Hbonds>
donor molecule, donor type, donor heavy atom, donor atom, acceptor molecule, acceptor atom, score
      L1  H     8    34       P1  7948  1.00
      L1  H    11    35       P1  7948  0.96
      L1  H    18    48       P1 10175  2.00
      L1  C    17    39       P1 10747  0.34

> <Gold.PLP.Chemscore.Internal.Correction>
0.1318

> <Gold.Rescore>
     Score         DG    S(hbond)    S(metal)    S(lipo)     H(rot)  DE(clash)    DE(int)     intcor
     17.93     -21.67       2.86        0.00      88.24       1.44       1.72       2.02       ----

> <Gold.Chemscore.Fitness>
17.9273

> <Gold.Chemscore.DG>
-21.6743

> <Gold.Chemscore.ZeroCoef>
-5.4800

> <Gold.Chemscore.Hbond>
2.8615

> <Gold.Chemscore.Metal>
0.0000

> <Gold.Chemscore.Lipo>
88.2440

> <Gold.Chemscore.Internal_Hbond>
0.0000

> <Gold.Chemscore.DEClash>
1.7237

> <Gold.Chemscore.DEInternal>
2.0233

> <Gold.Chemscore.Rot>
1.4405

> <Gold.Chemscore.Internal.Correction>
   9.000000E+99

> <Gold.Chemscore.Hbonds>
donor molecule, donor type, donor heavy atom, donor atom, acceptor molecule, acceptor atom, score
      L1  H     8    34       P1  7948  0.94
      L1  H    11    35       P1  7948  0.84
      L1  H    18    48       P1 10175  0.96

> <Gold.Chemscore.Hbond.Weighted>
-9.5575

> <Gold.Chemscore.Metal.Weighted>
-0.0000

> <Gold.Chemscore.Lipo.Weighted>
-10.3246

> <Gold.Chemscore.Internal_Hbond.Weighted>
0.0000

> <Gold.Chemscore.DEClash.Weighted>
1.7237

> <Gold.Chemscore.DEInternal.Weighted>
2.0233

> <Gold.Chemscore.Rot.Weighted>
3.6878

> <Gold.Chemscore.Internal.Correction.Weighted>
   9.000000E+99

> <Gold.Protein.RotatedTorsions>
[ 6907 6896 6895 6894 ] final   83.09 input  -60.11 | X-H torsion
[ 7974 7965 7964 7962 ] final -143.05 input  175.53 | X-H torsion
[ 8008 7997 7996 7995 ] final  128.47 input   59.86 | X-H torsion
[ 10167 10162 10161 10158 ] final  -51.19 input  -65.29 | X-H torsion
[ 10718 10713 10712 10709 ] final  176.49 input   66.30 | X-H torsion
[ 10763 10752 10751 10750 ] final   53.66 input  -60.55 | X-H torsion
[ 11005 11000 10999 10996 ] final  125.45 input  -57.11 | X-H torsion

> <Gold.Protein.ActiveResidues>
 VAL166  LYS551  ARG553  GLY616  TRP617  ASP618  TYR619  PRO620  LYS621  CYS622 
 ASP623  PHE694  ASN695  SER759  ASP760  ASP761  ALA762  ILE779  LEU786  VAL792 
 PHE793  MET794  SER795  GLU796  ALA797  LYS798  CYS799  TRP800  GLU811  SER814 

> <Gold.Protein.RotatedAtoms>
  152.5318  134.2949  159.9056 H   0  0  0  0  0  0  0  0  0  0  0  0  # atno 6907 bound_to 6896
  151.2900  133.4163  159.2640 H   0  0  0  0  0  0  0  0  0  0  0  0  # atno 6908 bound_to 6896
  151.0209  134.9484  159.8116 H   0  0  0  0  0  0  0  0  0  0  0  0  # atno 6909 bound_to 6896
  144.8398  140.5882  143.5460 H   0  0  0  0  0  0  0  0  0  0  0  0  # atno 7974 bound_to 7965
  156.2915  140.2644  156.2440 H   0  0  0  0  0  0  0  0  0  0  0  0  # atno 8008 bound_to 7997
  154.9948  140.0388  157.2353 H   0  0  0  0  0  0  0  0  0  0  0  0  # atno 8009 bound_to 7997
  154.7654  140.2768  155.6185 H   0  0  0  0  0  0  0  0  0  0  0  0  # atno 8010 bound_to 7997
  140.6600  143.2629  151.4468 H   0  0  0  0  0  0  0  0  0  0  0  0  # atno 10167 bound_to 10162
  156.9194  130.9935  151.3007 H   0  0  0  0  0  0  0  0  0  0  0  0  # atno 10718 bound_to 10713
  152.9797  135.5771  154.4777 H   0  0  0  0  0  0  0  0  0  0  0  0  # atno 10763 bound_to 10752
  154.4330  135.2774  155.1901 H   0  0  0  0  0  0  0  0  0  0  0  0  # atno 10764 bound_to 10752
  154.3601  135.6190  153.5740 H   0  0  0  0  0  0  0  0  0  0  0  0  # atno 10765 bound_to 10752
  139.9407  134.9636  156.8560 H   0  0  0  0  0  0  0  0  0  0  0  0  # atno 11005 bound_to 11000
  145.4718  139.1503  143.3810 LP  0  0  0  0  0  0  0  0  0  0  0  0  # atno 17320 bound_to 7965
  146.2692  140.4852  142.8821 LP  0  0  0  0  0  0  0  0  0  0  0  0  # atno 17321 bound_to 7965
  139.5832  144.1663  152.1995 LP  0  0  0  0  0  0  0  0  0  0  0  0  # atno 17342 bound_to 10162
  140.0994  144.5552  150.6999 LP  0  0  0  0  0  0  0  0  0  0  0  0  # atno 17343 bound_to 10162
  157.5917  130.8449  149.8669 LP  0  0  0  0  0  0  0  0  0  0  0  0  # atno 17370 bound_to 10713
  156.0498  130.3720  150.1228 LP  0  0  0  0  0  0  0  0  0  0  0  0  # atno 17371 bound_to 10713
  140.5959  134.0217  155.7518 LP  0  0  0  0  0  0  0  0  0  0  0  0  # atno 17394 bound_to 11000
  141.1040  133.9723  157.3029 LP  0  0  0  0  0  0  0  0  0  0  0  0  # atno 17395 bound_to 11000

$$$$
