AV-unprocessed.smi:1897|AV-procd|sdf|7696|dock4
  -GOLD-   22720 9433D 1   1.00000     0.00000
 Structure written by MMmdl.
 38 40  0  0  0  0  0  0  0  0  3 V2000
  140.9678  145.4782  160.9146 C   0  0  0  0  0  0  0  0  0  0  0  0
  142.3867  145.0581  160.7367 C   0  0  0  0  0  0  0  0  0  0  0  0
  142.9026  143.9802  161.3325 N   0  0  0  0  0  0  0  0  0  0  0  0
  144.2403  143.7975  161.0147 N   0  0  0  0  0  0  0  0  0  0  0  0
  144.7126  144.7288  160.1729 C   0  0  0  0  0  0  0  0  0  0  0  0
  145.9840  144.7268  159.7305 N   0  5  0  0  0  0  0  0  0  0  0  0
  146.7233  143.5914  159.6346 C   0  0  0  0  0  0  0  0  0  0  0  0
  146.6662  142.6758  160.4543 O   0  0  0  0  0  0  0  0  0  0  0  0
  147.5453  143.4688  158.5743 N   0  0  0  0  0  0  0  0  0  0  0  0
  148.3728  142.3118  158.2409 C   0  0  2  0  0  0  0  0  0  0  0  0
  149.8739  142.6602  158.1955 C   0  0  0  0  0  0  0  0  0  0  0  0
  150.3963  141.9969  156.9173 C   0  0  0  0  0  0  0  0  0  0  0  0
  149.2329  142.0319  156.0234 N   0  3  1  0  0  0  0  0  0  0  0  0
  149.2865  141.2422  154.7759 C   0  0  0  0  0  0  0  0  0  0  0  0
  148.0335  141.5645  153.9344 C   0  0  0  0  0  0  0  0  0  0  0  0
  146.7287  141.3826  154.7410 C   0  0  0  0  0  0  0  0  0  0  0  0
  146.7828  142.1353  156.0871 C   0  0  0  0  0  0  0  0  0  0  0  0
  148.0547  141.7172  156.8492 C   0  0  2  0  0  0  0  0  0  0  0  0
  143.5133  145.9377  159.7175 S   0  0  0  0  0  0  0  0  0  0  0  0
  140.3434  145.0096  160.1539 H   0  0  0  0  0  0  0  0  0  0  0  0
  140.8813  146.5608  160.8216 H   0  0  0  0  0  0  0  0  0  0  0  0
  140.6040  145.1836  161.8995 H   0  0  0  0  0  0  0  0  0  0  0  0
  147.5690  144.2421  157.9259 H   0  0  0  0  0  0  0  0  0  0  0  0
  148.2273  141.5348  158.9938 H   0  0  0  0  0  0  0  0  0  0  0  0
  150.0116  143.7404  158.1223 H   0  0  0  0  0  0  0  0  0  0  0  0
  150.4087  142.3229  159.0841 H   0  0  0  0  0  0  0  0  0  0  0  0
  151.2542  142.5182  156.4920 H   0  0  0  0  0  0  0  0  0  0  0  0
  150.6800  140.9614  157.1121 H   0  0  0  0  0  0  0  0  0  0  0  0
  150.1888  141.4955  154.2186 H   0  0  0  0  0  0  0  0  0  0  0  0
  149.3361  140.1773  155.0075 H   0  0  0  0  0  0  0  0  0  0  0  0
  148.0935  142.5961  153.5846 H   0  0  0  0  0  0  0  0  0  0  0  0
  148.0111  140.9392  153.0412 H   0  0  0  0  0  0  0  0  0  0  0  0
  145.8745  141.7236  154.1554 H   0  0  0  0  0  0  0  0  0  0  0  0
  146.5680  140.3202  154.9289 H   0  0  0  0  0  0  0  0  0  0  0  0
  146.7790  143.2122  155.9112 H   0  0  0  0  0  0  0  0  0  0  0  0
  145.8927  141.9063  156.6738 H   0  0  0  0  0  0  0  0  0  0  0  0
  148.0264  140.6329  156.9783 H   0  0  0  0  0  0  0  0  0  0  0  0
  149.1288  142.9987  155.7502 H   0  0  0  0  0  0  0  0  0  0  0  0
  1  2  1  0  0  0  0
  1 20  1  0  0  0  0
  1 21  1  0  0  0  0
  1 22  1  0  0  0  0
  2 19  1  0  0  0  0
  2  3  2  0  0  0  0
  3  4  1  0  0  0  0
  4  5  2  0  0  0  0
  5  6  1  0  0  0  0
  5 19  1  0  0  0  0
  6  7  1  0  0  0  0
  7  8  2  0  0  0  0
  7  9  1  0  0  0  0
  9 10  1  0  0  0  0
  9 23  1  0  0  0  0
 10 18  1  0  0  0  0
 10 11  1  0  0  0  0
 10 24  1  0  0  0  0
 11 12  1  0  0  0  0
 11 25  1  0  0  0  0
 11 26  1  0  0  0  0
 12 13  1  0  0  0  0
 12 27  1  0  0  0  0
 12 28  1  0  0  0  0
 13 18  1  0  0  0  0
 13 14  1  0  0  0  0
 13 38  1  0  0  0  0
 14 15  1  0  0  0  0
 14 29  1  0  0  0  0
 14 30  1  0  0  0  0
 15 16  1  0  0  0  0
 15 31  1  0  0  0  0
 15 32  1  0  0  0  0
 16 17  1  0  0  0  0
 16 33  1  0  0  0  0
 16 34  1  0  0  0  0
 17 18  1  0  0  0  0
 17 35  1  0  0  0  0
 17 36  1  0  0  0  0
 18 37  1  0  0  0  0
M  CHG  1   6  -1
M  CHG  1  13   1
M  END
> <s_m_source_file>
AV-unprocessed.smi

> <i_m_source_file_index>
1897

> <i_lp_mmshare_version>
43012

> <i_f3d_flags>
0

> <s_epik_input>
W0NIM11jMW5uYyhzMSlbTkhdQyg9TylbTkhdW0NASF0oW0NIMl1bQ0gyXTIpW0NAQEhdKE4yMylbQ0gyXVtDSDJdW0NIMl1bQ0gyXTM=

> <s_epik_cmdline>
J2VwaWtfcHl0aG9uJywgJy1waCcsICc3LjAnLCAnLXRuJywgJzgnLCAnLW1hJywgJzIwMCcsICctbWV0YWxfYmluZGluZycsICctaW1hZScsICc8aW5maWxlLm1hZT4nLCAnLW9tYWUnLCAnPG91dGZpbGUubWFlPic=

> <r_lp_tautomer_probability>
1

> <r_epik_Ionization_Penalty>
3.77712

> <r_epik_Ionization_Penalty_Charging>
3.67739

> <r_epik_Ionization_Penalty_Neutral>
0.0997294

> <r_epik_State_Penalty>
3.67514

> <r_epik_Charging_Adjusted_Penalty>
7.35254

> <i_epik_Tot_Q>
0

> <i_epik_Tot_abs_Q>
2

> <r_epik_Metal_State_Penalty>
0.540795

> <b_epik_Metal_Only>
1

> <s_lp_Force_Field>
OPLS_2005

> <r_lp_Energy>
34.9816

> <b_lp_Chiralities_Consistent>
1

> <s_lp_Variant>
AV-unprocessed.smi:1897-13

> <Gold.Version>
5.8.1

> <Gold.Id.Protein>
6NUR|6NUR_protein|mol2

> <Gold.PLP.Fitness>
39.4458

> <Gold.PLP.PLP>
-26.1112

> <Gold.PLP.part.hbond>
-4.0000

> <Gold.PLP.part.metal>
0.0000

> <Gold.PLP.part.buried>
-4.7520

> <Gold.PLP.part.nonpolar>
-19.3909

> <Gold.PLP.part.repulsive>
0.4698

> <Gold.PLP.ligand.clash>
0.0000

> <Gold.PLP.ligand.torsion>
0.4356

> <Gold.PLP.Chemscore.Hbond>
4.7349

> <Gold.PLP.Chemscore.CHOScore>
0.0000

> <Gold.PLP.Chemscore.Metal>
0.0000

> <Gold.Chemscore.Hbonds>
donor molecule, donor type, donor heavy atom, donor atom, acceptor molecule, acceptor atom, score
      L1  H     9    23       P1  8029  0.90
      L1  H    13    38       P1  8028  2.00
      P1  H  6933  6944       L1     8  0.68
      P1  H  6934  6946       L1     8  1.00

> <Gold.PLP.Chemscore.Internal.Correction>
0.0013

> <Gold.Rescore>
     Score         DG    S(hbond)    S(metal)    S(lipo)     H(rot)  DE(clash)    DE(int)     intcor
     17.90     -19.85       3.07        0.00      56.95       1.00       0.01       1.93       ----

> <Gold.Chemscore.Fitness>
17.9024

> <Gold.Chemscore.DG>
-19.8488

> <Gold.Chemscore.ZeroCoef>
-5.4800

> <Gold.Chemscore.Hbond>
3.0736

> <Gold.Chemscore.Metal>
0.0000

> <Gold.Chemscore.Lipo>
56.9492

> <Gold.Chemscore.Internal_Hbond>
0.0000

> <Gold.Chemscore.DEClash>
0.0135

> <Gold.Chemscore.DEInternal>
1.9330

> <Gold.Chemscore.Rot>
1.0000

> <Gold.Chemscore.Internal.Correction>
   9.000000E+99

> <Gold.Chemscore.Hbonds>
donor molecule, donor type, donor heavy atom, donor atom, acceptor molecule, acceptor atom, score
      L1  H     9    23       P1  8029  0.18
      L1  H    13    38       P1  8028  1.00
      P1  H  6933  6944       L1     8  0.58
      P1  H  6934  6946       L1     8  0.95

> <Gold.Chemscore.Hbond.Weighted>
-10.2658

> <Gold.Chemscore.Metal.Weighted>
-0.0000

> <Gold.Chemscore.Lipo.Weighted>
-6.6631

> <Gold.Chemscore.Internal_Hbond.Weighted>
0.0000

> <Gold.Chemscore.DEClash.Weighted>
0.0135

> <Gold.Chemscore.DEInternal.Weighted>
1.9330

> <Gold.Chemscore.Rot.Weighted>
2.5600

> <Gold.Chemscore.Internal.Correction.Weighted>
   9.000000E+99

> <Gold.Protein.RotatedTorsions>
[ 6907 6896 6895 6894 ] final   33.21 input  -60.11 | X-H torsion
[ 7974 7965 7964 7962 ] final   -6.72 input  175.53 | X-H torsion
[ 8008 7997 7996 7995 ] final  111.29 input   59.86 | X-H torsion
[ 10167 10162 10161 10158 ] final  154.81 input  -65.29 | X-H torsion
[ 10718 10713 10712 10709 ] final   65.73 input   66.30 | X-H torsion
[ 10763 10752 10751 10750 ] final  120.81 input  -60.55 | X-H torsion
[ 11005 11000 10999 10996 ] final  -26.70 input  -57.11 | X-H torsion

> <Gold.Protein.ActiveResidues>
 VAL166  LYS551  ARG553  GLY616  TRP617  ASP618  TYR619  PRO620  LYS621  CYS622 
 ASP623  PHE694  ASN695  SER759  ASP760  ASP761  ALA762  ILE779  LEU786  VAL792 
 PHE793  MET794  SER795  GLU796  ALA797  LYS798  CYS799  TRP800  GLU811  SER814 

> <Gold.Protein.RotatedAtoms>
  152.0853  134.9444  160.0572 H   0  0  0  0  0  0  0  0  0  0  0  0  # atno 6907 bound_to 6896
  152.0716  133.4105  159.4470 H   0  0  0  0  0  0  0  0  0  0  0  0  # atno 6908 bound_to 6896
  150.6836  134.3005  159.4747 H   0  0  0  0  0  0  0  0  0  0  0  0  # atno 6909 bound_to 6896
  146.2324  140.2213  142.8337 H   0  0  0  0  0  0  0  0  0  0  0  0  # atno 7974 bound_to 7965
  156.2114  140.3022  155.9740 H   0  0  0  0  0  0  0  0  0  0  0  0  # atno 8008 bound_to 7997
  155.2715  140.0434  157.3024 H   0  0  0  0  0  0  0  0  0  0  0  0  # atno 8009 bound_to 7997
  154.5705  140.2346  155.8208 H   0  0  0  0  0  0  0  0  0  0  0  0  # atno 8010 bound_to 7997
  139.4822  144.5154  151.7960 H   0  0  0  0  0  0  0  0  0  0  0  0  # atno 10167 bound_to 10162
  157.6124  130.9229  150.0015 H   0  0  0  0  0  0  0  0  0  0  0  0  # atno 10718 bound_to 10713
  153.6043  135.3442  155.2956 H   0  0  0  0  0  0  0  0  0  0  0  0  # atno 10763 bound_to 10752
  154.8630  135.4235  154.2379 H   0  0  0  0  0  0  0  0  0  0  0  0  # atno 10764 bound_to 10752
  153.3215  135.7038  153.7098 H   0  0  0  0  0  0  0  0  0  0  0  0  # atno 10765 bound_to 10752
  140.9053  133.7497  156.0598 H   0  0  0  0  0  0  0  0  0  0  0  0  # atno 11005 bound_to 11000
  144.9630  140.8293  143.5502 LP  0  0  0  0  0  0  0  0  0  0  0  0  # atno 17320 bound_to 7965
  145.2186  139.2170  143.5105 LP  0  0  0  0  0  0  0  0  0  0  0  0  # atno 17321 bound_to 7965
  140.4662  144.1652  150.5912 LP  0  0  0  0  0  0  0  0  0  0  0  0  # atno 17342 bound_to 10162
  140.4432  143.2518  151.9446 LP  0  0  0  0  0  0  0  0  0  0  0  0  # atno 17343 bound_to 10162
  156.1232  130.3645  149.9853 LP  0  0  0  0  0  0  0  0  0  0  0  0  # atno 17370 bound_to 10713
  156.7929  130.9262  151.3646 LP  0  0  0  0  0  0  0  0  0  0  0  0  # atno 17371 bound_to 10713
  140.8179  134.3324  157.5391 LP  0  0  0  0  0  0  0  0  0  0  0  0  # atno 17394 bound_to 11000
  139.8748  134.9292  156.3470 LP  0  0  0  0  0  0  0  0  0  0  0  0  # atno 17395 bound_to 11000

$$$$
