#       Name:                AV-unprocessed.smi:3314
#       Creating user name   scv26
#       Creation time:       Fri Mar 27 19:07:48 2020


#       File generated by GOLD software.
#

@<TRIPOS>MOLECULE
AV-unprocessed.smi:3314
    43    44     1
SMALL
NO_CHARGES


@<TRIPOS>ATOM
      1 ****        -4.7040   3.0327  -0.4921 C.3            1 S1                 0.0000
      2 ****        -4.0019   1.6919  -0.4472 C.ar           1 S1                 0.0000
      3 ****        -4.7361   0.4907  -0.4264 C.ar           1 S1                 0.0000
      4 ****        -4.0232  -0.7236  -0.3844 C.ar           1 S1                 0.0000
      5 ****        -4.7479  -2.0530  -0.3602 C.3            1 S1                 0.0000
      6 ****        -2.6744  -0.7854  -0.3636 N.ar           1 S1                 0.0000
      7 ****        -1.9573   0.3653  -0.3835 C.ar           1 S1                 0.0000
      8 ****        -0.5384   0.4092  -0.3628 N.am           1 S1                 0.0000
      9 ****         0.3300  -0.6204  -0.3333 C.2            1 S1                 0.0000
     10 ****         0.0002  -1.8069  -0.3456 O.2            1 S1                 0.0000
     11 ****         1.8179  -0.2390  -0.3107 C.3            1 S1                 0.0000
     12 ****         2.7247  -1.3881   0.1902 C.3            1 S1                 0.0000
     13 ****         4.1352  -0.9437   0.2682 N.4            1 S1                 1.0000
     14 ****         5.0491  -2.0201   0.7069 C.3            1 S1                 0.0000
     15 ****         4.2600   0.2809   1.0897 C.3            1 S1                 0.0000
     16 ****         3.3226   1.3752   0.5562 C.3            1 S1                 0.0000
     17 ****         1.9857   0.8909   0.5447 O.3            1 S1                 0.0000
     18 ****        -2.5942   1.6257  -0.4253 C.ar           1 S1                 0.0000
     19 ****        -5.7877   2.9133  -0.4974 H              1 S1                 0.0000
     20 ****        -4.4164   3.5796  -1.3902 H              1 S1                 0.0000
     21 ****        -4.4316   3.6310   0.3775 H              1 S1                 0.0000
     22 ****        -5.8162   0.4995  -0.4417 H              1 S1                 0.0000
     23 ****        -5.8295  -1.9143  -0.3463 H              1 S1                 0.0000
     24 ****        -4.4666  -2.6233   0.5257 H              1 S1                 0.0000
     25 ****        -4.4914  -2.6398  -1.2427 H              1 S1                 0.0000
     26 ****        -0.1335   1.3340  -0.3598 H              1 S1                 0.0000
     27 ****         2.1003   0.0364  -1.3284 H              1 S1                 0.0000
     28 ****         2.3977  -1.7299   1.1741 H              1 S1                 0.0000
     29 ****         2.6591  -2.2424  -0.4854 H              1 S1                 0.0000
     30 ****         4.8169  -2.3426   1.7227 H              1 S1                 0.0000
     31 ****         6.0841  -1.6775   0.6846 H              1 S1                 0.0000
     32 ****         4.9702  -2.8847   0.0470 H              1 S1                 0.0000
     33 ****         4.0143   0.0535   2.1284 H              1 S1                 0.0000
     34 ****         5.2919   0.6341   1.0728 H              1 S1                 0.0000
     35 ****         3.3727   2.2570   1.1951 H              1 S1                 0.0000
     36 ****         3.6181   1.6901  -0.4459 H              1 S1                 0.0000
     37 ****        -2.0119   2.5359  -0.4407 H              1 S1                 0.0000
     38 ****         4.4123  -0.6935  -0.6705 H              1 S1                 0.0000
     39 ****        -2.2094  -1.6702  -0.3338 LP             1 S1                 0.0000
     40 ****        -0.9676  -2.0565  -0.3794 LP             1 S1                 0.0000
     41 ****         0.7001  -2.5207  -0.3217 LP             1 S1                 0.0000
     42 ****         1.7324   0.6281   1.4757 LP             1 S1                 0.0000
     43 ****         1.3825   1.6236   0.2294 LP             1 S1                 0.0000
@<TRIPOS>BOND
    1    1    2 1     
    2    1   19 1     
    3    1   20 1     
    4    1   21 1     
    5    2   18 ar    
    6    2    3 ar    
    7    3    4 ar    
    8    3   22 1     
    9    4    5 1     
   10    4    6 ar    
   11    5   23 1     
   12    5   24 1     
   13    5   25 1     
   14    6    7 ar    
   15    7    8 1     
   16    7   18 ar    
   17    8    9 am    
   18    8   26 1     
   19    9   10 2     
   20    9   11 1     
   21   11   17 1     
   22   11   12 1     
   23   11   27 1     
   24   12   13 1     
   25   12   28 1     
   26   12   29 1     
   27   13   14 1     
   28   13   15 1     
   29   13   38 1     
   30   14   30 1     
   31   14   31 1     
   32   14   32 1     
   33   15   16 1     
   34   15   33 1     
   35   15   34 1     
   36   16   17 1     
   37   16   35 1     
   38   16   36 1     
   39   18   37 1     
   40    6   39 1     
   41   10   40 1     
   42   10   41 1     
   43   17   42 1     
   44   17   43 1     
@<TRIPOS>SUBSTRUCTURE
      1 S1             1
@<TRIPOS>SET
LONE_PAIRS      STATIC     ATOMS    <user>   **** ""
5 39 40 41 42 43
DONOR_HYDROGENS      STATIC     ATOMS    <user>   **** ""
2 26 38
ATOM$BLUE        STATIC     ATOMS    COLORGROUP SYSTEM
5 39 40 41 42 43
ATOM$RED        STATIC     ATOMS    COLORGROUP SYSTEM
2 26 38
