AV-unprocessed.smi:1982|AV-procd|sdf|8021|dock2
  -GOLD-   2272010213D 1   1.00000     0.00000
 Structure written by MMmdl.
 36 37  0  0  0  0  0  0  0  0  1 V2000
  152.5660  142.9626  161.8360 C   0  0  0  0  0  0  0  0  0  0  0  0
  151.9140  143.3399  160.4954 C   0  0  1  0  0  0  0  0  0  0  0  0
  152.4961  144.6484  159.9243 C   0  0  0  0  0  0  0  0  0  0  0  0
  151.7657  145.0745  158.6414 C   0  0  0  0  0  0  0  0  0  0  0  0
  151.7678  143.9530  157.5922 C   0  0  0  0  0  0  0  0  0  0  0  0
  151.1846  142.6472  158.1663 C   0  0  1  0  0  0  0  0  0  0  0  0
  151.1849  141.6135  157.1351 N   0  0  0  0  0  0  0  0  0  0  0  0
  150.1065  141.1833  156.4617 C   0  0  0  0  0  0  0  0  0  0  0  0
  148.9807  141.6599  156.6019 O   0  0  0  0  0  0  0  0  0  0  0  0
  150.3307  140.0220  155.4938 C   0  0  0  0  0  0  0  0  0  0  0  0
  151.6759  139.4952  155.6283 N   0  0  0  0  0  0  0  0  0  0  0  0
  152.5284  139.0246  154.7157 C   0  0  0  0  0  0  0  0  0  0  0  0
  153.6602  138.6167  155.2692 N   0  0  0  0  0  0  0  0  0  0  0  0
  153.4601  138.8670  156.6167 N   0  0  0  0  0  0  0  0  0  0  0  0
  152.2843  139.3882  156.8360 N   0  0  0  0  0  0  0  0  0  0  0  0
  151.9409  142.1956  159.4469 C   0  0  1  0  0  0  0  0  0  0  0  0
  153.3608  141.6525  159.1572 C   0  0  0  0  0  0  0  0  0  0  0  0
  153.6458  142.8466  161.7443 H   0  0  0  0  0  0  0  0  0  0  0  0
  152.1579  142.0290  162.2235 H   0  0  0  0  0  0  0  0  0  0  0  0
  152.3860  143.7344  162.5849 H   0  0  0  0  0  0  0  0  0  0  0  0
  150.8634  143.5337  160.7179 H   0  0  0  0  0  0  0  0  0  0  0  0
  152.4162  145.4449  160.6648 H   0  0  0  0  0  0  0  0  0  0  0  0
  153.5604  144.5297  159.7202 H   0  0  0  0  0  0  0  0  0  0  0  0
  150.7365  145.3446  158.8819 H   0  0  0  0  0  0  0  0  0  0  0  0
  152.2305  145.9704  158.2291 H   0  0  0  0  0  0  0  0  0  0  0  0
  151.1890  144.2698  156.7238 H   0  0  0  0  0  0  0  0  0  0  0  0
  152.7854  143.7880  157.2362 H   0  0  0  0  0  0  0  0  0  0  0  0
  150.1461  142.8494  158.4366 H   0  0  0  0  0  0  0  0  0  0  0  0
  152.0678  141.1593  156.9508 H   0  0  0  0  0  0  0  0  0  0  0  0
  149.6186  139.2208  155.6951 H   0  0  0  0  0  0  0  0  0  0  0  0
  150.1671  140.3513  154.4665 H   0  0  0  0  0  0  0  0  0  0  0  0
  152.3188  138.9752  153.6573 H   0  0  0  0  0  0  0  0  0  0  0  0
  151.3801  141.3629  159.8742 H   0  0  0  0  0  0  0  0  0  0  0  0
  154.0159  142.4171  158.7410 H   0  0  0  0  0  0  0  0  0  0  0  0
  153.3381  140.8219  158.4515 H   0  0  0  0  0  0  0  0  0  0  0  0
  153.8339  141.2701  160.0608 H   0  0  0  0  0  0  0  0  0  0  0  0
  1  2  1  0  0  0  0
  1 18  1  0  0  0  0
  1 19  1  0  0  0  0
  1 20  1  0  0  0  0
  2 16  1  0  0  0  0
  2  3  1  0  0  0  0
  2 21  1  0  0  0  0
  3  4  1  0  0  0  0
  3 22  1  0  0  0  0
  3 23  1  0  0  0  0
  4  5  1  0  0  0  0
  4 24  1  0  0  0  0
  4 25  1  0  0  0  0
  5  6  1  0  0  0  0
  5 26  1  0  0  0  0
  5 27  1  0  0  0  0
  6  7  1  0  0  0  0
  6 16  1  0  0  0  0
  6 28  1  0  0  0  0
  7  8  1  0  0  0  0
  7 29  1  0  0  0  0
  8  9  2  0  0  0  0
  8 10  1  0  0  0  0
 10 11  1  0  0  0  0
 10 30  1  0  0  0  0
 10 31  1  0  0  0  0
 11 15  1  0  0  0  0
 11 12  1  0  0  0  0
 12 13  2  0  0  0  0
 12 32  1  0  0  0  0
 13 14  1  0  0  0  0
 14 15  2  0  0  0  0
 16 17  1  0  0  0  0
 16 33  1  0  0  0  0
 17 34  1  0  0  0  0
 17 35  1  0  0  0  0
 17 36  1  0  0  0  0
M  END
> <s_m_source_file>
AV-unprocessed.smi

> <i_m_source_file_index>
1982

> <i_lp_mmshare_version>
43012

> <i_f3d_flags>
0

> <s_epik_input>
W0NIM11bQ0BASF0xW0NIMl1bQ0gyXVtDSDJdW0NASF0oW0NASF0xW0NIM10pW05IXUMoPU8pW0NIMl1uMltjSF1ubm4y

> <s_epik_cmdline>
J2VwaWtfcHl0aG9uJywgJy1waCcsICc3LjAnLCAnLXRuJywgJzgnLCAnLW1hJywgJzIwMCcsICctbWV0YWxfYmluZGluZycsICctaW1hZScsICc8aW5maWxlLm1hZT4nLCAnLW9tYWUnLCAnPG91dGZpbGUubWFlPic=

> <r_lp_tautomer_probability>
1

> <r_epik_Ionization_Penalty>
5.03816e-07

> <r_epik_Ionization_Penalty_Charging>
0

> <r_epik_Ionization_Penalty_Neutral>
5.03816e-07

> <r_epik_State_Penalty>
-0

> <r_epik_Charging_Adjusted_Penalty>
0

> <i_epik_Tot_Q>
0

> <i_epik_Tot_abs_Q>
0

> <r_epik_Metal_State_Penalty>
-0

> <b_epik_Metal_Only>
0

> <s_lp_Force_Field>
OPLS_2005

> <r_lp_Energy>
14.9892

> <b_lp_Chiralities_Consistent>
1

> <s_lp_Variant>
AV-unprocessed.smi:1982-2

> <Gold.Version>
5.8.1

> <Gold.Id.Protein>
6NUR|6NUR_protein|mol2

> <Gold.PLP.Fitness>
40.6734

> <Gold.PLP.PLP>
-39.2091

> <Gold.PLP.part.hbond>
-2.1117

> <Gold.PLP.part.metal>
0.0000

> <Gold.PLP.part.buried>
-5.5911

> <Gold.PLP.part.nonpolar>
-31.0345

> <Gold.PLP.part.repulsive>
0.1894

> <Gold.PLP.ligand.clash>
0.0000

> <Gold.PLP.ligand.torsion>
0.5274

> <Gold.PLP.Chemscore.Hbond>
0.8350

> <Gold.PLP.Chemscore.CHOScore>
0.0000

> <Gold.PLP.Chemscore.Metal>
0.0000

> <Gold.Chemscore.Hbonds>
donor molecule, donor type, donor heavy atom, donor atom, acceptor molecule, acceptor atom, score
      P1  H  7997  8009       L1    14  0.82

> <Gold.PLP.Chemscore.Internal.Correction>
0.0140

> <Gold.Rescore>
     Score         DG    S(hbond)    S(metal)    S(lipo)     H(rot)  DE(clash)    DE(int)     intcor
     10.52     -12.75       0.32        0.00      94.67       1.91       0.03       2.20       ----

> <Gold.Chemscore.Fitness>
10.5200

> <Gold.Chemscore.DG>
-12.7522

> <Gold.Chemscore.ZeroCoef>
-5.4800

> <Gold.Chemscore.Hbond>
0.3216

> <Gold.Chemscore.Metal>
0.0000

> <Gold.Chemscore.Lipo>
94.6739

> <Gold.Chemscore.Internal_Hbond>
0.0000

> <Gold.Chemscore.DEClash>
0.0280

> <Gold.Chemscore.DEInternal>
2.2042

> <Gold.Chemscore.Rot>
1.9058

> <Gold.Chemscore.Internal.Correction>
   9.000000E+99

> <Gold.Chemscore.Hbonds>
donor molecule, donor type, donor heavy atom, donor atom, acceptor molecule, acceptor atom, score
      P1  H  7997  8009       L1    14  0.11

> <Gold.Chemscore.Hbond.Weighted>
-1.0742

> <Gold.Chemscore.Metal.Weighted>
-0.0000

> <Gold.Chemscore.Lipo.Weighted>
-11.0768

> <Gold.Chemscore.Internal_Hbond.Weighted>
0.0000

> <Gold.Chemscore.DEClash.Weighted>
0.0280

> <Gold.Chemscore.DEInternal.Weighted>
2.2042

> <Gold.Chemscore.Rot.Weighted>
4.8788

> <Gold.Chemscore.Internal.Correction.Weighted>
   9.000000E+99

> <Gold.Protein.RotatedTorsions>
[ 6907 6896 6895 6894 ] final   12.55 input  -60.11 | X-H torsion
[ 7974 7965 7964 7962 ] final -118.73 input  175.53 | X-H torsion
[ 8008 7997 7996 7995 ] final  164.27 input   59.86 | X-H torsion
[ 10167 10162 10161 10158 ] final  -42.48 input  -65.29 | X-H torsion
[ 10718 10713 10712 10709 ] final   14.82 input   66.30 | X-H torsion
[ 10763 10752 10751 10750 ] final  171.91 input  -60.55 | X-H torsion
[ 11005 11000 10999 10996 ] final   19.28 input  -57.11 | X-H torsion

> <Gold.Protein.ActiveResidues>
 VAL166  LYS551  ARG553  GLY616  TRP617  ASP618  TYR619  PRO620  LYS621  CYS622 
 ASP623  PHE694  ASN695  SER759  ASP760  ASP761  ALA762  ILE779  LEU786  VAL792 
 PHE793  MET794  SER795  GLU796  ALA797  LYS798  CYS799  TRP800  GLU811  SER814 

> <Gold.Protein.RotatedAtoms>
  151.7721  135.0783  160.0361 H   0  0  0  0  0  0  0  0  0  0  0  0  # atno 6907 bound_to 6896
  152.3281  133.5923  159.5799 H   0  0  0  0  0  0  0  0  0  0  0  0  # atno 6908 bound_to 6896
  150.7407  133.9825  159.3623 H   0  0  0  0  0  0  0  0  0  0  0  0  # atno 6909 bound_to 6896
  145.0706  140.8356  143.4098 H   0  0  0  0  0  0  0  0  0  0  0  0  # atno 7974 bound_to 7965
  156.1893  140.1701  156.8124 H   0  0  0  0  0  0  0  0  0  0  0  0  # atno 8008 bound_to 7997
  154.5451  140.0728  156.8608 H   0  0  0  0  0  0  0  0  0  0  0  0  # atno 8009 bound_to 7997
  155.3137  140.3369  155.4245 H   0  0  0  0  0  0  0  0  0  0  0  0  # atno 8010 bound_to 7997
  140.6968  143.3035  151.3215 H   0  0  0  0  0  0  0  0  0  0  0  0  # atno 10167 bound_to 10162
  157.0447  130.6245  149.5757 H   0  0  0  0  0  0  0  0  0  0  0  0  # atno 10718 bound_to 10713
  154.4186  135.2757  155.1990 H   0  0  0  0  0  0  0  0  0  0  0  0  # atno 10763 bound_to 10752
  154.3945  135.6058  153.5866 H   0  0  0  0  0  0  0  0  0  0  0  0  # atno 10764 bound_to 10752
  152.9832  135.5911  154.4479 H   0  0  0  0  0  0  0  0  0  0  0  0  # atno 10765 bound_to 10752
  140.4154  134.1574  155.7669 H   0  0  0  0  0  0  0  0  0  0  0  0  # atno 11005 bound_to 11000
  145.1298  139.2639  143.5545 LP  0  0  0  0  0  0  0  0  0  0  0  0  # atno 17320 bound_to 7965
  146.3528  140.0945  142.8611 LP  0  0  0  0  0  0  0  0  0  0  0  0  # atno 17321 bound_to 7965
  139.6432  144.0499  152.2571 LP  0  0  0  0  0  0  0  0  0  0  0  0  # atno 17342 bound_to 10162
  140.0011  144.6292  150.7728 LP  0  0  0  0  0  0  0  0  0  0  0  0  # atno 17343 bound_to 10162
  156.0027  130.5108  150.7720 LP  0  0  0  0  0  0  0  0  0  0  0  0  # atno 17370 bound_to 10713
  157.5077  131.0923  151.0237 LP  0  0  0  0  0  0  0  0  0  0  0  0  # atno 17371 bound_to 10713
  141.1805  133.8424  157.1275 LP  0  0  0  0  0  0  0  0  0  0  0  0  # atno 17394 bound_to 11000
  140.0237  134.9934  157.0644 LP  0  0  0  0  0  0  0  0  0  0  0  0  # atno 17395 bound_to 11000

$$$$
