AV-unprocessed.smi:2525|AV-procd|sdf|9927|dock5
  -GOLD-   2272013563D 1   1.00000     0.00000
 Structure written by MMmdl.
 44 45  0  0  0  0  0  0  0  0  1 V2000
  146.9026  139.3364  152.9229 C   0  0  0  0  0  0  0  0  0  0  0  0
  147.1063  139.7336  154.3919 C   0  0  0  0  0  0  0  0  0  0  0  0
  148.1621  140.8322  154.6476 C   0  0  0  0  0  0  0  0  0  0  0  0
  147.6863  142.1324  153.9259 C   0  0  0  0  0  0  0  0  0  0  0  0
  146.2582  142.6049  154.2487 C   0  0  0  0  0  0  0  0  0  0  0  0
  148.5658  140.9762  156.1447 C   0  0  2  0  0  0  0  0  0  0  0  0
  147.9412  142.0870  156.8520 N   0  0  0  0  0  0  0  0  0  0  0  0
  147.1190  141.9522  157.9029 C   0  0  0  0  0  0  0  0  0  0  0  0
  146.8908  140.8757  158.4537 O   0  0  0  0  0  0  0  0  0  0  0  0
  146.4250  143.2249  158.3877 C   0  0  0  0  0  0  0  0  0  0  0  0
  145.7007  142.9751  159.6220 N   0  0  0  0  0  0  0  0  0  0  0  0
  144.3524  143.1271  159.8734 C   0  0  0  0  0  0  0  0  0  0  0  0
  144.2338  142.7831  161.1896 C   0  0  0  0  0  0  0  0  0  0  0  0
  145.4938  142.4411  161.6772 N   0  0  0  0  0  0  0  0  0  0  0  0
  146.3663  142.5582  160.7262 N   0  0  0  0  0  0  0  0  0  0  0  0
  149.9978  141.2810  155.6915 C   0  0  1  0  0  0  0  0  0  0  0  0
  151.1707  140.9189  156.5935 C   0  0  0  0  0  0  0  0  0  0  0  0
  149.6548  140.4291  154.4534 C   0  0  1  0  0  0  0  0  0  0  0  0
  149.8598  139.0362  154.6728 O   0  0  0  0  0  0  0  0  0  0  0  0
  151.2067  138.6337  154.4916 C   0  0  0  0  0  0  0  0  0  0  0  0
  146.2736  138.4489  152.8529 H   0  0  0  0  0  0  0  0  0  0  0  0
  147.8492  139.1081  152.4330 H   0  0  0  0  0  0  0  0  0  0  0  0
  146.4028  140.1236  152.3604 H   0  0  0  0  0  0  0  0  0  0  0  0
  146.1448  140.0241  154.8167 H   0  0  0  0  0  0  0  0  0  0  0  0
  147.3813  138.8305  154.9376 H   0  0  0  0  0  0  0  0  0  0  0  0
  148.3746  142.9529  154.1315 H   0  0  0  0  0  0  0  0  0  0  0  0
  147.7230  142.0198  152.8431 H   0  0  0  0  0  0  0  0  0  0  0  0
  146.0866  143.6000  153.8379 H   0  0  0  0  0  0  0  0  0  0  0  0
  146.0606  142.6532  155.3177 H   0  0  0  0  0  0  0  0  0  0  0  0
  145.5127  141.9471  153.8022 H   0  0  0  0  0  0  0  0  0  0  0  0
  148.5143  140.0323  156.6934 H   0  0  0  0  0  0  0  0  0  0  0  0
  148.0777  143.0108  156.4676 H   0  0  0  0  0  0  0  0  0  0  0  0
  147.1608  144.0103  158.5657 H   0  0  0  0  0  0  0  0  0  0  0  0
  145.7379  143.5908  157.6232 H   0  0  0  0  0  0  0  0  0  0  0  0
  143.6374  143.4559  159.1337 H   0  0  0  0  0  0  0  0  0  0  0  0
  143.3576  142.7557  161.8204 H   0  0  0  0  0  0  0  0  0  0  0  0
  150.0777  142.3258  155.3829 H   0  0  0  0  0  0  0  0  0  0  0  0
  151.1148  139.8831  156.9290 H   0  0  0  0  0  0  0  0  0  0  0  0
  151.1899  141.5494  157.4823 H   0  0  0  0  0  0  0  0  0  0  0  0
  152.1214  141.0501  156.0768 H   0  0  0  0  0  0  0  0  0  0  0  0
  150.1061  140.7798  153.5258 H   0  0  0  0  0  0  0  0  0  0  0  0
  151.3042  137.5725  154.7197 H   0  0  0  0  0  0  0  0  0  0  0  0
  151.8830  139.1829  155.1467 H   0  0  0  0  0  0  0  0  0  0  0  0
  151.5226  138.7850  153.4587 H   0  0  0  0  0  0  0  0  0  0  0  0
  1  2  1  0  0  0  0
  1 21  1  0  0  0  0
  1 22  1  0  0  0  0
  1 23  1  0  0  0  0
  2  3  1  0  0  0  0
  2 24  1  0  0  0  0
  2 25  1  0  0  0  0
  3 18  1  0  0  0  0
  3  4  1  0  0  0  0
  3  6  1  0  0  0  0
  4  5  1  0  0  0  0
  4 26  1  0  0  0  0
  4 27  1  0  0  0  0
  5 28  1  0  0  0  0
  5 29  1  0  0  0  0
  5 30  1  0  0  0  0
  6  7  1  0  0  0  0
  6 16  1  0  0  0  0
  6 31  1  0  0  0  0
  7  8  1  0  0  0  0
  7 32  1  0  0  0  0
  8  9  2  0  0  0  0
  8 10  1  0  0  0  0
 10 11  1  0  0  0  0
 10 33  1  0  0  0  0
 10 34  1  0  0  0  0
 11 15  1  0  0  0  0
 11 12  1  0  0  0  0
 12 13  2  0  0  0  0
 12 35  1  0  0  0  0
 13 14  1  0  0  0  0
 13 36  1  0  0  0  0
 14 15  2  0  0  0  0
 16 17  1  0  0  0  0
 16 18  1  0  0  0  0
 16 37  1  0  0  0  0
 17 38  1  0  0  0  0
 17 39  1  0  0  0  0
 17 40  1  0  0  0  0
 18 19  1  0  0  0  0
 18 41  1  0  0  0  0
 19 20  1  0  0  0  0
 20 42  1  0  0  0  0
 20 43  1  0  0  0  0
 20 44  1  0  0  0  0
M  END
> <s_m_source_file>
AV-unprocessed.smi

> <i_m_source_file_index>
2525

> <i_lp_mmshare_version>
43012

> <i_f3d_flags>
0

> <s_epik_input>
W0NIM11PW0NAQEhdMVtDQEhdKFtDSDNdKVtDQEBIXShDMShbQ0gyXVtDSDNdKVtDSDJdW0NIM10pW05IXUMoPU8pW0NIMl1uMltjSF1bY0hdbm4y

> <s_epik_cmdline>
J2VwaWtfcHl0aG9uJywgJy1waCcsICc3LjAnLCAnLXRuJywgJzgnLCAnLW1hJywgJzIwMCcsICctbWV0YWxfYmluZGluZycsICctaW1hZScsICc8aW5maWxlLm1hZT4nLCAnLW9tYWUnLCAnPG91dGZpbGUubWFlPic=

> <r_lp_tautomer_probability>
1

> <r_epik_Ionization_Penalty>
1.18045e-06

> <r_epik_Ionization_Penalty_Charging>
0

> <r_epik_Ionization_Penalty_Neutral>
1.18045e-06

> <r_epik_State_Penalty>
-0

> <r_epik_Charging_Adjusted_Penalty>
0

> <i_epik_Tot_Q>
0

> <i_epik_Tot_abs_Q>
0

> <r_epik_Metal_State_Penalty>
-0

> <b_epik_Metal_Only>
0

> <s_lp_Force_Field>
OPLS_2005

> <r_lp_Energy>
28.7766

> <b_lp_Chiralities_Consistent>
1

> <s_lp_Variant>
AV-unprocessed.smi:2525-2

> <Gold.Version>
5.8.1

> <Gold.Id.Protein>
6NUR|6NUR_protein|mol2

> <Gold.PLP.Fitness>
40.6252

> <Gold.PLP.PLP>
-33.8583

> <Gold.PLP.part.hbond>
-5.0196

> <Gold.PLP.part.metal>
0.0000

> <Gold.PLP.part.buried>
-4.4138

> <Gold.PLP.part.nonpolar>
-25.1308

> <Gold.PLP.part.repulsive>
0.1542

> <Gold.PLP.ligand.clash>
0.0000

> <Gold.PLP.ligand.torsion>
0.5117

> <Gold.PLP.Chemscore.Hbond>
2.3659

> <Gold.PLP.Chemscore.CHOScore>
0.0000

> <Gold.PLP.Chemscore.Metal>
0.0000

> <Gold.Chemscore.Hbonds>
donor molecule, donor type, donor heavy atom, donor atom, acceptor molecule, acceptor atom, score
      L1  H     7    32       P1  8028  0.98
      P1  H  6933  6944       L1    15  0.33
      P1  H  6934  6946       L1    15  0.85

> <Gold.PLP.Chemscore.Internal.Correction>
0.6925

> <Gold.Rescore>
     Score         DG    S(hbond)    S(metal)    S(lipo)     H(rot)  DE(clash)    DE(int)     intcor
     13.06     -14.30       1.72        0.00      69.52       1.98       0.38       0.87       ----

> <Gold.Chemscore.Fitness>
13.0577

> <Gold.Chemscore.DG>
-14.3023

> <Gold.Chemscore.ZeroCoef>
-5.4800

> <Gold.Chemscore.Hbond>
1.7249

> <Gold.Chemscore.Metal>
0.0000

> <Gold.Chemscore.Lipo>
69.5241

> <Gold.Chemscore.Internal_Hbond>
0.0000

> <Gold.Chemscore.DEClash>
0.3792

> <Gold.Chemscore.DEInternal>
0.8654

> <Gold.Chemscore.Rot>
1.9817

> <Gold.Chemscore.Internal.Correction>
   9.000000E+99

> <Gold.Chemscore.Hbonds>
donor molecule, donor type, donor heavy atom, donor atom, acceptor molecule, acceptor atom, score
      L1  H     7    32       P1  8028  0.37
      P1  H  6933  6944       L1    15  0.29
      P1  H  6934  6946       L1    15  0.13

> <Gold.Chemscore.Hbond.Weighted>
-5.7610

> <Gold.Chemscore.Metal.Weighted>
-0.0000

> <Gold.Chemscore.Lipo.Weighted>
-8.1343

> <Gold.Chemscore.Internal_Hbond.Weighted>
0.0000

> <Gold.Chemscore.DEClash.Weighted>
0.3792

> <Gold.Chemscore.DEInternal.Weighted>
0.8654

> <Gold.Chemscore.Rot.Weighted>
5.0731

> <Gold.Chemscore.Internal.Correction.Weighted>
   9.000000E+99

> <Gold.Protein.RotatedTorsions>
[ 6907 6896 6895 6894 ] final   89.14 input  -60.11 | X-H torsion
[ 7974 7965 7964 7962 ] final -122.50 input  175.53 | X-H torsion
[ 8008 7997 7996 7995 ] final  -61.30 input   59.86 | X-H torsion
[ 10167 10162 10161 10158 ] final  137.98 input  -65.29 | X-H torsion
[ 10718 10713 10712 10709 ] final  144.96 input   66.30 | X-H torsion
[ 10763 10752 10751 10750 ] final  -27.20 input  -60.55 | X-H torsion
[ 11005 11000 10999 10996 ] final  -44.99 input  -57.11 | X-H torsion

> <Gold.Protein.ActiveResidues>
 VAL166  LYS551  ARG553  GLY616  TRP617  ASP618  TYR619  PRO620  LYS621  CYS622 
 ASP623  PHE694  ASN695  SER759  ASP760  ASP761  ALA762  ILE779  LEU786  VAL792 
 PHE793  MET794  SER795  GLU796  ALA797  LYS798  CYS799  TRP800  GLU811  SER814 

> <Gold.Protein.RotatedAtoms>
  152.5433  134.2013  159.8712 H   0  0  0  0  0  0  0  0  0  0  0  0  # atno 6907 bound_to 6896
  151.2002  133.4609  159.2603 H   0  0  0  0  0  0  0  0  0  0  0  0  # atno 6908 bound_to 6896
  151.0997  134.9977  159.8498 H   0  0  0  0  0  0  0  0  0  0  0  0  # atno 6909 bound_to 6896
  145.0288  140.8050  143.4336 H   0  0  0  0  0  0  0  0  0  0  0  0  # atno 7974 bound_to 7965
  154.4441  140.1020  156.6409 H   0  0  0  0  0  0  0  0  0  0  0  0  # atno 8008 bound_to 7997
  155.5502  140.3485  155.4448 H   0  0  0  0  0  0  0  0  0  0  0  0  # atno 8009 bound_to 7997
  156.0534  140.1309  157.0013 H   0  0  0  0  0  0  0  0  0  0  0  0  # atno 8010 bound_to 7997
  139.5126  144.6379  151.5647 H   0  0  0  0  0  0  0  0  0  0  0  0  # atno 10167 bound_to 10162
  157.3509  131.0950  151.1000 H   0  0  0  0  0  0  0  0  0  0  0  0  # atno 10718 bound_to 10713
  153.7283  135.6940  153.4995 H   0  0  0  0  0  0  0  0  0  0  0  0  # atno 10763 bound_to 10752
  153.2154  135.4388  155.0427 H   0  0  0  0  0  0  0  0  0  0  0  0  # atno 10764 bound_to 10752
  154.8261  135.3447  154.6814 H   0  0  0  0  0  0  0  0  0  0  0  0  # atno 10765 bound_to 10752
  141.0486  133.6751  156.2950 H   0  0  0  0  0  0  0  0  0  0  0  0  # atno 11005 bound_to 11000
  145.1798  139.2358  143.5298 LP  0  0  0  0  0  0  0  0  0  0  0  0  # atno 17320 bound_to 7965
  146.3496  140.1569  142.8591 LP  0  0  0  0  0  0  0  0  0  0  0  0  # atno 17321 bound_to 7965
  140.6135  143.9392  150.6471 LP  0  0  0  0  0  0  0  0  0  0  0  0  # atno 17342 bound_to 10162
  140.2642  143.3502  152.1296 LP  0  0  0  0  0  0  0  0  0  0  0  0  # atno 17343 bound_to 10162
  157.2177  130.6467  149.5798 LP  0  0  0  0  0  0  0  0  0  0  0  0  # atno 17370 bound_to 10713
  155.9721  130.4639  150.6200 LP  0  0  0  0  0  0  0  0  0  0  0  0  # atno 17371 bound_to 10713
  140.6098  134.5470  157.5531 LP  0  0  0  0  0  0  0  0  0  0  0  0  # atno 17394 bound_to 11000
  139.9332  134.7924  156.0873 LP  0  0  0  0  0  0  0  0  0  0  0  0  # atno 17395 bound_to 11000

$$$$
