AV-unprocessed.smi:199|AV-procd|sdf|1573|dock5
  -GOLD-   2262019453D 1   1.00000     0.00000
 Structure written by MMmdl.
 51 55  0  0  0  0  0  0  0  0  1 V2000
  149.6667  138.4972  154.3576 C   0  0  0  0  0  0  0  0  0  0  0  0
  148.9771  139.5668  155.2200 C   0  0  1  0  0  0  0  0  0  0  0  0
  149.7988  139.9309  156.3287 O   0  0  0  0  0  0  0  0  0  0  0  0
  150.0263  141.3333  156.3308 C   0  0  0  0  0  0  0  0  0  0  0  0
  148.8263  141.9142  155.5940 C   0  0  0  0  0  0  0  0  0  0  0  0
  148.5745  140.8787  154.5070 C   0  0  1  0  0  0  0  0  0  0  0  0
  149.4455  141.1517  153.4206 O   0  0  0  0  0  0  0  0  0  0  0  0
  147.1202  140.8591  153.9790 C   0  0  0  0  0  0  0  0  0  0  0  0
  146.8024  139.6709  153.2020 N   0  0  0  0  0  0  0  0  0  0  0  0
  147.0840  139.4570  151.8724 C   0  0  0  0  0  0  0  0  0  0  0  0
  146.6996  138.3023  151.4026 N   0  0  0  0  0  0  0  0  0  0  0  0
  146.0935  137.6738  152.4846 C   0  0  0  0  0  0  0  0  0  0  0  0
  145.4588  136.4125  152.6794 C   0  0  0  0  0  0  0  0  0  0  0  0
  145.3133  135.4810  151.6989 N   0  0  0  0  0  0  0  0  0  0  0  0
  145.6435  134.0826  151.9247 C   0  0  2  0  0  0  0  0  0  0  0  0
  145.5549  133.4966  150.5049 C   0  0  0  0  0  0  0  0  0  0  0  0
  144.4021  134.3227  149.9093 C   0  0  0  0  0  0  0  0  0  0  0  0
  144.0114  135.2063  151.1082 C   0  0  1  0  0  0  0  0  0  0  0  0
  143.2746  134.3231  152.1466 C   0  0  2  0  0  0  0  0  0  0  0  0
  142.4360  135.1167  153.1668 C   0  0  0  0  0  0  0  0  0  0  0  0
  141.9173  134.2469  154.1499 O   0  0  0  0  0  0  0  0  0  0  0  0
  144.4614  133.5555  152.7642 C   0  0  0  0  0  0  0  0  0  0  0  0
  144.9983  136.1352  153.9284 N   0  0  0  0  0  0  0  0  0  0  0  0
  145.1191  137.0313  154.9113 C   0  0  0  0  0  0  0  0  0  0  0  0
  145.6690  138.2453  154.8689 N   0  0  0  0  0  0  0  0  0  0  0  0
  146.1530  138.5246  153.6256 C   0  0  0  0  0  0  0  0  0  0  0  0
  149.0461  138.2218  153.5045 H   0  0  0  0  0  0  0  0  0  0  0  0
  149.8514  137.5938  154.9388 H   0  0  0  0  0  0  0  0  0  0  0  0
  150.6286  138.8431  153.9787 H   0  0  0  0  0  0  0  0  0  0  0  0
  148.0847  139.1199  155.6598 H   0  0  0  0  0  0  0  0  0  0  0  0
  150.1275  141.7211  157.3444 H   0  0  0  0  0  0  0  0  0  0  0  0
  150.9498  141.5453  155.7904 H   0  0  0  0  0  0  0  0  0  0  0  0
  147.9759  141.9591  156.2760 H   0  0  0  0  0  0  0  0  0  0  0  0
  149.0038  142.9208  155.2126 H   0  0  0  0  0  0  0  0  0  0  0  0
  149.3282  140.4808  152.7652 H   0  0  0  0  0  0  0  0  0  0  0  0
  146.4142  140.9326  154.8075 H   0  0  0  0  0  0  0  0  0  0  0  0
  146.9382  141.7289  153.3466 H   0  0  0  0  0  0  0  0  0  0  0  0
  147.5926  140.1864  151.2587 H   0  0  0  0  0  0  0  0  0  0  0  0
  146.6158  133.9093  152.3874 H   0  0  0  0  0  0  0  0  0  0  0  0
  146.4781  133.6717  149.9509 H   0  0  0  0  0  0  0  0  0  0  0  0
  145.3549  132.4244  150.5042 H   0  0  0  0  0  0  0  0  0  0  0  0
  144.7598  134.9340  149.0797 H   0  0  0  0  0  0  0  0  0  0  0  0
  143.5798  133.7067  149.5436 H   0  0  0  0  0  0  0  0  0  0  0  0
  143.4380  136.0773  150.7956 H   0  0  0  0  0  0  0  0  0  0  0  0
  142.6057  133.6342  151.6280 H   0  0  0  0  0  0  0  0  0  0  0  0
  143.0217  135.8928  153.6582 H   0  0  0  0  0  0  0  0  0  0  0  0
  141.6018  135.6102  152.6673 H   0  0  0  0  0  0  0  0  0  0  0  0
  142.2284  133.3724  153.9721 H   0  0  0  0  0  0  0  0  0  0  0  0
  144.3449  132.4735  152.6936 H   0  0  0  0  0  0  0  0  0  0  0  0
  144.5935  133.8058  153.8175 H   0  0  0  0  0  0  0  0  0  0  0  0
  144.7182  136.7325  155.8688 H   0  0  0  0  0  0  0  0  0  0  0  0
  1  2  1  0  0  0  0
  1 27  1  0  0  0  0
  1 28  1  0  0  0  0
  1 29  1  0  0  0  0
  2  6  1  0  0  0  0
  2  3  1  0  0  0  0
  2 30  1  0  0  0  0
  3  4  1  0  0  0  0
  4  5  1  0  0  0  0
  4 31  1  0  0  0  0
  4 32  1  0  0  0  0
  5  6  1  0  0  0  0
  5 33  1  0  0  0  0
  5 34  1  0  0  0  0
  6  7  1  0  0  0  0
  6  8  1  0  0  0  0
  7 35  1  0  0  0  0
  8  9  1  0  0  0  0
  8 36  1  0  0  0  0
  8 37  1  0  0  0  0
  9 26  1  0  0  0  0
  9 10  1  0  0  0  0
 10 11  2  0  0  0  0
 10 38  1  0  0  0  0
 11 12  1  0  0  0  0
 12 26  2  0  0  0  0
 12 13  1  0  0  0  0
 13 14  1  0  0  0  0
 13 23  2  0  0  0  0
 14 18  1  0  0  0  0
 14 15  1  0  0  0  0
 15 22  1  0  0  0  0
 15 16  1  0  0  0  0
 15 39  1  0  0  0  0
 16 17  1  0  0  0  0
 16 40  1  0  0  0  0
 16 41  1  0  0  0  0
 17 18  1  0  0  0  0
 17 42  1  0  0  0  0
 17 43  1  0  0  0  0
 18 19  1  0  0  0  0
 18 44  1  0  0  0  0
 19 20  1  0  0  0  0
 19 22  1  0  0  0  0
 19 45  1  0  0  0  0
 20 21  1  0  0  0  0
 20 46  1  0  0  0  0
 20 47  1  0  0  0  0
 21 48  1  0  0  0  0
 22 49  1  0  0  0  0
 22 50  1  0  0  0  0
 23 24  1  0  0  0  0
 24 25  2  0  0  0  0
 24 51  1  0  0  0  0
 25 26  1  0  0  0  0
M  END
> <s_m_source_file>
AV-unprocessed.smi

> <i_m_source_file_index>
199

> <i_lp_mmshare_version>
43012

> <i_f3d_flags>
0

> <s_epik_input>
W0NIMl0xW0NIMl1PW0NAQEhdKFtDSDNdKVtDQEBdMShbT0hdKVtDSDJdbihbY0hdbjIpYyhjMjMpbltjSF1uYzNOKFtDQEBIXTQ1KVtDQEhdKFtDSDJdW0NIMl00KVtDQEhdKFtDSDJdNSlbQ0gyXVtPSF0=

> <s_epik_cmdline>
J2VwaWtfcHl0aG9uJywgJy1waCcsICc3LjAnLCAnLXRuJywgJzgnLCAnLW1hJywgJzIwMCcsICctbWV0YWxfYmluZGluZycsICctaW1hZScsICc8aW5maWxlLm1hZT4nLCAnLW9tYWUnLCAnPG91dGZpbGUubWFlPic=

> <r_lp_tautomer_probability>
1

> <r_epik_Ionization_Penalty>
0.00583903

> <r_epik_Ionization_Penalty_Charging>
0

> <r_epik_Ionization_Penalty_Neutral>
0.00583903

> <r_epik_State_Penalty>
-0

> <r_epik_Charging_Adjusted_Penalty>
0

> <i_epik_Tot_Q>
0

> <i_epik_Tot_abs_Q>
0

> <r_epik_Metal_State_Penalty>
-0

> <b_epik_Metal_Only>
0

> <s_lp_Force_Field>
OPLS_2005

> <r_lp_Energy>
83.8114

> <b_lp_Chiralities_Consistent>
1

> <s_lp_Variant>
AV-unprocessed.smi:199-14

> <Gold.Version>
5.8.1

> <Gold.Id.Protein>
6NUR|6NUR_protein|mol2

> <Gold.PLP.Fitness>
49.8097

> <Gold.PLP.PLP>
-35.6760

> <Gold.PLP.part.hbond>
-5.2591

> <Gold.PLP.part.metal>
0.0000

> <Gold.PLP.part.buried>
3.0336

> <Gold.PLP.part.nonpolar>
-36.6827

> <Gold.PLP.part.repulsive>
1.0062

> <Gold.PLP.ligand.clash>
0.0000

> <Gold.PLP.ligand.torsion>
0.7351

> <Gold.PLP.Chemscore.Hbond>
4.6203

> <Gold.PLP.Chemscore.CHOScore>
0.5712

> <Gold.PLP.Chemscore.Metal>
0.0000

> <Gold.Chemscore.Hbonds>
donor molecule, donor type, donor heavy atom, donor atom, acceptor molecule, acceptor atom, score
      L1  H     7    35       P1  7957  0.90
      L1  H    21    48       P1 10957  0.86
      P1  H  7954  7966       L1    11  0.71
      P1  H  7989  7998       L1     7  0.08
      P1  H  8011  8017       L1     7  0.80
      P1  H 11000 11005       L1    21  0.91
      L1  C    10    38       P1  7957  0.65

> <Gold.PLP.Chemscore.Internal.Correction>
0.0296

> <Gold.Rescore>
     Score         DG    S(hbond)    S(metal)    S(lipo)     H(rot)  DE(clash)    DE(int)     intcor
     10.27     -17.15       2.96        0.00      82.46       3.07       3.56       3.32       ----

> <Gold.Chemscore.Fitness>
10.2704

> <Gold.Chemscore.DG>
-17.1455

> <Gold.Chemscore.ZeroCoef>
-5.4800

> <Gold.Chemscore.Hbond>
2.9593

> <Gold.Chemscore.Metal>
0.0000

> <Gold.Chemscore.Lipo>
82.4645

> <Gold.Chemscore.Internal_Hbond>
0.0000

> <Gold.Chemscore.DEClash>
3.5595

> <Gold.Chemscore.DEInternal>
3.3156

> <Gold.Chemscore.Rot>
3.0729

> <Gold.Chemscore.Internal.Correction>
   9.000000E+99

> <Gold.Chemscore.Hbonds>
donor molecule, donor type, donor heavy atom, donor atom, acceptor molecule, acceptor atom, score
      L1  H     7    35       P1  7957  0.88
      L1  H    21    48       P1 10957  0.85
      P1  H  7954  7966       L1    11  0.28
      P1  H  7989  7998       L1     7  0.01
      P1  H  8011  8017       L1     7  0.11
      P1  H 11000 11005       L1    21  0.38

> <Gold.Chemscore.Hbond.Weighted>
-9.8839

> <Gold.Chemscore.Metal.Weighted>
-0.0000

> <Gold.Chemscore.Lipo.Weighted>
-9.6483

> <Gold.Chemscore.Internal_Hbond.Weighted>
0.0000

> <Gold.Chemscore.DEClash.Weighted>
3.5595

> <Gold.Chemscore.DEInternal.Weighted>
3.3156

> <Gold.Chemscore.Rot.Weighted>
7.8667

> <Gold.Chemscore.Internal.Correction.Weighted>
   9.000000E+99

> <Gold.Protein.RotatedTorsions>
[ 6907 6896 6895 6894 ] final   90.05 input  -60.11 | X-H torsion
[ 7974 7965 7964 7962 ] final   98.77 input  175.53 | X-H torsion
[ 8008 7997 7996 7995 ] final  116.32 input   59.86 | X-H torsion
[ 10167 10162 10161 10158 ] final  173.38 input  -65.29 | X-H torsion
[ 10718 10713 10712 10709 ] final   45.07 input   66.30 | X-H torsion
[ 10763 10752 10751 10750 ] final  116.12 input  -60.55 | X-H torsion
[ 11005 11000 10999 10996 ] final    3.21 input  -57.11 | X-H torsion

> <Gold.Protein.ActiveResidues>
 VAL166  LYS551  ARG553  GLY616  TRP617  ASP618  TYR619  PRO620  LYS621  CYS622 
 ASP623  PHE694  ASN695  SER759  ASP760  ASP761  ALA762  ILE779  LEU786  VAL792 
 PHE793  MET794  SER795  GLU796  ALA797  LYS798  CYS799  TRP800  GLU811  SER814 

> <Gold.Protein.RotatedAtoms>
  152.5441  134.1872  159.8659 H   0  0  0  0  0  0  0  0  0  0  0  0  # atno 6907 bound_to 6896
  151.1870  133.4683  159.2602 H   0  0  0  0  0  0  0  0  0  0  0  0  # atno 6908 bound_to 6896
  151.1121  135.0044  159.8554 H   0  0  0  0  0  0  0  0  0  0  0  0  # atno 6909 bound_to 6896
  145.4078  139.2338  143.3265 H   0  0  0  0  0  0  0  0  0  0  0  0  # atno 7974 bound_to 7965
  156.2433  140.2920  156.0505 H   0  0  0  0  0  0  0  0  0  0  0  0  # atno 8008 bound_to 7997
  155.1886  140.0406  157.2913 H   0  0  0  0  0  0  0  0  0  0  0  0  # atno 8009 bound_to 7997
  154.6210  140.2476  155.7556 H   0  0  0  0  0  0  0  0  0  0  0  0  # atno 8010 bound_to 7997
  139.5106  144.3267  152.0150 H   0  0  0  0  0  0  0  0  0  0  0  0  # atno 10167 bound_to 10162
  157.4336  130.8039  149.7626 H   0  0  0  0  0  0  0  0  0  0  0  0  # atno 10718 bound_to 10713
  153.5324  135.3575  155.2682 H   0  0  0  0  0  0  0  0  0  0  0  0  # atno 10763 bound_to 10752
  154.8725  135.4071  154.3136 H   0  0  0  0  0  0  0  0  0  0  0  0  # atno 10764 bound_to 10752
  153.3827  135.7069  153.6621 H   0  0  0  0  0  0  0  0  0  0  0  0  # atno 10765 bound_to 10752
  140.5957  133.9883  155.8109 H   0  0  0  0  0  0  0  0  0  0  0  0  # atno 11005 bound_to 11000
  146.2720  140.4785  142.8810 LP  0  0  0  0  0  0  0  0  0  0  0  0  # atno 17320 bound_to 7965
  144.8330  140.6737  143.6279 LP  0  0  0  0  0  0  0  0  0  0  0  0  # atno 17321 bound_to 7965
  140.2708  144.3966  150.6152 LP  0  0  0  0  0  0  0  0  0  0  0  0  # atno 17342 bound_to 10162
  140.6090  143.2168  151.6924 LP  0  0  0  0  0  0  0  0  0  0  0  0  # atno 17343 bound_to 10162
  155.9922  130.3932  150.2952 LP  0  0  0  0  0  0  0  0  0  0  0  0  # atno 17370 bound_to 10713
  157.1111  131.0221  151.3048 LP  0  0  0  0  0  0  0  0  0  0  0  0  # atno 17371 bound_to 10713
  141.0906  133.9923  157.3244 LP  0  0  0  0  0  0  0  0  0  0  0  0  # atno 17394 bound_to 11000
  139.9254  135.0201  156.8216 LP  0  0  0  0  0  0  0  0  0  0  0  0  # atno 17395 bound_to 11000

$$$$
