AV-unprocessed.smi:2134|AV-procd|sdf|8694|dock1
  -GOLD-   2272011453D 1   1.00000     0.00000
 Structure written by MMmdl.
 35 36  0  0  0  0  0  0  0  0  1 V2000
  149.1084  139.8819  154.1018 C   0  0  0  0  0  0  0  0  0  0  0  0
  149.9208  138.8195  154.6910 N   0  0  0  0  0  0  0  0  0  0  0  0
  149.3222  137.5765  154.7119 N   0  0  0  0  0  0  0  0  0  0  0  0
  149.8075  136.5901  155.3989 C   0  0  0  0  0  0  0  0  0  0  0  0
  149.1098  135.2774  155.4107 C   0  0  0  0  0  0  0  0  0  0  0  0
  149.1869  134.5275  156.3842 O   0  0  0  0  0  0  0  0  0  0  0  0
  148.3860  134.9860  154.3134 N   0  0  0  0  0  0  0  0  0  0  0  0
  147.5438  133.8057  154.1364 C   0  0  0  0  0  0  0  0  0  0  0  0
  147.7050  133.1892  152.7336 C   0  0  0  0  0  0  0  0  0  0  0  0
  146.4767  133.3504  151.8547 C   0  0  0  0  0  0  0  0  0  0  0  0
  145.8894  134.6168  151.6520 C   0  0  0  0  0  0  0  0  0  0  0  0
  144.7354  134.7091  150.8508 C   0  0  0  0  0  0  0  0  0  0  0  0
  144.2178  133.5278  150.2828 C   0  0  0  0  0  0  0  0  0  0  0  0
  144.7729  132.3106  150.4674 N   0  0  0  0  0  0  0  0  0  0  0  0
  145.8784  132.2307  151.2387 C   0  0  0  0  0  0  0  0  0  0  0  0
  151.0638  136.7718  156.2275 C   0  0  0  0  0  0  0  0  0  0  0  0
  151.9722  137.8841  155.6670 C   0  0  0  0  0  0  0  0  0  0  0  0
  151.1709  139.0813  155.1477 C   0  0  0  0  0  0  0  0  0  0  0  0
  151.6817  140.2011  155.1397 O   0  0  0  0  0  0  0  0  0  0  0  0
  149.6238  140.3368  153.2545 H   0  0  0  0  0  0  0  0  0  0  0  0
  148.9072  140.6620  154.8375 H   0  0  0  0  0  0  0  0  0  0  0  0
  148.1468  139.5118  153.7418 H   0  0  0  0  0  0  0  0  0  0  0  0
  148.3856  135.6601  153.5613 H   0  0  0  0  0  0  0  0  0  0  0  0
  147.8205  133.0708  154.8926 H   0  0  0  0  0  0  0  0  0  0  0  0
  146.4957  134.0473  154.3196 H   0  0  0  0  0  0  0  0  0  0  0  0
  148.5619  133.6413  152.2323 H   0  0  0  0  0  0  0  0  0  0  0  0
  147.9339  132.1267  152.8238 H   0  0  0  0  0  0  0  0  0  0  0  0
  146.3077  135.5013  152.1098 H   0  0  0  0  0  0  0  0  0  0  0  0
  144.2567  135.6615  150.6777 H   0  0  0  0  0  0  0  0  0  0  0  0
  143.3335  133.5619  149.6638 H   0  0  0  0  0  0  0  0  0  0  0  0
  146.2930  131.2426  151.3754 H   0  0  0  0  0  0  0  0  0  0  0  0
  150.7849  137.0023  157.2563 H   0  0  0  0  0  0  0  0  0  0  0  0
  151.6373  135.8448  156.2648 H   0  0  0  0  0  0  0  0  0  0  0  0
  152.6851  138.2093  156.4254 H   0  0  0  0  0  0  0  0  0  0  0  0
  152.5563  137.4943  154.8325 H   0  0  0  0  0  0  0  0  0  0  0  0
  1  2  1  0  0  0  0
  1 20  1  0  0  0  0
  1 21  1  0  0  0  0
  1 22  1  0  0  0  0
  2 18  1  0  0  0  0
  2  3  1  0  0  0  0
  3  4  2  0  0  0  0
  4  5  1  0  0  0  0
  4 16  1  0  0  0  0
  5  6  2  0  0  0  0
  5  7  1  0  0  0  0
  7  8  1  0  0  0  0
  7 23  1  0  0  0  0
  8  9  1  0  0  0  0
  8 24  1  0  0  0  0
  8 25  1  0  0  0  0
  9 10  1  0  0  0  0
  9 26  1  0  0  0  0
  9 27  1  0  0  0  0
 10 15  1  0  0  0  0
 10 11  2  0  0  0  0
 11 12  1  0  0  0  0
 11 28  1  0  0  0  0
 12 13  2  0  0  0  0
 12 29  1  0  0  0  0
 13 14  1  0  0  0  0
 13 30  1  0  0  0  0
 14 15  2  0  0  0  0
 15 31  1  0  0  0  0
 16 17  1  0  0  0  0
 16 32  1  0  0  0  0
 16 33  1  0  0  0  0
 17 18  1  0  0  0  0
 17 34  1  0  0  0  0
 17 35  1  0  0  0  0
 18 19  2  0  0  0  0
M  END
> <s_m_source_file>
AV-unprocessed.smi

> <i_m_source_file_index>
2134

> <i_lp_mmshare_version>
43012

> <i_f3d_flags>
0

> <s_epik_input>
Tz1DMVtDSDJdW0NIMl1DKD1OTjFbQ0gzXSlDKD1PKVtOSF1bQ0gyXVtDSDJdYzJbY0hdW2NIXVtjSF1uW2NIXTI=

> <s_epik_cmdline>
J2VwaWtfcHl0aG9uJywgJy1waCcsICc3LjAnLCAnLXRuJywgJzgnLCAnLW1hJywgJzIwMCcsICctbWV0YWxfYmluZGluZycsICctaW1hZScsICc8aW5maWxlLm1hZT4nLCAnLW9tYWUnLCAnPG91dGZpbGUubWFlPic=

> <r_epik_Ionization_Penalty>
0.00938916

> <r_epik_Ionization_Penalty_Charging>
0

> <r_epik_Ionization_Penalty_Neutral>
0.00938916

> <r_epik_State_Penalty>
0.00707201

> <r_epik_Charging_Adjusted_Penalty>
0.00707201

> <i_epik_Tot_Q>
0

> <i_epik_Tot_abs_Q>
0

> <r_epik_Metal_State_Penalty>
0.0638513

> <b_epik_Metal_Only>
0

> <s_epik_Chemistry_Notes>
This compound has an imine and may undergo hydrolysis.

> <s_lp_Force_Field>
OPLS_2005

> <r_lp_Energy>
16.2415

> <b_lp_Chiralities_Consistent>
1

> <s_lp_Variant>
AV-unprocessed.smi:2134-1

> <Gold.Version>
5.8.1

> <Gold.Id.Protein>
6NUR|6NUR_protein|mol2

> <Gold.PLP.Fitness>
41.5114

> <Gold.PLP.PLP>
-31.8721

> <Gold.PLP.part.hbond>
-2.0000

> <Gold.PLP.part.metal>
0.0000

> <Gold.PLP.part.buried>
-4.2476

> <Gold.PLP.part.nonpolar>
-26.9126

> <Gold.PLP.part.repulsive>
0.4458

> <Gold.PLP.ligand.clash>
0.0000

> <Gold.PLP.ligand.torsion>
0.8439

> <Gold.PLP.Chemscore.Hbond>
1.8400

> <Gold.PLP.Chemscore.CHOScore>
1.9307

> <Gold.PLP.Chemscore.Metal>
0.0000

> <Gold.Chemscore.Hbonds>
donor molecule, donor type, donor heavy atom, donor atom, acceptor molecule, acceptor atom, score
      L1  H     7    23       P1  7948  0.99
      P1  H  7989  7998       L1    19  0.93
      L1  C    13    30       P1 10186  1.00
      L1  C    15    31       P1 10747  0.01

> <Gold.PLP.Chemscore.Internal.Correction>
0.0150

> <Gold.Rescore>
     Score         DG    S(hbond)    S(metal)    S(lipo)     H(rot)  DE(clash)    DE(int)     intcor
     13.99     -15.10       1.85        0.00      61.18       1.45       0.45       0.66       ----

> <Gold.Chemscore.Fitness>
13.9871

> <Gold.Chemscore.DG>
-15.1026

> <Gold.Chemscore.ZeroCoef>
-5.4800

> <Gold.Chemscore.Hbond>
1.8477

> <Gold.Chemscore.Metal>
0.0000

> <Gold.Chemscore.Lipo>
61.1802

> <Gold.Chemscore.Internal_Hbond>
0.0000

> <Gold.Chemscore.DEClash>
0.4543

> <Gold.Chemscore.DEInternal>
0.6612

> <Gold.Chemscore.Rot>
1.4480

> <Gold.Chemscore.Internal.Correction>
   9.000000E+99

> <Gold.Chemscore.Hbonds>
donor molecule, donor type, donor heavy atom, donor atom, acceptor molecule, acceptor atom, score
      L1  H     7    23       P1  7948  0.94
      P1  H  7989  7998       L1    19  0.70

> <Gold.Chemscore.Hbond.Weighted>
-6.1715

> <Gold.Chemscore.Metal.Weighted>
-0.0000

> <Gold.Chemscore.Lipo.Weighted>
-7.1581

> <Gold.Chemscore.Internal_Hbond.Weighted>
0.0000

> <Gold.Chemscore.DEClash.Weighted>
0.4543

> <Gold.Chemscore.DEInternal.Weighted>
0.6612

> <Gold.Chemscore.Rot.Weighted>
3.7070

> <Gold.Chemscore.Internal.Correction.Weighted>
   9.000000E+99

> <Gold.Protein.RotatedTorsions>
[ 6907 6896 6895 6894 ] final   23.29 input  -60.11 | X-H torsion
[ 7974 7965 7964 7962 ] final   49.94 input  175.53 | X-H torsion
[ 8008 7997 7996 7995 ] final  -18.14 input   59.86 | X-H torsion
[ 10167 10162 10161 10158 ] final  105.93 input  -65.29 | X-H torsion
[ 10718 10713 10712 10709 ] final   71.98 input   66.30 | X-H torsion
[ 10763 10752 10751 10750 ] final  -29.95 input  -60.55 | X-H torsion
[ 11005 11000 10999 10996 ] final -110.37 input  -57.11 | X-H torsion

> <Gold.Protein.ActiveResidues>
 VAL166  LYS551  ARG553  GLY616  TRP617  ASP618  TYR619  PRO620  LYS621  CYS622 
 ASP623  PHE694  ASN695  SER759  ASP760  ASP761  ALA762  ILE779  LEU786  VAL792 
 PHE793  MET794  SER795  GLU796  ALA797  LYS798  CYS799  TRP800  GLU811  SER814 

> <Gold.Protein.RotatedAtoms>
  151.9401  135.0217  160.0534 H   0  0  0  0  0  0  0  0  0  0  0  0  # atno 6907 bound_to 6896
  152.2044  133.4860  159.5084 H   0  0  0  0  0  0  0  0  0  0  0  0  # atno 6908 bound_to 6896
  150.6961  134.1466  159.4167 H   0  0  0  0  0  0  0  0  0  0  0  0  # atno 6909 bound_to 6896
  146.0060  139.4491  142.9985 H   0  0  0  0  0  0  0  0  0  0  0  0  # atno 7974 bound_to 7965
  154.4927  140.2124  155.9513 H   0  0  0  0  0  0  0  0  0  0  0  0  # atno 8008 bound_to 7997
  156.1328  140.3194  155.8343 H   0  0  0  0  0  0  0  0  0  0  0  0  # atno 8009 bound_to 7997
  155.4265  140.0500  157.3012 H   0  0  0  0  0  0  0  0  0  0  0  0  # atno 8010 bound_to 7997
  139.7052  144.7087  151.1119 H   0  0  0  0  0  0  0  0  0  0  0  0  # atno 10167 bound_to 10162
  157.6478  130.9555  150.0864 H   0  0  0  0  0  0  0  0  0  0  0  0  # atno 10718 bound_to 10713
  153.7730  135.6911  153.4903 H   0  0  0  0  0  0  0  0  0  0  0  0  # atno 10763 bound_to 10752
  153.1861  135.4488  155.0089 H   0  0  0  0  0  0  0  0  0  0  0  0  # atno 10764 bound_to 10752
  154.8110  135.3377  154.7238 H   0  0  0  0  0  0  0  0  0  0  0  0  # atno 10765 bound_to 10752
  141.0795  133.9244  157.2318 H   0  0  0  0  0  0  0  0  0  0  0  0  # atno 11005 bound_to 11000
  145.7415  141.0006  143.1298 LP  0  0  0  0  0  0  0  0  0  0  0  0  # atno 17320 bound_to 7965
  144.6936  139.9104  143.7463 LP  0  0  0  0  0  0  0  0  0  0  0  0  # atno 17321 bound_to 7965
  140.7720  143.5369  150.9358 LP  0  0  0  0  0  0  0  0  0  0  0  0  # atno 17342 bound_to 10162
  139.9052  143.6787  152.3125 LP  0  0  0  0  0  0  0  0  0  0  0  0  # atno 17343 bound_to 10162
  156.1826  130.3651  149.9015 LP  0  0  0  0  0  0  0  0  0  0  0  0  # atno 17370 bound_to 10713
  156.6964  130.8916  151.3594 LP  0  0  0  0  0  0  0  0  0  0  0  0  # atno 17371 bound_to 10713
  139.9608  135.0154  156.9256 LP  0  0  0  0  0  0  0  0  0  0  0  0  # atno 17394 bound_to 11000
  140.5499  134.0637  155.7366 LP  0  0  0  0  0  0  0  0  0  0  0  0  # atno 17395 bound_to 11000

$$$$
