AV-unprocessed.smi:2526|AV-procd|sdf|9936|dock3
  -GOLD-   2272013583D 1   1.00000     0.00000
 Structure written by MMmdl.
 29 30  0  0  0  0  0  0  0  0  2 V2000
  141.7105  137.6457  154.5173 C   0  0  0  0  0  0  0  0  0  0  0  0
  142.3391  136.6483  153.6779 N   0  0  0  0  0  0  0  0  0  0  0  0
  143.1195  136.8339  152.5580 C   0  0  0  0  0  0  0  0  0  0  0  0
  143.4827  135.5977  152.0952 C   0  0  0  0  0  0  0  0  0  0  0  0
  144.3262  135.2244  150.8924 C   0  0  2  0  0  0  0  0  0  0  0  0
  143.7430  134.0836  150.1814 N   0  0  0  0  0  0  0  0  0  0  0  0
  144.1074  132.7929  150.2994 C   0  0  0  0  0  0  0  0  0  0  0  0
  143.4753  131.8969  149.7462 O   0  0  0  0  0  0  0  0  0  0  0  0
  145.3714  132.4384  151.1013 C   0  0  0  0  0  0  0  0  0  0  0  0
  145.9070  133.5807  151.9837 C   0  0  0  0  0  0  0  0  0  0  0  0
  145.8002  134.9323  151.2650 C   0  0  2  0  0  0  0  0  0  0  0  0
  146.4130  136.0200  152.0504 N   0  3  0  0  0  0  0  0  0  0  0  0
  142.8722  134.7125  153.0308 C   0  0  0  0  0  0  0  0  0  0  0  0
  142.1846  135.3413  153.9685 N   0  0  0  0  0  0  0  0  0  0  0  0
  141.9151  138.6440  154.1298 H   0  0  0  0  0  0  0  0  0  0  0  0
  142.1011  137.5730  155.5328 H   0  0  0  0  0  0  0  0  0  0  0  0
  140.6317  137.4874  154.5354 H   0  0  0  0  0  0  0  0  0  0  0  0
  143.3451  137.8214  152.1820 H   0  0  0  0  0  0  0  0  0  0  0  0
  144.3219  136.0537  150.1838 H   0  0  0  0  0  0  0  0  0  0  0  0
  142.9350  134.2807  149.6079 H   0  0  0  0  0  0  0  0  0  0  0  0
  145.1817  131.5537  151.7098 H   0  0  0  0  0  0  0  0  0  0  0  0
  146.1379  132.1561  150.3789 H   0  0  0  0  0  0  0  0  0  0  0  0
  145.3573  133.6071  152.9257 H   0  0  0  0  0  0  0  0  0  0  0  0
  146.9458  133.3763  152.2446 H   0  0  0  0  0  0  0  0  0  0  0  0
  146.3780  134.8639  150.3419 H   0  0  0  0  0  0  0  0  0  0  0  0
  147.4189  135.9370  152.0093 H   0  0  0  0  0  0  0  0  0  0  0  0
  146.1092  135.9563  153.0115 H   0  0  0  0  0  0  0  0  0  0  0  0
  142.9034  133.6330  153.0505 H   0  0  0  0  0  0  0  0  0  0  0  0
  146.1332  136.9120  151.6676 H   0  0  0  0  0  0  0  0  0  0  0  0
  1  2  1  0  0  0  0
  1 15  1  0  0  0  0
  1 16  1  0  0  0  0
  1 17  1  0  0  0  0
  2 14  1  0  0  0  0
  2  3  1  0  0  0  0
  3  4  2  0  0  0  0
  3 18  1  0  0  0  0
  4  5  1  0  0  0  0
  4 13  1  0  0  0  0
  5 11  1  0  0  0  0
  5  6  1  0  0  0  0
  5 19  1  0  0  0  0
  6  7  1  0  0  0  0
  6 20  1  0  0  0  0
  7  8  2  0  0  0  0
  7  9  1  0  0  0  0
  9 10  1  0  0  0  0
  9 21  1  0  0  0  0
  9 22  1  0  0  0  0
 10 11  1  0  0  0  0
 10 23  1  0  0  0  0
 10 24  1  0  0  0  0
 11 12  1  0  0  0  0
 11 25  1  0  0  0  0
 12 26  1  0  0  0  0
 12 27  1  0  0  0  0
 12 29  1  0  0  0  0
 13 14  2  0  0  0  0
 13 28  1  0  0  0  0
M  CHG  1  12   1
M  END
> <s_m_source_file>
AV-unprocessed.smi

> <i_m_source_file_index>
2526

> <i_lp_mmshare_version>
43012

> <i_f3d_flags>
0

> <s_epik_input>
W0NIM11uMVtjSF1jKFtjSF1uMSlbQ0BASF0yW05IXUMoPU8pW0NIMl1bQ0gyXVtDQEhdMltOSDJd

> <s_epik_cmdline>
J2VwaWtfcHl0aG9uJywgJy1waCcsICc3LjAnLCAnLXRuJywgJzgnLCAnLW1hJywgJzIwMCcsICctbWV0YWxfYmluZGluZycsICctaW1hZScsICc8aW5maWxlLm1hZT4nLCAnLW9tYWUnLCAnPG91dGZpbGUubWFlPic=

> <r_lp_tautomer_probability>
1

> <r_epik_Ionization_Penalty>
0.00878543

> <r_epik_Ionization_Penalty_Charging>
0.00874185

> <r_epik_Ionization_Penalty_Neutral>
4.35793e-05

> <r_epik_State_Penalty>
0.00660351

> <r_epik_Charging_Adjusted_Penalty>
0.0153454

> <i_epik_Tot_Q>
1

> <i_epik_Tot_abs_Q>
1

> <r_epik_Metal_State_Penalty>
0.00660727

> <b_epik_Metal_Only>
0

> <s_lp_Force_Field>
OPLS_2005

> <r_lp_Energy>
11.1602

> <b_lp_Chiralities_Consistent>
1

> <s_lp_Variant>
AV-unprocessed.smi:2526-3

> <Gold.Version>
5.8.1

> <Gold.Id.Protein>
6NUR|6NUR_protein|mol2

> <Gold.PLP.Fitness>
43.4989

> <Gold.PLP.PLP>
-24.7497

> <Gold.PLP.part.hbond>
-2.9644

> <Gold.PLP.part.metal>
0.0000

> <Gold.PLP.part.buried>
-7.2649

> <Gold.PLP.part.nonpolar>
-17.1384

> <Gold.PLP.part.repulsive>
0.7294

> <Gold.PLP.ligand.clash>
0.0000

> <Gold.PLP.ligand.torsion>
0.5578

> <Gold.PLP.Chemscore.Hbond>
3.9190

> <Gold.PLP.Chemscore.CHOScore>
2.6963

> <Gold.PLP.Chemscore.Metal>
0.0000

> <Gold.Chemscore.Hbonds>
donor molecule, donor type, donor heavy atom, donor atom, acceptor molecule, acceptor atom, score
      L1  H     6    20       P1 10186  0.93
      L1  H    12    26       P1  7948  2.00
      P1  H 10785 10796       L1     8  0.98
      L1  C     3    18       P1 10171  1.00
      L1  C     3    18       P1 10175  0.73
      L1  C    13    28       P1 10957  0.95

> <Gold.PLP.Chemscore.Internal.Correction>
0.0189

> <Gold.Rescore>
     Score         DG    S(hbond)    S(metal)    S(lipo)     H(rot)  DE(clash)    DE(int)     intcor
     18.43     -19.19       3.50        0.00      39.11       1.00       0.39       0.37       ----

> <Gold.Chemscore.Fitness>
18.4327

> <Gold.Chemscore.DG>
-19.1935

> <Gold.Chemscore.ZeroCoef>
-5.4800

> <Gold.Chemscore.Hbond>
3.5024

> <Gold.Chemscore.Metal>
0.0000

> <Gold.Chemscore.Lipo>
39.1056

> <Gold.Chemscore.Internal_Hbond>
0.0000

> <Gold.Chemscore.DEClash>
0.3858

> <Gold.Chemscore.DEInternal>
0.3749

> <Gold.Chemscore.Rot>
1.0000

> <Gold.Chemscore.Internal.Correction>
   9.000000E+99

> <Gold.Chemscore.Hbonds>
donor molecule, donor type, donor heavy atom, donor atom, acceptor molecule, acceptor atom, score
      L1  H     6    20       P1 10186  0.89
      L1  H    12    26       P1  7948  0.94
      P1  H 10785 10796       L1     8  0.88

> <Gold.Chemscore.Hbond.Weighted>
-11.6981

> <Gold.Chemscore.Metal.Weighted>
-0.0000

> <Gold.Chemscore.Lipo.Weighted>
-4.5754

> <Gold.Chemscore.Internal_Hbond.Weighted>
0.0000

> <Gold.Chemscore.DEClash.Weighted>
0.3858

> <Gold.Chemscore.DEInternal.Weighted>
0.3749

> <Gold.Chemscore.Rot.Weighted>
2.5600

> <Gold.Chemscore.Internal.Correction.Weighted>
   9.000000E+99

> <Gold.Protein.RotatedTorsions>
[ 6907 6896 6895 6894 ] final   12.44 input  -60.11 | X-H torsion
[ 7974 7965 7964 7962 ] final  -39.57 input  175.53 | X-H torsion
[ 8008 7997 7996 7995 ] final  -11.15 input   59.86 | X-H torsion
[ 10167 10162 10161 10158 ] final -161.19 input  -65.29 | X-H torsion
[ 10718 10713 10712 10709 ] final  -10.30 input   66.30 | X-H torsion
[ 10763 10752 10751 10750 ] final -134.61 input  -60.55 | X-H torsion
[ 11005 11000 10999 10996 ] final    6.57 input  -57.11 | X-H torsion

> <Gold.Protein.ActiveResidues>
 VAL166  LYS551  ARG553  GLY616  TRP617  ASP618  TYR619  PRO620  LYS621  CYS622 
 ASP623  PHE694  ASN695  SER759  ASP760  ASP761  ALA762  ILE779  LEU786  VAL792 
 PHE793  MET794  SER795  GLU796  ALA797  LYS798  CYS799  TRP800  GLU811  SER814 

> <Gold.Protein.RotatedAtoms>
  151.7703  135.0788  160.0358 H   0  0  0  0  0  0  0  0  0  0  0  0  # atno 6907 bound_to 6896
  152.3293  133.5936  159.5807 H   0  0  0  0  0  0  0  0  0  0  0  0  # atno 6908 bound_to 6896
  150.7413  133.9809  159.3617 H   0  0  0  0  0  0  0  0  0  0  0  0  # atno 6909 bound_to 6896
  146.0384  140.6641  142.9099 H   0  0  0  0  0  0  0  0  0  0  0  0  # atno 7974 bound_to 7965
  154.5491  140.2310  155.8515 H   0  0  0  0  0  0  0  0  0  0  0  0  # atno 8008 bound_to 7997
  156.1930  140.3072  155.9331 H   0  0  0  0  0  0  0  0  0  0  0  0  # atno 8009 bound_to 7997
  155.3106  140.0435  157.3025 H   0  0  0  0  0  0  0  0  0  0  0  0  # atno 8010 bound_to 7997
  139.6483  144.0131  152.2143 H   0  0  0  0  0  0  0  0  0  0  0  0  # atno 10167 bound_to 10162
  156.6755  130.5022  149.5987 H   0  0  0  0  0  0  0  0  0  0  0  0  # atno 10718 bound_to 10713
  154.8716  135.3729  154.4764 H   0  0  0  0  0  0  0  0  0  0  0  0  # atno 10763 bound_to 10752
  153.5420  135.7026  153.5637 H   0  0  0  0  0  0  0  0  0  0  0  0  # atno 10764 bound_to 10752
  153.3794  135.4000  155.1810 H   0  0  0  0  0  0  0  0  0  0  0  0  # atno 10765 bound_to 10752
  140.5580  134.0220  155.7961 H   0  0  0  0  0  0  0  0  0  0  0  0  # atno 11005 bound_to 11000
  144.7062  140.3862  143.7116 LP  0  0  0  0  0  0  0  0  0  0  0  0  # atno 17320 bound_to 7965
  145.6926  139.1642  143.2638 LP  0  0  0  0  0  0  0  0  0  0  0  0  # atno 17321 bound_to 7965
  139.9838  144.6409  150.7876 LP  0  0  0  0  0  0  0  0  0  0  0  0  # atno 17342 bound_to 10162
  140.7525  143.2992  151.3124 LP  0  0  0  0  0  0  0  0  0  0  0  0  # atno 17343 bound_to 10162
  156.1906  130.6557  151.1057 LP  0  0  0  0  0  0  0  0  0  0  0  0  # atno 17370 bound_to 10713
  157.7062  131.0755  150.6658 LP  0  0  0  0  0  0  0  0  0  0  0  0  # atno 17371 bound_to 10713
  141.1132  133.9583  157.2871 LP  0  0  0  0  0  0  0  0  0  0  0  0  # atno 17394 bound_to 11000
  139.9422  135.0189  156.8743 LP  0  0  0  0  0  0  0  0  0  0  0  0  # atno 17395 bound_to 11000

$$$$
