AV-unprocessed.smi:1795|AV-procd|sdf|7242|dock4
  -GOLD-   22720 8493D 1   1.00000     0.00000
 Structure written by MMmdl.
 47 48  0  0  0  0  0  0  0  0  1 V2000
  153.4100  141.2004  161.0135 C   0  0  0  0  0  0  0  0  0  0  0  0
  153.0347  141.9216  159.7148 C   0  0  1  0  0  0  0  0  0  0  0  0
  152.1105  141.0694  158.8259 C   0  0  0  0  0  0  0  0  0  0  0  0
  151.6711  141.7758  157.6186 N   0  0  0  0  0  0  0  0  0  0  0  0
  150.7991  140.9485  156.7513 C   0  0  1  0  0  0  0  0  0  0  0  0
  150.4914  141.6267  155.3911 C   0  0  0  0  0  0  0  0  0  0  0  0
  151.3720  139.5291  156.4823 C   0  0  0  0  0  0  0  0  0  0  0  0
  150.3302  138.5595  156.1564 N   0  0  0  0  0  0  0  0  0  0  0  0
  150.5310  137.2509  155.9438 C   0  0  0  0  0  0  0  0  0  0  0  0
  151.6393  136.7180  156.0146 O   0  0  0  0  0  0  0  0  0  0  0  0
  149.2788  136.4354  155.5880 C   0  0  0  0  0  0  0  0  0  0  0  0
  149.4687  134.9794  155.7008 N   0  0  0  0  0  0  0  0  0  0  0  0
  149.1615  134.2050  154.5643 C   0  0  0  0  0  0  0  0  0  0  0  0
  149.2986  132.8697  154.5561 C   0  0  0  0  0  0  0  0  0  0  0  0
  149.7767  132.2256  155.7565 C   0  0  0  0  0  0  0  0  0  0  0  0
  150.0777  132.9571  156.8479 C   0  0  0  0  0  0  0  0  0  0  0  0
  149.9316  134.4175  156.8602 C   0  0  0  0  0  0  0  0  0  0  0  0
  150.2080  135.0934  157.8516 O   0  0  0  0  0  0  0  0  0  0  0  0
  151.0279  143.0265  158.0381 C   0  0  0  0  0  0  0  0  0  0  0  0
  151.9108  143.8992  158.9521 C   0  0  2  0  0  0  0  0  0  0  0  0
  153.0611  144.5962  158.2049 C   0  0  0  0  0  0  0  0  0  0  0  0
  152.3796  143.1369  160.0616 O   0  0  0  0  0  0  0  0  0  0  0  0
  153.9271  140.2629  160.8076 H   0  0  0  0  0  0  0  0  0  0  0  0
  152.5247  140.9719  161.6076 H   0  0  0  0  0  0  0  0  0  0  0  0
  154.0703  141.8170  161.6238 H   0  0  0  0  0  0  0  0  0  0  0  0
  153.9534  142.1461  159.1723 H   0  0  0  0  0  0  0  0  0  0  0  0
  152.6690  140.1727  158.5664 H   0  0  0  0  0  0  0  0  0  0  0  0
  151.2412  140.7469  159.4010 H   0  0  0  0  0  0  0  0  0  0  0  0
  149.8448  140.8150  157.2635 H   0  0  0  0  0  0  0  0  0  0  0  0
  149.8935  140.9963  154.7341 H   0  0  0  0  0  0  0  0  0  0  0  0
  151.4103  141.8738  154.8582 H   0  0  0  0  0  0  0  0  0  0  0  0
  149.9108  142.5408  155.5052 H   0  0  0  0  0  0  0  0  0  0  0  0
  152.1159  139.5835  155.6853 H   0  0  0  0  0  0  0  0  0  0  0  0
  151.8744  139.1232  157.3587 H   0  0  0  0  0  0  0  0  0  0  0  0
  149.3882  138.9140  156.0765 H   0  0  0  0  0  0  0  0  0  0  0  0
  148.4526  136.7606  156.2232 H   0  0  0  0  0  0  0  0  0  0  0  0
  148.9762  136.6972  154.5730 H   0  0  0  0  0  0  0  0  0  0  0  0
  148.8169  134.7639  153.7062 H   0  0  0  0  0  0  0  0  0  0  0  0
  149.0613  132.2934  153.6740 H   0  0  0  0  0  0  0  0  0  0  0  0
  149.8950  131.1523  155.7789 H   0  0  0  0  0  0  0  0  0  0  0  0
  150.4351  132.4582  157.7366 H   0  0  0  0  0  0  0  0  0  0  0  0
  150.7592  143.6345  157.1764 H   0  0  0  0  0  0  0  0  0  0  0  0
  150.0979  142.7961  158.5605 H   0  0  0  0  0  0  0  0  0  0  0  0
  151.2826  144.6868  159.3691 H   0  0  0  0  0  0  0  0  0  0  0  0
  152.6737  145.2685  157.4390 H   0  0  0  0  0  0  0  0  0  0  0  0
  153.7201  143.8845  157.7078 H   0  0  0  0  0  0  0  0  0  0  0  0
  153.6659  145.1907  158.8898 H   0  0  0  0  0  0  0  0  0  0  0  0
  1  2  1  0  0  0  0
  1 23  1  0  0  0  0
  1 24  1  0  0  0  0
  1 25  1  0  0  0  0
  2 22  1  0  0  0  0
  2  3  1  0  0  0  0
  2 26  1  0  0  0  0
  3  4  1  0  0  0  0
  3 27  1  0  0  0  0
  3 28  1  0  0  0  0
  4  5  1  0  0  0  0
  4 19  1  0  0  0  0
  5  6  1  0  0  0  0
  5  7  1  0  0  0  0
  5 29  1  0  0  0  0
  6 30  1  0  0  0  0
  6 31  1  0  0  0  0
  6 32  1  0  0  0  0
  7  8  1  0  0  0  0
  7 33  1  0  0  0  0
  7 34  1  0  0  0  0
  8  9  1  0  0  0  0
  8 35  1  0  0  0  0
  9 10  2  0  0  0  0
  9 11  1  0  0  0  0
 11 12  1  0  0  0  0
 11 36  1  0  0  0  0
 11 37  1  0  0  0  0
 12 17  1  0  0  0  0
 12 13  1  0  0  0  0
 13 14  2  0  0  0  0
 13 38  1  0  0  0  0
 14 15  1  0  0  0  0
 14 39  1  0  0  0  0
 15 16  2  0  0  0  0
 15 40  1  0  0  0  0
 16 17  1  0  0  0  0
 16 41  1  0  0  0  0
 17 18  2  0  0  0  0
 19 20  1  0  0  0  0
 19 42  1  0  0  0  0
 19 43  1  0  0  0  0
 20 21  1  0  0  0  0
 20 22  1  0  0  0  0
 20 44  1  0  0  0  0
 21 45  1  0  0  0  0
 21 46  1  0  0  0  0
 21 47  1  0  0  0  0
M  END
> <s_m_source_file>
AV-unprocessed.smi

> <i_m_source_file_index>
1795

> <i_lp_mmshare_version>
43012

> <i_f3d_flags>
0

> <s_epik_input>
W0NIM11bQ0BASF0xW0NIMl1OKFtDSDJdW0NASF0oTzEpW0NIM10pW0NASF0oW0NIM10pW0NIMl1bTkhdQyg9TylbQ0gyXW4yW2NIXVtjSF1bY0hdW2NIXWMyPU8=

> <s_epik_cmdline>
J2VwaWtfcHl0aG9uJywgJy1waCcsICc3LjAnLCAnLXRuJywgJzgnLCAnLW1hJywgJzIwMCcsICctbWV0YWxfYmluZGluZycsICctaW1hZScsICc8aW5maWxlLm1hZT4nLCAnLW9tYWUnLCAnPG91dGZpbGUubWFlPic=

> <r_lp_tautomer_probability>
1

> <r_epik_Ionization_Penalty>
0.237383

> <r_epik_Ionization_Penalty_Charging>
3.58805e-07

> <r_epik_Ionization_Penalty_Neutral>
0.237382

> <r_epik_State_Penalty>
0.228245

> <r_epik_Charging_Adjusted_Penalty>
0.228245

> <i_epik_Tot_Q>
0

> <i_epik_Tot_abs_Q>
0

> <r_epik_Metal_State_Penalty>
0.228221

> <b_epik_Metal_Only>
0

> <s_lp_Force_Field>
OPLS_2005

> <r_lp_Energy>
40.9254

> <b_lp_Chiralities_Consistent>
1

> <s_lp_Variant>
AV-unprocessed.smi:1795-6

> <Gold.Version>
5.8.1

> <Gold.Id.Protein>
6NUR|6NUR_protein|mol2

> <Gold.PLP.Fitness>
48.9886

> <Gold.PLP.PLP>
-42.8224

> <Gold.PLP.part.hbond>
-2.0000

> <Gold.PLP.part.metal>
0.0000

> <Gold.PLP.part.buried>
-5.2715

> <Gold.PLP.part.nonpolar>
-35.7311

> <Gold.PLP.part.repulsive>
0.0849

> <Gold.PLP.ligand.clash>
0.0000

> <Gold.PLP.ligand.torsion>
0.5263

> <Gold.PLP.Chemscore.Hbond>
1.3840

> <Gold.PLP.Chemscore.CHOScore>
1.0000

> <Gold.PLP.Chemscore.Metal>
0.0000

> <Gold.Chemscore.Hbonds>
donor molecule, donor type, donor heavy atom, donor atom, acceptor molecule, acceptor atom, score
      P1  H  6896  6909       L1    18  0.67
      P1  H 10752 10764       L1    10  0.47
      L1  C    13    38       P1  7948  1.00

> <Gold.PLP.Chemscore.Internal.Correction>
0.0669

> <Gold.Rescore>
     Score         DG    S(hbond)    S(metal)    S(lipo)     H(rot)  DE(clash)    DE(int)     intcor
     18.93     -19.47       1.86        0.00     106.27       1.83       0.00       0.53       ----

> <Gold.Chemscore.Fitness>
18.9290

> <Gold.Chemscore.DG>
-19.4666

> <Gold.Chemscore.ZeroCoef>
-5.4800

> <Gold.Chemscore.Hbond>
1.8639

> <Gold.Chemscore.Metal>
0.0000

> <Gold.Chemscore.Lipo>
106.2702

> <Gold.Chemscore.Internal_Hbond>
0.0000

> <Gold.Chemscore.DEClash>
0.0029

> <Gold.Chemscore.DEInternal>
0.5347

> <Gold.Chemscore.Rot>
1.8251

> <Gold.Chemscore.Internal.Correction>
   9.000000E+99

> <Gold.Chemscore.Hbonds>
donor molecule, donor type, donor heavy atom, donor atom, acceptor molecule, acceptor atom, score
      P1  H  6896  6909       L1    18  0.64
      P1  H 10752 10764       L1    10  0.44

> <Gold.Chemscore.Hbond.Weighted>
-6.2253

> <Gold.Chemscore.Metal.Weighted>
-0.0000

> <Gold.Chemscore.Lipo.Weighted>
-12.4336

> <Gold.Chemscore.Internal_Hbond.Weighted>
0.0000

> <Gold.Chemscore.DEClash.Weighted>
0.0029

> <Gold.Chemscore.DEInternal.Weighted>
0.5347

> <Gold.Chemscore.Rot.Weighted>
4.6724

> <Gold.Chemscore.Internal.Correction.Weighted>
   9.000000E+99

> <Gold.Protein.RotatedTorsions>
[ 6907 6896 6895 6894 ] final   23.12 input  -60.11 | X-H torsion
[ 7974 7965 7964 7962 ] final  149.66 input  175.53 | X-H torsion
[ 8008 7997 7996 7995 ] final -159.28 input   59.86 | X-H torsion
[ 10167 10162 10161 10158 ] final -173.00 input  -65.29 | X-H torsion
[ 10718 10713 10712 10709 ] final   -7.72 input   66.30 | X-H torsion
[ 10763 10752 10751 10750 ] final  -61.81 input  -60.55 | X-H torsion
[ 11005 11000 10999 10996 ] final  125.06 input  -57.11 | X-H torsion

> <Gold.Protein.ActiveResidues>
 VAL166  LYS551  ARG553  GLY616  TRP617  ASP618  TYR619  PRO620  LYS621  CYS622 
 ASP623  PHE694  ASN695  SER759  ASP760  ASP761  ALA762  ILE779  LEU786  VAL792 
 PHE793  MET794  SER795  GLU796  ALA797  LYS798  CYS799  TRP800  GLU811  SER814 

> <Gold.Protein.RotatedAtoms>
  151.9375  135.0228  160.0533 H   0  0  0  0  0  0  0  0  0  0  0  0  # atno 6907 bound_to 6896
  152.2065  133.4874  159.5095 H   0  0  0  0  0  0  0  0  0  0  0  0  # atno 6908 bound_to 6896
  150.6966  134.1440  159.4158 H   0  0  0  0  0  0  0  0  0  0  0  0  # atno 6909 bound_to 6896
  144.8421  139.6309  143.6012 H   0  0  0  0  0  0  0  0  0  0  0  0  # atno 7974 bound_to 7965
  155.7602  140.0838  157.2159 H   0  0  0  0  0  0  0  0  0  0  0  0  # atno 8008 bound_to 7997
  154.4004  140.1544  156.2881 H   0  0  0  0  0  0  0  0  0  0  0  0  # atno 8009 bound_to 7997
  155.8846  140.3418  155.5915 H   0  0  0  0  0  0  0  0  0  0  0  0  # atno 8010 bound_to 7997
  139.5713  144.1636  152.1387 H   0  0  0  0  0  0  0  0  0  0  0  0  # atno 10167 bound_to 10162
  156.7131  130.5128  149.5887 H   0  0  0  0  0  0  0  0  0  0  0  0  # atno 10718 bound_to 10713
  154.2902  135.6255  153.5382 H   0  0  0  0  0  0  0  0  0  0  0  0  # atno 10763 bound_to 10752
  152.9853  135.5654  154.5398 H   0  0  0  0  0  0  0  0  0  0  0  0  # atno 10764 bound_to 10752
  154.5007  135.2872  155.1399 H   0  0  0  0  0  0  0  0  0  0  0  0  # atno 10765 bound_to 10752
  139.9388  134.9637  156.8503 H   0  0  0  0  0  0  0  0  0  0  0  0  # atno 11005 bound_to 11000
  146.2712  139.6640  142.9295 LP  0  0  0  0  0  0  0  0  0  0  0  0  # atno 17320 bound_to 7965
  145.4672  141.0435  143.2719 LP  0  0  0  0  0  0  0  0  0  0  0  0  # atno 17321 bound_to 7965
  140.1169  144.5408  150.6888 LP  0  0  0  0  0  0  0  0  0  0  0  0  # atno 17342 bound_to 10162
  140.6997  143.2426  151.4900 LP  0  0  0  0  0  0  0  0  0  0  0  0  # atno 17343 bound_to 10162
  156.1647  130.6397  151.0763 LP  0  0  0  0  0  0  0  0  0  0  0  0  # atno 17370 bound_to 10713
  157.6928  131.0804  150.7057 LP  0  0  0  0  0  0  0  0  0  0  0  0  # atno 17371 bound_to 10713
  140.6005  134.0177  155.7535 LP  0  0  0  0  0  0  0  0  0  0  0  0  # atno 17394 bound_to 11000
  141.1014  133.9762  157.3072 LP  0  0  0  0  0  0  0  0  0  0  0  0  # atno 17395 bound_to 11000

$$$$
