#       Name:                AV-unprocessed.smi:415
#       Creating user name   scv26
#       Creation time:       Thu Mar 26 22:47:09 2020


#       File generated by GOLD software.
#

@<TRIPOS>MOLECULE
AV-unprocessed.smi:415
    61    62     1
SMALL
NO_CHARGES


@<TRIPOS>ATOM
      1 ****        -4.9959  -5.4138   2.8737 C.3            1 S1                 0.0000
      2 ****        -4.7796  -4.5783   1.7500 O.3            1 S1                 0.0000
      3 ****        -4.2424  -3.3160   2.1062 C.3            1 S1                 0.0000
      4 ****        -4.0586  -2.4800   0.8312 C.3            1 S1                 0.0000
      5 ****        -3.5779  -1.1399   1.1060 N.am           1 S1                 0.0000
      6 ****        -4.4249  -0.0565   1.3215 C.2            1 S1                 0.0000
      7 ****        -5.7952  -0.2445   1.2984 N.pl3          1 S1                 0.0000
      8 ****        -3.9381   1.1798   1.5688 C.2            1 S1                 0.0000
      9 ****        -2.5078   1.4451   1.6282 C.2            1 S1                 0.0000
     10 ****        -2.0446   2.5688   1.8266 O.2            1 S1                 0.0000
     11 ****        -1.6662   0.3248   1.4381 N.am           1 S1                 0.0000
     12 ****        -0.2012   0.5330   1.4748 C.3            1 S1                 0.0000
     13 ****         0.3913   0.9351   0.1153 C.2            1 S1                 0.0000
     14 ****        -0.2339   0.7494  -0.9297 O.2            1 S1                 0.0000
     15 ****         1.6180   1.4772   0.1508 N.am           1 S1                 0.0000
     16 ****         2.3817   1.9231  -1.0125 C.3            1 S1                 0.0000
     17 ****         3.3732   3.0260  -0.5940 C.3            1 S1                 0.0000
     18 ****         4.1741   3.5420  -1.7987 C.3            1 S1                 0.0000
     19 ****         4.8841   2.3969  -2.5376 C.3            1 S1                 0.0000
     20 ****         3.8912   1.2915  -2.9512 C.3            1 S1                 0.0000
     21 ****         4.5730   0.1925  -3.7832 C.3            1 S1                 0.0000
     22 ****         3.0998   0.7476  -1.7314 C.3            1 S1                 0.0000
     23 ****         3.9547  -0.1175  -0.7759 C.3            1 S1                 0.0000
     24 ****        -2.1715  -0.9713   1.1849 C.2            1 S1                 0.0000
     25 ****        -1.3998  -1.9226   1.0344 O.2            1 S1                 0.0000
     26 ****        -5.4091  -6.3678   2.5462 H              1 S1                 0.0000
     27 ****        -5.7034  -4.9632   3.5709 H              1 S1                 0.0000
     28 ****        -4.0630  -5.6146   3.4019 H              1 S1                 0.0000
     29 ****        -4.9183  -2.8062   2.7946 H              1 S1                 0.0000
     30 ****        -3.2871  -3.4470   2.6170 H              1 S1                 0.0000
     31 ****        -3.3765  -2.9520   0.1220 H              1 S1                 0.0000
     32 ****        -4.9980  -2.3750   0.2891 H              1 S1                 0.0000
     33 ****        -6.2066  -1.1510   1.1287 H              1 S1                 0.0000
     34 ****        -6.4395   0.5112   1.4825 H              1 S1                 0.0000
     35 ****        -4.6216   2.0015   1.7283 H              1 S1                 0.0000
     36 ****         0.0596   1.2932   2.2132 H              1 S1                 0.0000
     37 ****         0.3216  -0.3591   1.8222 H              1 S1                 0.0000
     38 ****         2.0593   1.5887   1.0519 H              1 S1                 0.0000
     39 ****         1.6816   2.3757  -1.7181 H              1 S1                 0.0000
     40 ****         2.8339   3.8565  -0.1367 H              1 S1                 0.0000
     41 ****         4.0577   2.6510   0.1677 H              1 S1                 0.0000
     42 ****         3.5022   4.0562  -2.4870 H              1 S1                 0.0000
     43 ****         4.9041   4.2824  -1.4708 H              1 S1                 0.0000
     44 ****         5.3847   2.7954  -3.4208 H              1 S1                 0.0000
     45 ****         5.6697   1.9818  -1.9053 H              1 S1                 0.0000
     46 ****         3.1600   1.7571  -3.6141 H              1 S1                 0.0000
     47 ****         5.3937  -0.2781  -3.2419 H              1 S1                 0.0000
     48 ****         4.9880   0.6043  -4.7034 H              1 S1                 0.0000
     49 ****         3.8631  -0.5861  -4.0634 H              1 S1                 0.0000
     50 ****         2.3235   0.0896  -2.1248 H              1 S1                 0.0000
     51 ****         4.7782   0.4458  -0.3388 H              1 S1                 0.0000
     52 ****         4.3807  -0.9790  -1.2885 H              1 S1                 0.0000
     53 ****         3.3585  -0.5158   0.0449 H              1 S1                 0.0000
     54 ****        -5.6529  -4.4351   1.2843 LP             1 S1                 0.0000
     55 ****        -4.1418  -5.0345   1.1295 LP             1 S1                 0.0000
     56 ****        -2.6589   3.3473   1.9552 LP             1 S1                 0.0000
     57 ****        -1.0541   2.7028   1.8592 LP             1 S1                 0.0000
     58 ****        -1.1417   0.3310  -0.9016 LP             1 S1                 0.0000
     59 ****         0.1664   1.0170  -1.8061 LP             1 S1                 0.0000
     60 ****        -1.7624  -2.8366   0.8525 LP             1 S1                 0.0000
     61 ****        -0.4119  -1.7794   1.0945 LP             1 S1                 0.0000
@<TRIPOS>BOND
    1    1    2 1     
    2    1   26 1     
    3    1   27 1     
    4    1   28 1     
    5    2    3 1     
    6    3    4 1     
    7    3   29 1     
    8    3   30 1     
    9    4    5 1     
   10    4   31 1     
   11    4   32 1     
   12    5   24 am    
   13    5    6 1     
   14    6    7 1     
   15    6    8 2     
   16    7   33 1     
   17    7   34 1     
   18    8    9 1     
   19    8   35 1     
   20    9   10 2     
   21    9   11 am    
   22   11   12 1     
   23   11   24 am    
   24   12   13 1     
   25   12   36 1     
   26   12   37 1     
   27   13   14 2     
   28   13   15 am    
   29   15   16 1     
   30   15   38 1     
   31   16   22 1     
   32   16   17 1     
   33   16   39 1     
   34   17   18 1     
   35   17   40 1     
   36   17   41 1     
   37   18   19 1     
   38   18   42 1     
   39   18   43 1     
   40   19   20 1     
   41   19   44 1     
   42   19   45 1     
   43   20   21 1     
   44   20   22 1     
   45   20   46 1     
   46   21   47 1     
   47   21   48 1     
   48   21   49 1     
   49   22   23 1     
   50   22   50 1     
   51   23   51 1     
   52   23   52 1     
   53   23   53 1     
   54   24   25 2     
   55    2   54 1     
   56    2   55 1     
   57   10   56 1     
   58   10   57 1     
   59   14   58 1     
   60   14   59 1     
   61   25   60 1     
   62   25   61 1     
@<TRIPOS>SUBSTRUCTURE
      1 S1             1
@<TRIPOS>SET
LONE_PAIRS      STATIC     ATOMS    <user>   **** ""
8 54 55 56 57 58 59 60 61
DONOR_HYDROGENS      STATIC     ATOMS    <user>   **** ""
3 33 34 38
ATOM$BLUE        STATIC     ATOMS    COLORGROUP SYSTEM
8 54 55 56 57 58 59 60 61
ATOM$RED        STATIC     ATOMS    COLORGROUP SYSTEM
3 33 34 38
