AV-unprocessed.smi:100|AV-procd|sdf|906|dock5
  -GOLD-   2262017403D 1   1.00000     0.00000
 Structure written by MMmdl.
 31 33  0  0  0  0  0  0  0  0  1 V2000
  148.4321  139.5588  153.2320 N   0  0  0  0  0  0  0  0  0  0  0  0
  148.3701  140.3174  154.3351 C   0  0  0  0  0  0  0  0  0  0  0  0
  147.1704  140.8299  154.6963 N   0  0  0  0  0  0  0  0  0  0  0  0
  147.0829  141.5894  155.7932 C   0  0  0  0  0  0  0  0  0  0  0  0
  148.0506  141.9453  156.6419 N   0  0  0  0  0  0  0  0  0  0  0  0
  149.2595  141.4282  156.2764 C   0  0  0  0  0  0  0  0  0  0  0  0
  149.5008  140.6072  155.1401 C   0  0  0  0  0  0  0  0  0  0  0  0
  150.8450  140.2658  155.0799 N   0  0  0  0  0  0  0  0  0  0  0  0
  151.3652  140.8557  156.1226 C   0  0  0  0  0  0  0  0  0  0  0  0
  150.4825  141.5741  156.8996 N   0  0  0  0  0  0  0  0  0  0  0  0
  150.7870  142.3454  158.1426 C   0  0  1  0  0  0  0  0  0  0  0  0
  151.3612  141.4748  159.0692 O   0  0  0  0  0  0  0  0  0  0  0  0
  152.3527  142.1651  159.8317 C   0  0  1  0  0  0  0  0  0  0  0  0
  153.6792  141.3785  159.8212 C   0  0  0  0  0  0  0  0  0  0  0  0
  153.6785  140.3117  158.8950 O   0  0  0  0  0  0  0  0  0  0  0  0
  152.4111  143.5963  159.2752 C   0  0  2  0  0  0  0  0  0  0  0  0
  151.6191  144.3574  160.0367 F   0  0  0  0  0  0  0  0  0  0  0  0
  151.8222  143.4381  157.8807 C   0  0  2  0  0  0  0  0  0  0  0  0
  151.2658  144.6562  157.4264 O   0  0  0  0  0  0  0  0  0  0  0  0
  149.3155  139.1647  152.9421 H   0  0  0  0  0  0  0  0  0  0  0  0
  147.5962  139.3824  152.6939 H   0  0  0  0  0  0  0  0  0  0  0  0
  146.0976  141.9660  156.0248 H   0  0  0  0  0  0  0  0  0  0  0  0
  152.4171  140.7797  156.3573 H   0  0  0  0  0  0  0  0  0  0  0  0
  149.8306  142.7176  158.5148 H   0  0  0  0  0  0  0  0  0  0  0  0
  151.9964  142.1884  160.8628 H   0  0  0  0  0  0  0  0  0  0  0  0
  154.4930  142.0465  159.5388 H   0  0  0  0  0  0  0  0  0  0  0  0
  153.9115  141.0021  160.8179 H   0  0  0  0  0  0  0  0  0  0  0  0
  153.0014  139.7003  159.1414 H   0  0  0  0  0  0  0  0  0  0  0  0
  153.4046  144.0455  159.2870 H   0  0  0  0  0  0  0  0  0  0  0  0
  152.5793  143.0758  157.1842 H   0  0  0  0  0  0  0  0  0  0  0  0
  150.5045  144.4590  156.9024 H   0  0  0  0  0  0  0  0  0  0  0  0
  1  2  1  0  0  0  0
  1 20  1  0  0  0  0
  1 21  1  0  0  0  0
  2  7  1  0  0  0  0
  2  3  2  0  0  0  0
  3  4  1  0  0  0  0
  4  5  2  0  0  0  0
  4 22  1  0  0  0  0
  5  6  1  0  0  0  0
  6 10  1  0  0  0  0
  6  7  2  0  0  0  0
  7  8  1  0  0  0  0
  8  9  2  0  0  0  0
  9 10  1  0  0  0  0
  9 23  1  0  0  0  0
 10 11  1  0  0  0  0
 11 18  1  0  0  0  0
 11 12  1  0  0  0  0
 11 24  1  0  0  0  0
 12 13  1  0  0  0  0
 13 14  1  0  0  0  0
 13 16  1  0  0  0  0
 13 25  1  0  0  0  0
 14 15  1  0  0  0  0
 14 26  1  0  0  0  0
 14 27  1  0  0  0  0
 15 28  1  0  0  0  0
 16 17  1  0  0  0  0
 16 18  1  0  0  0  0
 16 29  1  0  0  0  0
 18 19  1  0  0  0  0
 18 30  1  0  0  0  0
 19 31  1  0  0  0  0
M  END
> <s_m_source_file>
AV-unprocessed.smi

> <i_m_source_file_index>
100

> <i_lp_mmshare_version>
43012

> <i_f3d_flags>
0

> <s_epik_input>
bjFbY0hdbmMoW05IMl0pYyhjMTIpbltjSF1uMltDQEBIXTNPW0NAQEhdKFtDSDJdW09IXSlbQ0BIXShGKVtDQEhdM1tPSF0=

> <s_epik_cmdline>
J2VwaWtfcHl0aG9uJywgJy1waCcsICc3LjAnLCAnLXRuJywgJzgnLCAnLW1hJywgJzIwMCcsICctbWV0YWxfYmluZGluZycsICctaW1hZScsICc8aW5maWxlLm1hZT4nLCAnLW9tYWUnLCAnPG91dGZpbGUubWFlPic=

> <r_lp_tautomer_probability>
1

> <r_epik_Ionization_Penalty>
0.000750324

> <r_epik_Ionization_Penalty_Charging>
0

> <r_epik_Ionization_Penalty_Neutral>
0.000750324

> <r_epik_State_Penalty>
-0

> <r_epik_Charging_Adjusted_Penalty>
0

> <i_epik_Tot_Q>
0

> <i_epik_Tot_abs_Q>
0

> <r_epik_Metal_State_Penalty>
-0

> <b_epik_Metal_Only>
0

> <s_epik_Chemistry_Notes>
This compound contains an acetal/aminal-like group ( X-CH(R)-Y where X, Y are N, S, or O) that may be acid/base labile, releasing an aldehyde.

> <s_lp_Force_Field>
OPLS_2005

> <r_lp_Energy>
36.265

> <b_lp_Chiralities_Consistent>
1

> <s_lp_Variant>
AV-unprocessed.smi:100-10

> <Gold.Version>
5.8.1

> <Gold.Id.Protein>
6NUR|6NUR_protein|mol2

> <Gold.PLP.Fitness>
42.8787

> <Gold.PLP.PLP>
-35.4560

> <Gold.PLP.part.hbond>
-3.5339

> <Gold.PLP.part.metal>
0.0000

> <Gold.PLP.part.buried>
-4.9682

> <Gold.PLP.part.nonpolar>
-27.5434

> <Gold.PLP.part.repulsive>
1.0418

> <Gold.PLP.ligand.clash>
0.0000

> <Gold.PLP.ligand.torsion>
0.7108

> <Gold.PLP.Chemscore.Hbond>
2.9440

> <Gold.PLP.Chemscore.CHOScore>
0.0000

> <Gold.PLP.Chemscore.Metal>
0.0000

> <Gold.Chemscore.Hbonds>
donor molecule, donor type, donor heavy atom, donor atom, acceptor molecule, acceptor atom, score
      L1  H     1    20       P1  7957  0.05
      L1  H    19    31       P1  8028  1.00
      P1  H  7989  7998       L1     8  1.00
      P1  H  7997  8009       L1    15  0.86

> <Gold.PLP.Chemscore.Internal.Correction>
0.0124

> <Gold.Rescore>
     Score         DG    S(hbond)    S(metal)    S(lipo)     H(rot)  DE(clash)    DE(int)     intcor
     10.74     -11.47       2.50        0.00      49.48       3.19       0.08       0.65       ----

> <Gold.Chemscore.Fitness>
10.7387

> <Gold.Chemscore.DG>
-11.4697

> <Gold.Chemscore.ZeroCoef>
-5.4800

> <Gold.Chemscore.Hbond>
2.5050

> <Gold.Chemscore.Metal>
0.0000

> <Gold.Chemscore.Lipo>
49.4845

> <Gold.Chemscore.Internal_Hbond>
0.0000

> <Gold.Chemscore.DEClash>
0.0799

> <Gold.Chemscore.DEInternal>
0.6511

> <Gold.Chemscore.Rot>
3.1901

> <Gold.Chemscore.Internal.Correction>
   9.000000E+99

> <Gold.Chemscore.Hbonds>
donor molecule, donor type, donor heavy atom, donor atom, acceptor molecule, acceptor atom, score
      L1  H     1    20       P1  7957  0.09
      L1  H    19    31       P1  8028  0.84
      P1  H  7989  7998       L1     8  0.61
      P1  H  7997  8009       L1    15  0.79

> <Gold.Chemscore.Hbond.Weighted>
-8.3667

> <Gold.Chemscore.Metal.Weighted>
-0.0000

> <Gold.Chemscore.Lipo.Weighted>
-5.7897

> <Gold.Chemscore.Internal_Hbond.Weighted>
0.0000

> <Gold.Chemscore.DEClash.Weighted>
0.0799

> <Gold.Chemscore.DEInternal.Weighted>
0.6511

> <Gold.Chemscore.Rot.Weighted>
8.1667

> <Gold.Chemscore.Internal.Correction.Weighted>
   9.000000E+99

> <Gold.Protein.RotatedTorsions>
[ 6907 6896 6895 6894 ] final  -45.23 input  -60.11 | X-H torsion
[ 7974 7965 7964 7962 ] final   95.55 input  175.53 | X-H torsion
[ 8008 7997 7996 7995 ] final  139.51 input   59.86 | X-H torsion
[ 10167 10162 10161 10158 ] final  162.32 input  -65.29 | X-H torsion
[ 10718 10713 10712 10709 ] final  -71.77 input   66.30 | X-H torsion
[ 10763 10752 10751 10750 ] final   46.89 input  -60.55 | X-H torsion
[ 11005 11000 10999 10996 ] final   75.84 input  -57.11 | X-H torsion

> <Gold.Protein.ActiveResidues>
 VAL166  LYS551  ARG553  GLY616  TRP617  ASP618  TYR619  PRO620  LYS621  CYS622 
 ASP623  PHE694  ASN695  SER759  ASP760  ASP761  ALA762  ILE779  LEU786  VAL792 
 PHE793  MET794  SER795  GLU796  ALA797  LYS798  CYS799  TRP800  GLU811  SER814 

> <Gold.Protein.RotatedAtoms>
  150.9242  134.8659  159.7508 H   0  0  0  0  0  0  0  0  0  0  0  0  # atno 6907 bound_to 6896
  152.5007  134.4174  159.9479 H   0  0  0  0  0  0  0  0  0  0  0  0  # atno 6908 bound_to 6896
  151.4205  133.3660  159.2790 H   0  0  0  0  0  0  0  0  0  0  0  0  # atno 6909 bound_to 6896
  145.4507  139.2293  143.3041 H   0  0  0  0  0  0  0  0  0  0  0  0  # atno 7974 bound_to 7965
  156.2989  140.2365  156.4250 H   0  0  0  0  0  0  0  0  0  0  0  0  # atno 8008 bound_to 7997
  154.8321  140.0432  157.1504 H   0  0  0  0  0  0  0  0  0  0  0  0  # atno 8009 bound_to 7997
  154.9196  140.3002  155.5227 H   0  0  0  0  0  0  0  0  0  0  0  0  # atno 8010 bound_to 7997
  139.4859  144.4450  151.8904 H   0  0  0  0  0  0  0  0  0  0  0  0  # atno 10167 bound_to 10162
  156.0349  130.4358  150.2493 H   0  0  0  0  0  0  0  0  0  0  0  0  # atno 10718 bound_to 10713
  152.9805  135.5994  154.3673 H   0  0  0  0  0  0  0  0  0  0  0  0  # atno 10763 bound_to 10752
  154.3349  135.2768  155.2454 H   0  0  0  0  0  0  0  0  0  0  0  0  # atno 10764 bound_to 10752
  154.4562  135.5977  153.6280 H   0  0  0  0  0  0  0  0  0  0  0  0  # atno 10765 bound_to 10752
  139.9325  134.7551  156.1321 H   0  0  0  0  0  0  0  0  0  0  0  0  # atno 11005 bound_to 11000
  146.2506  140.5266  142.8895 LP  0  0  0  0  0  0  0  0  0  0  0  0  # atno 17320 bound_to 7965
  144.8063  140.6306  143.6444 LP  0  0  0  0  0  0  0  0  0  0  0  0  # atno 17321 bound_to 7965
  140.3903  144.2624  150.5900 LP  0  0  0  0  0  0  0  0  0  0  0  0  # atno 17342 bound_to 10162
  140.5152  143.2280  151.8474 LP  0  0  0  0  0  0  0  0  0  0  0  0  # atno 17343 bound_to 10162
  157.0593  131.0085  151.3228 LP  0  0  0  0  0  0  0  0  0  0  0  0  # atno 17370 bound_to 10713
  157.5082  130.7922  149.7677 LP  0  0  0  0  0  0  0  0  0  0  0  0  # atno 17371 bound_to 10713
  141.0922  133.6710  156.2565 LP  0  0  0  0  0  0  0  0  0  0  0  0  # atno 17394 bound_to 11000
  140.6163  134.5407  157.5541 LP  0  0  0  0  0  0  0  0  0  0  0  0  # atno 17395 bound_to 11000

$$$$
