AV-unprocessed.smi:2807|AV-procd|sdf|10819|dock9
  -GOLD-   2272015253D 1   1.00000     0.00000
 Structure written by MMmdl.
 32 33  0  0  0  0  0  0  0  0  1 V2000
  151.6577  139.9525  155.3326 O   0  0  0  0  0  0  0  0  0  0  0  0
  150.9928  140.5107  156.2073 C   0  0  0  0  0  0  0  0  0  0  0  0
  149.8028  141.0824  155.9610 N   0  0  0  0  0  0  0  0  0  0  0  0
  149.1454  141.1404  154.6574 C   0  0  1  0  0  0  0  0  0  0  0  0
  148.9613  139.7239  154.0799 C   0  0  0  0  0  0  0  0  0  0  0  0
  147.5146  139.3428  154.3883 C   0  0  0  0  0  0  0  0  0  0  0  0
  146.7579  140.6597  154.2502 C   0  0  0  0  0  0  0  0  0  0  0  0
  147.7201  141.7227  154.7990 C   0  0  2  0  0  0  0  0  0  0  0  0
  147.5753  142.9280  154.0768 O   0  0  0  0  0  0  0  0  0  0  0  0
  151.4817  140.5687  157.6647 C   0  0  0  0  0  0  0  0  0  0  0  0
  150.6081  139.9200  158.4386 F   0  0  0  0  0  0  0  0  0  0  0  0
  152.6452  139.9187  157.7337 F   0  0  0  0  0  0  0  0  0  0  0  0
  151.6460  142.0038  158.1641 C   0  0  0  0  0  0  0  0  0  0  0  0
  152.2536  142.2763  159.4113 C   0  0  0  0  0  0  0  0  0  0  0  0
  152.3928  143.6177  159.8160 C   0  0  0  0  0  0  0  0  0  0  0  0
  151.9230  144.6356  158.9652 C   0  0  0  0  0  0  0  0  0  0  0  0
  151.3333  144.2652  157.7409 C   0  0  0  0  0  0  0  0  0  0  0  0
  151.1951  142.9825  157.3432 N   0  0  0  0  0  0  0  0  0  0  0  0
  149.3182  141.5142  156.7345 H   0  0  0  0  0  0  0  0  0  0  0  0
  149.7498  141.7422  153.9753 H   0  0  0  0  0  0  0  0  0  0  0  0
  149.0968  139.7585  152.9982 H   0  0  0  0  0  0  0  0  0  0  0  0
  149.6742  138.9948  154.4674 H   0  0  0  0  0  0  0  0  0  0  0  0
  147.1333  138.5664  153.7246 H   0  0  0  0  0  0  0  0  0  0  0  0
  147.4384  138.9767  155.4130 H   0  0  0  0  0  0  0  0  0  0  0  0
  146.5537  140.8382  153.1930 H   0  0  0  0  0  0  0  0  0  0  0  0
  145.8010  140.6516  154.7728 H   0  0  0  0  0  0  0  0  0  0  0  0
  147.4825  141.9170  155.8463 H   0  0  0  0  0  0  0  0  0  0  0  0
  147.7026  143.6515  154.6714 H   0  0  0  0  0  0  0  0  0  0  0  0
  152.6127  141.4788  160.0447 H   0  0  0  0  0  0  0  0  0  0  0  0
  152.8537  143.8610  160.7620 H   0  0  0  0  0  0  0  0  0  0  0  0
  152.0136  145.6753  159.2429 H   0  0  0  0  0  0  0  0  0  0  0  0
  150.9624  145.0196  157.0630 H   0  0  0  0  0  0  0  0  0  0  0  0
  1  2  2  0  0  0  0
  2  3  1  0  0  0  0
  2 10  1  0  0  0  0
  3  4  1  0  0  0  0
  3 19  1  0  0  0  0
  4  8  1  0  0  0  0
  4  5  1  0  0  0  0
  4 20  1  0  0  0  0
  5  6  1  0  0  0  0
  5 21  1  0  0  0  0
  5 22  1  0  0  0  0
  6  7  1  0  0  0  0
  6 23  1  0  0  0  0
  6 24  1  0  0  0  0
  7  8  1  0  0  0  0
  7 25  1  0  0  0  0
  7 26  1  0  0  0  0
  8  9  1  0  0  0  0
  8 27  1  0  0  0  0
  9 28  1  0  0  0  0
 10 11  1  0  0  0  0
 10 12  1  0  0  0  0
 10 13  1  0  0  0  0
 13 18  1  0  0  0  0
 13 14  2  0  0  0  0
 14 15  1  0  0  0  0
 14 29  1  0  0  0  0
 15 16  2  0  0  0  0
 15 30  1  0  0  0  0
 16 17  1  0  0  0  0
 16 31  1  0  0  0  0
 17 18  2  0  0  0  0
 17 32  1  0  0  0  0
M  END
> <s_m_source_file>
AV-unprocessed.smi

> <i_m_source_file_index>
2807

> <i_lp_mmshare_version>
43012

> <i_f3d_flags>
0

> <s_epik_input>
bjFbY0hdW2NIXVtjSF1bY0hdYzFDKEYpKEYpQyg9TylbTkhdW0NAQEhdMltDSDJdW0NIMl1bQ0gyXVtDQEhdMltPSF0=

> <s_epik_cmdline>
J2VwaWtfcHl0aG9uJywgJy1waCcsICc3LjAnLCAnLXRuJywgJzgnLCAnLW1hJywgJzIwMCcsICctbWV0YWxfYmluZGluZycsICctaW1hZScsICc8aW5maWxlLm1hZT4nLCAnLW9tYWUnLCAnPG91dGZpbGUubWFlPic=

> <r_lp_tautomer_probability>
1

> <r_epik_Ionization_Penalty>
4.08325e-05

> <r_epik_Ionization_Penalty_Charging>
0

> <r_epik_Ionization_Penalty_Neutral>
4.08325e-05

> <r_epik_State_Penalty>
-0

> <r_epik_Charging_Adjusted_Penalty>
0

> <i_epik_Tot_Q>
0

> <i_epik_Tot_abs_Q>
0

> <r_epik_Metal_State_Penalty>
0.034564

> <b_epik_Metal_Only>
0

> <s_lp_Force_Field>
OPLS_2005

> <r_lp_Energy>
23.3641

> <b_lp_Chiralities_Consistent>
1

> <s_lp_Variant>
AV-unprocessed.smi:2807-4

> <Gold.Version>
5.8.1

> <Gold.Id.Protein>
6NUR|6NUR_protein|mol2

> <Gold.PLP.Fitness>
43.9120

> <Gold.PLP.PLP>
-35.7067

> <Gold.PLP.part.hbond>
-3.7488

> <Gold.PLP.part.metal>
0.0000

> <Gold.PLP.part.buried>
-0.1601

> <Gold.PLP.part.nonpolar>
-32.6625

> <Gold.PLP.part.repulsive>
0.2149

> <Gold.PLP.ligand.clash>
0.0000

> <Gold.PLP.ligand.torsion>
0.2157

> <Gold.PLP.Chemscore.Hbond>
1.9920

> <Gold.PLP.Chemscore.CHOScore>
0.8790

> <Gold.PLP.Chemscore.Metal>
0.0000

> <Gold.Chemscore.Hbonds>
donor molecule, donor type, donor heavy atom, donor atom, acceptor molecule, acceptor atom, score
      L1  H     9    28       P1  8028  0.99
      P1  H  7989  7998       L1     1  0.97
      L1  C    17    32       P1  8028  0.89

> <Gold.PLP.Chemscore.Internal.Correction>
0.0237

> <Gold.Rescore>
     Score         DG    S(hbond)    S(metal)    S(lipo)     H(rot)  DE(clash)    DE(int)     intcor
     14.05     -16.64       1.71        0.00      91.29       2.05       1.13       1.46       ----

> <Gold.Chemscore.Fitness>
14.0496

> <Gold.Chemscore.DG>
-16.6419

> <Gold.Chemscore.ZeroCoef>
-5.4800

> <Gold.Chemscore.Hbond>
1.7121

> <Gold.Chemscore.Metal>
0.0000

> <Gold.Chemscore.Lipo>
91.2877

> <Gold.Chemscore.Internal_Hbond>
0.0000

> <Gold.Chemscore.DEClash>
1.1295

> <Gold.Chemscore.DEInternal>
1.4628

> <Gold.Chemscore.Rot>
2.0457

> <Gold.Chemscore.Internal.Correction>
   9.000000E+99

> <Gold.Chemscore.Hbonds>
donor molecule, donor type, donor heavy atom, donor atom, acceptor molecule, acceptor atom, score
      L1  H     9    28       P1  8028  0.28
      P1  H  7989  7998       L1     1  0.80

> <Gold.Chemscore.Hbond.Weighted>
-5.7183

> <Gold.Chemscore.Metal.Weighted>
-0.0000

> <Gold.Chemscore.Lipo.Weighted>
-10.6807

> <Gold.Chemscore.Internal_Hbond.Weighted>
0.0000

> <Gold.Chemscore.DEClash.Weighted>
1.1295

> <Gold.Chemscore.DEInternal.Weighted>
1.4628

> <Gold.Chemscore.Rot.Weighted>
5.2371

> <Gold.Chemscore.Internal.Correction.Weighted>
   9.000000E+99

> <Gold.Protein.RotatedTorsions>
[ 6907 6896 6895 6894 ] final  -40.56 input  -60.11 | X-H torsion
[ 7974 7965 7964 7962 ] final  123.51 input  175.53 | X-H torsion
[ 8008 7997 7996 7995 ] final  -56.61 input   59.86 | X-H torsion
[ 10167 10162 10161 10158 ] final   -5.29 input  -65.29 | X-H torsion
[ 10718 10713 10712 10709 ] final   16.44 input   66.30 | X-H torsion
[ 10763 10752 10751 10750 ] final   72.38 input  -60.55 | X-H torsion
[ 11005 11000 10999 10996 ] final -179.99 input  -57.11 | X-H torsion

> <Gold.Protein.ActiveResidues>
 VAL166  LYS551  ARG553  GLY616  TRP617  ASP618  TYR619  PRO620  LYS621  CYS622 
 ASP623  PHE694  ASN695  SER759  ASP760  ASP761  ALA762  ILE779  LEU786  VAL792 
 PHE793  MET794  SER795  GLU796  ALA797  LYS798  CYS799  TRP800  GLU811  SER814 

> <Gold.Protein.RotatedAtoms>
  150.9770  134.9132  159.7821 H   0  0  0  0  0  0  0  0  0  0  0  0  # atno 6907 bound_to 6896
  152.5209  134.3463  159.9245 H   0  0  0  0  0  0  0  0  0  0  0  0  # atno 6908 bound_to 6896
  151.3470  133.3899  159.2711 H   0  0  0  0  0  0  0  0  0  0  0  0  # atno 6909 bound_to 6896
  145.0951  139.3559  143.4841 H   0  0  0  0  0  0  0  0  0  0  0  0  # atno 7974 bound_to 7965
  154.4236  140.1126  156.5665 H   0  0  0  0  0  0  0  0  0  0  0  0  # atno 8008 bound_to 7997
  155.6256  140.3495  155.4647 H   0  0  0  0  0  0  0  0  0  0  0  0  # atno 8009 bound_to 7997
  155.9989  140.1195  157.0556 H   0  0  0  0  0  0  0  0  0  0  0  0  # atno 8010 bound_to 7997
  140.6958  143.6325  150.8509 H   0  0  0  0  0  0  0  0  0  0  0  0  # atno 10167 bound_to 10162
  157.0679  130.6336  149.5799 H   0  0  0  0  0  0  0  0  0  0  0  0  # atno 10718 bound_to 10713
  153.0455  135.5102  154.7735 H   0  0  0  0  0  0  0  0  0  0  0  0  # atno 10763 bound_to 10752
  154.6638  135.2942  154.9834 H   0  0  0  0  0  0  0  0  0  0  0  0  # atno 10764 bound_to 10752
  154.0676  135.6682  153.4872 H   0  0  0  0  0  0  0  0  0  0  0  0  # atno 10765 bound_to 10752
  140.4125  134.6679  157.4621 H   0  0  0  0  0  0  0  0  0  0  0  0  # atno 11005 bound_to 11000
  146.3531  140.0802  142.8618 LP  0  0  0  0  0  0  0  0  0  0  0  0  # atno 17320 bound_to 7965
  145.1021  140.9352  143.4706 LP  0  0  0  0  0  0  0  0  0  0  0  0  # atno 17321 bound_to 7965
  140.0043  143.5710  152.2863 LP  0  0  0  0  0  0  0  0  0  0  0  0  # atno 17342 bound_to 10162
  139.6411  144.7654  151.2337 LP  0  0  0  0  0  0  0  0  0  0  0  0  # atno 17343 bound_to 10162
  155.9959  130.5027  150.7476 LP  0  0  0  0  0  0  0  0  0  0  0  0  # atno 17370 bound_to 10713
  157.4902  131.0910  151.0436 LP  0  0  0  0  0  0  0  0  0  0  0  0  # atno 17371 bound_to 10713
  140.0257  134.6480  155.9176 LP  0  0  0  0  0  0  0  0  0  0  0  0  # atno 17394 bound_to 11000
  141.1815  133.6547  156.5042 LP  0  0  0  0  0  0  0  0  0  0  0  0  # atno 17395 bound_to 11000

$$$$
