AV-unprocessed.smi:1978|AV-procd|sdf|7992|dock5
  -GOLD-   2272010173D 1   1.00000     0.00000
 Structure written by MMmdl.
 45 46  0  0  0  0  0  0  0  0  2 V2000
  151.1915  141.5909  156.6193 C   0  0  0  0  0  0  0  0  0  0  0  0
  151.1847  140.2778  155.9145 C   0  0  0  0  0  0  0  0  0  0  0  0
  150.1886  139.3970  155.5983 C   0  0  0  0  0  0  0  0  0  0  0  0
  150.8842  138.3549  154.9294 C   0  0  0  0  0  0  0  0  0  0  0  0
  150.1937  137.2197  154.4325 N   0  0  0  0  0  0  0  0  0  0  0  0
  149.7587  136.1572  155.1313 C   0  0  0  0  0  0  0  0  0  0  0  0
  149.9024  135.9988  156.3438 O   0  0  0  0  0  0  0  0  0  0  0  0
  149.1271  135.2769  154.3398 N   0  0  0  0  0  0  0  0  0  0  0  0
  148.5409  134.0122  154.7803 C   0  0  0  0  0  0  0  0  0  0  0  0
  147.6800  133.3182  153.6845 C   0  0  2  0  0  0  0  0  0  0  0  0
  148.5666  132.3731  152.8346 C   0  0  0  0  0  0  0  0  0  0  0  0
  146.9445  134.3002  152.8111 N   0  3  1  0  0  0  0  0  0  0  0  0
  146.1066  133.6597  151.7507 C   0  0  0  0  0  0  0  0  0  0  0  0
  145.5765  134.6894  150.7395 C   0  0  0  0  0  0  0  0  0  0  0  0
  144.7876  135.8010  151.4331 C   0  0  0  0  0  0  0  0  0  0  0  0
  145.6511  136.4317  152.5305 C   0  0  0  0  0  0  0  0  0  0  0  0
  146.1887  135.3828  153.5272 C   0  0  1  0  0  0  0  0  0  0  0  0
  145.0761  134.8456  154.4559 C   0  0  0  0  0  0  0  0  0  0  0  0
  152.1862  138.5800  154.8433 N   0  0  0  0  0  0  0  0  0  0  0  0
  152.3853  139.8139  155.4733 O   0  0  0  0  0  0  0  0  0  0  0  0
  150.2556  141.7496  157.1552 H   0  0  0  0  0  0  0  0  0  0  0  0
  151.3187  142.4083  155.9097 H   0  0  0  0  0  0  0  0  0  0  0  0
  152.0063  141.6391  157.3421 H   0  0  0  0  0  0  0  0  0  0  0  0
  149.1344  139.4869  155.8141 H   0  0  0  0  0  0  0  0  0  0  0  0
  150.0046  137.2223  153.4412 H   0  0  0  0  0  0  0  0  0  0  0  0
  149.0546  135.4924  153.3558 H   0  0  0  0  0  0  0  0  0  0  0  0
  149.3967  133.3994  155.0578 H   0  0  0  0  0  0  0  0  0  0  0  0
  147.9531  134.1454  155.6902 H   0  0  0  0  0  0  0  0  0  0  0  0
  146.9342  132.7037  154.1911 H   0  0  0  0  0  0  0  0  0  0  0  0
  149.1421  131.6839  153.4507 H   0  0  0  0  0  0  0  0  0  0  0  0
  149.2756  132.9378  152.2279 H   0  0  0  0  0  0  0  0  0  0  0  0
  147.9913  131.7293  152.1725 H   0  0  0  0  0  0  0  0  0  0  0  0
  146.6750  132.9344  151.1751 H   0  0  0  0  0  0  0  0  0  0  0  0
  145.2823  133.1098  152.2052 H   0  0  0  0  0  0  0  0  0  0  0  0
  146.4135  135.1235  150.1910 H   0  0  0  0  0  0  0  0  0  0  0  0
  144.9468  134.1942  149.9995 H   0  0  0  0  0  0  0  0  0  0  0  0
  144.4893  136.5585  150.7076 H   0  0  0  0  0  0  0  0  0  0  0  0
  143.8670  135.3990  151.8571 H   0  0  0  0  0  0  0  0  0  0  0  0
  146.4924  136.9483  152.0661 H   0  0  0  0  0  0  0  0  0  0  0  0
  145.0818  137.1986  153.0572 H   0  0  0  0  0  0  0  0  0  0  0  0
  146.8898  135.9409  154.1457 H   0  0  0  0  0  0  0  0  0  0  0  0
  144.5873  135.6669  154.9808 H   0  0  0  0  0  0  0  0  0  0  0  0
  145.4659  134.1719  155.2179 H   0  0  0  0  0  0  0  0  0  0  0  0
  144.3015  134.3079  153.9105 H   0  0  0  0  0  0  0  0  0  0  0  0
  147.6730  134.7893  152.3108 H   0  0  0  0  0  0  0  0  0  0  0  0
  1  2  1  0  0  0  0
  1 21  1  0  0  0  0
  1 22  1  0  0  0  0
  1 23  1  0  0  0  0
  2 20  1  0  0  0  0
  2  3  2  0  0  0  0
  3  4  1  0  0  0  0
  3 24  1  0  0  0  0
  4  5  1  0  0  0  0
  4 19  2  0  0  0  0
  5  6  1  0  0  0  0
  5 25  1  0  0  0  0
  6  7  2  0  0  0  0
  6  8  1  0  0  0  0
  8  9  1  0  0  0  0
  8 26  1  0  0  0  0
  9 10  1  0  0  0  0
  9 27  1  0  0  0  0
  9 28  1  0  0  0  0
 10 11  1  0  0  0  0
 10 12  1  0  0  0  0
 10 29  1  0  0  0  0
 11 30  1  0  0  0  0
 11 31  1  0  0  0  0
 11 32  1  0  0  0  0
 12 17  1  0  0  0  0
 12 13  1  0  0  0  0
 12 45  1  0  0  0  0
 13 14  1  0  0  0  0
 13 33  1  0  0  0  0
 13 34  1  0  0  0  0
 14 15  1  0  0  0  0
 14 35  1  0  0  0  0
 14 36  1  0  0  0  0
 15 16  1  0  0  0  0
 15 37  1  0  0  0  0
 15 38  1  0  0  0  0
 16 17  1  0  0  0  0
 16 39  1  0  0  0  0
 16 40  1  0  0  0  0
 17 18  1  0  0  0  0
 17 41  1  0  0  0  0
 18 42  1  0  0  0  0
 18 43  1  0  0  0  0
 18 44  1  0  0  0  0
 19 20  1  0  0  0  0
M  CHG  1  12   1
M  END
> <s_m_source_file>
AV-unprocessed.smi

> <i_m_source_file_index>
1978

> <i_lp_mmshare_version>
43012

> <i_f3d_flags>
0

> <s_epik_input>
W0NIM11jMVtjSF1jKG5vMSlbTkhdQyg9TylbTkhdW0NIMl1bQ0BIXShbQ0gzXSlOMltDSDJdW0NIMl1bQ0gyXVtDSDJdW0NASF0yW0NIM10=

> <s_epik_cmdline>
J2VwaWtfcHl0aG9uJywgJy1waCcsICc3LjAnLCAnLXRuJywgJzgnLCAnLW1hJywgJzIwMCcsICctbWV0YWxfYmluZGluZycsICctaW1hZScsICc8aW5maWxlLm1hZT4nLCAnLW9tYWUnLCAnPG91dGZpbGUubWFlPic=

> <r_epik_Ionization_Penalty>
0.00265971

> <r_epik_Ionization_Penalty_Charging>
0.00262393

> <r_epik_Ionization_Penalty_Neutral>
3.57846e-05

> <r_epik_State_Penalty>
0.00182566

> <r_epik_Charging_Adjusted_Penalty>
0.00444959

> <i_epik_Tot_Q>
1

> <i_epik_Tot_abs_Q>
1

> <r_epik_Metal_State_Penalty>
0.0216344

> <b_epik_Metal_Only>
0

> <s_lp_Force_Field>
OPLS_2005

> <r_lp_Energy>
24.7796

> <b_lp_Chiralities_Consistent>
1

> <s_lp_Variant>
AV-unprocessed.smi:1978-1

> <Gold.Version>
5.8.1

> <Gold.Id.Protein>
6NUR|6NUR_protein|mol2

> <Gold.PLP.Fitness>
41.6058

> <Gold.PLP.PLP>
-29.6161

> <Gold.PLP.part.hbond>
-5.0567

> <Gold.PLP.part.metal>
0.0000

> <Gold.PLP.part.buried>
-2.8045

> <Gold.PLP.part.nonpolar>
-21.5608

> <Gold.PLP.part.repulsive>
0.1387

> <Gold.PLP.ligand.clash>
0.0000

> <Gold.PLP.ligand.torsion>
1.1414

> <Gold.PLP.Chemscore.Hbond>
4.7265

> <Gold.PLP.Chemscore.CHOScore>
0.0000

> <Gold.PLP.Chemscore.Metal>
0.0000

> <Gold.Chemscore.Hbonds>
donor molecule, donor type, donor heavy atom, donor atom, acceptor molecule, acceptor atom, score
      L1  H     5    25       P1  7948  0.76
      L1  H     8    26       P1  7948  1.00
      L1  H    12    45       P1  7948  2.00
      P1  H  7989  7998       L1    20  0.01
      P1  H  7997  8008       L1    20  0.80

> <Gold.PLP.Chemscore.Internal.Correction>
0.0929

> <Gold.Rescore>
     Score         DG    S(hbond)    S(metal)    S(lipo)     H(rot)  DE(clash)    DE(int)     intcor
     16.38     -18.60       3.07        0.00      58.30       1.55       0.52       1.71       ----

> <Gold.Chemscore.Fitness>
16.3784

> <Gold.Chemscore.DG>
-18.6022

> <Gold.Chemscore.ZeroCoef>
-5.4800

> <Gold.Chemscore.Hbond>
3.0724

> <Gold.Chemscore.Metal>
0.0000

> <Gold.Chemscore.Lipo>
58.3047

> <Gold.Chemscore.Internal_Hbond>
0.0000

> <Gold.Chemscore.DEClash>
0.5177

> <Gold.Chemscore.DEInternal>
1.7061

> <Gold.Chemscore.Rot>
1.5474

> <Gold.Chemscore.Internal.Correction>
   9.000000E+99

> <Gold.Chemscore.Hbonds>
donor molecule, donor type, donor heavy atom, donor atom, acceptor molecule, acceptor atom, score
      L1  H     5    25       P1  7948  0.26
      L1  H     8    26       P1  7948  0.60
      L1  H    12    45       P1  7948  0.81
      P1  H  7997  8008       L1    20  0.69

> <Gold.Chemscore.Hbond.Weighted>
-10.2618

> <Gold.Chemscore.Metal.Weighted>
-0.0000

> <Gold.Chemscore.Lipo.Weighted>
-6.8216

> <Gold.Chemscore.Internal_Hbond.Weighted>
0.0000

> <Gold.Chemscore.DEClash.Weighted>
0.5177

> <Gold.Chemscore.DEInternal.Weighted>
1.7061

> <Gold.Chemscore.Rot.Weighted>
3.9612

> <Gold.Chemscore.Internal.Correction.Weighted>
   9.000000E+99

> <Gold.Protein.RotatedTorsions>
[ 6907 6896 6895 6894 ] final -161.53 input  -60.11 | X-H torsion
[ 7974 7965 7964 7962 ] final  -30.02 input  175.53 | X-H torsion
[ 8008 7997 7996 7995 ] final  -22.26 input   59.86 | X-H torsion
[ 10167 10162 10161 10158 ] final  -44.52 input  -65.29 | X-H torsion
[ 10718 10713 10712 10709 ] final -104.18 input   66.30 | X-H torsion
[ 10763 10752 10751 10750 ] final  170.67 input  -60.55 | X-H torsion
[ 11005 11000 10999 10996 ] final   40.48 input  -57.11 | X-H torsion

> <Gold.Protein.ActiveResidues>
 VAL166  LYS551  ARG553  GLY616  TRP617  ASP618  TYR619  PRO620  LYS621  CYS622 
 ASP623  PHE694  ASN695  SER759  ASP760  ASP761  ALA762  ILE779  LEU786  VAL792 
 PHE793  MET794  SER795  GLU796  ALA797  LYS798  CYS799  TRP800  GLU811  SER814 

> <Gold.Protein.RotatedAtoms>
  151.3661  133.3872  159.2694 H   0  0  0  0  0  0  0  0  0  0  0  0  # atno 6907 bound_to 6896
  150.9687  134.9065  159.7785 H   0  0  0  0  0  0  0  0  0  0  0  0  # atno 6908 bound_to 6896
  152.5177  134.3622  159.9341 H   0  0  0  0  0  0  0  0  0  0  0  0  # atno 6909 bound_to 6896
  146.1173  140.5487  142.8751 H   0  0  0  0  0  0  0  0  0  0  0  0  # atno 7974 bound_to 7965
  154.4655  140.2012  156.0130 H   0  0  0  0  0  0  0  0  0  0  0  0  # atno 8008 bound_to 7997
  156.0918  140.3257  155.7797 H   0  0  0  0  0  0  0  0  0  0  0  0  # atno 8009 bound_to 7997
  155.4943  140.0548  157.2940 H   0  0  0  0  0  0  0  0  0  0  0  0  # atno 8010 bound_to 7997
  140.6893  143.2926  151.3508 H   0  0  0  0  0  0  0  0  0  0  0  0  # atno 10167 bound_to 10162
  156.0294  130.5503  150.7359 H   0  0  0  0  0  0  0  0  0  0  0  0  # atno 10718 bound_to 10713
  154.4009  135.2755  155.2097 H   0  0  0  0  0  0  0  0  0  0  0  0  # atno 10763 bound_to 10752
  154.4123  135.6019  153.5963 H   0  0  0  0  0  0  0  0  0  0  0  0  # atno 10764 bound_to 10752
  152.9831  135.5952  154.4277 H   0  0  0  0  0  0  0  0  0  0  0  0  # atno 10765 bound_to 10752
  140.1927  134.3967  155.8138 H   0  0  0  0  0  0  0  0  0  0  0  0  # atno 11005 bound_to 11000
  144.7565  140.5320  143.6765 LP  0  0  0  0  0  0  0  0  0  0  0  0  # atno 17320 bound_to 7965
  145.5539  139.1477  143.3379 LP  0  0  0  0  0  0  0  0  0  0  0  0  # atno 17321 bound_to 7965
  139.6281  144.0775  152.2452 LP  0  0  0  0  0  0  0  0  0  0  0  0  # atno 17342 bound_to 10162
  140.0240  144.6131  150.7542 LP  0  0  0  0  0  0  0  0  0  0  0  0  # atno 17343 bound_to 10162
  157.4940  131.0913  151.0393 LP  0  0  0  0  0  0  0  0  0  0  0  0  # atno 17370 bound_to 10713
  157.0792  130.5896  149.5417 LP  0  0  0  0  0  0  0  0  0  0  0  0  # atno 17371 bound_to 10713
  141.2226  133.7054  156.8122 LP  0  0  0  0  0  0  0  0  0  0  0  0  # atno 17394 bound_to 11000
  140.2142  134.8805  157.3307 LP  0  0  0  0  0  0  0  0  0  0  0  0  # atno 17395 bound_to 11000

$$$$
