#       Name:                AV-unprocessed.smi:663
#       Creating user name   scv26
#       Creation time:       Fri Mar 27 00:19:53 2020


#       File generated by GOLD software.
#

@<TRIPOS>MOLECULE
AV-unprocessed.smi:663
    36    37     1
SMALL
NO_CHARGES


@<TRIPOS>ATOM
      1 ****        -4.1361   0.3088  -0.0136 N.am           1 S1                 0.0000
      2 ****        -2.9942   0.2611  -0.7040 C.2            1 S1                 0.0000
      3 ****        -2.6033   1.2075  -1.3848 O.2            1 S1                 0.0000
      4 ****        -2.1856  -1.0410  -0.6166 C.3            1 S1                 0.0000
      5 ****        -0.6533  -0.8574  -0.7228 C.3            1 S1                 0.0000
      6 ****        -0.1741  -0.0025   0.3634 N.am           1 S1                 0.0000
      7 ****         0.9079   0.7876   0.3120 C.2            1 S1                 0.0000
      8 ****         1.6411   0.8743  -0.6727 O.2            1 S1                 0.0000
      9 ****         1.0734   1.4566   1.4644 N.am           1 S1                 0.0000
     10 ****         2.0924   2.3845   1.7951 C.2            1 S1                 0.0000
     11 ****         2.0631   2.9425   3.0112 N.2            1 S1                 0.0000
     12 ****         3.1160   3.8292   3.2026 N.2            1 S1                 0.0000
     13 ****         3.8988   3.9051   2.1218 C.2            1 S1                 0.0000
     14 ****         3.4290   2.9002   0.7622 S.3            1 S1                 0.0000
     15 ****         0.0424  -2.2080  -0.7608 C.3            1 S1                 0.0000
     16 ****         1.3194  -2.4149  -1.5409 C.3            1 S1                 0.0000
     17 ****         0.0329  -3.0518  -2.0135 C.3            1 S1                 0.0000
     18 ****        -4.7035   1.1435  -0.0440 H              1 S1                 0.0000
     19 ****        -4.4313  -0.4875   0.5324 H              1 S1                 0.0000
     20 ****        -2.4270  -1.5524   0.3167 H              1 S1                 0.0000
     21 ****        -2.5320  -1.6926  -1.4196 H              1 S1                 0.0000
     22 ****        -0.4464  -0.3592  -1.6726 H              1 S1                 0.0000
     23 ****        -0.7159  -0.0078   1.2153 H              1 S1                 0.0000
     24 ****         0.3914   1.2855   2.1886 H              1 S1                 0.0000
     25 ****         4.7593   4.5576   2.1256 H              1 S1                 0.0000
     26 ****        -0.0369  -2.7617   0.1731 H              1 S1                 0.0000
     27 ****         1.7048  -1.5779  -2.1198 H              1 S1                 0.0000
     28 ****         2.0738  -3.0660  -1.1039 H              1 S1                 0.0000
     29 ****        -0.0708  -4.1281  -1.8926 H              1 S1                 0.0000
     30 ****        -0.4344  -2.6349  -2.9035 H              1 S1                 0.0000
     31 ****        -3.1458   2.0461  -1.4335 LP             1 S1                 0.0000
     32 ****        -1.7429   1.1385  -1.8897 LP             1 S1                 0.0000
     33 ****         1.4425   0.3375  -1.4927 LP             1 S1                 0.0000
     34 ****         2.4353   1.4815  -0.6527 LP             1 S1                 0.0000
     35 ****         1.3661   2.7448   3.7006 LP             1 S1                 0.0000
     36 ****         3.2690   4.3464   4.0447 LP             1 S1                 0.0000
@<TRIPOS>BOND
    1    1    2 am    
    2    1   18 1     
    3    1   19 1     
    4    2    3 2     
    5    2    4 1     
    6    4    5 1     
    7    4   20 1     
    8    4   21 1     
    9    5    6 1     
   10    5   15 1     
   11    5   22 1     
   12    6    7 am    
   13    6   23 1     
   14    7    8 2     
   15    7    9 am    
   16    9   10 1     
   17    9   24 1     
   18   10   14 1     
   19   10   11 2     
   20   11   12 1     
   21   12   13 2     
   22   13   14 1     
   23   13   25 1     
   24   15   17 1     
   25   15   16 1     
   26   15   26 1     
   27   16   17 1     
   28   16   27 1     
   29   16   28 1     
   30   17   29 1     
   31   17   30 1     
   32    3   31 1     
   33    3   32 1     
   34    8   33 1     
   35    8   34 1     
   36   11   35 1     
   37   12   36 1     
@<TRIPOS>SUBSTRUCTURE
      1 S1             1
@<TRIPOS>SET
LONE_PAIRS      STATIC     ATOMS    <user>   **** ""
6 31 32 33 34 35 36
DONOR_HYDROGENS      STATIC     ATOMS    <user>   **** ""
4 18 19 23 24
ATOM$BLUE        STATIC     ATOMS    COLORGROUP SYSTEM
6 31 32 33 34 35 36
ATOM$RED        STATIC     ATOMS    COLORGROUP SYSTEM
4 18 19 23 24
