AV-unprocessed.smi:302|AV-procd|sdf|2273|dock2
  -GOLD-   2262022163D 1   1.00000     0.00000
 Structure written by MMmdl.
 44 45  0  0  0  0  0  0  0  0  1 V2000
  151.6624  145.4146  158.9295 C   0  0  0  0  0  0  0  0  0  0  0  0
  151.4264  144.6285  157.6380 C   0  0  0  0  0  0  0  0  0  0  0  0
  150.3174  143.7580  157.8299 O   0  0  0  0  0  0  0  0  0  0  0  0
  150.6314  142.3680  157.8819 C   0  0  1  0  0  0  0  0  0  0  0  0
  151.0918  141.9545  156.4690 C   0  0  0  0  0  0  0  0  0  0  0  0
  149.9595  141.8900  155.4324 C   0  0  0  0  0  0  0  0  0  0  0  0
  151.7137  142.1127  158.9460 C   0  0  0  0  0  0  0  0  0  0  0  0
  152.6942  141.4247  158.6630 O   0  0  0  0  0  0  0  0  0  0  0  0
  151.4945  142.6745  160.1492 N   0  0  0  0  0  0  0  0  0  0  0  0
  152.2964  142.6021  161.3200 C   0  0  0  0  0  0  0  0  0  0  0  0
  152.1388  143.4436  162.4468 C   0  0  0  0  0  0  0  0  0  0  0  0
  152.9902  143.2651  163.5538 C   0  0  0  0  0  0  0  0  0  0  0  0
  153.9648  142.2474  163.5062 C   0  0  0  0  0  0  0  0  0  0  0  0
  154.8189  142.0723  164.6039 N   0  0  0  0  0  0  0  0  0  0  0  0
  155.3782  140.7295  164.6950 C   0  0  0  0  0  0  0  0  0  0  0  0
  156.3998  140.6620  165.8433 C   0  0  0  0  0  0  0  0  0  0  0  0
  155.7819  141.0766  167.0586 O   0  0  0  0  0  0  0  0  0  0  0  0
  155.3013  142.4162  166.9847 C   0  0  0  0  0  0  0  0  0  0  0  0
  154.2498  142.5255  165.8671 C   0  0  0  0  0  0  0  0  0  0  0  0
  154.1103  141.4274  162.4385 N   0  0  0  0  0  0  0  0  0  0  0  0
  153.2908  141.6039  161.3807 C   0  0  0  0  0  0  0  0  0  0  0  0
  152.5145  146.0867  158.8265 H   0  0  0  0  0  0  0  0  0  0  0  0
  151.8638  144.7444  159.7653 H   0  0  0  0  0  0  0  0  0  0  0  0
  150.7903  146.0171  159.1851 H   0  0  0  0  0  0  0  0  0  0  0  0
  151.2451  145.3238  156.8177 H   0  0  0  0  0  0  0  0  0  0  0  0
  152.3175  144.0501  157.3901 H   0  0  0  0  0  0  0  0  0  0  0  0
  149.7266  141.8076  158.1262 H   0  0  0  0  0  0  0  0  0  0  0  0
  151.8360  142.6714  156.1210 H   0  0  0  0  0  0  0  0  0  0  0  0
  151.6033  140.9916  156.5077 H   0  0  0  0  0  0  0  0  0  0  0  0
  150.3542  141.6476  154.4456 H   0  0  0  0  0  0  0  0  0  0  0  0
  149.4415  142.8461  155.3567 H   0  0  0  0  0  0  0  0  0  0  0  0
  149.2228  141.1273  155.6857 H   0  0  0  0  0  0  0  0  0  0  0  0
  150.6100  143.1492  160.2587 H   0  0  0  0  0  0  0  0  0  0  0  0
  151.3804  144.2094  162.4904 H   0  0  0  0  0  0  0  0  0  0  0  0
  152.8927  143.8979  164.4239 H   0  0  0  0  0  0  0  0  0  0  0  0
  154.5792  140.0068  164.8683 H   0  0  0  0  0  0  0  0  0  0  0  0
  155.8566  140.4631  163.7516 H   0  0  0  0  0  0  0  0  0  0  0  0
  156.7668  139.6425  165.9609 H   0  0  0  0  0  0  0  0  0  0  0  0
  157.2661  141.2904  165.6305 H   0  0  0  0  0  0  0  0  0  0  0  0
  154.8613  142.6900  167.9436 H   0  0  0  0  0  0  0  0  0  0  0  0
  156.1311  143.1025  166.8070 H   0  0  0  0  0  0  0  0  0  0  0  0
  153.9105  143.5576  165.7707 H   0  0  0  0  0  0  0  0  0  0  0  0
  153.3784  141.9198  166.1198 H   0  0  0  0  0  0  0  0  0  0  0  0
  153.4403  140.9277  160.5517 H   0  0  0  0  0  0  0  0  0  0  0  0
  1  2  1  0  0  0  0
  1 22  1  0  0  0  0
  1 23  1  0  0  0  0
  1 24  1  0  0  0  0
  2  3  1  0  0  0  0
  2 25  1  0  0  0  0
  2 26  1  0  0  0  0
  3  4  1  0  0  0  0
  4  5  1  0  0  0  0
  4  7  1  0  0  0  0
  4 27  1  0  0  0  0
  5  6  1  0  0  0  0
  5 28  1  0  0  0  0
  5 29  1  0  0  0  0
  6 30  1  0  0  0  0
  6 31  1  0  0  0  0
  6 32  1  0  0  0  0
  7  8  2  0  0  0  0
  7  9  1  0  0  0  0
  9 10  1  0  0  0  0
  9 33  1  0  0  0  0
 10 21  1  0  0  0  0
 10 11  2  0  0  0  0
 11 12  1  0  0  0  0
 11 34  1  0  0  0  0
 12 13  2  0  0  0  0
 12 35  1  0  0  0  0
 13 14  1  0  0  0  0
 13 20  1  0  0  0  0
 14 19  1  0  0  0  0
 14 15  1  0  0  0  0
 15 16  1  0  0  0  0
 15 36  1  0  0  0  0
 15 37  1  0  0  0  0
 16 17  1  0  0  0  0
 16 38  1  0  0  0  0
 16 39  1  0  0  0  0
 17 18  1  0  0  0  0
 18 19  1  0  0  0  0
 18 40  1  0  0  0  0
 18 41  1  0  0  0  0
 19 42  1  0  0  0  0
 19 43  1  0  0  0  0
 20 21  2  0  0  0  0
 21 44  1  0  0  0  0
M  END
> <s_m_source_file>
AV-unprocessed.smi

> <i_m_source_file_index>
302

> <i_lp_mmshare_version>
43012

> <i_f3d_flags>
0

> <s_epik_input>
W0NIM11bQ0gyXU9bQ0BIXShbQ0gyXVtDSDNdKUMoPU8pW05IXWMxW2NIXVtjSF1jKG5bY0hdMSlOMltDSDJdW0NIMl1PW0NIMl1bQ0gyXTI=

> <s_epik_cmdline>
J2VwaWtfcHl0aG9uJywgJy1waCcsICc3LjAnLCAnLXRuJywgJzgnLCAnLW1hJywgJzIwMCcsICctbWV0YWxfYmluZGluZycsICctaW1hZScsICc8aW5maWxlLm1hZT4nLCAnLW9tYWUnLCAnPG91dGZpbGUubWFlPic=

> <r_lp_tautomer_probability>
1

> <r_epik_Ionization_Penalty>
0.000497413

> <r_epik_Ionization_Penalty_Charging>
0

> <r_epik_Ionization_Penalty_Neutral>
0.000497413

> <r_epik_State_Penalty>
0.000308489

> <r_epik_Charging_Adjusted_Penalty>
0.000308489

> <i_epik_Tot_Q>
0

> <i_epik_Tot_abs_Q>
0

> <r_epik_Metal_State_Penalty>
-0

> <b_epik_Metal_Only>
0

> <s_lp_Force_Field>
OPLS_2005

> <r_lp_Energy>
26.1218

> <b_lp_Chiralities_Consistent>
1

> <s_lp_Variant>
AV-unprocessed.smi:302-2

> <Gold.Version>
5.8.1

> <Gold.Id.Protein>
6NUR|6NUR_protein|mol2

> <Gold.PLP.Fitness>
40.8692

> <Gold.PLP.PLP>
-44.0716

> <Gold.PLP.part.hbond>
-2.3132

> <Gold.PLP.part.metal>
0.0000

> <Gold.PLP.part.buried>
-3.5581

> <Gold.PLP.part.nonpolar>
-37.0832

> <Gold.PLP.part.repulsive>
0.4324

> <Gold.PLP.ligand.clash>
0.5149

> <Gold.PLP.ligand.torsion>
1.4562

> <Gold.PLP.Chemscore.Hbond>
0.0000

> <Gold.PLP.Chemscore.CHOScore>
0.0000

> <Gold.PLP.Chemscore.Metal>
0.0000

> <Gold.PLP.Chemscore.Internal.Correction>
0.2250

> <Gold.Rescore>
     Score         DG    S(hbond)    S(metal)    S(lipo)     H(rot)  DE(clash)    DE(int)     intcor
     10.78     -13.98       0.00        0.00     108.26       1.63       0.18       3.02       ----

> <Gold.Chemscore.Fitness>
10.7835

> <Gold.Chemscore.DG>
-13.9841

> <Gold.Chemscore.ZeroCoef>
-5.4800

> <Gold.Chemscore.Hbond>
0.0000

> <Gold.Chemscore.Metal>
0.0000

> <Gold.Chemscore.Lipo>
108.2620

> <Gold.Chemscore.Internal_Hbond>
0.0000

> <Gold.Chemscore.DEClash>
0.1842

> <Gold.Chemscore.DEInternal>
3.0164

> <Gold.Chemscore.Rot>
1.6260

> <Gold.Chemscore.Internal.Correction>
   9.000000E+99

> <Gold.Chemscore.Hbond.Weighted>
-0.0000

> <Gold.Chemscore.Metal.Weighted>
-0.0000

> <Gold.Chemscore.Lipo.Weighted>
-12.6667

> <Gold.Chemscore.Internal_Hbond.Weighted>
0.0000

> <Gold.Chemscore.DEClash.Weighted>
0.1842

> <Gold.Chemscore.DEInternal.Weighted>
3.0164

> <Gold.Chemscore.Rot.Weighted>
4.1626

> <Gold.Chemscore.Internal.Correction.Weighted>
   9.000000E+99

> <Gold.Protein.RotatedTorsions>
[ 6907 6896 6895 6894 ] final  113.36 input  -60.11 | X-H torsion
[ 7974 7965 7964 7962 ] final   20.89 input  175.53 | X-H torsion
[ 8008 7997 7996 7995 ] final  104.46 input   59.86 | X-H torsion
[ 10167 10162 10161 10158 ] final  165.87 input  -65.29 | X-H torsion
[ 10718 10713 10712 10709 ] final   81.99 input   66.30 | X-H torsion
[ 10763 10752 10751 10750 ] final -126.08 input  -60.55 | X-H torsion
[ 11005 11000 10999 10996 ] final   34.87 input  -57.11 | X-H torsion

> <Gold.Protein.ActiveResidues>
 VAL166  LYS551  ARG553  GLY616  TRP617  ASP618  TYR619  PRO620  LYS621  CYS622 
 ASP623  PHE694  ASN695  SER759  ASP760  ASP761  ALA762  ILE779  LEU786  VAL792 
 PHE793  MET794  SER795  GLU796  ALA797  LYS798  CYS799  TRP800  GLU811  SER814 

> <Gold.Protein.RotatedAtoms>
  152.4865  133.8386  159.7140 H   0  0  0  0  0  0  0  0  0  0  0  0  # atno 6907 bound_to 6896
  150.8956  133.7176  159.2899 H   0  0  0  0  0  0  0  0  0  0  0  0  # atno 6908 bound_to 6896
  151.4635  135.1044  159.9783 H   0  0  0  0  0  0  0  0  0  0  0  0  # atno 6909 bound_to 6896
  146.2093  139.8105  142.8701 H   0  0  0  0  0  0  0  0  0  0  0  0  # atno 7974 bound_to 7965
  156.1575  140.3147  155.8750 H   0  0  0  0  0  0  0  0  0  0  0  0  # atno 8008 bound_to 7997
  155.3849  140.0490  157.3059 H   0  0  0  0  0  0  0  0  0  0  0  0  # atno 8009 bound_to 7997
  154.5115  140.2166  155.9159 H   0  0  0  0  0  0  0  0  0  0  0  0  # atno 8010 bound_to 7997
  139.4914  144.4087  151.9325 H   0  0  0  0  0  0  0  0  0  0  0  0  # atno 10167 bound_to 10162
  157.6846  131.0028  150.2308 H   0  0  0  0  0  0  0  0  0  0  0  0  # atno 10718 bound_to 10713
  154.8742  135.4008  154.3372 H   0  0  0  0  0  0  0  0  0  0  0  0  # atno 10763 bound_to 10752
  153.4177  135.7022  153.6321 H   0  0  0  0  0  0  0  0  0  0  0  0  # atno 10764 bound_to 10752
  153.4996  135.3730  155.2503 H   0  0  0  0  0  0  0  0  0  0  0  0  # atno 10765 bound_to 10752
  140.2485  134.3331  155.7899 H   0  0  0  0  0  0  0  0  0  0  0  0  # atno 11005 bound_to 11000
  145.3201  141.0241  143.3505 LP  0  0  0  0  0  0  0  0  0  0  0  0  # atno 17320 bound_to 7965
  144.8873  139.4822  143.6694 LP  0  0  0  0  0  0  0  0  0  0  0  0  # atno 17321 bound_to 7965
  140.3527  144.3069  150.5946 LP  0  0  0  0  0  0  0  0  0  0  0  0  # atno 17342 bound_to 10162
  140.5471  143.2213  151.7989 LP  0  0  0  0  0  0  0  0  0  0  0  0  # atno 17343 bound_to 10162
  156.2941  130.3749  149.7813 LP  0  0  0  0  0  0  0  0  0  0  0  0  # atno 17370 bound_to 10713
  156.5464  130.8322  151.3285 LP  0  0  0  0  0  0  0  0  0  0  0  0  # atno 17371 bound_to 10713
  141.2204  133.7339  156.8999 LP  0  0  0  0  0  0  0  0  0  0  0  0  # atno 17394 bound_to 11000
  140.1582  134.9184  157.2680 LP  0  0  0  0  0  0  0  0  0  0  0  0  # atno 17395 bound_to 11000

$$$$
