AV-unprocessed.smi:101|AV-procd|sdf|920|dock7
  -GOLD-   2262017423D 1   1.00000     0.00000
 Structure written by MMmdl.
 44 46  0  0  0  0  0  0  0  0  1 V2000
  145.2032  143.5641  157.9223 C   0  0  0  0  0  0  0  0  0  0  0  0
  145.4341  143.6110  156.4206 C   0  0  0  0  0  0  0  0  0  0  0  0
  146.2749  142.7534  155.7873 C   0  0  0  0  0  0  0  0  0  0  0  0
  146.5097  142.7736  154.4171 N   0  0  0  0  0  0  0  0  0  0  0  0
  147.4693  141.8132  153.7348 C   0  0  1  0  0  0  0  0  0  0  0  0
  148.6722  141.7673  154.4436 O   0  0  0  0  0  0  0  0  0  0  0  0
  148.7552  140.5471  155.1711 C   0  0  2  0  0  0  0  0  0  0  0  0
  150.2029  140.2432  155.5768 C   0  0  0  0  0  0  0  0  0  0  0  0
  150.5843  141.1853  156.5652 O   0  0  0  0  0  0  0  0  0  0  0  0
  151.6211  140.9347  157.3847 C   0  0  0  0  0  0  0  0  0  0  0  0
  152.2801  139.8935  157.3553 O   0  0  0  0  0  0  0  0  0  0  0  0
  151.8888  142.0564  158.3310 C   0  0  0  0  0  0  0  0  0  0  0  0
  151.5892  143.3822  157.9393 C   0  0  0  0  0  0  0  0  0  0  0  0
  151.8305  144.4599  158.8137 C   0  0  0  0  0  0  0  0  0  0  0  0
  152.3756  144.2252  160.0896 C   0  0  0  0  0  0  0  0  0  0  0  0
  152.6783  142.9111  160.4911 C   0  0  0  0  0  0  0  0  0  0  0  0
  152.4365  141.8321  159.6188 C   0  0  0  0  0  0  0  0  0  0  0  0
  148.0881  139.5448  154.2277 C   0  0  2  0  0  0  0  0  0  0  0  0
  148.9831  139.1405  153.2076 O   0  0  0  0  0  0  0  0  0  0  0  0
  146.9348  140.3584  153.6502 C   0  0  1  0  0  0  0  0  0  0  0  0
  145.7675  140.1289  154.4211 O   0  0  0  0  0  0  0  0  0  0  0  0
  145.8563  143.7377  153.6222 C   0  0  0  0  0  0  0  0  0  0  0  0
  146.0187  143.8149  152.4049 O   0  0  0  0  0  0  0  0  0  0  0  0
  144.9912  144.6165  154.2709 N   0  0  0  0  0  0  0  0  0  0  0  0
  144.7204  144.6265  155.6411 C   0  0  0  0  0  0  0  0  0  0  0  0
  143.9324  145.4525  156.0984 O   0  0  0  0  0  0  0  0  0  0  0  0
  144.5202  145.3056  153.7028 H   0  0  0  0  0  0  0  0  0  0  0  0
  145.8005  142.7875  158.4015 H   0  0  0  0  0  0  0  0  0  0  0  0
  144.1540  143.3612  158.1398 H   0  0  0  0  0  0  0  0  0  0  0  0
  145.4695  144.5179  158.3787 H   0  0  0  0  0  0  0  0  0  0  0  0
  146.7835  142.0256  156.4005 H   0  0  0  0  0  0  0  0  0  0  0  0
  147.6807  142.2543  152.7588 H   0  0  0  0  0  0  0  0  0  0  0  0
  148.1386  140.6237  156.0685 H   0  0  0  0  0  0  0  0  0  0  0  0
  150.2750  139.2392  155.9967 H   0  0  0  0  0  0  0  0  0  0  0  0
  150.8659  140.2933  154.7118 H   0  0  0  0  0  0  0  0  0  0  0  0
  151.1696  143.5868  156.9648 H   0  0  0  0  0  0  0  0  0  0  0  0
  151.5968  145.4678  158.5044 H   0  0  0  0  0  0  0  0  0  0  0  0
  152.5615  145.0520  160.7594 H   0  0  0  0  0  0  0  0  0  0  0  0
  153.0972  142.7294  161.4699 H   0  0  0  0  0  0  0  0  0  0  0  0
  152.6807  140.8365  159.9597 H   0  0  0  0  0  0  0  0  0  0  0  0
  147.7519  138.6503  154.7543 H   0  0  0  0  0  0  0  0  0  0  0  0
  148.9441  139.7716  152.5052 H   0  0  0  0  0  0  0  0  0  0  0  0
  146.7198  140.1011  152.6121 H   0  0  0  0  0  0  0  0  0  0  0  0
  145.0138  140.2699  153.8683 H   0  0  0  0  0  0  0  0  0  0  0  0
  1  2  1  0  0  0  0
  1 28  1  0  0  0  0
  1 29  1  0  0  0  0
  1 30  1  0  0  0  0
  2 25  1  0  0  0  0
  2  3  2  0  0  0  0
  3  4  1  0  0  0  0
  3 31  1  0  0  0  0
  4  5  1  0  0  0  0
  4 22  1  0  0  0  0
  5 20  1  0  0  0  0
  5  6  1  0  0  0  0
  5 32  1  0  0  0  0
  6  7  1  0  0  0  0
  7  8  1  0  0  0  0
  7 18  1  0  0  0  0
  7 33  1  0  0  0  0
  8  9  1  0  0  0  0
  8 34  1  0  0  0  0
  8 35  1  0  0  0  0
  9 10  1  0  0  0  0
 10 11  2  0  0  0  0
 10 12  1  0  0  0  0
 12 17  1  0  0  0  0
 12 13  2  0  0  0  0
 13 14  1  0  0  0  0
 13 36  1  0  0  0  0
 14 15  2  0  0  0  0
 14 37  1  0  0  0  0
 15 16  1  0  0  0  0
 15 38  1  0  0  0  0
 16 17  2  0  0  0  0
 16 39  1  0  0  0  0
 17 40  1  0  0  0  0
 18 19  1  0  0  0  0
 18 20  1  0  0  0  0
 18 41  1  0  0  0  0
 19 42  1  0  0  0  0
 20 21  1  0  0  0  0
 20 43  1  0  0  0  0
 21 44  1  0  0  0  0
 22 23  2  0  0  0  0
 22 24  1  0  0  0  0
 24 27  1  0  0  0  0
 24 25  1  0  0  0  0
 25 26  2  0  0  0  0
M  END
> <s_m_source_file>
AV-unprocessed.smi

> <i_m_source_file_index>
101

> <i_lp_mmshare_version>
43012

> <i_f3d_flags>
0

> <s_epik_input>
Tz1jMVtuSF1jKD1PKW4oW2NIXWMxW0NIM10pW0NAQEhdMk9bQ0BIXShbQ0BASF0oW09IXSlbQ0BIXTJbT0hdKVtDSDJdT0MoPU8pYzNbY0hdW2NIXVtjSF1bY0hdW2NIXTM=

> <s_epik_cmdline>
J2VwaWtfcHl0aG9uJywgJy1waCcsICc3LjAnLCAnLXRuJywgJzgnLCAnLW1hJywgJzIwMCcsICctbWV0YWxfYmluZGluZycsICctaW1hZScsICc8aW5maWxlLm1hZT4nLCAnLW9tYWUnLCAnPG91dGZpbGUubWFlPic=

> <r_lp_tautomer_probability>
0.999537

> <r_epik_Ionization_Penalty>
0.00263537

> <r_epik_Ionization_Penalty_Charging>
0.00263428

> <r_epik_Ionization_Penalty_Neutral>
1.09111e-06

> <r_epik_State_Penalty>
0.00183335

> <r_epik_Charging_Adjusted_Penalty>
0.00446763

> <i_epik_Tot_Q>
0

> <i_epik_Tot_abs_Q>
0

> <r_epik_Metal_State_Penalty>
1.00528

> <b_epik_Metal_Only>
0

> <s_epik_Chemistry_Notes>
This compound has an ester and may undergo hydrolysis at high or low pH. This compound contains an acetal/aminal-like group ( X-CH(R)-Y where X, Y are N, S, or O) that may be acid/base labile, releasing an aldehyde.

> <s_lp_Force_Field>
OPLS_2005

> <r_lp_Energy>
36.6069

> <b_lp_Chiralities_Consistent>
1

> <s_lp_Variant>
AV-unprocessed.smi:101-8

> <Gold.Version>
5.8.1

> <Gold.Id.Protein>
6NUR|6NUR_protein|mol2

> <Gold.PLP.Fitness>
50.4663

> <Gold.PLP.PLP>
-44.3868

> <Gold.PLP.part.hbond>
-3.1809

> <Gold.PLP.part.metal>
0.0000

> <Gold.PLP.part.buried>
-4.8979

> <Gold.PLP.part.nonpolar>
-36.8110

> <Gold.PLP.part.repulsive>
0.5485

> <Gold.PLP.ligand.clash>
0.0000

> <Gold.PLP.ligand.torsion>
0.7690

> <Gold.PLP.Chemscore.Hbond>
2.5178

> <Gold.PLP.Chemscore.CHOScore>
0.0000

> <Gold.PLP.Chemscore.Metal>
0.0000

> <Gold.Chemscore.Hbonds>
donor molecule, donor type, donor heavy atom, donor atom, acceptor molecule, acceptor atom, score
      L1  H    19    42       P1  7957  0.76
      L1  H    21    44       P1 10175  1.00
      P1  H  7997  8010       L1    11  0.52

> <Gold.PLP.Chemscore.Internal.Correction>
0.0643

> <Gold.Rescore>
     Score         DG    S(hbond)    S(metal)    S(lipo)     H(rot)  DE(clash)    DE(int)     intcor
     13.95     -16.05       2.31        0.00      96.94       3.32       0.50       1.61       ----

> <Gold.Chemscore.Fitness>
13.9497

> <Gold.Chemscore.DG>
-16.0542

> <Gold.Chemscore.ZeroCoef>
-5.4800

> <Gold.Chemscore.Hbond>
2.3126

> <Gold.Chemscore.Metal>
0.0000

> <Gold.Chemscore.Lipo>
96.9406

> <Gold.Chemscore.Internal_Hbond>
0.0000

> <Gold.Chemscore.DEClash>
0.4974

> <Gold.Chemscore.DEInternal>
1.6071

> <Gold.Chemscore.Rot>
3.3172

> <Gold.Chemscore.Internal.Correction>
   9.000000E+99

> <Gold.Chemscore.Hbonds>
donor molecule, donor type, donor heavy atom, donor atom, acceptor molecule, acceptor atom, score
      L1  H    19    42       P1  7957  0.72
      L1  H    21    44       P1 10175  0.99
      P1  H  7997  8010       L1    11  0.48

> <Gold.Chemscore.Hbond.Weighted>
-7.7242

> <Gold.Chemscore.Metal.Weighted>
-0.0000

> <Gold.Chemscore.Lipo.Weighted>
-11.3420

> <Gold.Chemscore.Internal_Hbond.Weighted>
0.0000

> <Gold.Chemscore.DEClash.Weighted>
0.4974

> <Gold.Chemscore.DEInternal.Weighted>
1.6071

> <Gold.Chemscore.Rot.Weighted>
8.4920

> <Gold.Chemscore.Internal.Correction.Weighted>
   9.000000E+99

> <Gold.Protein.RotatedTorsions>
[ 6907 6896 6895 6894 ] final   49.42 input  -60.11 | X-H torsion
[ 7974 7965 7964 7962 ] final -154.58 input  175.53 | X-H torsion
[ 8008 7997 7996 7995 ] final   56.61 input   59.86 | X-H torsion
[ 10167 10162 10161 10158 ] final   32.49 input  -65.29 | X-H torsion
[ 10718 10713 10712 10709 ] final -146.19 input   66.30 | X-H torsion
[ 10763 10752 10751 10750 ] final  105.93 input  -60.55 | X-H torsion
[ 11005 11000 10999 10996 ] final   32.96 input  -57.11 | X-H torsion

> <Gold.Protein.ActiveResidues>
 VAL166  LYS551  ARG553  GLY616  TRP617  ASP618  TYR619  PRO620  LYS621  CYS622 
 ASP623  PHE694  ASN695  SER759  ASP760  ASP761  ALA762  ILE779  LEU786  VAL792 
 PHE793  MET794  SER795  GLU796  ALA797  LYS798  CYS799  TRP800  GLU811  SER814 

> <Gold.Protein.RotatedAtoms>
  152.2906  134.7726  160.0378 H   0  0  0  0  0  0  0  0  0  0  0  0  # atno 6907 bound_to 6896
  151.8274  133.3398  159.3611 H   0  0  0  0  0  0  0  0  0  0  0  0  # atno 6908 bound_to 6896
  150.7228  134.5445  159.5808 H   0  0  0  0  0  0  0  0  0  0  0  0  # atno 6909 bound_to 6896
  144.7682  140.4369  143.5926 H   0  0  0  0  0  0  0  0  0  0  0  0  # atno 7974 bound_to 7965
  155.5202  140.3479  155.4405 H   0  0  0  0  0  0  0  0  0  0  0  0  # atno 8008 bound_to 7997
  156.0789  140.1381  156.9764 H   0  0  0  0  0  0  0  0  0  0  0  0  # atno 8009 bound_to 7997
  154.4569  140.0950  156.6758 H   0  0  0  0  0  0  0  0  0  0  0  0  # atno 8010 bound_to 7997
  140.4494  144.1070  150.6189 H   0  0  0  0  0  0  0  0  0  0  0  0  # atno 10167 bound_to 10162
  156.3918  130.7889  151.2092 H   0  0  0  0  0  0  0  0  0  0  0  0  # atno 10718 bound_to 10713
  153.3860  135.3894  155.1890 H   0  0  0  0  0  0  0  0  0  0  0  0  # atno 10763 bound_to 10752
  154.8713  135.3737  154.4797 H   0  0  0  0  0  0  0  0  0  0  0  0  # atno 10764 bound_to 10752
  153.5279  135.7086  153.5759 H   0  0  0  0  0  0  0  0  0  0  0  0  # atno 10765 bound_to 10752
  140.2681  134.3114  155.7836 H   0  0  0  0  0  0  0  0  0  0  0  0  # atno 11005 bound_to 11000
  145.6403  139.1549  143.2919 LP  0  0  0  0  0  0  0  0  0  0  0  0  # atno 17320 bound_to 7965
  146.1808  140.6500  142.9190 LP  0  0  0  0  0  0  0  0  0  0  0  0  # atno 17321 bound_to 7965
  140.4225  143.2605  151.9697 LP  0  0  0  0  0  0  0  0  0  0  0  0  # atno 17342 bound_to 10162
  139.4795  144.5818  151.7920 LP  0  0  0  0  0  0  0  0  0  0  0  0  # atno 17343 bound_to 10162
  157.7499  131.0313  150.4177 LP  0  0  0  0  0  0  0  0  0  0  0  0  # atno 17370 bound_to 10713
  156.4439  130.3997  149.6679 LP  0  0  0  0  0  0  0  0  0  0  0  0  # atno 17371 bound_to 10713
  141.2181  133.7450  156.9292 LP  0  0  0  0  0  0  0  0  0  0  0  0  # atno 17394 bound_to 11000
  140.1400  134.9300  157.2453 LP  0  0  0  0  0  0  0  0  0  0  0  0  # atno 17395 bound_to 11000

$$$$
