#       Name:                AV-unprocessed.smi:1835
#       Creating user name   scv26
#       Creation time:       Fri Mar 27 09:17:15 2020


#       File generated by GOLD software.
#

@<TRIPOS>MOLECULE
AV-unprocessed.smi:1835
    48    49     1
SMALL
NO_CHARGES


@<TRIPOS>ATOM
      1 ****        -0.9744   0.7557   0.7609 C.3            1 S1                 0.0000
      2 ****        -1.3432  -0.6940   0.3682 C.3            1 S1                 0.0000
      3 ****        -0.0946  -1.4594  -0.1544 C.3            1 S1                 0.0000
      4 ****         0.5516  -0.7877  -1.2791 N.am           1 S1                 0.0000
      5 ****         1.6974  -0.0916  -1.2179 C.2            1 S1                 0.0000
      6 ****         2.3586   0.0331  -0.1866 O.2            1 S1                 0.0000
      7 ****         2.1634   0.5587  -2.5275 C.3            1 S1                 0.0000
      8 ****         2.8401   1.8492  -2.3161 N.am           1 S1                 0.0000
      9 ****         4.2475   1.8584  -2.3885 C.2            1 S1                 0.0000
     10 ****         4.9600   2.9823  -2.2119 C.2            1 S1                 0.0000
     11 ****         4.2466   4.2077  -1.9404 C.2            1 S1                 0.0000
     12 ****         2.9007   4.2099  -1.8663 C.2            1 S1                 0.0000
     13 ****         2.1177   2.9835  -2.0575 C.2            1 S1                 0.0000
     14 ****         0.8879   2.9753  -1.9891 O.2            1 S1                 0.0000
     15 ****        -2.0294  -1.3757   1.5154 N.4            1 S1                 1.0000
     16 ****        -3.4334  -0.9150   1.6984 C.3            1 S1                 0.0000
     17 ****        -4.0689  -1.5570   2.9417 C.3            1 S1                 0.0000
     18 ****        -4.0293  -2.9704   2.8152 O.3            1 S1                 0.0000
     19 ****        -2.6948  -3.4487   2.7394 C.3            1 S1                 0.0000
     20 ****        -1.9968  -2.8647   1.4987 C.3            1 S1                 0.0000
     21 ****        -0.5575   1.3090  -0.0799 H              1 S1                 0.0000
     22 ****        -0.2349   0.7685   1.5621 H              1 S1                 0.0000
     23 ****        -1.8318   1.3359   1.0958 H              1 S1                 0.0000
     24 ****        -2.0537  -0.6513  -0.4591 H              1 S1                 0.0000
     25 ****         0.6147  -1.6305   0.6575 H              1 S1                 0.0000
     26 ****        -0.3775  -2.4419  -0.5321 H              1 S1                 0.0000
     27 ****         0.0815  -0.8412  -2.1714 H              1 S1                 0.0000
     28 ****         2.8202  -0.1456  -3.0395 H              1 S1                 0.0000
     29 ****         1.3119   0.6957  -3.1970 H              1 S1                 0.0000
     30 ****         4.7063   0.9012  -2.5896 H              1 S1                 0.0000
     31 ****         6.0386   2.9696  -2.2688 H              1 S1                 0.0000
     32 ****         4.7949   5.1269  -1.7947 H              1 S1                 0.0000
     33 ****         2.3843   5.1361  -1.6614 H              1 S1                 0.0000
     34 ****        -3.4848   0.1665   1.8076 H              1 S1                 0.0000
     35 ****        -4.0191  -1.1699   0.8137 H              1 S1                 0.0000
     36 ****        -3.5555  -1.2415   3.8516 H              1 S1                 0.0000
     37 ****        -5.1079  -1.2414   3.0370 H              1 S1                 0.0000
     38 ****        -2.1509  -3.1909   3.6497 H              1 S1                 0.0000
     39 ****        -2.7146  -4.5371   2.6799 H              1 S1                 0.0000
     40 ****        -2.4772  -3.2323   0.5905 H              1 S1                 0.0000
     41 ****        -0.9715  -3.2332   1.5013 H              1 S1                 0.0000
     42 ****        -1.5214  -1.1028   2.3447 H              1 S1                 0.0000
     43 ****         2.0479  -0.3961   0.6615 LP             1 S1                 0.0000
     44 ****         3.2062   0.5636  -0.1972 LP             1 S1                 0.0000
     45 ****         0.3853   2.1214  -2.1242 LP             1 S1                 0.0000
     46 ****         0.3921   3.8225  -1.7984 LP             1 S1                 0.0000
     47 ****        -4.5175  -3.2360   1.9838 LP             1 S1                 0.0000
     48 ****        -4.4768  -3.3804   3.6099 LP             1 S1                 0.0000
@<TRIPOS>BOND
    1    1    2 1     
    2    1   21 1     
    3    1   22 1     
    4    1   23 1     
    5    2    3 1     
    6    2   15 1     
    7    2   24 1     
    8    3    4 1     
    9    3   25 1     
   10    3   26 1     
   11    4    5 am    
   12    4   27 1     
   13    5    6 2     
   14    5    7 1     
   15    7    8 1     
   16    7   28 1     
   17    7   29 1     
   18    8   13 am    
   19    8    9 1     
   20    9   10 2     
   21    9   30 1     
   22   10   11 1     
   23   10   31 1     
   24   11   12 2     
   25   11   32 1     
   26   12   13 1     
   27   12   33 1     
   28   13   14 2     
   29   15   20 1     
   30   15   16 1     
   31   15   42 1     
   32   16   17 1     
   33   16   34 1     
   34   16   35 1     
   35   17   18 1     
   36   17   36 1     
   37   17   37 1     
   38   18   19 1     
   39   19   20 1     
   40   19   38 1     
   41   19   39 1     
   42   20   40 1     
   43   20   41 1     
   44    6   43 1     
   45    6   44 1     
   46   14   45 1     
   47   14   46 1     
   48   18   47 1     
   49   18   48 1     
@<TRIPOS>SUBSTRUCTURE
      1 S1             1
@<TRIPOS>SET
LONE_PAIRS      STATIC     ATOMS    <user>   **** ""
6 43 44 45 46 47 48
DONOR_HYDROGENS      STATIC     ATOMS    <user>   **** ""
2 27 42
ATOM$BLUE        STATIC     ATOMS    COLORGROUP SYSTEM
6 43 44 45 46 47 48
ATOM$RED        STATIC     ATOMS    COLORGROUP SYSTEM
2 27 42
