AV-unprocessed.smi:34|AV-procd|sdf|237|dock3
  -GOLD-   2262015583D 1   1.00000     0.00000
 Structure written by MMmdl.
 54 58  0  0  0  0  0  0  0  0  2 V2000
  152.6885  140.0976  157.9783 O   0  0  0  0  0  0  0  0  0  0  0  0
  151.9857  140.9871  157.4936 C   0  0  0  0  0  0  0  0  0  0  0  0
  151.2241  140.9291  156.3718 N   0  5  0  0  0  0  0  0  0  0  0  0
  150.7781  139.7451  155.9261 C   0  0  0  0  0  0  0  0  0  0  0  0
  150.5797  139.5417  154.5986 N   0  0  0  0  0  0  0  0  0  0  0  0
  150.1437  138.3573  154.1540 C   0  0  0  0  0  0  0  0  0  0  0  0
  149.8533  137.2541  154.8500 N   0  0  0  0  0  0  0  0  0  0  0  0
  150.0558  137.4433  156.1862 C   0  0  0  0  0  0  0  0  0  0  0  0
  150.5154  138.6485  156.7923 C   0  0  0  0  0  0  0  0  0  0  0  0
  150.6168  138.5001  158.1679 N   0  0  0  0  0  0  0  0  0  0  0  0
  150.2229  137.2393  158.3318 C   0  0  0  0  0  0  0  0  0  0  0  0
  149.8735  136.5487  157.2283 N   0  0  0  0  0  0  0  0  0  0  0  0
  149.4112  135.1315  157.1519 C   0  0  2  0  0  0  0  0  0  0  0  0
  149.9967  134.5526  156.0283 O   0  0  0  0  0  0  0  0  0  0  0  0
  149.0856  133.6102  155.4886 C   0  0  2  0  0  0  0  0  0  0  0  0
  149.4522  133.2622  154.0404 C   0  0  0  0  0  0  0  0  0  0  0  0
  149.0619  131.9264  153.7661 O   0  0  0  0  0  0  0  0  0  0  0  0
  147.8655  131.6753  153.1999 C   0  0  0  0  0  0  0  0  0  0  0  0
  146.9960  132.5332  153.0330 O   0  0  0  0  0  0  0  0  0  0  0  0
  147.7012  130.2475  152.8008 C   0  0  0  0  0  0  0  0  0  0  0  0
  148.6875  129.3053  153.1748 C   0  0  0  0  0  0  0  0  0  0  0  0
  148.5609  127.9508  152.8102 C   0  0  0  0  0  0  0  0  0  0  0  0
  147.4459  127.5217  152.0671 C   0  0  0  0  0  0  0  0  0  0  0  0
  146.4573  128.4489  151.6892 C   0  0  0  0  0  0  0  0  0  0  0  0
  146.5825  129.8041  152.0528 C   0  0  0  0  0  0  0  0  0  0  0  0
  147.7233  134.2831  155.6732 C   0  0  2  0  0  0  0  0  0  0  0  0
  147.4733  135.1396  154.6816 F   0  0  0  0  0  0  0  0  0  0  0  0
  147.8823  135.0509  156.9806 C   0  0  1  0  0  0  0  0  0  0  0  0
  147.2722  134.3311  158.0327 O   0  0  0  0  0  0  0  0  0  0  0  0
  151.8697  142.2987  158.2234 C   0  0  0  0  0  0  0  0  0  0  0  0
  152.7716  142.6007  159.2692 C   0  0  0  0  0  0  0  0  0  0  0  0
  152.6959  143.8330  159.9471 C   0  0  0  0  0  0  0  0  0  0  0  0
  151.7228  144.7814  159.5800 C   0  0  0  0  0  0  0  0  0  0  0  0
  150.8285  144.4982  158.5309 C   0  0  0  0  0  0  0  0  0  0  0  0
  150.9037  143.2661  157.8523 C   0  0  0  0  0  0  0  0  0  0  0  0
  150.0091  138.2823  153.0853 H   0  0  0  0  0  0  0  0  0  0  0  0
  150.1859  136.7913  159.3139 H   0  0  0  0  0  0  0  0  0  0  0  0
  149.7776  134.6575  158.0642 H   0  0  0  0  0  0  0  0  0  0  0  0
  149.1343  132.7126  156.1080 H   0  0  0  0  0  0  0  0  0  0  0  0
  148.9694  133.9538  153.3484 H   0  0  0  0  0  0  0  0  0  0  0  0
  150.5291  133.3571  153.8961 H   0  0  0  0  0  0  0  0  0  0  0  0
  149.5535  129.6121  153.7439 H   0  0  0  0  0  0  0  0  0  0  0  0
  149.3209  127.2405  153.1009 H   0  0  0  0  0  0  0  0  0  0  0  0
  147.3491  126.4830  151.7872 H   0  0  0  0  0  0  0  0  0  0  0  0
  145.6003  128.1207  151.1195 H   0  0  0  0  0  0  0  0  0  0  0  0
  145.8049  130.4889  151.7473 H   0  0  0  0  0  0  0  0  0  0  0  0
  146.8992  133.5683  155.6800 H   0  0  0  0  0  0  0  0  0  0  0  0
  147.4351  136.0447  156.9221 H   0  0  0  0  0  0  0  0  0  0  0  0
  147.8965  133.7059  158.3688 H   0  0  0  0  0  0  0  0  0  0  0  0
  153.5256  141.8843  159.5621 H   0  0  0  0  0  0  0  0  0  0  0  0
  153.3864  144.0504  160.7483 H   0  0  0  0  0  0  0  0  0  0  0  0
  151.6651  145.7265  160.0992 H   0  0  0  0  0  0  0  0  0  0  0  0
  150.0858  145.2272  158.2425 H   0  0  0  0  0  0  0  0  0  0  0  0
  150.2153  143.0735  157.0421 H   0  0  0  0  0  0  0  0  0  0  0  0
  1  2  2  0  0  0  0
  2  3  1  0  0  0  0
  2 30  1  0  0  0  0
  3  4  1  0  0  0  0
  4  9  1  0  0  0  0
  4  5  2  0  0  0  0
  5  6  1  0  0  0  0
  6  7  2  0  0  0  0
  6 36  1  0  0  0  0
  7  8  1  0  0  0  0
  8 12  1  0  0  0  0
  8  9  2  0  0  0  0
  9 10  1  0  0  0  0
 10 11  2  0  0  0  0
 11 12  1  0  0  0  0
 11 37  1  0  0  0  0
 12 13  1  0  0  0  0
 13 28  1  0  0  0  0
 13 14  1  0  0  0  0
 13 38  1  0  0  0  0
 14 15  1  0  0  0  0
 15 16  1  0  0  0  0
 15 26  1  0  0  0  0
 15 39  1  0  0  0  0
 16 17  1  0  0  0  0
 16 40  1  0  0  0  0
 16 41  1  0  0  0  0
 17 18  1  0  0  0  0
 18 19  2  0  0  0  0
 18 20  1  0  0  0  0
 20 25  1  0  0  0  0
 20 21  2  0  0  0  0
 21 22  1  0  0  0  0
 21 42  1  0  0  0  0
 22 23  2  0  0  0  0
 22 43  1  0  0  0  0
 23 24  1  0  0  0  0
 23 44  1  0  0  0  0
 24 25  2  0  0  0  0
 24 45  1  0  0  0  0
 25 46  1  0  0  0  0
 26 27  1  0  0  0  0
 26 28  1  0  0  0  0
 26 47  1  0  0  0  0
 28 29  1  0  0  0  0
 28 48  1  0  0  0  0
 29 49  1  0  0  0  0
 30 35  1  0  0  0  0
 30 31  2  0  0  0  0
 31 32  1  0  0  0  0
 31 50  1  0  0  0  0
 32 33  2  0  0  0  0
 32 51  1  0  0  0  0
 33 34  1  0  0  0  0
 33 52  1  0  0  0  0
 34 35  2  0  0  0  0
 34 53  1  0  0  0  0
 35 54  1  0  0  0  0
M  CHG  1   3  -1
M  END
> <s_m_source_file>
AV-unprocessed.smi

> <i_m_source_file_index>
34

> <i_lp_mmshare_version>
43012

> <i_f3d_flags>
0

> <s_epik_input>
W2NIXTFbY0hdW2NIXVtjSF1bY0hdYzFDKD1PKVtOSF1jKG5bY0hdbjIpYyhjMjMpbltjSF1uM1tDQEBIXTRPW0NASF0oW0NAQEhdKEYpW0NASF00W09IXSlbQ0gyXU9DKD1PKWM1W2NIXVtjSF1bY0hdW2NIXVtjSF01

> <s_epik_cmdline>
J2VwaWtfcHl0aG9uJywgJy1waCcsICc3LjAnLCAnLXRuJywgJzgnLCAnLW1hJywgJzIwMCcsICctbWV0YWxfYmluZGluZycsICctaW1hZScsICc8aW5maWxlLm1hZT4nLCAnLW9tYWUnLCAnPG91dGZpbGUubWFlPic=

> <r_lp_tautomer_probability>
1

> <r_epik_Ionization_Penalty>
4.33227

> <r_epik_Ionization_Penalty_Charging>
3.41027

> <r_epik_Ionization_Penalty_Neutral>
0.922001

> <r_epik_State_Penalty>
3.41358

> <r_epik_Charging_Adjusted_Penalty>
6.82385

> <i_epik_Tot_Q>
-1

> <i_epik_Tot_abs_Q>
1

> <r_epik_Metal_State_Penalty>
0.496292

> <b_epik_Metal_Only>
1

> <s_epik_Chemistry_Notes>
This compound has an ester and may undergo hydrolysis at high or low pH. This compound contains an acetal/aminal-like group ( X-CH(R)-Y where X, Y are N, S, or O) that may be acid/base labile, releasing an aldehyde.

> <s_lp_Force_Field>
OPLS_2005

> <r_lp_Energy>
44.3344

> <b_lp_Chiralities_Consistent>
1

> <s_lp_Variant>
AV-unprocessed.smi:34-23

> <Gold.Version>
5.8.1

> <Gold.Id.Protein>
6NUR|6NUR_protein|mol2

> <Gold.PLP.Fitness>
58.0944

> <Gold.PLP.PLP>
-49.5086

> <Gold.PLP.part.hbond>
-2.0000

> <Gold.PLP.part.metal>
0.0000

> <Gold.PLP.part.buried>
-5.0594

> <Gold.PLP.part.nonpolar>
-41.8570

> <Gold.PLP.part.repulsive>
0.5388

> <Gold.PLP.ligand.clash>
0.0000

> <Gold.PLP.ligand.torsion>
1.6640

> <Gold.PLP.Chemscore.Hbond>
2.0000

> <Gold.PLP.Chemscore.CHOScore>
1.7060

> <Gold.PLP.Chemscore.Metal>
0.0000

> <Gold.Chemscore.Hbonds>
donor molecule, donor type, donor heavy atom, donor atom, acceptor molecule, acceptor atom, score
      P1  H  7989  7998       L1     5  1.00
      P1  H  7997  8009       L1     1  0.83
      L1  C     6    36       P1  7948  0.84
      L1  C     6    36       P1  7957  0.78

> <Gold.PLP.Chemscore.Internal.Correction>
0.7956

> <Gold.Rescore>
     Score         DG    S(hbond)    S(metal)    S(lipo)     H(rot)  DE(clash)    DE(int)     intcor
     11.70     -18.79       1.63        0.00     126.03       2.69       0.24       6.85       ----

> <Gold.Chemscore.Fitness>
11.7029

> <Gold.Chemscore.DG>
-18.7884

> <Gold.Chemscore.ZeroCoef>
-5.4800

> <Gold.Chemscore.Hbond>
1.6349

> <Gold.Chemscore.Metal>
0.0000

> <Gold.Chemscore.Lipo>
126.0291

> <Gold.Chemscore.Internal_Hbond>
0.0000

> <Gold.Chemscore.DEClash>
0.2367

> <Gold.Chemscore.DEInternal>
6.8489

> <Gold.Chemscore.Rot>
2.6944

> <Gold.Chemscore.Internal.Correction>
   9.000000E+99

> <Gold.Chemscore.Hbonds>
donor molecule, donor type, donor heavy atom, donor atom, acceptor molecule, acceptor atom, score
      P1  H  7989  7998       L1     5  0.74
      P1  H  7997  8009       L1     1  0.44

> <Gold.Chemscore.Hbond.Weighted>
-5.4606

> <Gold.Chemscore.Metal.Weighted>
-0.0000

> <Gold.Chemscore.Lipo.Weighted>
-14.7454

> <Gold.Chemscore.Internal_Hbond.Weighted>
0.0000

> <Gold.Chemscore.DEClash.Weighted>
0.2367

> <Gold.Chemscore.DEInternal.Weighted>
6.8489

> <Gold.Chemscore.Rot.Weighted>
6.8975

> <Gold.Chemscore.Internal.Correction.Weighted>
   9.000000E+99

> <Gold.Protein.RotatedTorsions>
[ 6907 6896 6895 6894 ] final  166.93 input  -60.11 | X-H torsion
[ 7974 7965 7964 7962 ] final   38.55 input  175.53 | X-H torsion
[ 8008 7997 7996 7995 ] final  166.41 input   59.86 | X-H torsion
[ 10167 10162 10161 10158 ] final -139.82 input  -65.29 | X-H torsion
[ 10718 10713 10712 10709 ] final  128.07 input   66.30 | X-H torsion
[ 10763 10752 10751 10750 ] final  138.77 input  -60.55 | X-H torsion
[ 11005 11000 10999 10996 ] final -151.80 input  -57.11 | X-H torsion

> <Gold.Protein.ActiveResidues>
 VAL166  LYS551  ARG553  GLY616  TRP617  ASP618  TYR619  PRO620  LYS621  CYS622 
 ASP623  PHE694  ASN695  SER759  ASP760  ASP761  ALA762  ILE779  LEU786  VAL792 
 PHE793  MET794  SER795  GLU796  ALA797  LYS798  CYS799  TRP800  GLU811  SER814 

> <Gold.Protein.RotatedAtoms>
  151.8712  133.3476  159.3735 H   0  0  0  0  0  0  0  0  0  0  0  0  # atno 6907 bound_to 6896
  150.7152  134.5111  159.5617 H   0  0  0  0  0  0  0  0  0  0  0  0  # atno 6908 bound_to 6896
  152.2644  134.8000  160.0476 H   0  0  0  0  0  0  0  0  0  0  0  0  # atno 6909 bound_to 6896
  146.1053  139.5758  142.9387 H   0  0  0  0  0  0  0  0  0  0  0  0  # atno 7974 bound_to 7965
  156.1721  140.1644  156.8429 H   0  0  0  0  0  0  0  0  0  0  0  0  # atno 8008 bound_to 7997
  154.5267  140.0766  156.8306 H   0  0  0  0  0  0  0  0  0  0  0  0  # atno 8009 bound_to 7997
  155.3491  140.3389  155.4241 H   0  0  0  0  0  0  0  0  0  0  0  0  # atno 8010 bound_to 7997
  139.8342  143.7406  152.2665 H   0  0  0  0  0  0  0  0  0  0  0  0  # atno 10167 bound_to 10162
  157.5277  131.1098  150.9057 H   0  0  0  0  0  0  0  0  0  0  0  0  # atno 10718 bound_to 10713
  153.8951  135.3028  155.3448 H   0  0  0  0  0  0  0  0  0  0  0  0  # atno 10763 bound_to 10752
  154.7697  135.4892  153.9628 H   0  0  0  0  0  0  0  0  0  0  0  0  # atno 10764 bound_to 10752
  153.1276  135.6796  153.9331 H   0  0  0  0  0  0  0  0  0  0  0  0  # atno 10765 bound_to 10752
  140.7257  134.3677  157.5176 H   0  0  0  0  0  0  0  0  0  0  0  0  # atno 11005 bound_to 11000
  145.5773  141.0387  143.2141 LP  0  0  0  0  0  0  0  0  0  0  0  0  # atno 17320 bound_to 7965
  144.7466  139.7304  143.7290 LP  0  0  0  0  0  0  0  0  0  0  0  0  # atno 17321 bound_to 7965
  139.7623  144.7502  151.0345 LP  0  0  0  0  0  0  0  0  0  0  0  0  # atno 17342 bound_to 10162
  140.7804  143.4737  151.0112 LP  0  0  0  0  0  0  0  0  0  0  0  0  # atno 17343 bound_to 10162
  156.9648  130.5469  149.5287 LP  0  0  0  0  0  0  0  0  0  0  0  0  # atno 17370 bound_to 10713
  156.0399  130.5483  150.8745 LP  0  0  0  0  0  0  0  0  0  0  0  0  # atno 17371 bound_to 10713
  139.8838  134.8985  156.2745 LP  0  0  0  0  0  0  0  0  0  0  0  0  # atno 17394 bound_to 11000
  140.9965  133.7177  156.0893 LP  0  0  0  0  0  0  0  0  0  0  0  0  # atno 17395 bound_to 11000

$$$$
