AV-unprocessed.smi:1215|AV-procd|sdf|5097|dock3
  -GOLD-   22720 4153D 1   1.00000     0.00000
 Structure written by MMmdl.
 46 47  0  0  0  0  0  0  0  0  2 V2000
  150.2916  142.5216  158.3027 C   0  0  0  0  0  0  0  0  0  0  0  0
  151.2155  142.5082  157.0792 C   0  0  0  0  0  0  0  0  0  0  0  0
  150.8836  141.4315  156.1668 N   0  0  0  0  0  0  0  0  0  0  0  0
  149.8448  141.3700  155.2594 C   0  0  0  0  0  0  0  0  0  0  0  0
  149.9598  140.1600  154.6439 C   0  0  0  0  0  0  0  0  0  0  0  0
  149.0898  139.6786  153.6334 N   0  0  0  0  0  0  0  0  0  0  0  0
  147.9460  138.9974  153.8071 C   0  0  0  0  0  0  0  0  0  0  0  0
  147.4727  138.6734  154.8962 O   0  0  0  0  0  0  0  0  0  0  0  0
  147.3694  138.6956  152.6346 N   0  0  0  0  0  0  0  0  0  0  0  0
  146.1182  137.9589  152.4914 C   0  0  0  0  0  0  0  0  0  0  0  0
  146.0547  136.7605  153.4618 C   0  0  0  0  0  0  0  0  0  0  0  0
  146.5781  135.4959  152.8686 N   0  3  1  0  0  0  0  0  0  0  0  0
  147.1000  134.5719  153.9178 C   0  0  0  0  0  0  0  0  0  0  0  0
  147.7564  133.3223  153.3151 C   0  0  0  0  0  0  0  0  0  0  0  0
  146.7660  132.5762  152.4223 C   0  0  0  0  0  0  0  0  0  0  0  0
  146.2434  133.5294  151.3459 C   0  0  0  0  0  0  0  0  0  0  0  0
  145.6118  134.8032  151.9517 C   0  0  2  0  0  0  0  0  0  0  0  0
  145.1185  135.6970  150.7939 C   0  0  0  0  0  0  0  0  0  0  0  0
  151.0950  139.5322  155.2311 C   0  0  0  0  0  0  0  0  0  0  0  0
  151.6463  140.3105  156.1499 N   0  0  0  0  0  0  0  0  0  0  0  0
  150.5456  143.3439  158.9714 H   0  0  0  0  0  0  0  0  0  0  0  0
  150.3744  141.5944  158.8703 H   0  0  0  0  0  0  0  0  0  0  0  0
  149.2492  142.6426  158.0072 H   0  0  0  0  0  0  0  0  0  0  0  0
  151.1428  143.4548  156.5426 H   0  0  0  0  0  0  0  0  0  0  0  0
  152.2556  142.3985  157.3896 H   0  0  0  0  0  0  0  0  0  0  0  0
  149.1333  142.1734  155.1357 H   0  0  0  0  0  0  0  0  0  0  0  0
  149.3697  139.8705  152.6827 H   0  0  0  0  0  0  0  0  0  0  0  0
  147.8232  139.0004  151.7856 H   0  0  0  0  0  0  0  0  0  0  0  0
  145.2717  138.6287  152.6533 H   0  0  0  0  0  0  0  0  0  0  0  0
  146.0647  137.6329  151.4538 H   0  0  0  0  0  0  0  0  0  0  0  0
  146.5928  136.9837  154.3844 H   0  0  0  0  0  0  0  0  0  0  0  0
  145.0112  136.6443  153.7411 H   0  0  0  0  0  0  0  0  0  0  0  0
  147.8444  135.0695  154.5362 H   0  0  0  0  0  0  0  0  0  0  0  0
  146.2852  134.2801  154.5824 H   0  0  0  0  0  0  0  0  0  0  0  0
  148.6358  133.6084  152.7363 H   0  0  0  0  0  0  0  0  0  0  0  0
  148.1083  132.6647  154.1106 H   0  0  0  0  0  0  0  0  0  0  0  0
  147.2464  131.7121  151.9621 H   0  0  0  0  0  0  0  0  0  0  0  0
  145.9361  132.1957  153.0192 H   0  0  0  0  0  0  0  0  0  0  0  0
  147.0620  133.8052  150.6791 H   0  0  0  0  0  0  0  0  0  0  0  0
  145.5115  133.0048  150.7302 H   0  0  0  0  0  0  0  0  0  0  0  0
  144.7441  134.5050  152.5426 H   0  0  0  0  0  0  0  0  0  0  0  0
  144.5719  135.1098  150.0551 H   0  0  0  0  0  0  0  0  0  0  0  0
  145.9504  136.1781  150.2782 H   0  0  0  0  0  0  0  0  0  0  0  0
  144.4272  136.4704  151.1264 H   0  0  0  0  0  0  0  0  0  0  0  0
  151.5336  138.5652  155.0357 H   0  0  0  0  0  0  0  0  0  0  0  0
  147.3656  135.7583  152.2931 H   0  0  0  0  0  0  0  0  0  0  0  0
  1  2  1  0  0  0  0
  1 21  1  0  0  0  0
  1 22  1  0  0  0  0
  1 23  1  0  0  0  0
  2  3  1  0  0  0  0
  2 24  1  0  0  0  0
  2 25  1  0  0  0  0
  3 20  1  0  0  0  0
  3  4  1  0  0  0  0
  4  5  2  0  0  0  0
  4 26  1  0  0  0  0
  5  6  1  0  0  0  0
  5 19  1  0  0  0  0
  6  7  1  0  0  0  0
  6 27  1  0  0  0  0
  7  8  2  0  0  0  0
  7  9  1  0  0  0  0
  9 10  1  0  0  0  0
  9 28  1  0  0  0  0
 10 11  1  0  0  0  0
 10 29  1  0  0  0  0
 10 30  1  0  0  0  0
 11 12  1  0  0  0  0
 11 31  1  0  0  0  0
 11 32  1  0  0  0  0
 12 17  1  0  0  0  0
 12 13  1  0  0  0  0
 12 46  1  0  0  0  0
 13 14  1  0  0  0  0
 13 33  1  0  0  0  0
 13 34  1  0  0  0  0
 14 15  1  0  0  0  0
 14 35  1  0  0  0  0
 14 36  1  0  0  0  0
 15 16  1  0  0  0  0
 15 37  1  0  0  0  0
 15 38  1  0  0  0  0
 16 17  1  0  0  0  0
 16 39  1  0  0  0  0
 16 40  1  0  0  0  0
 17 18  1  0  0  0  0
 17 41  1  0  0  0  0
 18 42  1  0  0  0  0
 18 43  1  0  0  0  0
 18 44  1  0  0  0  0
 19 20  2  0  0  0  0
 19 45  1  0  0  0  0
M  CHG  1  12   1
M  END
> <s_m_source_file>
AV-unprocessed.smi

> <i_m_source_file_index>
1215

> <i_lp_mmshare_version>
43012

> <i_f3d_flags>
0

> <s_epik_input>
W0NIM11bQ0gyXW4xW2NIXWMoW2NIXW4xKVtOSF1DKD1PKVtOSF1bQ0gyXVtDSDJdTjJbQ0gyXVtDSDJdW0NIMl1bQ0gyXVtDQEhdMltDSDNd

> <s_epik_cmdline>
J2VwaWtfcHl0aG9uJywgJy1waCcsICc3LjAnLCAnLXRuJywgJzgnLCAnLW1hJywgJzIwMCcsICctbWV0YWxfYmluZGluZycsICctaW1hZScsICc8aW5maWxlLm1hZT4nLCAnLW9tYWUnLCAnPG91dGZpbGUubWFlPic=

> <r_lp_tautomer_probability>
1

> <r_epik_Ionization_Penalty>
0.00247187

> <r_epik_Ionization_Penalty_Charging>
0.00232067

> <r_epik_Ionization_Penalty_Neutral>
0.000151201

> <r_epik_State_Penalty>
0.00160128

> <r_epik_Charging_Adjusted_Penalty>
0.00392194

> <i_epik_Tot_Q>
1

> <i_epik_Tot_abs_Q>
1

> <r_epik_Metal_State_Penalty>
-0

> <b_epik_Metal_Only>
0

> <s_lp_Force_Field>
OPLS_2005

> <r_lp_Energy>
23.8268

> <b_lp_Chiralities_Consistent>
1

> <s_lp_Variant>
AV-unprocessed.smi:1215-4

> <Gold.Version>
5.8.1

> <Gold.Id.Protein>
6NUR|6NUR_protein|mol2

> <Gold.PLP.Fitness>
49.0188

> <Gold.PLP.PLP>
-37.4435

> <Gold.PLP.part.hbond>
-4.0000

> <Gold.PLP.part.metal>
0.0000

> <Gold.PLP.part.buried>
-3.0386

> <Gold.PLP.part.nonpolar>
-31.1517

> <Gold.PLP.part.repulsive>
0.2639

> <Gold.PLP.ligand.clash>
0.0182

> <Gold.PLP.ligand.torsion>
1.5490

> <Gold.PLP.Chemscore.Hbond>
3.8640

> <Gold.PLP.Chemscore.CHOScore>
0.9980

> <Gold.PLP.Chemscore.Metal>
0.0000

> <Gold.Chemscore.Hbonds>
donor molecule, donor type, donor heavy atom, donor atom, acceptor molecule, acceptor atom, score
      L1  H     6    27       P1  7957  1.00
      L1  H     9    28       P1  7957  0.62
      L1  H    12    46       P1  7948  2.00
      L1  C     4    26       P1  8028  0.82

> <Gold.PLP.Chemscore.Internal.Correction>
0.1054

> <Gold.Rescore>
     Score         DG    S(hbond)    S(metal)    S(lipo)     H(rot)  DE(clash)    DE(int)     intcor
     16.91     -20.11       2.91        0.00      76.82       1.59       0.03       3.17       ----

> <Gold.Chemscore.Fitness>
16.9077

> <Gold.Chemscore.DG>
-20.1084

> <Gold.Chemscore.ZeroCoef>
-5.4800

> <Gold.Chemscore.Hbond>
2.9082

> <Gold.Chemscore.Metal>
0.0000

> <Gold.Chemscore.Lipo>
76.8201

> <Gold.Chemscore.Internal_Hbond>
0.0000

> <Gold.Chemscore.DEClash>
0.0301

> <Gold.Chemscore.DEInternal>
3.1705

> <Gold.Chemscore.Rot>
1.5909

> <Gold.Chemscore.Internal.Correction>
   9.000000E+99

> <Gold.Chemscore.Hbonds>
donor molecule, donor type, donor heavy atom, donor atom, acceptor molecule, acceptor atom, score
      L1  H     6    27       P1  7957  0.95
      L1  H     9    28       P1  7957  0.60
      L1  H    12    46       P1  7948  1.00

> <Gold.Chemscore.Hbond.Weighted>
-9.7132

> <Gold.Chemscore.Metal.Weighted>
-0.0000

> <Gold.Chemscore.Lipo.Weighted>
-8.9880

> <Gold.Chemscore.Internal_Hbond.Weighted>
0.0000

> <Gold.Chemscore.DEClash.Weighted>
0.0301

> <Gold.Chemscore.DEInternal.Weighted>
3.1705

> <Gold.Chemscore.Rot.Weighted>
4.0728

> <Gold.Chemscore.Internal.Correction.Weighted>
   9.000000E+99

> <Gold.Protein.RotatedTorsions>
[ 6907 6896 6895 6894 ] final  -88.45 input  -60.11 | X-H torsion
[ 7974 7965 7964 7962 ] final  122.82 input  175.53 | X-H torsion
[ 8008 7997 7996 7995 ] final  -44.47 input   59.86 | X-H torsion
[ 10167 10162 10161 10158 ] final -103.72 input  -65.29 | X-H torsion
[ 10718 10713 10712 10709 ] final  130.98 input   66.30 | X-H torsion
[ 10763 10752 10751 10750 ] final  100.68 input  -60.55 | X-H torsion
[ 11005 11000 10999 10996 ] final   10.48 input  -57.11 | X-H torsion

> <Gold.Protein.ActiveResidues>
 VAL166  LYS551  ARG553  GLY616  TRP617  ASP618  TYR619  PRO620  LYS621  CYS622 
 ASP623  PHE694  ASN695  SER759  ASP760  ASP761  ALA762  ILE779  LEU786  VAL792 
 PHE793  MET794  SER795  GLU796  ALA797  LYS798  CYS799  TRP800  GLU811  SER814 

> <Gold.Protein.RotatedAtoms>
  150.6869  134.2739  159.4599 H   0  0  0  0  0  0  0  0  0  0  0  0  # atno 6907 bound_to 6896
  152.0659  134.9562  160.0584 H   0  0  0  0  0  0  0  0  0  0  0  0  # atno 6908 bound_to 6896
  152.0970  133.4195  159.4607 H   0  0  0  0  0  0  0  0  0  0  0  0  # atno 6909 bound_to 6896
  145.1031  139.3504  143.4801 H   0  0  0  0  0  0  0  0  0  0  0  0  # atno 7974 bound_to 7965
  154.3997  140.1421  156.3689 H   0  0  0  0  0  0  0  0  0  0  0  0  # atno 8008 bound_to 7997
  155.8111  140.3473  155.5438 H   0  0  0  0  0  0  0  0  0  0  0  0  # atno 8009 bound_to 7997
  155.8385  140.0923  157.1739 H   0  0  0  0  0  0  0  0  0  0  0  0  # atno 8010 bound_to 7997
  140.2169  143.3704  152.1003 H   0  0  0  0  0  0  0  0  0  0  0  0  # atno 10167 bound_to 10162
  157.5011  131.1094  150.9425 H   0  0  0  0  0  0  0  0  0  0  0  0  # atno 10718 bound_to 10713
  153.3170  135.4071  155.1384 H   0  0  0  0  0  0  0  0  0  0  0  0  # atno 10763 bound_to 10752
  154.8591  135.3578  154.5648 H   0  0  0  0  0  0  0  0  0  0  0  0  # atno 10764 bound_to 10752
  153.6079  135.7069  153.5417 H   0  0  0  0  0  0  0  0  0  0  0  0  # atno 10765 bound_to 10752
  140.5140  134.0624  155.7826 H   0  0  0  0  0  0  0  0  0  0  0  0  # atno 11005 bound_to 11000
  146.3529  140.0917  142.8612 LP  0  0  0  0  0  0  0  0  0  0  0  0  # atno 17320 bound_to 7965
  145.0932  140.9298  143.4756 LP  0  0  0  0  0  0  0  0  0  0  0  0  # atno 17321 bound_to 7965
  139.5158  144.6969  151.5605 LP  0  0  0  0  0  0  0  0  0  0  0  0  # atno 17342 bound_to 10162
  140.6283  143.9126  150.6583 LP  0  0  0  0  0  0  0  0  0  0  0  0  # atno 17343 bound_to 10162
  157.0096  130.5631  149.5319 LP  0  0  0  0  0  0  0  0  0  0  0  0  # atno 17370 bound_to 10713
  156.0230  130.5324  150.8328 LP  0  0  0  0  0  0  0  0  0  0  0  0  # atno 17371 bound_to 10713
  141.1370  133.9204  157.2412 LP  0  0  0  0  0  0  0  0  0  0  0  0  # atno 17394 bound_to 11000
  139.9643  135.0146  156.9344 LP  0  0  0  0  0  0  0  0  0  0  0  0  # atno 17395 bound_to 11000

$$$$
