AV-unprocessed.smi:2282|AV-procd|sdf|9198|dock3
  -GOLD-   2272012413D 1   1.00000     0.00000
 Structure written by MMmdl.
 32 33  0  0  0  0  0  0  0  0  1 V2000
  152.2209  145.3616  160.4041 C   0  0  0  0  0  0  0  0  0  0  0  0
  152.3326  143.8716  160.1402 C   0  0  0  0  0  0  0  0  0  0  0  0
  152.7943  143.1279  161.1694 N   0  0  0  0  0  0  0  0  0  0  0  0
  152.9204  141.7976  160.9854 C   0  0  0  0  0  0  0  0  0  0  0  0
  152.5908  141.1475  159.7808 C   0  0  0  0  0  0  0  0  0  0  0  0
  152.0916  141.9219  158.7067 C   0  0  0  0  0  0  0  0  0  0  0  0
  151.7483  141.3722  157.4419 N   0  0  0  0  0  0  0  0  0  0  0  0
  152.1261  140.2002  156.8978 C   0  0  0  0  0  0  0  0  0  0  0  0
  152.9017  139.4062  157.4298 O   0  0  0  0  0  0  0  0  0  0  0  0
  151.5344  139.8674  155.5153 C   0  0  1  0  0  0  0  0  0  0  0  0
  152.2292  138.6790  154.8186 C   0  0  0  0  0  0  0  0  0  0  0  0
  151.1221  137.6557  154.6236 C   0  0  0  0  0  0  0  0  0  0  0  0
  150.0991  138.0541  155.6809 C   0  0  2  0  0  0  0  0  0  0  0  0
  148.6736  137.5708  155.3961 C   0  0  0  0  0  0  0  0  0  0  0  0
  150.1663  139.4716  155.6414 O   0  0  0  0  0  0  0  0  0  0  0  0
  151.9723  143.3195  158.8886 C   0  0  0  0  0  0  0  0  0  0  0  0
  151.3885  144.3316  157.6094 Cl  0  0  0  0  0  0  0  0  0  0  0  0
  151.1879  145.6907  160.2904 H   0  0  0  0  0  0  0  0  0  0  0  0
  152.8396  145.9185  159.7001 H   0  0  0  0  0  0  0  0  0  0  0  0
  152.5471  145.6162  161.4133 H   0  0  0  0  0  0  0  0  0  0  0  0
  153.3030  141.2331  161.8228 H   0  0  0  0  0  0  0  0  0  0  0  0
  152.7383  140.0816  159.7007 H   0  0  0  0  0  0  0  0  0  0  0  0
  151.0495  141.8856  156.9236 H   0  0  0  0  0  0  0  0  0  0  0  0
  151.5820  140.7635  154.8957 H   0  0  0  0  0  0  0  0  0  0  0  0
  152.6740  138.9690  153.8661 H   0  0  0  0  0  0  0  0  0  0  0  0
  153.0243  138.2490  155.4298 H   0  0  0  0  0  0  0  0  0  0  0  0
  150.6949  137.7639  153.6257 H   0  0  0  0  0  0  0  0  0  0  0  0
  151.4677  136.6276  154.7339 H   0  0  0  0  0  0  0  0  0  0  0  0
  150.4223  137.7085  156.6645 H   0  0  0  0  0  0  0  0  0  0  0  0
  148.6247  136.4818  155.3870 H   0  0  0  0  0  0  0  0  0  0  0  0
  148.3185  137.9312  154.4301 H   0  0  0  0  0  0  0  0  0  0  0  0
  147.9831  137.9293  156.1600 H   0  0  0  0  0  0  0  0  0  0  0  0
  1  2  1  0  0  0  0
  1 18  1  0  0  0  0
  1 19  1  0  0  0  0
  1 20  1  0  0  0  0
  2 16  1  0  0  0  0
  2  3  2  0  0  0  0
  3  4  1  0  0  0  0
  4  5  2  0  0  0  0
  4 21  1  0  0  0  0
  5  6  1  0  0  0  0
  5 22  1  0  0  0  0
  6  7  1  0  0  0  0
  6 16  2  0  0  0  0
  7  8  1  0  0  0  0
  7 23  1  0  0  0  0
  8  9  2  0  0  0  0
  8 10  1  0  0  0  0
 10 15  1  0  0  0  0
 10 11  1  0  0  0  0
 10 24  1  0  0  0  0
 11 12  1  0  0  0  0
 11 25  1  0  0  0  0
 11 26  1  0  0  0  0
 12 13  1  0  0  0  0
 12 27  1  0  0  0  0
 12 28  1  0  0  0  0
 13 14  1  0  0  0  0
 13 15  1  0  0  0  0
 13 29  1  0  0  0  0
 14 30  1  0  0  0  0
 14 31  1  0  0  0  0
 14 32  1  0  0  0  0
 16 17  1  0  0  0  0
M  END
> <s_m_source_file>
AV-unprocessed.smi

> <i_m_source_file_index>
2282

> <i_lp_mmshare_version>
43012

> <i_f3d_flags>
0

> <s_epik_input>
W0NIM11jMW5bY0hdW2NIXWMoYzFDbClbTkhdQyg9TylbQ0BASF0yW0NIMl1bQ0gyXVtDQEhdKE8yKVtDSDNd

> <s_epik_cmdline>
J2VwaWtfcHl0aG9uJywgJy1waCcsICc3LjAnLCAnLXRuJywgJzgnLCAnLW1hJywgJzIwMCcsICctbWV0YWxfYmluZGluZycsICctaW1hZScsICc8aW5maWxlLm1hZT4nLCAnLW9tYWUnLCAnPG91dGZpbGUubWFlPic=

> <r_epik_Ionization_Penalty>
0.00037231

> <r_epik_Ionization_Penalty_Charging>
0

> <r_epik_Ionization_Penalty_Neutral>
0.00037231

> <r_epik_State_Penalty>
0.000225113

> <r_epik_Charging_Adjusted_Penalty>
0.000225113

> <i_epik_Tot_Q>
0

> <i_epik_Tot_abs_Q>
0

> <r_epik_Metal_State_Penalty>
-0

> <b_epik_Metal_Only>
0

> <s_lp_Force_Field>
OPLS_2005

> <r_lp_Energy>
23.9576

> <b_lp_Chiralities_Consistent>
1

> <s_lp_Variant>
AV-unprocessed.smi:2282-4

> <Gold.Version>
5.8.1

> <Gold.Id.Protein>
6NUR|6NUR_protein|mol2

> <Gold.PLP.Fitness>
36.6334

> <Gold.PLP.PLP>
-34.4512

> <Gold.PLP.part.hbond>
-1.0000

> <Gold.PLP.part.metal>
0.0000

> <Gold.PLP.part.buried>
-1.4777

> <Gold.PLP.part.nonpolar>
-31.5081

> <Gold.PLP.part.repulsive>
0.1693

> <Gold.PLP.ligand.clash>
0.0000

> <Gold.PLP.ligand.torsion>
0.4126

> <Gold.PLP.Chemscore.Hbond>
1.0000

> <Gold.PLP.Chemscore.CHOScore>
0.0000

> <Gold.PLP.Chemscore.Metal>
0.0000

> <Gold.Chemscore.Hbonds>
donor molecule, donor type, donor heavy atom, donor atom, acceptor molecule, acceptor atom, score
      P1  H  7997  8010       L1     9  1.00

> <Gold.PLP.Chemscore.Internal.Correction>
0.0074

> <Gold.Rescore>
     Score         DG    S(hbond)    S(metal)    S(lipo)     H(rot)  DE(clash)    DE(int)     intcor
     16.25     -17.84       0.89        0.00     102.15       1.00       0.26       1.33       ----

> <Gold.Chemscore.Fitness>
16.2495

> <Gold.Chemscore.DG>
-17.8394

> <Gold.Chemscore.ZeroCoef>
-5.4800

> <Gold.Chemscore.Hbond>
0.8886

> <Gold.Chemscore.Metal>
0.0000

> <Gold.Chemscore.Lipo>
102.1505

> <Gold.Chemscore.Internal_Hbond>
0.0000

> <Gold.Chemscore.DEClash>
0.2649

> <Gold.Chemscore.DEInternal>
1.3250

> <Gold.Chemscore.Rot>
1.0000

> <Gold.Chemscore.Internal.Correction>
   9.000000E+99

> <Gold.Chemscore.Hbonds>
donor molecule, donor type, donor heavy atom, donor atom, acceptor molecule, acceptor atom, score
      P1  H  7997  8010       L1     9  0.35

> <Gold.Chemscore.Hbond.Weighted>
-2.9678

> <Gold.Chemscore.Metal.Weighted>
-0.0000

> <Gold.Chemscore.Lipo.Weighted>
-11.9516

> <Gold.Chemscore.Internal_Hbond.Weighted>
0.0000

> <Gold.Chemscore.DEClash.Weighted>
0.2649

> <Gold.Chemscore.DEInternal.Weighted>
1.3250

> <Gold.Chemscore.Rot.Weighted>
2.5600

> <Gold.Chemscore.Internal.Correction.Weighted>
   9.000000E+99

> <Gold.Protein.RotatedTorsions>
[ 6907 6896 6895 6894 ] final  138.56 input  -60.11 | X-H torsion
[ 7974 7965 7964 7962 ] final  -58.77 input  175.53 | X-H torsion
[ 8008 7997 7996 7995 ] final   42.13 input   59.86 | X-H torsion
[ 10167 10162 10161 10158 ] final   27.69 input  -65.29 | X-H torsion
[ 10718 10713 10712 10709 ] final  161.17 input   66.30 | X-H torsion
[ 10763 10752 10751 10750 ] final -127.47 input  -60.55 | X-H torsion
[ 11005 11000 10999 10996 ] final -110.51 input  -57.11 | X-H torsion

> <Gold.Protein.ActiveResidues>
 VAL166  LYS551  ARG553  GLY616  TRP617  ASP618  TYR619  PRO620  LYS621  CYS622 
 ASP623  PHE694  ASN695  SER759  ASP760  ASP761  ALA762  ILE779  LEU786  VAL792 
 PHE793  MET794  SER795  GLU796  ALA797  LYS798  CYS799  TRP800  GLU811  SER814 

> <Gold.Protein.RotatedAtoms>
  152.2652  133.5333  159.5405 H   0  0  0  0  0  0  0  0  0  0  0  0  # atno 6907 bound_to 6896
  150.7139  134.0774  159.3895 H   0  0  0  0  0  0  0  0  0  0  0  0  # atno 6908 bound_to 6896
  151.8691  135.0496  160.0528 H   0  0  0  0  0  0  0  0  0  0  0  0  # atno 6909 bound_to 6896
  145.8354  140.8452  143.0062 H   0  0  0  0  0  0  0  0  0  0  0  0  # atno 7974 bound_to 7965
  155.2812  140.3372  155.4258 H   0  0  0  0  0  0  0  0  0  0  0  0  # atno 8008 bound_to 7997
  156.2089  140.1762  156.7780 H   0  0  0  0  0  0  0  0  0  0  0  0  # atno 8009 bound_to 7997
  154.5659  140.0679  156.8875 H   0  0  0  0  0  0  0  0  0  0  0  0  # atno 8010 bound_to 7997
  140.4917  144.0456  150.6299 H   0  0  0  0  0  0  0  0  0  0  0  0  # atno 10167 bound_to 10162
  157.1402  131.0538  151.2330 H   0  0  0  0  0  0  0  0  0  0  0  0  # atno 10718 bound_to 10713
  154.8752  135.3961  154.3598 H   0  0  0  0  0  0  0  0  0  0  0  0  # atno 10763 bound_to 10752
  153.4372  135.7026  153.6197 H   0  0  0  0  0  0  0  0  0  0  0  0  # atno 10764 bound_to 10752
  153.4794  135.3772  155.2403 H   0  0  0  0  0  0  0  0  0  0  0  0  # atno 10765 bound_to 10752
  141.0787  133.9256  157.2334 H   0  0  0  0  0  0  0  0  0  0  0  0  # atno 11005 bound_to 11000
  144.6737  140.0733  143.7472 LP  0  0  0  0  0  0  0  0  0  0  0  0  # atno 17320 bound_to 7965
  145.9525  139.2743  143.1204 LP  0  0  0  0  0  0  0  0  0  0  0  0  # atno 17321 bound_to 7965
  140.3727  143.2845  152.0260 LP  0  0  0  0  0  0  0  0  0  0  0  0  # atno 17342 bound_to 10162
  139.4852  144.6217  151.7242 LP  0  0  0  0  0  0  0  0  0  0  0  0  # atno 17343 bound_to 10162
  157.4313  130.7492  149.6993 LP  0  0  0  0  0  0  0  0  0  0  0  0  # atno 17370 bound_to 10713
  155.9790  130.4045  150.3614 LP  0  0  0  0  0  0  0  0  0  0  0  0  # atno 17371 bound_to 10713
  139.9600  135.0156  156.9235 LP  0  0  0  0  0  0  0  0  0  0  0  0  # atno 17394 bound_to 11000
  140.5516  134.0622  155.7371 LP  0  0  0  0  0  0  0  0  0  0  0  0  # atno 17395 bound_to 11000

$$$$
