AV-unprocessed.smi:1987|AV-procd|sdf|8055|dock4
  -GOLD-   2272010263D 1   1.00000     0.00000
 Structure written by MMmdl.
 37 39  0  0  0  0  0  0  0  0  2 V2000
  148.9798  135.0549  156.1972 O   0  0  0  0  0  0  0  0  0  0  0  0
  149.2645  135.6410  155.1534 C   0  0  0  0  0  0  0  0  0  0  0  0
  150.6899  136.1381  154.9174 C   0  0  0  0  0  0  0  0  0  0  0  0
  150.7299  137.5882  154.9481 N   0  0  0  0  0  0  0  0  0  0  0  0
  150.3841  138.4944  154.0311 C   0  0  0  0  0  0  0  0  0  0  0  0
  150.6146  139.7284  154.4531 N   0  0  0  0  0  0  0  0  0  0  0  0
  151.1362  139.5357  155.7216 N   0  0  0  0  0  0  0  0  0  0  0  0
  151.2081  138.2678  156.0206 N   0  0  0  0  0  0  0  0  0  0  0  0
  148.3723  135.9110  154.1880 N   0  0  0  0  0  0  0  0  0  0  0  0
  146.9410  135.6467  154.2705 C   0  0  0  0  0  0  0  0  0  0  0  0
  146.5380  134.4309  153.4131 C   0  0  1  0  0  0  0  0  0  0  0  0
  146.7625  133.0726  154.0756 C   0  0  0  0  0  0  0  0  0  0  0  0
  145.8644  132.1533  153.2528 C   0  0  0  0  0  0  0  0  0  0  0  0
  144.6791  132.9661  152.9020 N   0  3  2  0  0  0  0  0  0  0  0  0
  144.0827  132.6187  151.5944 C   0  0  0  0  0  0  0  0  0  0  0  0
  145.0700  132.0201  150.6211 C   0  0  0  0  0  0  0  0  0  0  0  0
  144.6087  133.4513  150.4497 C   0  0  0  0  0  0  0  0  0  0  0  0
  145.0512  134.3947  153.0363 C   0  0  0  0  0  0  0  0  0  0  0  0
  151.3568  135.7509  155.6889 H   0  0  0  0  0  0  0  0  0  0  0  0
  151.0629  135.7823  153.9556 H   0  0  0  0  0  0  0  0  0  0  0  0
  149.9780  138.2519  153.0602 H   0  0  0  0  0  0  0  0  0  0  0  0
  148.7009  136.3898  153.3614 H   0  0  0  0  0  0  0  0  0  0  0  0
  146.6931  135.4673  155.3170 H   0  0  0  0  0  0  0  0  0  0  0  0
  146.3794  136.5314  153.9659 H   0  0  0  0  0  0  0  0  0  0  0  0
  147.1122  134.4451  152.4850 H   0  0  0  0  0  0  0  0  0  0  0  0
  147.8076  132.7601  154.0638 H   0  0  0  0  0  0  0  0  0  0  0  0
  146.4262  133.0943  155.1133 H   0  0  0  0  0  0  0  0  0  0  0  0
  146.3907  131.8531  152.3449 H   0  0  0  0  0  0  0  0  0  0  0  0
  145.5840  131.2479  153.7915 H   0  0  0  0  0  0  0  0  0  0  0  0
  143.0465  132.2845  151.6060 H   0  0  0  0  0  0  0  0  0  0  0  0
  146.0923  131.8577  150.9585 H   0  0  0  0  0  0  0  0  0  0  0  0
  144.6931  131.2869  149.9109 H   0  0  0  0  0  0  0  0  0  0  0  0
  143.9281  133.6601  149.6266 H   0  0  0  0  0  0  0  0  0  0  0  0
  145.3246  134.2405  150.6725 H   0  0  0  0  0  0  0  0  0  0  0  0
  144.4383  134.8244  153.8295 H   0  0  0  0  0  0  0  0  0  0  0  0
  144.8571  134.9670  152.1278 H   0  0  0  0  0  0  0  0  0  0  0  0
  143.9806  132.7870  153.6093 H   0  0  0  0  0  0  0  0  0  0  0  0
  1  2  2  0  0  0  0
  2  3  1  0  0  0  0
  2  9  1  0  0  0  0
  3  4  1  0  0  0  0
  3 19  1  0  0  0  0
  3 20  1  0  0  0  0
  4  8  1  0  0  0  0
  4  5  1  0  0  0  0
  5  6  2  0  0  0  0
  5 21  1  0  0  0  0
  6  7  1  0  0  0  0
  7  8  2  0  0  0  0
  9 10  1  0  0  0  0
  9 22  1  0  0  0  0
 10 11  1  0  0  0  0
 10 23  1  0  0  0  0
 10 24  1  0  0  0  0
 11 18  1  0  0  0  0
 11 12  1  0  0  0  0
 11 25  1  0  0  0  0
 12 13  1  0  0  0  0
 12 26  1  0  0  0  0
 12 27  1  0  0  0  0
 13 14  1  0  0  0  0
 13 28  1  0  0  0  0
 13 29  1  0  0  0  0
 14 15  1  0  0  0  0
 14 18  1  0  0  0  0
 14 37  1  0  0  0  0
 15 17  1  0  0  0  0
 15 16  1  0  0  0  0
 15 30  1  0  0  0  0
 16 17  1  0  0  0  0
 16 31  1  0  0  0  0
 16 32  1  0  0  0  0
 17 33  1  0  0  0  0
 17 34  1  0  0  0  0
 18 35  1  0  0  0  0
 18 36  1  0  0  0  0
M  CHG  1  14   1
M  END
> <s_m_source_file>
AV-unprocessed.smi

> <i_m_source_file_index>
1987

> <i_lp_mmshare_version>
43012

> <i_f3d_flags>
0

> <s_epik_input>
bjFubltjSF1uMVtDSDJdQyg9TylbTkhdW0NIMl1bQ0BASF0yW0NIMl1bQ0gyXU4oW0NIMl0yKVtDSF0zW0NIMl1bQ0gyXTM=

> <s_epik_cmdline>
J2VwaWtfcHl0aG9uJywgJy1waCcsICc3LjAnLCAnLXRuJywgJzgnLCAnLW1hJywgJzIwMCcsICctbWV0YWxfYmluZGluZycsICctaW1hZScsICc8aW5maWxlLm1hZT4nLCAnLW9tYWUnLCAnPG91dGZpbGUubWFlPic=

> <r_lp_tautomer_probability>
1

> <r_epik_Ionization_Penalty>
0.000242849

> <r_epik_Ionization_Penalty_Charging>
0.000241326

> <r_epik_Ionization_Penalty_Neutral>
1.52322e-06

> <r_epik_State_Penalty>
-0

> <r_epik_Charging_Adjusted_Penalty>
0.000241326

> <i_epik_Tot_Q>
1

> <i_epik_Tot_abs_Q>
1

> <r_epik_Metal_State_Penalty>
-0

> <b_epik_Metal_Only>
0

> <s_lp_Force_Field>
OPLS_2005

> <r_lp_Energy>
38.094

> <b_lp_Chiralities_Consistent>
1

> <s_lp_Variant>
AV-unprocessed.smi:1987-2

> <Gold.Version>
5.8.1

> <Gold.Id.Protein>
6NUR|6NUR_protein|mol2

> <Gold.PLP.Fitness>
38.0706

> <Gold.PLP.PLP>
-22.8733

> <Gold.PLP.part.hbond>
-2.5879

> <Gold.PLP.part.metal>
0.0000

> <Gold.PLP.part.buried>
-4.8098

> <Gold.PLP.part.nonpolar>
-16.1874

> <Gold.PLP.part.repulsive>
0.1479

> <Gold.PLP.ligand.clash>
0.0000

> <Gold.PLP.ligand.torsion>
1.4782

> <Gold.PLP.Chemscore.Hbond>
3.8564

> <Gold.PLP.Chemscore.CHOScore>
1.7709

> <Gold.PLP.Chemscore.Metal>
0.0000

> <Gold.Chemscore.Hbonds>
donor molecule, donor type, donor heavy atom, donor atom, acceptor molecule, acceptor atom, score
      L1  H     9    22       P1  7948  0.86
      L1  H    14    37       P1 10957  2.00
      P1  H  7989  7998       L1     6  1.00
      L1  C     5    21       P1  7948  1.00
      L1  C     5    21       P1  7957  0.70

> <Gold.PLP.Chemscore.Internal.Correction>
1.2719

> <Gold.Rescore>
     Score         DG    S(hbond)    S(metal)    S(lipo)     H(rot)  DE(clash)    DE(int)     intcor
     11.32     -12.72       2.72        0.00      41.54       2.62       0.04       1.37       ----

> <Gold.Chemscore.Fitness>
11.3154

> <Gold.Chemscore.DG>
-12.7199

> <Gold.Chemscore.ZeroCoef>
-5.4800

> <Gold.Chemscore.Hbond>
2.7240

> <Gold.Chemscore.Metal>
0.0000

> <Gold.Chemscore.Lipo>
41.5415

> <Gold.Chemscore.Internal_Hbond>
0.0000

> <Gold.Chemscore.DEClash>
0.0354

> <Gold.Chemscore.DEInternal>
1.3692

> <Gold.Chemscore.Rot>
2.6244

> <Gold.Chemscore.Internal.Correction>
   9.000000E+99

> <Gold.Chemscore.Hbonds>
donor molecule, donor type, donor heavy atom, donor atom, acceptor molecule, acceptor atom, score
      L1  H     9    22       P1  7948  0.79
      L1  H    14    37       P1 10957  0.65
      P1  H  7989  7998       L1     6  0.81

> <Gold.Chemscore.Hbond.Weighted>
-9.0982

> <Gold.Chemscore.Metal.Weighted>
-0.0000

> <Gold.Chemscore.Lipo.Weighted>
-4.8604

> <Gold.Chemscore.Internal_Hbond.Weighted>
0.0000

> <Gold.Chemscore.DEClash.Weighted>
0.0354

> <Gold.Chemscore.DEInternal.Weighted>
1.3692

> <Gold.Chemscore.Rot.Weighted>
6.7186

> <Gold.Chemscore.Internal.Correction.Weighted>
   9.000000E+99

> <Gold.Protein.RotatedTorsions>
[ 6907 6896 6895 6894 ] final  -40.64 input  -60.11 | X-H torsion
[ 7974 7965 7964 7962 ] final -140.93 input  175.53 | X-H torsion
[ 8008 7997 7996 7995 ] final -124.19 input   59.86 | X-H torsion
[ 10167 10162 10161 10158 ] final  145.50 input  -65.29 | X-H torsion
[ 10718 10713 10712 10709 ] final  -16.92 input   66.30 | X-H torsion
[ 10763 10752 10751 10750 ] final  161.13 input  -60.55 | X-H torsion
[ 11005 11000 10999 10996 ] final  -87.86 input  -57.11 | X-H torsion

> <Gold.Protein.ActiveResidues>
 VAL166  LYS551  ARG553  GLY616  TRP617  ASP618  TYR619  PRO620  LYS621  CYS622 
 ASP623  PHE694  ASN695  SER759  ASP760  ASP761  ALA762  ILE779  LEU786  VAL792 
 PHE793  MET794  SER795  GLU796  ALA797  LYS798  CYS799  TRP800  GLU811  SER814 

> <Gold.Protein.RotatedAtoms>
  150.9761  134.9125  159.7816 H   0  0  0  0  0  0  0  0  0  0  0  0  # atno 6907 bound_to 6896
  152.5206  134.3474  159.9249 H   0  0  0  0  0  0  0  0  0  0  0  0  # atno 6908 bound_to 6896
  151.3482  133.3894  159.2712 H   0  0  0  0  0  0  0  0  0  0  0  0  # atno 6909 bound_to 6896
  144.8558  140.6140  143.5360 H   0  0  0  0  0  0  0  0  0  0  0  0  # atno 7974 bound_to 7965
  155.1928  140.0413  157.2903 H   0  0  0  0  0  0  0  0  0  0  0  0  # atno 8008 bound_to 7997
  154.6127  140.2481  155.7620 H   0  0  0  0  0  0  0  0  0  0  0  0  # atno 8009 bound_to 7997
  156.2389  140.2911  156.0397 H   0  0  0  0  0  0  0  0  0  0  0  0  # atno 8010 bound_to 7997
  139.4925  144.5897  151.6706 H   0  0  0  0  0  0  0  0  0  0  0  0  # atno 10167 bound_to 10162
  156.5809  130.4774  149.6321 H   0  0  0  0  0  0  0  0  0  0  0  0  # atno 10718 bound_to 10713
  154.2581  135.2769  155.2789 H   0  0  0  0  0  0  0  0  0  0  0  0  # atno 10763 bound_to 10752
  154.5407  135.5703  153.6840 H   0  0  0  0  0  0  0  0  0  0  0  0  # atno 10764 bound_to 10752
  152.9967  135.6250  154.2731 H   0  0  0  0  0  0  0  0  0  0  0  0  # atno 10765 bound_to 10752
  141.1610  133.7536  156.9368 H   0  0  0  0  0  0  0  0  0  0  0  0  # atno 11005 bound_to 11000
  145.4409  139.1536  143.3971 LP  0  0  0  0  0  0  0  0  0  0  0  0  # atno 17320 bound_to 7965
  146.2822  140.4530  142.8772 LP  0  0  0  0  0  0  0  0  0  0  0  0  # atno 17321 bound_to 7965
  140.5521  144.0408  150.6131 LP  0  0  0  0  0  0  0  0  0  0  0  0  # atno 17342 bound_to 10162
  140.3466  143.2988  152.0532 LP  0  0  0  0  0  0  0  0  0  0  0  0  # atno 17343 bound_to 10162
  156.2633  130.6975  151.1750 LP  0  0  0  0  0  0  0  0  0  0  0  0  # atno 17370 bound_to 10713
  157.7327  131.0598  150.5616 LP  0  0  0  0  0  0  0  0  0  0  0  0  # atno 17371 bound_to 10713
  140.1348  134.9332  157.2387 LP  0  0  0  0  0  0  0  0  0  0  0  0  # atno 17394 bound_to 11000
  140.2908  134.3242  155.7316 LP  0  0  0  0  0  0  0  0  0  0  0  0  # atno 17395 bound_to 11000

$$$$
