AV-unprocessed.smi:3337|AV-procd|sdf|12865|dock2
  -GOLD-   2272019263D 1   1.00000     0.00000
 Structure written by MMmdl.
 46 47  0  0  0  0  0  0  0  0  2 V2000
  153.7278  142.0713  161.8221 C   0  0  0  0  0  0  0  0  0  0  0  0
  153.2080  142.4513  160.4282 C   0  0  2  0  0  0  0  0  0  0  0  0
  152.2691  143.6695  160.4924 C   0  0  0  0  0  0  0  0  0  0  0  0
  151.6927  144.0185  159.1077 C   0  0  1  0  0  0  0  0  0  0  0  0
  152.7206  144.6927  158.1822 C   0  0  0  0  0  0  0  0  0  0  0  0
  151.0510  142.7758  158.4591 C   0  0  0  0  0  0  0  0  0  0  0  0
  151.9992  141.6324  158.3979 N   0  3  2  0  0  0  0  0  0  0  0  0
  151.4395  140.4825  157.6430 C   0  0  0  0  0  0  0  0  0  0  0  0
  151.0492  140.8572  156.2005 C   0  0  0  0  0  0  0  0  0  0  0  0
  149.6500  141.2562  156.1120 N   0  0  0  0  0  0  0  0  0  0  0  0
  148.9566  141.3815  154.9683 C   0  0  0  0  0  0  0  0  0  0  0  0
  149.4654  141.2053  153.8605 O   0  0  0  0  0  0  0  0  0  0  0  0
  147.4734  141.7740  155.1031 C   0  0  1  0  0  0  0  0  0  0  0  0
  146.8050  142.0836  153.7484 C   0  0  0  0  0  0  0  0  0  0  0  0
  146.7289  140.7606  155.8422 N   0  0  0  0  0  0  0  0  0  0  0  0
  145.6459  140.0633  155.4922 C   0  0  0  0  0  0  0  0  0  0  0  0
  145.2136  139.2332  156.4309 N   0  0  0  0  0  0  0  0  0  0  0  0
  146.1401  139.4848  157.4026 C   0  0  0  0  0  0  0  0  0  0  0  0
  147.0673  140.3945  157.1039 N   0  0  0  0  0  0  0  0  0  0  0  0
  152.4965  141.2645  159.7503 C   0  0  0  0  0  0  0  0  0  0  0  0
  152.9118  141.7887  162.4880 H   0  0  0  0  0  0  0  0  0  0  0  0
  154.2600  142.9044  162.2825 H   0  0  0  0  0  0  0  0  0  0  0  0
  154.4199  141.2302  161.7685 H   0  0  0  0  0  0  0  0  0  0  0  0
  154.0759  142.7156  159.8229 H   0  0  0  0  0  0  0  0  0  0  0  0
  151.4454  143.4523  161.1742 H   0  0  0  0  0  0  0  0  0  0  0  0
  152.7904  144.5310  160.9119 H   0  0  0  0  0  0  0  0  0  0  0  0
  150.8989  144.7502  159.2643 H   0  0  0  0  0  0  0  0  0  0  0  0
  153.5496  144.0284  157.9383 H   0  0  0  0  0  0  0  0  0  0  0  0
  153.1374  145.5875  158.6455 H   0  0  0  0  0  0  0  0  0  0  0  0
  152.2580  144.9976  157.2430 H   0  0  0  0  0  0  0  0  0  0  0  0
  150.1687  142.4747  159.0264 H   0  0  0  0  0  0  0  0  0  0  0  0
  150.7035  143.0293  157.4566 H   0  0  0  0  0  0  0  0  0  0  0  0
  152.1491  139.6536  157.6506 H   0  0  0  0  0  0  0  0  0  0  0  0
  150.5451  140.1264  158.1564 H   0  0  0  0  0  0  0  0  0  0  0  0
  151.6906  141.6568  155.8253 H   0  0  0  0  0  0  0  0  0  0  0  0
  151.1822  140.0122  155.5264 H   0  0  0  0  0  0  0  0  0  0  0  0
  149.1643  141.4208  156.9821 H   0  0  0  0  0  0  0  0  0  0  0  0
  147.4459  142.6889  155.6969 H   0  0  0  0  0  0  0  0  0  0  0  0
  147.3133  142.8993  153.2331 H   0  0  0  0  0  0  0  0  0  0  0  0
  145.7664  142.3850  153.8874 H   0  0  0  0  0  0  0  0  0  0  0  0
  146.8104  141.2175  153.0852 H   0  0  0  0  0  0  0  0  0  0  0  0
  145.1612  140.1670  154.5325 H   0  0  0  0  0  0  0  0  0  0  0  0
  146.1280  138.9861  158.3605 H   0  0  0  0  0  0  0  0  0  0  0  0
  153.1953  140.4319  159.6811 H   0  0  0  0  0  0  0  0  0  0  0  0
  151.6611  140.9223  160.3633 H   0  0  0  0  0  0  0  0  0  0  0  0
  152.7956  141.9584  157.8691 H   0  0  0  0  0  0  0  0  0  0  0  0
  1  2  1  0  0  0  0
  1 21  1  0  0  0  0
  1 22  1  0  0  0  0
  1 23  1  0  0  0  0
  2 20  1  0  0  0  0
  2  3  1  0  0  0  0
  2 24  1  0  0  0  0
  3  4  1  0  0  0  0
  3 25  1  0  0  0  0
  3 26  1  0  0  0  0
  4  5  1  0  0  0  0
  4  6  1  0  0  0  0
  4 27  1  0  0  0  0
  5 28  1  0  0  0  0
  5 29  1  0  0  0  0
  5 30  1  0  0  0  0
  6  7  1  0  0  0  0
  6 31  1  0  0  0  0
  6 32  1  0  0  0  0
  7  8  1  0  0  0  0
  7 20  1  0  0  0  0
  7 46  1  0  0  0  0
  8  9  1  0  0  0  0
  8 33  1  0  0  0  0
  8 34  1  0  0  0  0
  9 10  1  0  0  0  0
  9 35  1  0  0  0  0
  9 36  1  0  0  0  0
 10 11  1  0  0  0  0
 10 37  1  0  0  0  0
 11 12  2  0  0  0  0
 11 13  1  0  0  0  0
 13 14  1  0  0  0  0
 13 15  1  0  0  0  0
 13 38  1  0  0  0  0
 14 39  1  0  0  0  0
 14 40  1  0  0  0  0
 14 41  1  0  0  0  0
 15 19  1  0  0  0  0
 15 16  1  0  0  0  0
 16 17  2  0  0  0  0
 16 42  1  0  0  0  0
 17 18  1  0  0  0  0
 18 19  2  0  0  0  0
 18 43  1  0  0  0  0
 20 44  1  0  0  0  0
 20 45  1  0  0  0  0
M  CHG  1   7   1
M  END
> <s_m_source_file>
AV-unprocessed.smi

> <i_m_source_file_index>
3337

> <i_lp_mmshare_version>
43012

> <i_f3d_flags>
0

> <s_epik_input>
W0NIM11bQ0BASF0xW0NIMl1bQ0BASF0oW0NIM10pW0NIMl1OKFtDSDJdMSlbQ0gyXVtDSDJdW05IXUMoPU8pW0NASF0oW0NIM10pbjJbY0hdbltjSF1uMg==

> <s_epik_cmdline>
J2VwaWtfcHl0aG9uJywgJy1waCcsICc3LjAnLCAnLXRuJywgJzgnLCAnLW1hJywgJzIwMCcsICctbWV0YWxfYmluZGluZycsICctaW1hZScsICc8aW5maWxlLm1hZT4nLCAnLW9tYWUnLCAnPG91dGZpbGUubWFlPic=

> <r_lp_tautomer_probability>
1

> <r_epik_Ionization_Penalty>
0.00175613

> <r_epik_Ionization_Penalty_Charging>
0.00174812

> <r_epik_Ionization_Penalty_Neutral>
8.01354e-06

> <r_epik_State_Penalty>
0.00118332

> <r_epik_Charging_Adjusted_Penalty>
0.00293143

> <i_epik_Tot_Q>
1

> <i_epik_Tot_abs_Q>
1

> <r_epik_Metal_State_Penalty>
-0

> <b_epik_Metal_Only>
0

> <s_lp_Force_Field>
OPLS_2005

> <r_lp_Energy>
24.7209

> <b_lp_Chiralities_Consistent>
1

> <s_lp_Variant>
AV-unprocessed.smi:3337-5

> <Gold.Version>
5.8.1

> <Gold.Id.Protein>
6NUR|6NUR_protein|mol2

> <Gold.PLP.Fitness>
45.8107

> <Gold.PLP.PLP>
-40.2159

> <Gold.PLP.part.hbond>
-2.0000

> <Gold.PLP.part.metal>
0.0000

> <Gold.PLP.part.buried>
-4.9686

> <Gold.PLP.part.nonpolar>
-33.8953

> <Gold.PLP.part.repulsive>
1.7174

> <Gold.PLP.ligand.clash>
0.0000

> <Gold.PLP.ligand.torsion>
0.3900

> <Gold.PLP.Chemscore.Hbond>
1.0814

> <Gold.PLP.Chemscore.CHOScore>
1.0000

> <Gold.PLP.Chemscore.Metal>
0.0000

> <Gold.Chemscore.Hbonds>
donor molecule, donor type, donor heavy atom, donor atom, acceptor molecule, acceptor atom, score
      P1  H  7989  7998       L1    12  0.18
      P1  H  8011  8017       L1    12  0.86
      L1  C    16    42       P1 10175  0.96

> <Gold.PLP.Chemscore.Internal.Correction>
0.1307

> <Gold.Rescore>
     Score         DG    S(hbond)    S(metal)    S(lipo)     H(rot)  DE(clash)    DE(int)     intcor
     12.61     -14.76       1.12        0.00     102.19       2.51       0.46       1.70       ----

> <Gold.Chemscore.Fitness>
12.6055

> <Gold.Chemscore.DG>
-14.7579

> <Gold.Chemscore.ZeroCoef>
-5.4800

> <Gold.Chemscore.Hbond>
1.1241

> <Gold.Chemscore.Metal>
0.0000

> <Gold.Chemscore.Lipo>
102.1936

> <Gold.Chemscore.Internal_Hbond>
0.0000

> <Gold.Chemscore.DEClash>
0.4552

> <Gold.Chemscore.DEInternal>
1.6972

> <Gold.Chemscore.Rot>
2.5129

> <Gold.Chemscore.Internal.Correction>
   9.000000E+99

> <Gold.Chemscore.Hbonds>
donor molecule, donor type, donor heavy atom, donor atom, acceptor molecule, acceptor atom, score
      P1  H  7989  7998       L1    12  0.18
      P1  H  8011  8017       L1    12  0.83

> <Gold.Chemscore.Hbond.Weighted>
-3.7543

> <Gold.Chemscore.Metal.Weighted>
-0.0000

> <Gold.Chemscore.Lipo.Weighted>
-11.9567

> <Gold.Chemscore.Internal_Hbond.Weighted>
0.0000

> <Gold.Chemscore.DEClash.Weighted>
0.4552

> <Gold.Chemscore.DEInternal.Weighted>
1.6972

> <Gold.Chemscore.Rot.Weighted>
6.4331

> <Gold.Chemscore.Internal.Correction.Weighted>
   9.000000E+99

> <Gold.Protein.RotatedTorsions>
[ 6907 6896 6895 6894 ] final -169.50 input  -60.11 | X-H torsion
[ 7974 7965 7964 7962 ] final -139.81 input  175.53 | X-H torsion
[ 8008 7997 7996 7995 ] final   14.28 input   59.86 | X-H torsion
[ 10167 10162 10161 10158 ] final   30.95 input  -65.29 | X-H torsion
[ 10718 10713 10712 10709 ] final -153.32 input   66.30 | X-H torsion
[ 10763 10752 10751 10750 ] final  -87.49 input  -60.55 | X-H torsion
[ 11005 11000 10999 10996 ] final   24.55 input  -57.11 | X-H torsion

> <Gold.Protein.ActiveResidues>
 VAL166  LYS551  ARG553  GLY616  TRP617  ASP618  TYR619  PRO620  LYS621  CYS622 
 ASP623  PHE694  ASN695  SER759  ASP760  ASP761  ALA762  ILE779  LEU786  VAL792 
 PHE793  MET794  SER795  GLU796  ALA797  LYS798  CYS799  TRP800  GLU811  SER814 

> <Gold.Protein.RotatedAtoms>
  151.4926  133.3521  159.2855 H   0  0  0  0  0  0  0  0  0  0  0  0  # atno 6907 bound_to 6896
  150.8825  134.8220  159.7246 H   0  0  0  0  0  0  0  0  0  0  0  0  # atno 6908 bound_to 6896
  152.4771  134.4826  159.9722 H   0  0  0  0  0  0  0  0  0  0  0  0  # atno 6909 bound_to 6896
  144.8647  140.6274  143.5306 H   0  0  0  0  0  0  0  0  0  0  0  0  # atno 7974 bound_to 7965
  154.8463  140.2922  155.5627 H   0  0  0  0  0  0  0  0  0  0  0  0  # atno 8008 bound_to 7997
  156.3014  140.2504  156.3346 H   0  0  0  0  0  0  0  0  0  0  0  0  # atno 8009 bound_to 7997
  154.9070  140.0389  157.1914 H   0  0  0  0  0  0  0  0  0  0  0  0  # atno 8010 bound_to 7997
  140.4632  144.0874  150.6218 H   0  0  0  0  0  0  0  0  0  0  0  0  # atno 10167 bound_to 10162
  156.4842  130.8317  151.2543 H   0  0  0  0  0  0  0  0  0  0  0  0  # atno 10718 bound_to 10713
  154.6342  135.5411  153.7714 H   0  0  0  0  0  0  0  0  0  0  0  0  # atno 10763 bound_to 10752
  153.0300  135.6443  154.1257 H   0  0  0  0  0  0  0  0  0  0  0  0  # atno 10764 bound_to 10752
  154.1185  135.2922  155.3194 H   0  0  0  0  0  0  0  0  0  0  0  0  # atno 10765 bound_to 10752
  140.3574  134.2162  155.7675 H   0  0  0  0  0  0  0  0  0  0  0  0  # atno 11005 bound_to 11000
  145.4245  139.1558  143.4056 LP  0  0  0  0  0  0  0  0  0  0  0  0  # atno 17320 bound_to 7965
  146.2887  140.4357  142.8748 LP  0  0  0  0  0  0  0  0  0  0  0  0  # atno 17321 bound_to 7965
  140.4068  143.2676  151.9882 LP  0  0  0  0  0  0  0  0  0  0  0  0  # atno 17342 bound_to 10162
  139.4809  144.5950  151.7705 LP  0  0  0  0  0  0  0  0  0  0  0  0  # atno 17343 bound_to 10162
  157.7480  131.0035  150.3039 LP  0  0  0  0  0  0  0  0  0  0  0  0  # atno 17370 bound_to 10713
  156.3491  130.3828  149.7344 LP  0  0  0  0  0  0  0  0  0  0  0  0  # atno 17371 bound_to 10713
  141.1994  133.8012  157.0537 LP  0  0  0  0  0  0  0  0  0  0  0  0  # atno 17394 bound_to 11000
  140.0654  134.9732  157.1376 LP  0  0  0  0  0  0  0  0  0  0  0  0  # atno 17395 bound_to 11000

$$$$
