AV-unprocessed.smi:770|AV-procd|sdf|3679|dock7
  -GOLD-   22720 1 93D 1   1.00000     0.00000
 Structure written by MMmdl.
 37 38  0  0  0  0  0  0  0  0  1 V2000
  146.9494  132.2115  151.9331 C   0  0  0  0  0  0  0  0  0  0  0  0
  147.9292  132.3985  152.6374 C   0  0  0  0  0  0  0  0  0  0  0  0
  149.1188  132.6457  153.4710 C   0  0  0  0  0  0  0  0  0  0  0  0
  149.4533  134.0624  153.5620 N   0  0  0  0  0  0  0  0  0  0  0  0
  150.2049  134.6149  154.5250 C   0  0  0  0  0  0  0  0  0  0  0  0
  150.7595  133.9743  155.4183 O   0  0  0  0  0  0  0  0  0  0  0  0
  150.2408  135.9517  154.4223 N   0  0  0  0  0  0  0  0  0  0  0  0
  150.8567  136.8565  155.3910 C   0  0  0  0  0  0  0  0  0  0  0  0
  151.6190  138.0118  154.7100 C   0  0  0  0  0  0  0  0  0  0  0  0
  151.0990  139.3713  155.0779 C   0  0  0  0  0  0  0  0  0  0  0  0
  150.0493  140.0381  154.4945 C   0  0  0  0  0  0  0  0  0  0  0  0
  149.7245  141.5570  155.2828 S   0  0  0  0  0  0  0  0  0  0  0  0
  151.0629  141.2336  156.3803 C   0  0  0  0  0  0  0  0  0  0  0  0
  151.4192  142.1190  157.3928 N   0  0  0  0  0  0  0  0  0  0  0  0
  151.2285  143.5660  157.3793 C   0  0  0  0  0  0  0  0  0  0  0  0
  151.4924  144.0824  158.7914 C   0  0  0  0  0  0  0  0  0  0  0  0
  152.5190  143.0929  159.3068 C   0  0  0  0  0  0  0  0  0  0  0  0
  152.0645  141.7869  158.6591 C   0  0  0  0  0  0  0  0  0  0  0  0
  151.6779  140.0730  156.1394 N   0  0  0  0  0  0  0  0  0  0  0  0
  146.0955  132.0544  151.3133 H   0  0  0  0  0  0  0  0  0  0  0  0
  148.9491  132.2162  154.4596 H   0  0  0  0  0  0  0  0  0  0  0  0
  149.9583  132.1108  153.0269 H   0  0  0  0  0  0  0  0  0  0  0  0
  149.0398  134.6722  152.8720 H   0  0  0  0  0  0  0  0  0  0  0  0
  149.7546  136.3801  153.6482 H   0  0  0  0  0  0  0  0  0  0  0  0
  150.1045  137.2560  156.0735 H   0  0  0  0  0  0  0  0  0  0  0  0
  151.5455  136.2771  156.0059 H   0  0  0  0  0  0  0  0  0  0  0  0
  152.6764  137.9392  154.9664 H   0  0  0  0  0  0  0  0  0  0  0  0
  151.5706  137.8803  153.6285 H   0  0  0  0  0  0  0  0  0  0  0  0
  149.4332  139.7164  153.6683 H   0  0  0  0  0  0  0  0  0  0  0  0
  151.9386  144.0006  156.6750 H   0  0  0  0  0  0  0  0  0  0  0  0
  150.2247  143.8274  157.0434 H   0  0  0  0  0  0  0  0  0  0  0  0
  151.8426  145.1146  158.8090 H   0  0  0  0  0  0  0  0  0  0  0  0
  150.5821  144.0195  159.3891 H   0  0  0  0  0  0  0  0  0  0  0  0
  153.5113  143.3649  158.9438 H   0  0  0  0  0  0  0  0  0  0  0  0
  152.5562  143.0392  160.3952 H   0  0  0  0  0  0  0  0  0  0  0  0
  151.3378  141.2789  159.2941 H   0  0  0  0  0  0  0  0  0  0  0  0
  152.9059  141.1100  158.5072 H   0  0  0  0  0  0  0  0  0  0  0  0
  1  2  3  0  0  0  0
  1 20  1  0  0  0  0
  2  3  1  0  0  0  0
  3  4  1  0  0  0  0
  3 21  1  0  0  0  0
  3 22  1  0  0  0  0
  4  5  1  0  0  0  0
  4 23  1  0  0  0  0
  5  6  2  0  0  0  0
  5  7  1  0  0  0  0
  7  8  1  0  0  0  0
  7 24  1  0  0  0  0
  8  9  1  0  0  0  0
  8 25  1  0  0  0  0
  8 26  1  0  0  0  0
  9 10  1  0  0  0  0
  9 27  1  0  0  0  0
  9 28  1  0  0  0  0
 10 19  1  0  0  0  0
 10 11  2  0  0  0  0
 11 12  1  0  0  0  0
 11 29  1  0  0  0  0
 12 13  1  0  0  0  0
 13 14  1  0  0  0  0
 13 19  2  0  0  0  0
 14 18  1  0  0  0  0
 14 15  1  0  0  0  0
 15 16  1  0  0  0  0
 15 30  1  0  0  0  0
 15 31  1  0  0  0  0
 16 17  1  0  0  0  0
 16 32  1  0  0  0  0
 16 33  1  0  0  0  0
 17 18  1  0  0  0  0
 17 34  1  0  0  0  0
 17 35  1  0  0  0  0
 18 36  1  0  0  0  0
 18 37  1  0  0  0  0
M  END
> <s_m_source_file>
AV-unprocessed.smi

> <i_m_source_file_index>
770

> <i_lp_mmshare_version>
43012

> <i_f3d_flags>
0

> <s_epik_input>
W0NIXSNDW0NIMl1bTkhdQyg9TylbTkhdW0NIMl1bQ0gyXWMxW2NIXXNjKG4xKU4yW0NIMl1bQ0gyXVtDSDJdW0NIMl0y

> <s_epik_cmdline>
J2VwaWtfcHl0aG9uJywgJy1waCcsICc3LjAnLCAnLXRuJywgJzgnLCAnLW1hJywgJzIwMCcsICctbWV0YWxfYmluZGluZycsICctaW1hZScsICc8aW5maWxlLm1hZT4nLCAnLW9tYWUnLCAnPG91dGZpbGUubWFlPic=

> <r_epik_Ionization_Penalty>
0.174338

> <r_epik_Ionization_Penalty_Charging>
0

> <r_epik_Ionization_Penalty_Neutral>
0.174338

> <r_epik_State_Penalty>
0.163676

> <r_epik_Charging_Adjusted_Penalty>
0.163676

> <i_epik_Tot_Q>
0

> <i_epik_Tot_abs_Q>
0

> <r_epik_Metal_State_Penalty>
0.126089

> <b_epik_Metal_Only>
0

> <s_lp_Force_Field>
OPLS_2005

> <r_lp_Energy>
12.0865

> <b_lp_Chiralities_Consistent>
1

> <s_lp_Variant>
AV-unprocessed.smi:770-1

> <Gold.Version>
5.8.1

> <Gold.Id.Protein>
6NUR|6NUR_protein|mol2

> <Gold.PLP.Fitness>
46.2685

> <Gold.PLP.PLP>
-40.3163

> <Gold.PLP.part.hbond>
-2.1298

> <Gold.PLP.part.metal>
0.0000

> <Gold.PLP.part.buried>
-1.7215

> <Gold.PLP.part.nonpolar>
-36.8133

> <Gold.PLP.part.repulsive>
0.0918

> <Gold.PLP.ligand.clash>
0.0000

> <Gold.PLP.ligand.torsion>
1.3461

> <Gold.PLP.Chemscore.Hbond>
1.8864

> <Gold.PLP.Chemscore.CHOScore>
0.9906

> <Gold.PLP.Chemscore.Metal>
0.0000

> <Gold.Chemscore.Hbonds>
donor molecule, donor type, donor heavy atom, donor atom, acceptor molecule, acceptor atom, score
      L1  H     4    23       P1  7948  0.45
      L1  H     7    24       P1  7948  0.98
      L1  C    11    29       P1  7957  0.99

> <Gold.PLP.Chemscore.Internal.Correction>
0.0135

> <Gold.Rescore>
     Score         DG    S(hbond)    S(metal)    S(lipo)     H(rot)  DE(clash)    DE(int)     intcor
     15.31     -16.61       1.36        0.00      93.98       1.73       0.01       1.29       ----

> <Gold.Chemscore.Fitness>
15.3065

> <Gold.Chemscore.DG>
-16.6115

> <Gold.Chemscore.ZeroCoef>
-5.4800

> <Gold.Chemscore.Hbond>
1.3640

> <Gold.Chemscore.Metal>
0.0000

> <Gold.Chemscore.Lipo>
93.9836

> <Gold.Chemscore.Internal_Hbond>
0.0000

> <Gold.Chemscore.DEClash>
0.0130

> <Gold.Chemscore.DEInternal>
1.2920

> <Gold.Chemscore.Rot>
1.7267

> <Gold.Chemscore.Internal.Correction>
   9.000000E+99

> <Gold.Chemscore.Hbonds>
donor molecule, donor type, donor heavy atom, donor atom, acceptor molecule, acceptor atom, score
      L1  H     4    23       P1  7948  0.02
      L1  H     7    24       P1  7948  0.32

> <Gold.Chemscore.Hbond.Weighted>
-4.5558

> <Gold.Chemscore.Metal.Weighted>
-0.0000

> <Gold.Chemscore.Lipo.Weighted>
-10.9961

> <Gold.Chemscore.Internal_Hbond.Weighted>
0.0000

> <Gold.Chemscore.DEClash.Weighted>
0.0130

> <Gold.Chemscore.DEInternal.Weighted>
1.2920

> <Gold.Chemscore.Rot.Weighted>
4.4204

> <Gold.Chemscore.Internal.Correction.Weighted>
   9.000000E+99

> <Gold.Protein.RotatedTorsions>
[ 6907 6896 6895 6894 ] final -130.40 input  -60.11 | X-H torsion
[ 7974 7965 7964 7962 ] final    0.47 input  175.53 | X-H torsion
[ 8008 7997 7996 7995 ] final   96.06 input   59.86 | X-H torsion
[ 10167 10162 10161 10158 ] final  -59.19 input  -65.29 | X-H torsion
[ 10718 10713 10712 10709 ] final -107.94 input   66.30 | X-H torsion
[ 10763 10752 10751 10750 ] final -108.79 input  -60.55 | X-H torsion
[ 11005 11000 10999 10996 ] final -164.01 input  -57.11 | X-H torsion

> <Gold.Protein.ActiveResidues>
 VAL166  LYS551  ARG553  GLY616  TRP617  ASP618  TYR619  PRO620  LYS621  CYS622 
 ASP623  PHE694  ASN695  SER759  ASP760  ASP761  ALA762  ILE779  LEU786  VAL792 
 PHE793  MET794  SER795  GLU796  ALA797  LYS798  CYS799  TRP800  GLU811  SER814 

> <Gold.Protein.RotatedAtoms>
  150.9393  133.6675  159.2793 H   0  0  0  0  0  0  0  0  0  0  0  0  # atno 6907 bound_to 6896
  151.4069  135.0978  159.9583 H   0  0  0  0  0  0  0  0  0  0  0  0  # atno 6908 bound_to 6896
  152.5062  133.8875  159.7432 H   0  0  0  0  0  0  0  0  0  0  0  0  # atno 6909 bound_to 6896
  146.2434  140.1133  142.8343 H   0  0  0  0  0  0  0  0  0  0  0  0  # atno 7974 bound_to 7965
  156.0756  140.3278  155.7630 H   0  0  0  0  0  0  0  0  0  0  0  0  # atno 8008 bound_to 7997
  155.5235  140.0587  157.2919 H   0  0  0  0  0  0  0  0  0  0  0  0  # atno 8009 bound_to 7997
  154.4554  140.1940  156.0413 H   0  0  0  0  0  0  0  0  0  0  0  0  # atno 8010 bound_to 7997
  140.6151  143.2399  151.5617 H   0  0  0  0  0  0  0  0  0  0  0  0  # atno 10167 bound_to 10162
  156.0461  130.5688  150.7891 H   0  0  0  0  0  0  0  0  0  0  0  0  # atno 10718 bound_to 10713
  154.8156  135.4625  154.0633 H   0  0  0  0  0  0  0  0  0  0  0  0  # atno 10763 bound_to 10752
  153.2029  135.6871  153.8215 H   0  0  0  0  0  0  0  0  0  0  0  0  # atno 10764 bound_to 10752
  153.7693  135.3272  155.3326 H   0  0  0  0  0  0  0  0  0  0  0  0  # atno 10765 bound_to 10752
  140.5917  134.5038  157.5193 H   0  0  0  0  0  0  0  0  0  0  0  0  # atno 11005 bound_to 11000
  145.0468  140.8987  143.5019 LP  0  0  0  0  0  0  0  0  0  0  0  0  # atno 17320 bound_to 7965
  145.1224  139.2685  143.5581 LP  0  0  0  0  0  0  0  0  0  0  0  0  # atno 17321 bound_to 7965
  139.5392  144.2696  152.1315 LP  0  0  0  0  0  0  0  0  0  0  0  0  # atno 17342 bound_to 10162
  140.1903  144.4758  150.6482 LP  0  0  0  0  0  0  0  0  0  0  0  0  # atno 17343 bound_to 10162
  157.5337  131.0938  150.9921 LP  0  0  0  0  0  0  0  0  0  0  0  0  # atno 17370 bound_to 10713
  157.0221  130.5678  149.5332 LP  0  0  0  0  0  0  0  0  0  0  0  0  # atno 17371 bound_to 10713
  139.9271  134.8034  156.1036 LP  0  0  0  0  0  0  0  0  0  0  0  0  # atno 17394 bound_to 11000
  141.0931  133.6706  156.2584 LP  0  0  0  0  0  0  0  0  0  0  0  0  # atno 17395 bound_to 11000

$$$$
