AV-unprocessed.smi:3330|AV-procd|sdf|12808|dock9
  -GOLD-   2272019173D 1   1.00000     0.00000
 Structure written by MMmdl.
 38 39  0  0  0  0  0  0  0  0  1 V2000
  153.2636  138.9334  159.8913 C   0  0  0  0  0  0  0  0  0  0  0  0
  152.7195  140.1912  159.1866 C   0  0  1  0  0  0  0  0  0  0  0  0
  151.3050  139.9898  158.8866 N   0  0  0  0  0  0  0  0  0  0  0  0
  151.0715  138.7673  158.1321 C   0  0  0  0  0  0  0  0  0  0  0  0
  151.9314  138.7763  156.8566 C   0  0  0  0  0  0  0  0  0  0  0  0
  151.1118  138.6628  155.6436 N   0  0  0  0  0  0  0  0  0  0  0  0
  150.4459  139.6791  155.0788 C   0  0  0  0  0  0  0  0  0  0  0  0
  150.4068  140.8509  155.4527 O   0  0  0  0  0  0  0  0  0  0  0  0
  149.7265  139.1596  153.8531 C   0  0  0  0  0  0  0  0  0  0  0  0
  150.1565  137.7792  153.8963 N   0  0  0  0  0  0  0  0  0  0  0  0
  150.9536  137.5250  154.9421 C   0  0  0  0  0  0  0  0  0  0  0  0
  151.4519  136.4308  155.2023 O   0  0  0  0  0  0  0  0  0  0  0  0
  152.8585  141.4788  160.0445 C   0  0  1  0  0  0  0  0  0  0  0  0
  154.2883  141.6991  160.5724 C   0  0  0  0  0  0  0  0  0  0  0  0
  152.4194  142.6655  159.3153 N   0  0  0  0  0  0  0  0  0  0  0  0
  152.5129  143.9856  159.7049 C   0  0  0  0  0  0  0  0  0  0  0  0
  151.9778  144.7463  158.7055 C   0  0  0  0  0  0  0  0  0  0  0  0
  151.5801  143.7909  157.7296 C   0  0  0  0  0  0  0  0  0  0  0  0
  151.8460  142.5480  158.0953 N   0  0  0  0  0  0  0  0  0  0  0  0
  154.3312  139.0177  160.0909 H   0  0  0  0  0  0  0  0  0  0  0  0
  153.1336  138.0398  159.2813 H   0  0  0  0  0  0  0  0  0  0  0  0
  152.7591  138.7618  160.8427 H   0  0  0  0  0  0  0  0  0  0  0  0
  153.2674  140.3443  158.2556 H   0  0  0  0  0  0  0  0  0  0  0  0
  150.9909  140.7686  158.3248 H   0  0  0  0  0  0  0  0  0  0  0  0
  151.3084  137.8880  158.7327 H   0  0  0  0  0  0  0  0  0  0  0  0
  150.0162  138.7033  157.8673 H   0  0  0  0  0  0  0  0  0  0  0  0
  152.4935  139.7106  156.8141 H   0  0  0  0  0  0  0  0  0  0  0  0
  152.6854  137.9880  156.8956 H   0  0  0  0  0  0  0  0  0  0  0  0
  148.6445  139.2474  153.9547 H   0  0  0  0  0  0  0  0  0  0  0  0
  150.0610  139.6569  152.9428 H   0  0  0  0  0  0  0  0  0  0  0  0
  149.8789  137.0937  153.2087 H   0  0  0  0  0  0  0  0  0  0  0  0
  152.2027  141.3814  160.9115 H   0  0  0  0  0  0  0  0  0  0  0  0
  154.5848  140.9177  161.2712 H   0  0  0  0  0  0  0  0  0  0  0  0
  154.3660  142.6473  161.1052 H   0  0  0  0  0  0  0  0  0  0  0  0
  155.0155  141.7153  159.7600 H   0  0  0  0  0  0  0  0  0  0  0  0
  152.9451  144.2708  160.6530 H   0  0  0  0  0  0  0  0  0  0  0  0
  151.8830  145.8217  158.6769 H   0  0  0  0  0  0  0  0  0  0  0  0
  151.1064  143.9622  156.7744 H   0  0  0  0  0  0  0  0  0  0  0  0
  1  2  1  0  0  0  0
  1 20  1  0  0  0  0
  1 21  1  0  0  0  0
  1 22  1  0  0  0  0
  2  3  1  0  0  0  0
  2 13  1  0  0  0  0
  2 23  1  0  0  0  0
  3  4  1  0  0  0  0
  3 24  1  0  0  0  0
  4  5  1  0  0  0  0
  4 25  1  0  0  0  0
  4 26  1  0  0  0  0
  5  6  1  0  0  0  0
  5 27  1  0  0  0  0
  5 28  1  0  0  0  0
  6 11  1  0  0  0  0
  6  7  1  0  0  0  0
  7  8  2  0  0  0  0
  7  9  1  0  0  0  0
  9 10  1  0  0  0  0
  9 29  1  0  0  0  0
  9 30  1  0  0  0  0
 10 11  1  0  0  0  0
 10 31  1  0  0  0  0
 11 12  2  0  0  0  0
 13 14  1  0  0  0  0
 13 15  1  0  0  0  0
 13 32  1  0  0  0  0
 14 33  1  0  0  0  0
 14 34  1  0  0  0  0
 14 35  1  0  0  0  0
 15 19  1  0  0  0  0
 15 16  1  0  0  0  0
 16 17  2  0  0  0  0
 16 36  1  0  0  0  0
 17 18  1  0  0  0  0
 17 37  1  0  0  0  0
 18 19  2  0  0  0  0
 18 38  1  0  0  0  0
M  END
> <s_m_source_file>
AV-unprocessed.smi

> <i_m_source_file_index>
3330

> <i_lp_mmshare_version>
43012

> <i_f3d_flags>
0

> <s_epik_input>
bjFbY0hdW2NIXVtjSF1uMVtDQEBIXShbQ0gzXSlbQ0BIXShbQ0gzXSlbTkhdW0NIMl1bQ0gyXU4yQyg9TylbQ0gyXVtOSF1DMj1P

> <s_epik_cmdline>
J2VwaWtfcHl0aG9uJywgJy1waCcsICc3LjAnLCAnLXRuJywgJzgnLCAnLW1hJywgJzIwMCcsICctbWV0YWxfYmluZGluZycsICctaW1hZScsICc8aW5maWxlLm1hZT4nLCAnLW9tYWUnLCAnPG91dGZpbGUubWFlPic=

> <r_lp_tautomer_probability>
1

> <r_epik_Ionization_Penalty>
2.2997

> <r_epik_Ionization_Penalty_Charging>
0

> <r_epik_Ionization_Penalty_Neutral>
2.2997

> <r_epik_State_Penalty>
2.44917

> <r_epik_Charging_Adjusted_Penalty>
2.44917

> <i_epik_Tot_Q>
0

> <i_epik_Tot_abs_Q>
0

> <r_epik_Metal_State_Penalty>
2.52438

> <b_epik_Metal_Only>
0

> <s_lp_Force_Field>
OPLS_2005

> <r_lp_Energy>
27.2157

> <b_lp_Chiralities_Consistent>
1

> <s_lp_Variant>
AV-unprocessed.smi:3330-8

> <Gold.Version>
5.8.1

> <Gold.Id.Protein>
6NUR|6NUR_protein|mol2

> <Gold.PLP.Fitness>
46.5428

> <Gold.PLP.PLP>
-39.1878

> <Gold.PLP.part.hbond>
-3.4932

> <Gold.PLP.part.metal>
0.0000

> <Gold.PLP.part.buried>
-1.6624

> <Gold.PLP.part.nonpolar>
-34.8176

> <Gold.PLP.part.repulsive>
0.2959

> <Gold.PLP.ligand.clash>
0.0000

> <Gold.PLP.ligand.torsion>
0.8696

> <Gold.PLP.Chemscore.Hbond>
2.0000

> <Gold.PLP.Chemscore.CHOScore>
0.9936

> <Gold.PLP.Chemscore.Metal>
0.0000

> <Gold.Chemscore.Hbonds>
donor molecule, donor type, donor heavy atom, donor atom, acceptor molecule, acceptor atom, score
      L1  H    10    31       P1  7948  1.00
      P1  H 10752 10764       L1    12  1.00
      L1  C    18    38       P1  8028  0.89

> <Gold.PLP.Chemscore.Internal.Correction>
0.1134

> <Gold.Rescore>
     Score         DG    S(hbond)    S(metal)    S(lipo)     H(rot)  DE(clash)    DE(int)     intcor
     13.36     -15.56       1.95        0.00      87.27       2.60       0.15       2.05       ----

> <Gold.Chemscore.Fitness>
13.3551

> <Gold.Chemscore.DG>
-15.5600

> <Gold.Chemscore.ZeroCoef>
-5.4800

> <Gold.Chemscore.Hbond>
1.9500

> <Gold.Chemscore.Metal>
0.0000

> <Gold.Chemscore.Lipo>
87.2709

> <Gold.Chemscore.Internal_Hbond>
0.0000

> <Gold.Chemscore.DEClash>
0.1541

> <Gold.Chemscore.DEInternal>
2.0508

> <Gold.Chemscore.Rot>
2.5952

> <Gold.Chemscore.Internal.Correction>
   9.000000E+99

> <Gold.Chemscore.Hbonds>
donor molecule, donor type, donor heavy atom, donor atom, acceptor molecule, acceptor atom, score
      L1  H    10    31       P1  7948  0.30
      P1  H 10752 10764       L1    12  1.00

> <Gold.Chemscore.Hbond.Weighted>
-6.5130

> <Gold.Chemscore.Metal.Weighted>
-0.0000

> <Gold.Chemscore.Lipo.Weighted>
-10.2107

> <Gold.Chemscore.Internal_Hbond.Weighted>
0.0000

> <Gold.Chemscore.DEClash.Weighted>
0.1541

> <Gold.Chemscore.DEInternal.Weighted>
2.0508

> <Gold.Chemscore.Rot.Weighted>
6.6437

> <Gold.Chemscore.Internal.Correction.Weighted>
   9.000000E+99

> <Gold.Protein.RotatedTorsions>
[ 6907 6896 6895 6894 ] final  -51.48 input  -60.11 | X-H torsion
[ 7974 7965 7964 7962 ] final -102.08 input  175.53 | X-H torsion
[ 8008 7997 7996 7995 ] final -113.64 input   59.86 | X-H torsion
[ 10167 10162 10161 10158 ] final   77.91 input  -65.29 | X-H torsion
[ 10718 10713 10712 10709 ] final   91.48 input   66.30 | X-H torsion
[ 10763 10752 10751 10750 ] final  -54.30 input  -60.55 | X-H torsion
[ 11005 11000 10999 10996 ] final -127.48 input  -57.11 | X-H torsion

> <Gold.Protein.ActiveResidues>
 VAL166  LYS551  ARG553  GLY616  TRP617  ASP618  TYR619  PRO620  LYS621  CYS622 
 ASP623  PHE694  ASN695  SER759  ASP760  ASP761  ALA762  ILE779  LEU786  VAL792 
 PHE793  MET794  SER795  GLU796  ALA797  LYS798  CYS799  TRP800  GLU811  SER814 

> <Gold.Protein.RotatedAtoms>
  150.8607  134.7958  159.7080 H   0  0  0  0  0  0  0  0  0  0  0  0  # atno 6907 bound_to 6896
  152.4645  134.5104  159.9762 H   0  0  0  0  0  0  0  0  0  0  0  0  # atno 6908 bound_to 6896
  151.5208  133.3428  159.2937 H   0  0  0  0  0  0  0  0  0  0  0  0  # atno 6909 bound_to 6896
  145.2733  140.9305  143.2974 H   0  0  0  0  0  0  0  0  0  0  0  0  # atno 7974 bound_to 7965
  155.0239  140.0393  157.2448 H   0  0  0  0  0  0  0  0  0  0  0  0  # atno 8008 bound_to 7997
  154.7354  140.2738  155.6396 H   0  0  0  0  0  0  0  0  0  0  0  0  # atno 8009 bound_to 7997
  156.2851  140.2676  156.2066 H   0  0  0  0  0  0  0  0  0  0  0  0  # atno 8010 bound_to 7997
  139.9766  144.5857  150.7938 H   0  0  0  0  0  0  0  0  0  0  0  0  # atno 10167 bound_to 10162
  157.6960  131.0409  150.3735 H   0  0  0  0  0  0  0  0  0  0  0  0  # atno 10718 bound_to 10713
  154.1726  135.6456  153.5013 H   0  0  0  0  0  0  0  0  0  0  0  0  # atno 10763 bound_to 10752
  153.0080  135.5387  154.6597 H   0  0  0  0  0  0  0  0  0  0  0  0  # atno 10764 bound_to 10752
  154.5940  135.2937  155.0578 H   0  0  0  0  0  0  0  0  0  0  0  0  # atno 10765 bound_to 10752
  140.9596  134.0955  157.3982 H   0  0  0  0  0  0  0  0  0  0  0  0  # atno 11005 bound_to 11000
  144.9316  139.4292  143.6492 LP  0  0  0  0  0  0  0  0  0  0  0  0  # atno 17320 bound_to 7965
  146.3239  139.8230  142.8923 LP  0  0  0  0  0  0  0  0  0  0  0  0  # atno 17321 bound_to 7965
  140.7504  143.2954  151.3218 LP  0  0  0  0  0  0  0  0  0  0  0  0  # atno 17342 bound_to 10162
  139.6441  144.0484  152.2577 LP  0  0  0  0  0  0  0  0  0  0  0  0  # atno 17343 bound_to 10162
  156.4157  130.3943  149.6860 LP  0  0  0  0  0  0  0  0  0  0  0  0  # atno 17370 bound_to 10713
  156.4128  130.7730  151.2744 LP  0  0  0  0  0  0  0  0  0  0  0  0  # atno 17371 bound_to 10713
  139.8873  135.0089  156.6554 LP  0  0  0  0  0  0  0  0  0  0  0  0  # atno 17394 bound_to 11000
  140.7487  133.8916  155.8331 LP  0  0  0  0  0  0  0  0  0  0  0  0  # atno 17395 bound_to 11000

$$$$
