AV-unprocessed.smi:62|AV-procd|sdf|606|dock3
  -GOLD-   2262016503D 1   1.00000     0.00000
 Structure written by MMmdl.
 30 31  0  0  0  0  0  0  0  0  2 V2000
  148.4147  141.2277  153.8189 C   0  0  0  0  0  0  0  0  0  0  0  0
  149.4731  140.9659  154.7702 N   0  0  0  0  0  0  0  0  0  0  0  0
  149.7004  141.5598  155.9903 C   0  0  0  0  0  0  0  0  0  0  0  0
  150.8148  140.9876  156.5382 C   0  0  0  0  0  0  0  0  0  0  0  0
  151.4158  141.3300  157.8811 C   0  0  0  0  0  0  0  0  0  0  0  0
  151.6200  142.7648  158.0549 N   0  0  0  0  0  0  0  0  0  0  0  0
  152.3906  143.1176  159.2355 C   0  0  0  0  0  0  0  0  0  0  0  0
  152.0857  144.5930  159.5298 C   0  0  0  0  0  0  0  0  0  0  0  0
  150.8172  144.8834  158.7106 C   0  0  2  0  0  0  0  0  0  0  0  0
  149.8054  145.5105  159.4706 O   0  0  0  0  0  0  0  0  0  0  0  0
  150.3851  143.5035  158.2121 C   0  0  0  0  0  0  0  0  0  0  0  0
  151.2100  140.0293  155.5432 C   0  0  0  0  0  0  0  0  0  0  0  0
  152.4185  139.1443  155.7028 C   0  0  0  0  0  0  0  0  0  0  0  0
  153.1270  139.2250  156.7300 O   0  0  0  0  0  0  0  0  0  0  0  0
  152.6816  138.3448  154.7770 O   0  5  0  0  0  0  0  0  0  0  0  0
  150.3961  140.0261  154.4948 N   0  0  0  0  0  0  0  0  0  0  0  0
  147.8280  142.0891  154.1396 H   0  0  0  0  0  0  0  0  0  0  0  0
  147.7606  140.3581  153.7486 H   0  0  0  0  0  0  0  0  0  0  0  0
  148.8418  141.4360  152.8374 H   0  0  0  0  0  0  0  0  0  0  0  0
  149.0522  142.3345  156.3718 H   0  0  0  0  0  0  0  0  0  0  0  0
  150.7790  140.9589  158.6844 H   0  0  0  0  0  0  0  0  0  0  0  0
  152.3662  140.8116  158.0160 H   0  0  0  0  0  0  0  0  0  0  0  0
  152.0698  142.5117  160.0845 H   0  0  0  0  0  0  0  0  0  0  0  0
  153.4557  142.9382  159.0854 H   0  0  0  0  0  0  0  0  0  0  0  0
  151.9411  144.7497  160.5995 H   0  0  0  0  0  0  0  0  0  0  0  0
  152.9043  145.2364  159.2057 H   0  0  0  0  0  0  0  0  0  0  0  0
  151.0699  145.5166  157.8590 H   0  0  0  0  0  0  0  0  0  0  0  0
  149.1075  145.7649  158.8867 H   0  0  0  0  0  0  0  0  0  0  0  0
  149.8244  143.5548  157.2782 H   0  0  0  0  0  0  0  0  0  0  0  0
  149.7537  143.0158  158.9572 H   0  0  0  0  0  0  0  0  0  0  0  0
  1  2  1  0  0  0  0
  1 17  1  0  0  0  0
  1 18  1  0  0  0  0
  1 19  1  0  0  0  0
  2 16  1  0  0  0  0
  2  3  1  0  0  0  0
  3  4  2  0  0  0  0
  3 20  1  0  0  0  0
  4  5  1  0  0  0  0
  4 12  1  0  0  0  0
  5  6  1  0  0  0  0
  5 21  1  0  0  0  0
  5 22  1  0  0  0  0
  6 11  1  0  0  0  0
  6  7  1  0  0  0  0
  7  8  1  0  0  0  0
  7 23  1  0  0  0  0
  7 24  1  0  0  0  0
  8  9  1  0  0  0  0
  8 25  1  0  0  0  0
  8 26  1  0  0  0  0
  9 10  1  0  0  0  0
  9 11  1  0  0  0  0
  9 27  1  0  0  0  0
 10 28  1  0  0  0  0
 11 29  1  0  0  0  0
 11 30  1  0  0  0  0
 12 13  1  0  0  0  0
 12 16  2  0  0  0  0
 13 14  2  0  0  0  0
 13 15  1  0  0  0  0
M  CHG  1  15  -1
M  END
> <s_m_source_file>
AV-unprocessed.smi

> <i_m_source_file_index>
62

> <i_lp_mmshare_version>
43012

> <i_f3d_flags>
0

> <s_epik_input>
W0NIM11uMVtjSF1jKGMobjEpQyg9TylbT0hdKVtDSDJdTjJbQ0gyXVtDSDJdW0NAQEhdKFtPSF0pW0NIMl0y

> <s_epik_cmdline>
J2VwaWtfcHl0aG9uJywgJy1waCcsICc3LjAnLCAnLXRuJywgJzgnLCAnLW1hJywgJzIwMCcsICctbWV0YWxfYmluZGluZycsICctaW1hZScsICc8aW5maWxlLm1hZT4nLCAnLW9tYWUnLCAnPG91dGZpbGUubWFlPic=

> <r_epik_Ionization_Penalty>
1.46526

> <r_epik_Ionization_Penalty_Charging>
0.000523675

> <r_epik_Ionization_Penalty_Neutral>
1.46474

> <r_epik_State_Penalty>
1.55202

> <r_epik_Charging_Adjusted_Penalty>
1.55254

> <i_epik_Tot_Q>
-1

> <i_epik_Tot_abs_Q>
1

> <r_epik_Metal_State_Penalty>
1.552

> <b_epik_Metal_Only>
0

> <s_lp_Force_Field>
OPLS_2005

> <r_lp_Energy>
37.4103

> <b_lp_Chiralities_Consistent>
1

> <s_lp_Variant>
AV-unprocessed.smi:62-6

> <Gold.Version>
5.8.1

> <Gold.Id.Protein>
6NUR|6NUR_protein|mol2

> <Gold.PLP.Fitness>
48.6045

> <Gold.PLP.PLP>
-34.9413

> <Gold.PLP.part.hbond>
-4.0000

> <Gold.PLP.part.metal>
0.0000

> <Gold.PLP.part.buried>
-0.2734

> <Gold.PLP.part.nonpolar>
-30.1054

> <Gold.PLP.part.repulsive>
0.1755

> <Gold.PLP.ligand.clash>
0.0000

> <Gold.PLP.ligand.torsion>
0.1407

> <Gold.PLP.Chemscore.Hbond>
3.6500

> <Gold.PLP.Chemscore.CHOScore>
0.9939

> <Gold.PLP.Chemscore.Metal>
0.0000

> <Gold.Chemscore.Hbonds>
donor molecule, donor type, donor heavy atom, donor atom, acceptor molecule, acceptor atom, score
      L1  H    10    28       P1  8029  1.00
      P1  H  7989  7998       L1    16  0.55
      P1  H  7997  8009       L1    14  2.00
      L1  C     3    20       P1  8028  0.98

> <Gold.PLP.Chemscore.Internal.Correction>
0.0128

> <Gold.Rescore>
     Score         DG    S(hbond)    S(metal)    S(lipo)     H(rot)  DE(clash)    DE(int)     intcor
     13.85     -16.66       1.99        0.00      77.47       1.77       0.41       2.40       ----

> <Gold.Chemscore.Fitness>
13.8459

> <Gold.Chemscore.DG>
-16.6559

> <Gold.Chemscore.ZeroCoef>
-5.4800

> <Gold.Chemscore.Hbond>
1.9871

> <Gold.Chemscore.Metal>
0.0000

> <Gold.Chemscore.Lipo>
77.4664

> <Gold.Chemscore.Internal_Hbond>
0.0000

> <Gold.Chemscore.DEClash>
0.4141

> <Gold.Chemscore.DEInternal>
2.3959

> <Gold.Chemscore.Rot>
1.7674

> <Gold.Chemscore.Internal.Correction>
   9.000000E+99

> <Gold.Chemscore.Hbonds>
donor molecule, donor type, donor heavy atom, donor atom, acceptor molecule, acceptor atom, score
      L1  H    10    28       P1  8029  0.95
      P1  H  7989  7998       L1    16  0.02
      P1  H  7997  8009       L1    14  0.57

> <Gold.Chemscore.Hbond.Weighted>
-6.6368

> <Gold.Chemscore.Metal.Weighted>
-0.0000

> <Gold.Chemscore.Lipo.Weighted>
-9.0636

> <Gold.Chemscore.Internal_Hbond.Weighted>
0.0000

> <Gold.Chemscore.DEClash.Weighted>
0.4141

> <Gold.Chemscore.DEInternal.Weighted>
2.3959

> <Gold.Chemscore.Rot.Weighted>
4.5245

> <Gold.Chemscore.Internal.Correction.Weighted>
   9.000000E+99

> <Gold.Protein.RotatedTorsions>
[ 6907 6896 6895 6894 ] final  141.96 input  -60.11 | X-H torsion
[ 7974 7965 7964 7962 ] final  -54.87 input  175.53 | X-H torsion
[ 8008 7997 7996 7995 ] final -163.53 input   59.86 | X-H torsion
[ 10167 10162 10161 10158 ] final  163.83 input  -65.29 | X-H torsion
[ 10718 10713 10712 10709 ] final  -59.53 input   66.30 | X-H torsion
[ 10763 10752 10751 10750 ] final -105.48 input  -60.55 | X-H torsion
[ 11005 11000 10999 10996 ] final   42.06 input  -57.11 | X-H torsion

> <Gold.Protein.ActiveResidues>
 VAL166  LYS551  ARG553  GLY616  TRP617  ASP618  TYR619  PRO620  LYS621  CYS622 
 ASP623  PHE694  ASN695  SER759  ASP760  ASP761  ALA762  ILE779  LEU786  VAL792 
 PHE793  MET794  SER795  GLU796  ALA797  LYS798  CYS799  TRP800  GLU811  SER814 

> <Gold.Protein.RotatedAtoms>
  152.2246  133.5010  159.5181 H   0  0  0  0  0  0  0  0  0  0  0  0  # atno 6907 bound_to 6896
  150.7021  134.1297  159.4074 H   0  0  0  0  0  0  0  0  0  0  0  0  # atno 6908 bound_to 6896
  151.9218  135.0295  160.0573 H   0  0  0  0  0  0  0  0  0  0  0  0  # atno 6909 bound_to 6896
  145.8806  140.8147  142.9841 H   0  0  0  0  0  0  0  0  0  0  0  0  # atno 7974 bound_to 7965
  155.8226  140.0922  157.1840 H   0  0  0  0  0  0  0  0  0  0  0  0  # atno 8008 bound_to 7997
  154.3979  140.1434  156.3578 H   0  0  0  0  0  0  0  0  0  0  0  0  # atno 8009 bound_to 7997
  155.8250  140.3445  155.5540 H   0  0  0  0  0  0  0  0  0  0  0  0  # atno 8010 bound_to 7997
  139.4879  144.4297  151.9086 H   0  0  0  0  0  0  0  0  0  0  0  0  # atno 10167 bound_to 10162
  156.1055  130.4181  150.0728 H   0  0  0  0  0  0  0  0  0  0  0  0  # atno 10718 bound_to 10713
  154.7949  135.4747  154.0139 H   0  0  0  0  0  0  0  0  0  0  0  0  # atno 10763 bound_to 10752
  153.1688  135.6821  153.8644 H   0  0  0  0  0  0  0  0  0  0  0  0  # atno 10764 bound_to 10752
  153.8233  135.3201  155.3390 H   0  0  0  0  0  0  0  0  0  0  0  0  # atno 10765 bound_to 10752
  140.1775  134.4145  155.8220 H   0  0  0  0  0  0  0  0  0  0  0  0  # atno 11005 bound_to 11000
  144.6727  140.1378  143.7439 LP  0  0  0  0  0  0  0  0  0  0  0  0  # atno 17320 bound_to 7965
  145.9027  139.2440  143.1484 LP  0  0  0  0  0  0  0  0  0  0  0  0  # atno 17321 bound_to 7965
  140.3744  144.2815  150.5916 LP  0  0  0  0  0  0  0  0  0  0  0  0  # atno 17342 bound_to 10162
  140.5290  143.2248  151.8269 LP  0  0  0  0  0  0  0  0  0  0  0  0  # atno 17343 bound_to 10162
  156.8705  130.9522  151.3610 LP  0  0  0  0  0  0  0  0  0  0  0  0  # atno 17370 bound_to 10713
  157.6231  130.8670  149.9143 LP  0  0  0  0  0  0  0  0  0  0  0  0  # atno 17371 bound_to 10713
  141.2221  133.6985  156.7872 LP  0  0  0  0  0  0  0  0  0  0  0  0  # atno 17394 bound_to 11000
  140.2306  134.8689  157.3472 LP  0  0  0  0  0  0  0  0  0  0  0  0  # atno 17395 bound_to 11000

$$$$
