AV-unprocessed.smi:2451|AV-procd|sdf|9678|dock3
  -GOLD-   2272013313D 1   1.00000     0.00000
 Structure written by MMmdl.
 37 38  0  0  0  0  0  0  0  0  2 V2000
  153.3596  142.6101  162.5205 C   0  0  0  0  0  0  0  0  0  0  0  0
  152.6600  142.2723  161.1923 C   0  0  1  0  0  0  0  0  0  0  0  0
  152.5485  143.5226  160.2833 C   0  0  0  0  0  0  0  0  0  0  0  0
  151.7785  143.1706  158.9913 C   0  0  0  0  0  0  0  0  0  0  0  0
  152.3509  141.9333  158.2538 C   0  0  0  0  0  0  0  0  0  0  0  0
  152.4655  140.6900  159.1677 C   0  0  1  0  0  0  0  0  0  0  0  0
  153.0421  139.5640  158.4456 N   0  5  0  0  0  0  0  0  0  0  0  0
  152.2441  138.1542  158.3909 S   0  0  0  0  0  0  0  0  0  0  0  0
  152.8510  137.1250  159.2509 O   0  0  0  0  0  0  0  0  0  0  0  0
  150.7854  138.3287  158.4869 O   0  0  0  0  0  0  0  0  0  0  0  0
  152.5884  137.6384  156.6547 C   0  0  0  0  0  0  0  0  0  0  0  0
  151.6536  138.3409  155.7110 C   0  0  0  0  0  0  0  0  0  0  0  0
  150.6952  137.7691  154.8288 C   0  0  0  0  0  0  0  0  0  0  0  0
  150.1297  138.8545  154.2248 C   0  0  0  0  0  0  0  0  0  0  0  0
  150.6802  140.0015  154.6964 O   0  0  0  0  0  0  0  0  0  0  0  0
  151.6496  139.6636  155.6478 N   0  0  0  0  0  0  0  0  0  0  0  0
  153.2906  141.0440  160.4492 C   0  0  1  0  0  0  0  0  0  0  0  0
  154.8102  141.2382  160.1874 C   0  0  0  0  0  0  0  0  0  0  0  0
  154.3568  143.0206  162.3636 H   0  0  0  0  0  0  0  0  0  0  0  0
  153.4526  141.7265  163.1526 H   0  0  0  0  0  0  0  0  0  0  0  0
  152.7901  143.3534  163.0790 H   0  0  0  0  0  0  0  0  0  0  0  0
  151.6406  142.0000  161.4784 H   0  0  0  0  0  0  0  0  0  0  0  0
  152.0384  144.3308  160.8084 H   0  0  0  0  0  0  0  0  0  0  0  0
  153.5417  143.8956  160.0312 H   0  0  0  0  0  0  0  0  0  0  0  0
  150.7278  143.0014  159.2360 H   0  0  0  0  0  0  0  0  0  0  0  0
  151.7886  144.0291  158.3193 H   0  0  0  0  0  0  0  0  0  0  0  0
  151.7157  141.7023  157.3976 H   0  0  0  0  0  0  0  0  0  0  0  0
  153.3296  142.1843  157.8428 H   0  0  0  0  0  0  0  0  0  0  0  0
  151.4534  140.4551  159.5012 H   0  0  0  0  0  0  0  0  0  0  0  0
  153.6254  137.8829  156.4263 H   0  0  0  0  0  0  0  0  0  0  0  0
  152.4814  136.5551  156.5927 H   0  0  0  0  0  0  0  0  0  0  0  0
  150.4659  136.7270  154.6634 H   0  0  0  0  0  0  0  0  0  0  0  0
  149.3588  138.9698  153.4773 H   0  0  0  0  0  0  0  0  0  0  0  0
  153.2052  140.1880  161.1204 H   0  0  0  0  0  0  0  0  0  0  0  0
  155.0212  142.0986  159.5514 H   0  0  0  0  0  0  0  0  0  0  0  0
  155.2705  140.3652  159.7219 H   0  0  0  0  0  0  0  0  0  0  0  0
  155.3539  141.3872  161.1193 H   0  0  0  0  0  0  0  0  0  0  0  0
  1  2  1  0  0  0  0
  1 19  1  0  0  0  0
  1 20  1  0  0  0  0
  1 21  1  0  0  0  0
  2 17  1  0  0  0  0
  2  3  1  0  0  0  0
  2 22  1  0  0  0  0
  3  4  1  0  0  0  0
  3 23  1  0  0  0  0
  3 24  1  0  0  0  0
  4  5  1  0  0  0  0
  4 25  1  0  0  0  0
  4 26  1  0  0  0  0
  5  6  1  0  0  0  0
  5 27  1  0  0  0  0
  5 28  1  0  0  0  0
  6  7  1  0  0  0  0
  6 17  1  0  0  0  0
  6 29  1  0  0  0  0
  7  8  1  0  0  0  0
  8  9  2  0  0  0  0
  8 10  2  0  0  0  0
  8 11  1  0  0  0  0
 11 12  1  0  0  0  0
 11 30  1  0  0  0  0
 11 31  1  0  0  0  0
 12 16  2  0  0  0  0
 12 13  1  0  0  0  0
 13 14  2  0  0  0  0
 13 32  1  0  0  0  0
 14 15  1  0  0  0  0
 14 33  1  0  0  0  0
 15 16  1  0  0  0  0
 17 18  1  0  0  0  0
 17 34  1  0  0  0  0
 18 35  1  0  0  0  0
 18 36  1  0  0  0  0
 18 37  1  0  0  0  0
M  CHG  1   7  -1
M  END
> <s_m_source_file>
AV-unprocessed.smi

> <i_m_source_file_index>
2451

> <i_lp_mmshare_version>
43012

> <i_f3d_flags>
0

> <s_epik_input>
W0NIM11bQ0BASF0xW0NIMl1bQ0gyXVtDSDJdW0NASF0oW0NASF0xW0NIM10pW05IXVMoPU8pKD1PKVtDSDJdYzJbY0hdW2NIXW9uMg==

> <s_epik_cmdline>
J2VwaWtfcHl0aG9uJywgJy1waCcsICc3LjAnLCAnLXRuJywgJzgnLCAnLW1hJywgJzIwMCcsICctbWV0YWxfYmluZGluZycsICctaW1hZScsICc8aW5maWxlLm1hZT4nLCAnLW9tYWUnLCAnPG91dGZpbGUubWFlPic=

> <r_lp_tautomer_probability>
1

> <r_epik_Ionization_Penalty>
5.22693

> <r_epik_Ionization_Penalty_Charging>
5.22693

> <r_epik_Ionization_Penalty_Neutral>
2.67702e-10

> <r_epik_State_Penalty>
5.22685

> <r_epik_Charging_Adjusted_Penalty>
10.4538

> <i_epik_Tot_Q>
-1

> <i_epik_Tot_abs_Q>
1

> <r_epik_Metal_State_Penalty>
1.28716

> <b_epik_Metal_Only>
1

> <s_lp_Force_Field>
OPLS_2005

> <r_lp_Energy>
14.5661

> <b_lp_Chiralities_Consistent>
1

> <s_lp_Variant>
AV-unprocessed.smi:2451-10

> <Gold.Version>
5.8.1

> <Gold.Id.Protein>
6NUR|6NUR_protein|mol2

> <Gold.PLP.Fitness>
46.4585

> <Gold.PLP.PLP>
-35.6525

> <Gold.PLP.part.hbond>
-2.3937

> <Gold.PLP.part.metal>
0.0000

> <Gold.PLP.part.buried>
-4.7741

> <Gold.PLP.part.nonpolar>
-26.1652

> <Gold.PLP.part.repulsive>
0.0858

> <Gold.PLP.ligand.clash>
0.0000

> <Gold.PLP.ligand.torsion>
1.0735

> <Gold.PLP.Chemscore.Hbond>
2.9840

> <Gold.PLP.Chemscore.CHOScore>
1.0000

> <Gold.PLP.Chemscore.Metal>
0.0000

> <Gold.Chemscore.Hbonds>
donor molecule, donor type, donor heavy atom, donor atom, acceptor molecule, acceptor atom, score
      P1  H  6896  6909       L1     9  0.11
      P1  H  7989  7998       L1    15  1.00
      P1  H  7997  8009       L1     7  1.03
      L1  C    14    33       P1  7957  0.87

> <Gold.PLP.Chemscore.Internal.Correction>
1.0009

> <Gold.Rescore>
     Score         DG    S(hbond)    S(metal)    S(lipo)     H(rot)  DE(clash)    DE(int)     intcor
     19.18     -20.88       1.78        0.00     111.37       1.40       0.57       1.13       ----

> <Gold.Chemscore.Fitness>
19.1772

> <Gold.Chemscore.DG>
-20.8760

> <Gold.Chemscore.ZeroCoef>
-5.4800

> <Gold.Chemscore.Hbond>
1.7802

> <Gold.Chemscore.Metal>
0.0000

> <Gold.Chemscore.Lipo>
111.3712

> <Gold.Chemscore.Internal_Hbond>
0.0000

> <Gold.Chemscore.DEClash>
0.5734

> <Gold.Chemscore.DEInternal>
1.1254

> <Gold.Chemscore.Rot>
1.3986

> <Gold.Chemscore.Internal.Correction>
   9.000000E+99

> <Gold.Chemscore.Hbonds>
donor molecule, donor type, donor heavy atom, donor atom, acceptor molecule, acceptor atom, score
      P1  H  6896  6909       L1     9  0.14
      P1  H  7989  7998       L1    15  0.30
      P1  H  7997  8009       L1     7  0.45

> <Gold.Chemscore.Hbond.Weighted>
-5.9460

> <Gold.Chemscore.Metal.Weighted>
-0.0000

> <Gold.Chemscore.Lipo.Weighted>
-13.0304

> <Gold.Chemscore.Internal_Hbond.Weighted>
0.0000

> <Gold.Chemscore.DEClash.Weighted>
0.5734

> <Gold.Chemscore.DEInternal.Weighted>
1.1254

> <Gold.Chemscore.Rot.Weighted>
3.5804

> <Gold.Chemscore.Internal.Correction.Weighted>
   9.000000E+99

> <Gold.Protein.RotatedTorsions>
[ 6907 6896 6895 6894 ] final  129.98 input  -60.11 | X-H torsion
[ 7974 7965 7964 7962 ] final  -57.73 input  175.53 | X-H torsion
[ 8008 7997 7996 7995 ] final  134.58 input   59.86 | X-H torsion
[ 10167 10162 10161 10158 ] final  109.87 input  -65.29 | X-H torsion
[ 10718 10713 10712 10709 ] final  129.88 input   66.30 | X-H torsion
[ 10763 10752 10751 10750 ] final  -48.38 input  -60.55 | X-H torsion
[ 11005 11000 10999 10996 ] final  121.64 input  -57.11 | X-H torsion

> <Gold.Protein.ActiveResidues>
 VAL166  LYS551  ARG553  GLY616  TRP617  ASP618  TYR619  PRO620  LYS621  CYS622 
 ASP623  PHE694  ASN695  SER759  ASP760  ASP761  ALA762  ILE779  LEU786  VAL792 
 PHE793  MET794  SER795  GLU796  ALA797  LYS798  CYS799  TRP800  GLU811  SER814 

> <Gold.Protein.RotatedAtoms>
  152.3571  133.6251  159.5987 H   0  0  0  0  0  0  0  0  0  0  0  0  # atno 6907 bound_to 6896
  150.7576  133.9482  159.3486 H   0  0  0  0  0  0  0  0  0  0  0  0  # atno 6908 bound_to 6896
  151.7325  135.0872  160.0353 H   0  0  0  0  0  0  0  0  0  0  0  0  # atno 6909 bound_to 6896
  145.8476  140.8374  143.0002 H   0  0  0  0  0  0  0  0  0  0  0  0  # atno 7974 bound_to 7965
  156.3000  140.2492  156.3441 H   0  0  0  0  0  0  0  0  0  0  0  0  # atno 8008 bound_to 7997
  154.9028  140.0405  157.1922 H   0  0  0  0  0  0  0  0  0  0  0  0  # atno 8009 bound_to 7997
  154.8484  140.2902  155.5618 H   0  0  0  0  0  0  0  0  0  0  0  0  # atno 8010 bound_to 7997
  139.6733  144.7124  151.1649 H   0  0  0  0  0  0  0  0  0  0  0  0  # atno 10167 bound_to 10162
  157.5114  131.1097  150.9288 H   0  0  0  0  0  0  0  0  0  0  0  0  # atno 10718 bound_to 10713
  154.0768  135.6597  153.4832 H   0  0  0  0  0  0  0  0  0  0  0  0  # atno 10763 bound_to 10752
  153.0370  135.5170  154.7513 H   0  0  0  0  0  0  0  0  0  0  0  0  # atno 10764 bound_to 10752
  154.6595  135.3013  154.9852 H   0  0  0  0  0  0  0  0  0  0  0  0  # atno 10765 bound_to 10752
  139.9234  134.9639  156.7989 H   0  0  0  0  0  0  0  0  0  0  0  0  # atno 11005 bound_to 11000
  144.6730  140.0906  143.7465 LP  0  0  0  0  0  0  0  0  0  0  0  0  # atno 17320 bound_to 7965
  145.9394  139.2658  143.1278 LP  0  0  0  0  0  0  0  0  0  0  0  0  # atno 17321 bound_to 7965
  140.7626  143.5811  150.8894 LP  0  0  0  0  0  0  0  0  0  0  0  0  # atno 17342 bound_to 10162
  139.9478  143.6307  152.3037 LP  0  0  0  0  0  0  0  0  0  0  0  0  # atno 17343 bound_to 10162
  156.9927  130.5569  149.5304 LP  0  0  0  0  0  0  0  0  0  0  0  0  # atno 17370 bound_to 10713
  156.0291  130.5384  150.8487 LP  0  0  0  0  0  0  0  0  0  0  0  0  # atno 17371 bound_to 10713
  140.6406  133.9822  155.7705 LP  0  0  0  0  0  0  0  0  0  0  0  0  # atno 17394 bound_to 11000
  141.0774  134.0114  157.3438 LP  0  0  0  0  0  0  0  0  0  0  0  0  # atno 17395 bound_to 11000

$$$$
