AV-unprocessed.smi:2226|AV-procd|sdf|9017|dock4
  -GOLD-   2272012223D 1   1.00000     0.00000
 Structure written by MMmdl.
 39 41  0  0  0  0  0  0  0  0  3 V2000
  147.2777  135.7551  154.7007 C   0  0  0  0  0  0  0  0  0  0  0  0
  148.5358  136.5320  154.5958 N   0  3  2  0  0  0  0  0  0  0  0  0
  149.7071  135.9146  155.2621 C   0  0  2  0  0  0  0  0  0  0  0  0
  149.5686  135.9580  156.8050 C   0  0  0  0  0  0  0  0  0  0  0  0
  149.2376  137.3511  157.3705 C   0  0  0  0  0  0  0  0  0  0  0  0
  148.2119  138.1130  156.5125 C   0  0  0  0  0  0  0  0  0  0  0  0
  148.4215  137.9574  154.9854 C   0  0  1  0  0  0  0  0  0  0  0  0
  149.6218  138.7367  154.4014 C   0  0  0  0  0  0  0  0  0  0  0  0
  151.0188  138.0941  154.6274 C   0  0  1  0  0  0  0  0  0  0  0  0
  151.7362  138.6692  155.7625 N   0  0  0  0  0  0  0  0  0  0  0  0
  151.7753  139.9632  156.1125 C   0  0  0  0  0  0  0  0  0  0  0  0
  151.1754  140.8024  155.4370 O   0  0  0  0  0  0  0  0  0  0  0  0
  152.5003  140.1997  157.2282 N   0  5  0  0  0  0  0  0  0  0  0  0
  152.2026  141.2530  158.0060 C   0  0  0  0  0  0  0  0  0  0  0  0
  151.2449  142.1551  157.7845 N   0  0  0  0  0  0  0  0  0  0  0  0
  151.3143  143.0486  158.8423 C   0  0  0  0  0  0  0  0  0  0  0  0
  152.3305  142.6467  159.6651 C   0  0  0  0  0  0  0  0  0  0  0  0
  152.9005  141.5169  159.1468 O   0  0  0  0  0  0  0  0  0  0  0  0
  151.0000  136.5458  154.6946 C   0  0  0  0  0  0  0  0  0  0  0  0
  146.9282  135.6699  155.7293 H   0  0  0  0  0  0  0  0  0  0  0  0
  147.4207  134.7482  154.3081 H   0  0  0  0  0  0  0  0  0  0  0  0
  146.4891  136.2277  154.1147 H   0  0  0  0  0  0  0  0  0  0  0  0
  149.7336  134.8621  154.9765 H   0  0  0  0  0  0  0  0  0  0  0  0
  148.7764  135.2714  157.1040 H   0  0  0  0  0  0  0  0  0  0  0  0
  150.4748  135.5749  157.2754 H   0  0  0  0  0  0  0  0  0  0  0  0
  148.8554  137.2487  158.3866 H   0  0  0  0  0  0  0  0  0  0  0  0
  150.1423  137.9384  157.4843 H   0  0  0  0  0  0  0  0  0  0  0  0
  147.2159  137.7502  156.7674 H   0  0  0  0  0  0  0  0  0  0  0  0
  148.2134  139.1685  156.7865 H   0  0  0  0  0  0  0  0  0  0  0  0
  147.5321  138.3628  154.5008 H   0  0  0  0  0  0  0  0  0  0  0  0
  149.4692  138.7922  153.3227 H   0  0  0  0  0  0  0  0  0  0  0  0
  149.5995  139.7733  154.7396 H   0  0  0  0  0  0  0  0  0  0  0  0
  151.6295  138.3479  153.7587 H   0  0  0  0  0  0  0  0  0  0  0  0
  152.2501  138.0256  156.3465 H   0  0  0  0  0  0  0  0  0  0  0  0
  150.6436  143.8910  158.9243 H   0  0  0  0  0  0  0  0  0  0  0  0
  152.7465  143.0228  160.5876 H   0  0  0  0  0  0  0  0  0  0  0  0
  151.8761  136.1681  155.2241 H   0  0  0  0  0  0  0  0  0  0  0  0
  151.1095  136.1801  153.6724 H   0  0  0  0  0  0  0  0  0  0  0  0
  148.7536  136.5361  153.6096 H   0  0  0  0  0  0  0  0  0  0  0  0
  1  2  1  0  0  0  0
  1 20  1  0  0  0  0
  1 21  1  0  0  0  0
  1 22  1  0  0  0  0
  2  7  1  0  0  0  0
  2  3  1  0  0  0  0
  2 39  1  0  0  0  0
  3 19  1  0  0  0  0
  3  4  1  0  0  0  0
  3 23  1  0  0  0  0
  4  5  1  0  0  0  0
  4 24  1  0  0  0  0
  4 25  1  0  0  0  0
  5  6  1  0  0  0  0
  5 26  1  0  0  0  0
  5 27  1  0  0  0  0
  6  7  1  0  0  0  0
  6 28  1  0  0  0  0
  6 29  1  0  0  0  0
  7  8  1  0  0  0  0
  7 30  1  0  0  0  0
  8  9  1  0  0  0  0
  8 31  1  0  0  0  0
  8 32  1  0  0  0  0
  9 10  1  0  0  0  0
  9 19  1  0  0  0  0
  9 33  1  0  0  0  0
 10 34  1  0  0  0  0
 10 11  1  0  0  0  0
 11 13  1  0  0  0  0
 11 12  2  0  0  0  0
 13 14  1  0  0  0  0
 14 18  1  0  0  0  0
 14 15  2  0  0  0  0
 15 16  1  0  0  0  0
 16 35  1  0  0  0  0
 16 17  2  0  0  0  0
 17 36  1  0  0  0  0
 17 18  1  0  0  0  0
 19 37  1  0  0  0  0
 19 38  1  0  0  0  0
M  CHG  1   2   1
M  CHG  1  13  -1
M  END
> <s_m_source_file>
AV-unprocessed.smi

> <i_m_source_file_index>
2226

> <i_lp_mmshare_version>
43012

> <i_f3d_flags>
0

> <s_epik_input>
W0NIMl0xW0NIMl1bQ0gyXVtDQEhdKE4oW0NIM10pW0NIXTEyKVtDSDJdW0NASF0oW0NIMl0yKVtOSF1DKD1PKVtOSF1jM25bY0hdW2NIXW8z

> <s_epik_cmdline>
J2VwaWtfcHl0aG9uJywgJy1waCcsICc3LjAnLCAnLXRuJywgJzgnLCAnLW1hJywgJzIwMCcsICctbWV0YWxfYmluZGluZycsICctaW1hZScsICc8aW5maWxlLm1hZT4nLCAnLW9tYWUnLCAnPG91dGZpbGUubWFlPic=

> <r_lp_tautomer_probability>
0.107061

> <r_epik_Ionization_Penalty>
10.5612

> <r_epik_Ionization_Penalty_Charging>
7.48913

> <r_epik_Ionization_Penalty_Neutral>
3.07202

> <r_epik_State_Penalty>
5.6431

> <r_epik_Charging_Adjusted_Penalty>
13.1322

> <i_epik_Tot_Q>
0

> <i_epik_Tot_abs_Q>
2

> <r_epik_Metal_State_Penalty>
1.58163

> <b_epik_Metal_Only>
1

> <s_lp_Force_Field>
OPLS_2005

> <r_lp_Energy>
26.2411

> <b_lp_Chiralities_Consistent>
1

> <s_lp_Variant>
AV-unprocessed.smi:2226-17

> <Gold.Version>
5.8.1

> <Gold.Id.Protein>
6NUR|6NUR_protein|mol2

> <Gold.PLP.Fitness>
37.2720

> <Gold.PLP.PLP>
-23.6226

> <Gold.PLP.part.hbond>
-3.0000

> <Gold.PLP.part.metal>
0.0000

> <Gold.PLP.part.buried>
-2.2567

> <Gold.PLP.part.nonpolar>
-17.1547

> <Gold.PLP.part.repulsive>
0.2181

> <Gold.PLP.ligand.clash>
0.0000

> <Gold.PLP.ligand.torsion>
0.3546

> <Gold.PLP.Chemscore.Hbond>
4.7680

> <Gold.PLP.Chemscore.CHOScore>
0.0000

> <Gold.PLP.Chemscore.Metal>
0.0000

> <Gold.Chemscore.Hbonds>
donor molecule, donor type, donor heavy atom, donor atom, acceptor molecule, acceptor atom, score
      L1  H     2    39       P1  7948  2.00
      P1  H  7989  7998       L1    12  0.77
      P1  H  7997  8009       L1    13  2.00

> <Gold.PLP.Chemscore.Internal.Correction>
0.0546

> <Gold.Rescore>
     Score         DG    S(hbond)    S(metal)    S(lipo)     H(rot)  DE(clash)    DE(int)     intcor
     14.22     -17.75       2.57        0.00      53.42       1.00       0.29       3.24       ----

> <Gold.Chemscore.Fitness>
14.2185

> <Gold.Chemscore.DG>
-17.7470

> <Gold.Chemscore.ZeroCoef>
-5.4800

> <Gold.Chemscore.Hbond>
2.5680

> <Gold.Chemscore.Metal>
0.0000

> <Gold.Chemscore.Lipo>
53.4190

> <Gold.Chemscore.Internal_Hbond>
0.0000

> <Gold.Chemscore.DEClash>
0.2877

> <Gold.Chemscore.DEInternal>
3.2409

> <Gold.Chemscore.Rot>
1.0000

> <Gold.Chemscore.Internal.Correction>
   9.000000E+99

> <Gold.Chemscore.Hbonds>
donor molecule, donor type, donor heavy atom, donor atom, acceptor molecule, acceptor atom, score
      L1  H     2    39       P1  7948  1.00
      P1  H  7989  7998       L1    12  0.70
      P1  H  7997  8009       L1    13  0.35

> <Gold.Chemscore.Hbond.Weighted>
-8.5770

> <Gold.Chemscore.Metal.Weighted>
-0.0000

> <Gold.Chemscore.Lipo.Weighted>
-6.2500

> <Gold.Chemscore.Internal_Hbond.Weighted>
0.0000

> <Gold.Chemscore.DEClash.Weighted>
0.2877

> <Gold.Chemscore.DEInternal.Weighted>
3.2409

> <Gold.Chemscore.Rot.Weighted>
2.5600

> <Gold.Chemscore.Internal.Correction.Weighted>
   9.000000E+99

> <Gold.Protein.RotatedTorsions>
[ 6907 6896 6895 6894 ] final  -84.57 input  -60.11 | X-H torsion
[ 7974 7965 7964 7962 ] final  179.62 input  175.53 | X-H torsion
[ 8008 7997 7996 7995 ] final -175.71 input   59.86 | X-H torsion
[ 10167 10162 10161 10158 ] final   52.20 input  -65.29 | X-H torsion
[ 10718 10713 10712 10709 ] final   73.27 input   66.30 | X-H torsion
[ 10763 10752 10751 10750 ] final   67.69 input  -60.55 | X-H torsion
[ 11005 11000 10999 10996 ] final   36.11 input  -57.11 | X-H torsion

> <Gold.Protein.ActiveResidues>
 VAL166  LYS551  ARG553  GLY616  TRP617  ASP618  TYR619  PRO620  LYS621  CYS622 
 ASP623  PHE694  ASN695  SER759  ASP760  ASP761  ALA762  ILE779  LEU786  VAL792 
 PHE793  MET794  SER795  GLU796  ALA797  LYS798  CYS799  TRP800  GLU811  SER814 

> <Gold.Protein.RotatedAtoms>
  150.6875  134.3337  159.4838 H   0  0  0  0  0  0  0  0  0  0  0  0  # atno 6907 bound_to 6896
  152.1199  134.9210  160.0572 H   0  0  0  0  0  0  0  0  0  0  0  0  # atno 6908 bound_to 6896
  152.0421  133.3947  159.4378 H   0  0  0  0  0  0  0  0  0  0  0  0  # atno 6909 bound_to 6896
  144.7144  140.0576  143.6433 H   0  0  0  0  0  0  0  0  0  0  0  0  # atno 7974 bound_to 7965
  155.9859  140.1191  157.0683 H   0  0  0  0  0  0  0  0  0  0  0  0  # atno 8008 bound_to 7997
  154.4197  140.1135  156.5567 H   0  0  0  0  0  0  0  0  0  0  0  0  # atno 8009 bound_to 7997
  155.6408  140.3473  155.4716 H   0  0  0  0  0  0  0  0  0  0  0  0  # atno 8010 bound_to 7997
  140.2539  144.3449  150.6339 H   0  0  0  0  0  0  0  0  0  0  0  0  # atno 10167 bound_to 10162
  157.6540  130.9620  150.1046 H   0  0  0  0  0  0  0  0  0  0  0  0  # atno 10718 bound_to 10713
  153.0198  135.5275  154.7018 H   0  0  0  0  0  0  0  0  0  0  0  0  # atno 10763 bound_to 10752
  154.6125  135.2880  155.0419 H   0  0  0  0  0  0  0  0  0  0  0  0  # atno 10764 bound_to 10752
  154.1435  135.6574  153.5000 H   0  0  0  0  0  0  0  0  0  0  0  0  # atno 10765 bound_to 10752
  140.2358  134.3473  155.7945 H   0  0  0  0  0  0  0  0  0  0  0  0  # atno 11005 bound_to 11000
  145.9891  139.3001  143.0995 LP  0  0  0  0  0  0  0  0  0  0  0  0  # atno 17320 bound_to 7965
  145.8923  140.9296  143.0545 LP  0  0  0  0  0  0  0  0  0  0  0  0  # atno 17321 bound_to 7965
  140.6019  143.2167  151.7055 LP  0  0  0  0  0  0  0  0  0  0  0  0  # atno 17342 bound_to 10162
  139.5038  144.3779  152.0405 LP  0  0  0  0  0  0  0  0  0  0  0  0  # atno 17343 bound_to 10162
  156.1959  130.3657  149.8850 LP  0  0  0  0  0  0  0  0  0  0  0  0  # atno 17370 bound_to 10713
  156.6766  130.8841  151.3570 LP  0  0  0  0  0  0  0  0  0  0  0  0  # atno 17371 bound_to 10713
  141.2214  133.7271  156.8806 LP  0  0  0  0  0  0  0  0  0  0  0  0  # atno 17394 bound_to 11000
  140.1703  134.9104  157.2825 LP  0  0  0  0  0  0  0  0  0  0  0  0  # atno 17395 bound_to 11000

$$$$
