AV-unprocessed.smi:1158|AV-procd|sdf|4912|dock7
  -GOLD-   22720 3493D 1   1.00000     0.00000
 Structure written by MMmdl.
 43 44  0  0  0  0  0  0  0  0  2 V2000
  153.1334  137.3126  160.9187 C   0  0  0  0  0  0  0  0  0  0  0  0
  152.1751  137.1651  159.8764 O   0  0  0  0  0  0  0  0  0  0  0  0
  151.7883  138.2891  159.1714 C   0  0  0  0  0  0  0  0  0  0  0  0
  152.3241  139.4856  159.5213 N   0  0  0  0  0  0  0  0  0  0  0  0
  151.9440  140.5846  158.8383 C   0  0  0  0  0  0  0  0  0  0  0  0
  151.0124  140.5524  157.7849 C   0  0  0  0  0  0  0  0  0  0  0  0
  150.4554  139.3130  157.4196 C   0  0  0  0  0  0  0  0  0  0  0  0
  150.8561  138.1468  158.1166 C   0  0  0  0  0  0  0  0  0  0  0  0
  150.3480  136.8462  157.8422 N   0  0  0  0  0  0  0  0  0  0  0  0
  149.7002  136.4080  156.7493 C   0  0  0  0  0  0  0  0  0  0  0  0
  149.4169  137.0892  155.7645 O   0  0  0  0  0  0  0  0  0  0  0  0
  149.4042  135.1043  156.8529 N   0  0  0  0  0  0  0  0  0  0  0  0
  148.7264  134.3131  155.8298 C   0  0  2  0  0  0  0  0  0  0  0  0
  149.6421  134.0816  154.6153 C   0  0  0  0  0  0  0  0  0  0  0  0
  148.8995  133.3305  153.4982 C   0  0  0  0  0  0  0  0  0  0  0  0
  147.6678  134.0522  153.0832 N   0  3  1  0  0  0  0  0  0  0  0  0
  147.0128  133.4045  151.9163 C   0  0  0  0  0  0  0  0  0  0  0  0
  145.6224  133.9832  151.6008 C   0  0  0  0  0  0  0  0  0  0  0  0
  145.7571  135.2146  151.1105 F   0  0  0  0  0  0  0  0  0  0  0  0
  144.9651  133.2441  150.7083 F   0  0  0  0  0  0  0  0  0  0  0  0
  146.7509  134.2662  154.2350 C   0  0  0  0  0  0  0  0  0  0  0  0
  147.4479  135.0320  155.3729 C   0  0  0  0  0  0  0  0  0  0  0  0
  153.3210  136.3409  161.3751 H   0  0  0  0  0  0  0  0  0  0  0  0
  152.7728  137.9816  161.7015 H   0  0  0  0  0  0  0  0  0  0  0  0
  154.0842  137.6873  160.5370 H   0  0  0  0  0  0  0  0  0  0  0  0
  152.3914  141.5187  159.1445 H   0  0  0  0  0  0  0  0  0  0  0  0
  150.7281  141.4588  157.2710 H   0  0  0  0  0  0  0  0  0  0  0  0
  149.7256  139.2874  156.6260 H   0  0  0  0  0  0  0  0  0  0  0  0
  150.5703  136.1469  158.5357 H   0  0  0  0  0  0  0  0  0  0  0  0
  149.6789  134.6219  157.6964 H   0  0  0  0  0  0  0  0  0  0  0  0
  148.4434  133.3476  156.2542 H   0  0  0  0  0  0  0  0  0  0  0  0
  150.0026  135.0379  154.2329 H   0  0  0  0  0  0  0  0  0  0  0  0
  150.5256  133.5143  154.9104 H   0  0  0  0  0  0  0  0  0  0  0  0
  149.5684  133.2173  152.6441 H   0  0  0  0  0  0  0  0  0  0  0  0
  148.6382  132.3244  153.8308 H   0  0  0  0  0  0  0  0  0  0  0  0
  147.6362  133.5726  151.0368 H   0  0  0  0  0  0  0  0  0  0  0  0
  146.9670  132.3229  152.0523 H   0  0  0  0  0  0  0  0  0  0  0  0
  145.0018  134.0631  152.4939 H   0  0  0  0  0  0  0  0  0  0  0  0
  145.8770  134.8362  153.9257 H   0  0  0  0  0  0  0  0  0  0  0  0
  146.3887  133.3030  154.5977 H   0  0  0  0  0  0  0  0  0  0  0  0
  146.7620  135.1444  156.2137 H   0  0  0  0  0  0  0  0  0  0  0  0
  147.6896  136.0407  155.0344 H   0  0  0  0  0  0  0  0  0  0  0  0
  147.9692  134.9646  152.7719 H   0  0  0  0  0  0  0  0  0  0  0  0
  1  2  1  0  0  0  0
  1 23  1  0  0  0  0
  1 24  1  0  0  0  0
  1 25  1  0  0  0  0
  2  3  1  0  0  0  0
  3  8  1  0  0  0  0
  3  4  2  0  0  0  0
  4  5  1  0  0  0  0
  5  6  2  0  0  0  0
  5 26  1  0  0  0  0
  6  7  1  0  0  0  0
  6 27  1  0  0  0  0
  7  8  2  0  0  0  0
  7 28  1  0  0  0  0
  8  9  1  0  0  0  0
  9 10  1  0  0  0  0
  9 29  1  0  0  0  0
 10 11  2  0  0  0  0
 10 12  1  0  0  0  0
 12 13  1  0  0  0  0
 12 30  1  0  0  0  0
 13 22  1  0  0  0  0
 13 14  1  0  0  0  0
 13 31  1  0  0  0  0
 14 15  1  0  0  0  0
 14 32  1  0  0  0  0
 14 33  1  0  0  0  0
 15 16  1  0  0  0  0
 15 34  1  0  0  0  0
 15 35  1  0  0  0  0
 16 17  1  0  0  0  0
 16 21  1  0  0  0  0
 16 43  1  0  0  0  0
 17 18  1  0  0  0  0
 17 36  1  0  0  0  0
 17 37  1  0  0  0  0
 18 19  1  0  0  0  0
 18 20  1  0  0  0  0
 18 38  1  0  0  0  0
 21 22  1  0  0  0  0
 21 39  1  0  0  0  0
 21 40  1  0  0  0  0
 22 41  1  0  0  0  0
 22 42  1  0  0  0  0
M  CHG  1  16   1
M  END
> <s_m_source_file>
AV-unprocessed.smi

> <i_m_source_file_index>
1158

> <i_lp_mmshare_version>
43012

> <i_f3d_flags>
0

> <s_epik_input>
W0NIM11PYzFuW2NIXVtjSF1bY0hdYzFbTkhdQyg9TylbTkhdW0NIXTJbQ0gyXVtDSDJdTihbQ0gyXVtDSF0oRilGKVtDSDJdW0NIMl0y

> <s_epik_cmdline>
J2VwaWtfcHl0aG9uJywgJy1waCcsICc3LjAnLCAnLXRuJywgJzgnLCAnLW1hJywgJzIwMCcsICctbWV0YWxfYmluZGluZycsICctaW1hZScsICc8aW5maWxlLm1hZT4nLCAnLW9tYWUnLCAnPG91dGZpbGUubWFlPic=

> <r_lp_tautomer_probability>
1

> <r_epik_Ionization_Penalty>
0.802109

> <r_epik_Ionization_Penalty_Charging>
0.802031

> <r_epik_Ionization_Penalty_Neutral>
7.83352e-05

> <r_epik_State_Penalty>
0.833408

> <r_epik_Charging_Adjusted_Penalty>
1.63544

> <i_epik_Tot_Q>
1

> <i_epik_Tot_abs_Q>
1

> <r_epik_Metal_State_Penalty>
0.833416

> <b_epik_Metal_Only>
0

> <s_lp_Force_Field>
OPLS_2005

> <r_lp_Energy>
21.1994

> <b_lp_Chiralities_Consistent>
1

> <s_lp_Variant>
AV-unprocessed.smi:1158-2

> <Gold.Version>
5.8.1

> <Gold.Id.Protein>
6NUR|6NUR_protein|mol2

> <Gold.PLP.Fitness>
37.7928

> <Gold.PLP.PLP>
-29.3574

> <Gold.PLP.part.hbond>
-2.0000

> <Gold.PLP.part.metal>
0.0000

> <Gold.PLP.part.buried>
-5.6726

> <Gold.PLP.part.nonpolar>
-21.6358

> <Gold.PLP.part.repulsive>
0.2153

> <Gold.PLP.ligand.clash>
0.0000

> <Gold.PLP.ligand.torsion>
0.3039

> <Gold.PLP.Chemscore.Hbond>
3.0000

> <Gold.PLP.Chemscore.CHOScore>
0.0000

> <Gold.PLP.Chemscore.Metal>
0.0000

> <Gold.Chemscore.Hbonds>
donor molecule, donor type, donor heavy atom, donor atom, acceptor molecule, acceptor atom, score
      L1  H    16    43       P1  7948  2.00
      P1  H  6896  6908       L1     2  0.72

> <Gold.PLP.Chemscore.Internal.Correction>
0.0432

> <Gold.Rescore>
     Score         DG    S(hbond)    S(metal)    S(lipo)     H(rot)  DE(clash)    DE(int)     intcor
     10.98     -13.63       1.75        0.00      54.06       1.58       0.03       2.62       ----

> <Gold.Chemscore.Fitness>
10.9774

> <Gold.Chemscore.DG>
-13.6265

> <Gold.Chemscore.ZeroCoef>
-5.4800

> <Gold.Chemscore.Hbond>
1.7541

> <Gold.Chemscore.Metal>
0.0000

> <Gold.Chemscore.Lipo>
54.0592

> <Gold.Chemscore.Internal_Hbond>
0.0000

> <Gold.Chemscore.DEClash>
0.0310

> <Gold.Chemscore.DEInternal>
2.6181

> <Gold.Chemscore.Rot>
1.5770

> <Gold.Chemscore.Internal.Correction>
   9.000000E+99

> <Gold.Chemscore.Hbonds>
donor molecule, donor type, donor heavy atom, donor atom, acceptor molecule, acceptor atom, score
      L1  H    16    43       P1  7948  0.92
      P1  H  6896  6908       L1     2  0.12

> <Gold.Chemscore.Hbond.Weighted>
-5.8586

> <Gold.Chemscore.Metal.Weighted>
-0.0000

> <Gold.Chemscore.Lipo.Weighted>
-6.3249

> <Gold.Chemscore.Internal_Hbond.Weighted>
0.0000

> <Gold.Chemscore.DEClash.Weighted>
0.0310

> <Gold.Chemscore.DEInternal.Weighted>
2.6181

> <Gold.Chemscore.Rot.Weighted>
4.0371

> <Gold.Chemscore.Internal.Correction.Weighted>
   9.000000E+99

> <Gold.Protein.RotatedTorsions>
[ 6907 6896 6895 6894 ] final  -96.89 input  -60.11 | X-H torsion
[ 7974 7965 7964 7962 ] final -100.17 input  175.53 | X-H torsion
[ 8008 7997 7996 7995 ] final  -20.21 input   59.86 | X-H torsion
[ 10167 10162 10161 10158 ] final   80.40 input  -65.29 | X-H torsion
[ 10718 10713 10712 10709 ] final -143.47 input   66.30 | X-H torsion
[ 10763 10752 10751 10750 ] final  143.52 input  -60.55 | X-H torsion
[ 11005 11000 10999 10996 ] final  -10.99 input  -57.11 | X-H torsion

> <Gold.Protein.ActiveResidues>
 VAL166  LYS551  ARG553  GLY616  TRP617  ASP618  TYR619  PRO620  LYS621  CYS622 
 ASP623  PHE694  ASN695  SER759  ASP760  ASP761  ALA762  ILE779  LEU786  VAL792 
 PHE793  MET794  SER795  GLU796  ALA797  LYS798  CYS799  TRP800  GLU811  SER814 

> <Gold.Protein.RotatedAtoms>
  150.7001  134.1433  159.4112 H   0  0  0  0  0  0  0  0  0  0  0  0  # atno 6907 bound_to 6896
  151.9417  135.0208  160.0545 H   0  0  0  0  0  0  0  0  0  0  0  0  # atno 6908 bound_to 6896
  152.2088  133.4860  159.5135 H   0  0  0  0  0  0  0  0  0  0  0  0  # atno 6909 bound_to 6896
  145.2980  140.9370  143.2840 H   0  0  0  0  0  0  0  0  0  0  0  0  # atno 7974 bound_to 7965
  154.4785  140.2068  155.9820 H   0  0  0  0  0  0  0  0  0  0  0  0  # atno 8008 bound_to 7997
  156.1127  140.3226  155.8065 H   0  0  0  0  0  0  0  0  0  0  0  0  # atno 8009 bound_to 7997
  155.4606  140.0524  157.2982 H   0  0  0  0  0  0  0  0  0  0  0  0  # atno 8010 bound_to 7997
  139.9501  144.6032  150.8169 H   0  0  0  0  0  0  0  0  0  0  0  0  # atno 10167 bound_to 10162
  156.3584  130.7725  151.1889 H   0  0  0  0  0  0  0  0  0  0  0  0  # atno 10718 bound_to 10713
  153.9736  135.2948  155.3425 H   0  0  0  0  0  0  0  0  0  0  0  0  # atno 10763 bound_to 10752
  154.7308  135.5068  153.8964 H   0  0  0  0  0  0  0  0  0  0  0  0  # atno 10764 bound_to 10752
  153.0888  135.6701  154.0008 H   0  0  0  0  0  0  0  0  0  0  0  0  # atno 10765 bound_to 10752
  140.7505  133.8596  155.9041 H   0  0  0  0  0  0  0  0  0  0  0  0  # atno 11005 bound_to 11000
  144.9117  139.4520  143.6584 LP  0  0  0  0  0  0  0  0  0  0  0  0  # atno 17320 bound_to 7965
  146.3162  139.7929  142.8982 LP  0  0  0  0  0  0  0  0  0  0  0  0  # atno 17321 bound_to 7965
  140.7585  143.3109  151.2847 LP  0  0  0  0  0  0  0  0  0  0  0  0  # atno 17342 bound_to 10162
  139.6635  144.0147  152.2708 LP  0  0  0  0  0  0  0  0  0  0  0  0  # atno 17343 bound_to 10162
  157.7470  131.0407  150.4611 LP  0  0  0  0  0  0  0  0  0  0  0  0  # atno 17370 bound_to 10713
  156.4818  130.4075  149.6457 LP  0  0  0  0  0  0  0  0  0  0  0  0  # atno 17371 bound_to 10713
  140.9755  134.1475  157.4540 LP  0  0  0  0  0  0  0  0  0  0  0  0  # atno 17394 bound_to 11000
  139.8788  134.9993  156.5946 LP  0  0  0  0  0  0  0  0  0  0  0  0  # atno 17395 bound_to 11000

$$$$
