AV-unprocessed.smi:240|AV-procd|sdf|1835|dock2
  -GOLD-   2262020443D 1   1.00000     0.00000
 Structure written by MMmdl.
 55 59  0  0  0  0  0  0  0  0  1 V2000
  142.8223  132.5036  149.9796 O   0  0  0  0  0  0  0  0  0  0  0  0
  143.7987  132.5741  150.9995 C   0  0  1  0  0  0  0  0  0  0  0  0
  145.1514  132.0591  150.4745 C   0  0  0  0  0  0  0  0  0  0  0  0
  146.0951  133.2636  150.4740 C   0  0  0  0  0  0  0  0  0  0  0  0
  145.5564  134.1639  151.5820 C   0  0  0  0  0  0  0  0  0  0  0  0
  144.0327  134.0387  151.4434 C   0  0  2  0  0  0  0  0  0  0  0  0
  143.2120  134.5409  152.6737 C   0  0  2  0  0  0  0  0  0  0  0  0
  141.7634  133.9846  152.7144 C   0  0  0  0  0  0  0  0  0  0  0  0
  141.0612  134.4919  153.8421 O   0  0  0  0  0  0  0  0  0  0  0  0
  140.9411  135.9059  153.7932 C   0  0  0  0  0  0  0  0  0  0  0  0
  142.3451  136.5176  153.8565 C   0  0  0  0  0  0  0  0  0  0  0  0
  143.1773  136.0092  152.7710 N   0  0  0  0  0  0  0  0  0  0  0  0
  144.3640  136.6616  152.7666 C   0  0  0  0  0  0  0  0  0  0  0  0
  144.7580  137.3678  151.6737 N   0  0  0  0  0  0  0  0  0  0  0  0
  145.9342  138.0021  151.6781 C   0  0  0  0  0  0  0  0  0  0  0  0
  146.8494  138.0575  152.6487 N   0  0  0  0  0  0  0  0  0  0  0  0
  146.4568  137.3460  153.7450 C   0  0  0  0  0  0  0  0  0  0  0  0
  145.2457  136.6118  153.8775 C   0  0  0  0  0  0  0  0  0  0  0  0
  145.1941  135.9918  155.1181 N   0  0  0  0  0  0  0  0  0  0  0  0
  146.3134  136.3420  155.6900 C   0  0  0  0  0  0  0  0  0  0  0  0
  147.1205  137.1782  154.9495 N   0  0  0  0  0  0  0  0  0  0  0  0
  148.4131  137.7195  155.3473 C   0  0  0  0  0  0  0  0  0  0  0  0
  148.9046  138.9329  154.5140 C   0  0  2  0  0  0  0  0  0  0  0  0
  149.2653  138.4309  153.2401 O   0  0  0  0  0  0  0  0  0  0  0  0
  150.1177  139.6704  155.0878 C   0  0  0  0  0  0  0  0  0  0  0  0
  149.8769  141.1159  154.6740 C   0  0  0  0  0  0  0  0  0  0  0  0
  148.4755  141.2436  154.8298 O   0  0  0  0  0  0  0  0  0  0  0  0
  147.8732  140.0653  154.3102 C   0  0  0  0  0  0  0  0  0  0  0  0
  142.2468  133.2488  150.0625 H   0  0  0  0  0  0  0  0  0  0  0  0
  143.4698  131.9419  151.8221 H   0  0  0  0  0  0  0  0  0  0  0  0
  145.5358  131.3021  151.1594 H   0  0  0  0  0  0  0  0  0  0  0  0
  145.0851  131.5949  149.4894 H   0  0  0  0  0  0  0  0  0  0  0  0
  147.1365  132.9799  150.6295 H   0  0  0  0  0  0  0  0  0  0  0  0
  146.0297  133.7818  149.5163 H   0  0  0  0  0  0  0  0  0  0  0  0
  145.9081  133.7846  152.5403 H   0  0  0  0  0  0  0  0  0  0  0  0
  145.9009  135.1938  151.4849 H   0  0  0  0  0  0  0  0  0  0  0  0
  143.7956  134.6756  150.5899 H   0  0  0  0  0  0  0  0  0  0  0  0
  143.7122  134.1741  153.5714 H   0  0  0  0  0  0  0  0  0  0  0  0
  141.2041  134.2281  151.8116 H   0  0  0  0  0  0  0  0  0  0  0  0
  141.7643  132.8993  152.8012 H   0  0  0  0  0  0  0  0  0  0  0  0
  140.4165  136.2150  152.8873 H   0  0  0  0  0  0  0  0  0  0  0  0
  140.3443  136.2429  154.6408 H   0  0  0  0  0  0  0  0  0  0  0  0
  142.2724  137.6047  153.7970 H   0  0  0  0  0  0  0  0  0  0  0  0
  142.8092  136.2783  154.8147 H   0  0  0  0  0  0  0  0  0  0  0  0
  146.1756  138.5450  150.7759 H   0  0  0  0  0  0  0  0  0  0  0  0
  146.5790  136.0016  156.6803 H   0  0  0  0  0  0  0  0  0  0  0  0
  148.3501  137.9956  156.4007 H   0  0  0  0  0  0  0  0  0  0  0  0
  149.1451  136.9126  155.2914 H   0  0  0  0  0  0  0  0  0  0  0  0
  149.4272  139.1625  152.6643 H   0  0  0  0  0  0  0  0  0  0  0  0
  150.1299  139.6333  156.1747 H   0  0  0  0  0  0  0  0  0  0  0  0
  151.0759  139.2817  154.7398 H   0  0  0  0  0  0  0  0  0  0  0  0
  150.4193  141.8298  155.2942 H   0  0  0  0  0  0  0  0  0  0  0  0
  150.1517  141.2807  153.6310 H   0  0  0  0  0  0  0  0  0  0  0  0
  147.6511  140.2247  153.2536 H   0  0  0  0  0  0  0  0  0  0  0  0
  146.9233  139.8878  154.8080 H   0  0  0  0  0  0  0  0  0  0  0  0
  1  2  1  0  0  0  0
  1 29  1  0  0  0  0
  2  6  1  0  0  0  0
  2  3  1  0  0  0  0
  2 30  1  0  0  0  0
  3  4  1  0  0  0  0
  3 31  1  0  0  0  0
  3 32  1  0  0  0  0
  4  5  1  0  0  0  0
  4 33  1  0  0  0  0
  4 34  1  0  0  0  0
  5  6  1  0  0  0  0
  5 35  1  0  0  0  0
  5 36  1  0  0  0  0
  6  7  1  0  0  0  0
  6 37  1  0  0  0  0
  7 12  1  0  0  0  0
  7  8  1  0  0  0  0
  7 38  1  0  0  0  0
  8  9  1  0  0  0  0
  8 39  1  0  0  0  0
  8 40  1  0  0  0  0
  9 10  1  0  0  0  0
 10 11  1  0  0  0  0
 10 41  1  0  0  0  0
 10 42  1  0  0  0  0
 11 12  1  0  0  0  0
 11 43  1  0  0  0  0
 11 44  1  0  0  0  0
 12 13  1  0  0  0  0
 13 18  1  0  0  0  0
 13 14  2  0  0  0  0
 14 15  1  0  0  0  0
 15 16  2  0  0  0  0
 15 45  1  0  0  0  0
 16 17  1  0  0  0  0
 17 21  1  0  0  0  0
 17 18  2  0  0  0  0
 18 19  1  0  0  0  0
 19 20  2  0  0  0  0
 20 21  1  0  0  0  0
 20 46  1  0  0  0  0
 21 22  1  0  0  0  0
 22 23  1  0  0  0  0
 22 47  1  0  0  0  0
 22 48  1  0  0  0  0
 23 28  1  0  0  0  0
 23 24  1  0  0  0  0
 23 25  1  0  0  0  0
 24 49  1  0  0  0  0
 25 26  1  0  0  0  0
 25 50  1  0  0  0  0
 25 51  1  0  0  0  0
 26 27  1  0  0  0  0
 26 52  1  0  0  0  0
 26 53  1  0  0  0  0
 27 28  1  0  0  0  0
 28 54  1  0  0  0  0
 28 55  1  0  0  0  0
M  END
> <s_m_source_file>
AV-unprocessed.smi

> <i_m_source_file_index>
240

> <i_lp_mmshare_version>
43012

> <i_f3d_flags>
0

> <s_epik_input>
W09IXVtDQEBIXTFbQ0gyXVtDSDJdW0NIMl1bQ0BIXTFbQ0BASF0yW0NIMl1PW0NIMl1bQ0gyXU4yYyhuW2NIXW4zKWMoYzM0KW5bY0hdbjRbQ0gyXVtDQEBdNShbT0hdKVtDSDJdW0NIMl1PW0NIMl01

> <s_epik_cmdline>
J2VwaWtfcHl0aG9uJywgJy1waCcsICc3LjAnLCAnLXRuJywgJzgnLCAnLW1hJywgJzIwMCcsICctbWV0YWxfYmluZGluZycsICctaW1hZScsICc8aW5maWxlLm1hZT4nLCAnLW9tYWUnLCAnPG91dGZpbGUubWFlPic=

> <r_lp_tautomer_probability>
1

> <r_epik_Ionization_Penalty>
0.000130618

> <r_epik_Ionization_Penalty_Charging>
0

> <r_epik_Ionization_Penalty_Neutral>
0.000130618

> <r_epik_State_Penalty>
-0

> <r_epik_Charging_Adjusted_Penalty>
0

> <i_epik_Tot_Q>
0

> <i_epik_Tot_abs_Q>
0

> <r_epik_Metal_State_Penalty>
-0

> <b_epik_Metal_Only>
0

> <s_lp_Force_Field>
OPLS_2005

> <r_lp_Energy>
63.043

> <b_lp_Chiralities_Consistent>
1

> <s_lp_Variant>
AV-unprocessed.smi:240-12

> <Gold.Version>
5.8.1

> <Gold.Id.Protein>
6NUR|6NUR_protein|mol2

> <Gold.PLP.Fitness>
43.8904

> <Gold.PLP.PLP>
-35.2208

> <Gold.PLP.part.hbond>
-5.7144

> <Gold.PLP.part.metal>
0.0000

> <Gold.PLP.part.buried>
-5.8397

> <Gold.PLP.part.nonpolar>
-30.7907

> <Gold.PLP.part.repulsive>
6.5095

> <Gold.PLP.ligand.clash>
0.0000

> <Gold.PLP.ligand.torsion>
0.8046

> <Gold.PLP.Chemscore.Hbond>
3.0000

> <Gold.PLP.Chemscore.CHOScore>
0.3538

> <Gold.PLP.Chemscore.Metal>
0.0000

> <Gold.Chemscore.Hbonds>
donor molecule, donor type, donor heavy atom, donor atom, acceptor molecule, acceptor atom, score
      L1  H     1    29       P1 10186  1.00
      L1  H    24    49       P1  7957  1.00
      P1  H 11000 11005       L1     9  1.00
      L1  C    15    45       P1 10171  0.36

> <Gold.PLP.Chemscore.Internal.Correction>
0.2175

> <Gold.Rescore>
     Score         DG    S(hbond)    S(metal)    S(lipo)     H(rot)  DE(clash)    DE(int)     intcor
      8.83     -16.10       2.74        0.00      78.29       3.00       2.04       5.23       ----

> <Gold.Chemscore.Fitness>
8.8332

> <Gold.Chemscore.DG>
-16.1007

> <Gold.Chemscore.ZeroCoef>
-5.4800

> <Gold.Chemscore.Hbond>
2.7397

> <Gold.Chemscore.Metal>
0.0000

> <Gold.Chemscore.Lipo>
78.2903

> <Gold.Chemscore.Internal_Hbond>
0.0000

> <Gold.Chemscore.DEClash>
2.0354

> <Gold.Chemscore.DEInternal>
5.2322

> <Gold.Chemscore.Rot>
3.0039

> <Gold.Chemscore.Internal.Correction>
   9.000000E+99

> <Gold.Chemscore.Hbonds>
donor molecule, donor type, donor heavy atom, donor atom, acceptor molecule, acceptor atom, score
      L1  H     1    29       P1 10186  0.99
      L1  H    24    49       P1  7957  0.98
      P1  H 11000 11005       L1     9  0.38

> <Gold.Chemscore.Hbond.Weighted>
-9.1507

> <Gold.Chemscore.Metal.Weighted>
-0.0000

> <Gold.Chemscore.Lipo.Weighted>
-9.1600

> <Gold.Chemscore.Internal_Hbond.Weighted>
0.0000

> <Gold.Chemscore.DEClash.Weighted>
2.0354

> <Gold.Chemscore.DEInternal.Weighted>
5.2322

> <Gold.Chemscore.Rot.Weighted>
7.6899

> <Gold.Chemscore.Internal.Correction.Weighted>
   9.000000E+99

> <Gold.Protein.RotatedTorsions>
[ 6907 6896 6895 6894 ] final    0.50 input  -60.11 | X-H torsion
[ 7974 7965 7964 7962 ] final    0.28 input  175.53 | X-H torsion
[ 8008 7997 7996 7995 ] final  -94.75 input   59.86 | X-H torsion
[ 10167 10162 10161 10158 ] final  129.75 input  -65.29 | X-H torsion
[ 10718 10713 10712 10709 ] final  -82.50 input   66.30 | X-H torsion
[ 10763 10752 10751 10750 ] final  -17.69 input  -60.55 | X-H torsion
[ 11005 11000 10999 10996 ] final   10.49 input  -57.11 | X-H torsion

> <Gold.Protein.ActiveResidues>
 VAL166  LYS551  ARG553  GLY616  TRP617  ASP618  TYR619  PRO620  LYS621  CYS622 
 ASP623  PHE694  ASN695  SER759  ASP760  ASP761  ALA762  ILE779  LEU786  VAL792 
 PHE793  MET794  SER795  GLU796  ALA797  LYS798  CYS799  TRP800  GLU811  SER814 

> <Gold.Protein.RotatedAtoms>
  151.5774  135.1060  160.0009 H   0  0  0  0  0  0  0  0  0  0  0  0  # atno 6907 bound_to 6896
  152.4371  133.7376  159.6633 H   0  0  0  0  0  0  0  0  0  0  0  0  # atno 6908 bound_to 6896
  150.8270  133.8085  159.3137 H   0  0  0  0  0  0  0  0  0  0  0  0  # atno 6909 bound_to 6896
  146.2433  140.1161  142.8342 H   0  0  0  0  0  0  0  0  0  0  0  0  # atno 7974 bound_to 7965
  154.7524  140.0486  157.0904 H   0  0  0  0  0  0  0  0  0  0  0  0  # atno 8008 bound_to 7997
  155.0040  140.3128  155.4836 H   0  0  0  0  0  0  0  0  0  0  0  0  # atno 8009 bound_to 7997
  156.2888  140.2196  156.5152 H   0  0  0  0  0  0  0  0  0  0  0  0  # atno 8010 bound_to 7997
  139.5462  144.6775  151.4465 H   0  0  0  0  0  0  0  0  0  0  0  0  # atno 10167 bound_to 10162
  156.0032  130.4636  150.4114 H   0  0  0  0  0  0  0  0  0  0  0  0  # atno 10718 bound_to 10713
  153.5778  135.7006  153.5476 H   0  0  0  0  0  0  0  0  0  0  0  0  # atno 10763 bound_to 10752
  153.3287  135.4053  155.1477 H   0  0  0  0  0  0  0  0  0  0  0  0  # atno 10764 bound_to 10752
  154.8622  135.3713  154.5304 H   0  0  0  0  0  0  0  0  0  0  0  0  # atno 10765 bound_to 10752
  140.5139  134.0625  155.7825 H   0  0  0  0  0  0  0  0  0  0  0  0  # atno 11005 bound_to 11000
  145.0446  140.8971  143.5032 LP  0  0  0  0  0  0  0  0  0  0  0  0  # atno 17320 bound_to 7965
  145.1248  139.2670  143.5570 LP  0  0  0  0  0  0  0  0  0  0  0  0  # atno 17321 bound_to 7965
  140.6711  143.8291  150.7001 LP  0  0  0  0  0  0  0  0  0  0  0  0  # atno 17342 bound_to 10162
  140.1716  143.4190  152.1997 LP  0  0  0  0  0  0  0  0  0  0  0  0  # atno 17343 bound_to 10162
  157.2177  131.0475  151.2564 LP  0  0  0  0  0  0  0  0  0  0  0  0  # atno 17370 bound_to 10713
  157.3830  130.7241  149.6643 LP  0  0  0  0  0  0  0  0  0  0  0  0  # atno 17371 bound_to 10713
  141.1371  133.9203  157.2410 LP  0  0  0  0  0  0  0  0  0  0  0  0  # atno 17394 bound_to 11000
  139.9643  135.0146  156.9346 LP  0  0  0  0  0  0  0  0  0  0  0  0  # atno 17395 bound_to 11000

$$$$
