AV-unprocessed.smi:1809|AV-procd|sdf|7330|dock2
  -GOLD-   22720 8583D 1   1.00000     0.00000
 Structure written by MMmdl.
 38 40  0  0  0  0  0  0  0  0  2 V2000
  150.1047  131.2887  154.9138 C   0  0  0  0  0  0  0  0  0  0  0  0
  150.2031  132.6181  155.5800 C   0  0  0  0  0  0  0  0  0  0  0  0
  150.5898  132.7635  156.8496 N   0  0  0  0  0  0  0  0  0  0  0  0
  150.6005  134.0939  157.2434 N   0  0  0  0  0  0  0  0  0  0  0  0
  150.2102  134.9329  156.2733 C   0  0  0  0  0  0  0  0  0  0  0  0
  150.1538  136.2632  156.4513 N   0  5  0  0  0  0  0  0  0  0  0  0
  150.7066  136.8224  157.5517 C   0  0  0  0  0  0  0  0  0  0  0  0
  151.2338  136.2218  158.4911 O   0  0  0  0  0  0  0  0  0  0  0  0
  150.6445  138.1601  157.5678 N   0  0  0  0  0  0  0  0  0  0  0  0
  151.1654  139.0107  158.6299 C   0  0  0  0  0  0  0  0  0  0  0  0
  152.2430  139.9681  158.0853 C   0  0  1  0  0  0  0  0  0  0  0  0
  151.8633  141.4581  158.2580 C   0  0  0  0  0  0  0  0  0  0  0  0
  152.0191  141.8709  159.6404 N   0  0  0  0  0  0  0  0  0  0  0  0
  151.7896  143.2664  159.9329 C   0  0  0  0  0  0  0  0  0  0  0  0
  152.4142  143.4711  161.3239 C   0  0  0  0  0  0  0  0  0  0  0  0
  153.4016  142.2935  161.4795 C   0  0  0  0  0  0  0  0  0  0  0  0
  153.3590  141.6296  160.1018 C   0  0  1  0  0  0  0  0  0  0  0  0
  153.6994  140.1352  160.0261 C   0  0  0  0  0  0  0  0  0  0  0  0
  153.5283  139.7047  158.6721 O   0  0  0  0  0  0  0  0  0  0  0  0
  149.8133  134.1202  154.7594 S   0  0  0  0  0  0  0  0  0  0  0  0
  149.1515  130.8202  155.1586 H   0  0  0  0  0  0  0  0  0  0  0  0
  150.9132  130.6372  155.2465 H   0  0  0  0  0  0  0  0  0  0  0  0
  150.1723  131.4025  153.8319 H   0  0  0  0  0  0  0  0  0  0  0  0
  150.2115  138.6204  156.7804 H   0  0  0  0  0  0  0  0  0  0  0  0
  150.3433  139.5888  159.0544 H   0  0  0  0  0  0  0  0  0  0  0  0
  151.5602  138.3896  159.4346 H   0  0  0  0  0  0  0  0  0  0  0  0
  152.3409  139.7728  157.0167 H   0  0  0  0  0  0  0  0  0  0  0  0
  152.5067  142.0668  157.6210 H   0  0  0  0  0  0  0  0  0  0  0  0
  150.8397  141.6329  157.9254 H   0  0  0  0  0  0  0  0  0  0  0  0
  152.3017  143.8935  159.2013 H   0  0  0  0  0  0  0  0  0  0  0  0
  150.7281  143.5138  159.9074 H   0  0  0  0  0  0  0  0  0  0  0  0
  152.9149  144.4373  161.3915 H   0  0  0  0  0  0  0  0  0  0  0  0
  151.6524  143.4324  162.1034 H   0  0  0  0  0  0  0  0  0  0  0  0
  154.4067  142.6190  161.7485 H   0  0  0  0  0  0  0  0  0  0  0  0
  153.0486  141.6068  162.2503 H   0  0  0  0  0  0  0  0  0  0  0  0
  154.0557  142.1665  159.4543 H   0  0  0  0  0  0  0  0  0  0  0  0
  154.7320  139.9612  160.3288 H   0  0  0  0  0  0  0  0  0  0  0  0
  153.0673  139.5502  160.6949 H   0  0  0  0  0  0  0  0  0  0  0  0
  1  2  1  0  0  0  0
  1 21  1  0  0  0  0
  1 22  1  0  0  0  0
  1 23  1  0  0  0  0
  2 20  1  0  0  0  0
  2  3  2  0  0  0  0
  3  4  1  0  0  0  0
  4  5  2  0  0  0  0
  5  6  1  0  0  0  0
  5 20  1  0  0  0  0
  6  7  1  0  0  0  0
  7  8  2  0  0  0  0
  7  9  1  0  0  0  0
  9 10  1  0  0  0  0
  9 24  1  0  0  0  0
 10 11  1  0  0  0  0
 10 25  1  0  0  0  0
 10 26  1  0  0  0  0
 11 19  1  0  0  0  0
 11 12  1  0  0  0  0
 11 27  1  0  0  0  0
 12 13  1  0  0  0  0
 12 28  1  0  0  0  0
 12 29  1  0  0  0  0
 13 17  1  0  0  0  0
 13 14  1  0  0  0  0
 14 15  1  0  0  0  0
 14 30  1  0  0  0  0
 14 31  1  0  0  0  0
 15 16  1  0  0  0  0
 15 32  1  0  0  0  0
 15 33  1  0  0  0  0
 16 17  1  0  0  0  0
 16 34  1  0  0  0  0
 16 35  1  0  0  0  0
 17 18  1  0  0  0  0
 17 36  1  0  0  0  0
 18 19  1  0  0  0  0
 18 37  1  0  0  0  0
 18 38  1  0  0  0  0
M  CHG  1   6  -1
M  END
> <s_m_source_file>
AV-unprocessed.smi

> <i_m_source_file_index>
1809

> <i_lp_mmshare_version>
43012

> <i_f3d_flags>
0

> <s_epik_input>
W0NIM11jMW5uYyhzMSlbTkhdQyg9TylbTkhdW0NIMl1bQ0BIXShbQ0gyXTIpT1tDSDJdW0NAQEhdKE4yMylbQ0gyXVtDSDJdW0NIMl0z

> <s_epik_cmdline>
J2VwaWtfcHl0aG9uJywgJy1waCcsICc3LjAnLCAnLXRuJywgJzgnLCAnLW1hJywgJzIwMCcsICctbWV0YWxfYmluZGluZycsICctaW1hZScsICc8aW5maWxlLm1hZT4nLCAnLW9tYWUnLCAnPG91dGZpbGUubWFlPic=

> <r_lp_tautomer_probability>
1

> <r_epik_Ionization_Penalty>
4.48809

> <r_epik_Ionization_Penalty_Charging>
3.27284

> <r_epik_Ionization_Penalty_Neutral>
1.21525

> <r_epik_State_Penalty>
4.69427

> <r_epik_Charging_Adjusted_Penalty>
7.96711

> <i_epik_Tot_Q>
-1

> <i_epik_Tot_abs_Q>
1

> <r_epik_Metal_State_Penalty>
1.91976

> <b_epik_Metal_Only>
1

> <s_lp_Force_Field>
OPLS_2005

> <r_lp_Energy>
48.8238

> <b_lp_Chiralities_Consistent>
1

> <s_lp_Variant>
AV-unprocessed.smi:1809-22

> <Gold.Version>
5.8.1

> <Gold.Id.Protein>
6NUR|6NUR_protein|mol2

> <Gold.PLP.Fitness>
38.7919

> <Gold.PLP.PLP>
-34.1278

> <Gold.PLP.part.hbond>
-3.0000

> <Gold.PLP.part.metal>
0.0000

> <Gold.PLP.part.buried>
-5.5253

> <Gold.PLP.part.nonpolar>
-26.2455

> <Gold.PLP.part.repulsive>
0.0376

> <Gold.PLP.ligand.clash>
0.0000

> <Gold.PLP.ligand.torsion>
0.7794

> <Gold.PLP.Chemscore.Hbond>
2.0642

> <Gold.PLP.Chemscore.CHOScore>
0.0000

> <Gold.PLP.Chemscore.Metal>
0.0000

> <Gold.Chemscore.Hbonds>
donor molecule, donor type, donor heavy atom, donor atom, acceptor molecule, acceptor atom, score
      P1  H  6896  6907       L1     4  0.51
      P1  H  6896  6908       L1     8  0.54
      P1  H  7997  8010       L1    19  0.95

> <Gold.PLP.Chemscore.Internal.Correction>
0.0304

> <Gold.Rescore>
     Score         DG    S(hbond)    S(metal)    S(lipo)     H(rot)  DE(clash)    DE(int)     intcor
     15.29     -17.92       1.70        0.00      86.43       1.31       0.11       2.52       ----

> <Gold.Chemscore.Fitness>
15.2889

> <Gold.Chemscore.DG>
-17.9235

> <Gold.Chemscore.ZeroCoef>
-5.4800

> <Gold.Chemscore.Hbond>
1.6983

> <Gold.Chemscore.Metal>
0.0000

> <Gold.Chemscore.Lipo>
86.4306

> <Gold.Chemscore.Internal_Hbond>
0.0000

> <Gold.Chemscore.DEClash>
0.1141

> <Gold.Chemscore.DEInternal>
2.5206

> <Gold.Chemscore.Rot>
1.3051

> <Gold.Chemscore.Internal.Correction>
   9.000000E+99

> <Gold.Chemscore.Hbonds>
donor molecule, donor type, donor heavy atom, donor atom, acceptor molecule, acceptor atom, score
      P1  H  6896  6907       L1     4  0.07
      P1  H  6896  6908       L1     8  0.54
      P1  H  7997  8010       L1    19  0.21

> <Gold.Chemscore.Hbond.Weighted>
-5.6723

> <Gold.Chemscore.Metal.Weighted>
-0.0000

> <Gold.Chemscore.Lipo.Weighted>
-10.1124

> <Gold.Chemscore.Internal_Hbond.Weighted>
0.0000

> <Gold.Chemscore.DEClash.Weighted>
0.1141

> <Gold.Chemscore.DEInternal.Weighted>
2.5206

> <Gold.Chemscore.Rot.Weighted>
3.3412

> <Gold.Chemscore.Internal.Correction.Weighted>
   9.000000E+99

> <Gold.Protein.RotatedTorsions>
[ 6907 6896 6895 6894 ] final -127.35 input  -60.11 | X-H torsion
[ 7974 7965 7964 7962 ] final    1.95 input  175.53 | X-H torsion
[ 8008 7997 7996 7995 ] final   28.82 input   59.86 | X-H torsion
[ 10167 10162 10161 10158 ] final  -84.77 input  -65.29 | X-H torsion
[ 10718 10713 10712 10709 ] final  -57.61 input   66.30 | X-H torsion
[ 10763 10752 10751 10750 ] final   65.63 input  -60.55 | X-H torsion
[ 11005 11000 10999 10996 ] final -121.92 input  -57.11 | X-H torsion

> <Gold.Protein.ActiveResidues>
 VAL166  LYS551  ARG553  GLY616  TRP617  ASP618  TYR619  PRO620  LYS621  CYS622 
 ASP623  PHE694  ASN695  SER759  ASP760  ASP761  ALA762  ILE779  LEU786  VAL792 
 PHE793  MET794  SER795  GLU796  ALA797  LYS798  CYS799  TRP800  GLU811  SER814 

> <Gold.Protein.RotatedAtoms>
  150.9064  133.7053  159.2865 H   0  0  0  0  0  0  0  0  0  0  0  0  # atno 6907 bound_to 6896
  151.4555  135.1032  159.9719 H   0  0  0  0  0  0  0  0  0  0  0  0  # atno 6908 bound_to 6896
  152.4905  133.8439  159.7222 H   0  0  0  0  0  0  0  0  0  0  0  0  # atno 6909 bound_to 6896
  146.2442  140.0909  142.8352 H   0  0  0  0  0  0  0  0  0  0  0  0  # atno 7974 bound_to 7965
  155.0647  140.3194  155.4649 H   0  0  0  0  0  0  0  0  0  0  0  0  # atno 8008 bound_to 7997
  156.2805  140.2122  156.5719 H   0  0  0  0  0  0  0  0  0  0  0  0  # atno 8009 bound_to 7997
  154.7103  140.0499  157.0531 H   0  0  0  0  0  0  0  0  0  0  0  0  # atno 8010 bound_to 7997
  140.4100  143.2626  151.9030 H   0  0  0  0  0  0  0  0  0  0  0  0  # atno 10167 bound_to 10162
  156.1197  130.4167  150.0464 H   0  0  0  0  0  0  0  0  0  0  0  0  # atno 10718 bound_to 10713
  153.0104  135.5350  154.6697 H   0  0  0  0  0  0  0  0  0  0  0  0  # atno 10763 bound_to 10752
  154.5884  135.2856  155.0663 H   0  0  0  0  0  0  0  0  0  0  0  0  # atno 10764 bound_to 10752
  154.1765  135.6523  153.5075 H   0  0  0  0  0  0  0  0  0  0  0  0  # atno 10765 bound_to 10752
  141.0034  134.0369  157.3508 H   0  0  0  0  0  0  0  0  0  0  0  0  # atno 11005 bound_to 11000
  145.0651  140.9115  143.4915 LP  0  0  0  0  0  0  0  0  0  0  0  0  # atno 17320 bound_to 7965
  145.1032  139.2808  143.5675 LP  0  0  0  0  0  0  0  0  0  0  0  0  # atno 17321 bound_to 7965
  139.4783  144.5546  151.8333 LP  0  0  0  0  0  0  0  0  0  0  0  0  # atno 17342 bound_to 10162
  140.4648  144.1671  150.5910 LP  0  0  0  0  0  0  0  0  0  0  0  0  # atno 17343 bound_to 10162
  156.8406  130.9424  151.3632 LP  0  0  0  0  0  0  0  0  0  0  0  0  # atno 17370 bound_to 10713
  157.6381  130.8783  149.9397 LP  0  0  0  0  0  0  0  0  0  0  0  0  # atno 17371 bound_to 10713
  139.9051  135.0177  156.7447 LP  0  0  0  0  0  0  0  0  0  0  0  0  # atno 17394 bound_to 11000
  140.6852  133.9439  155.7933 LP  0  0  0  0  0  0  0  0  0  0  0  0  # atno 17395 bound_to 11000

$$$$
