AV-unprocessed.smi:2888|AV-procd|sdf|11104|dock2
  -GOLD-   2272015573D 1   1.00000     0.00000
 Structure written by MMmdl.
 34 36  0  0  0  0  0  0  0  0  2 V2000
  152.8639  140.6728  159.7851 C   0  0  0  0  0  0  0  0  0  0  0  0
  152.1923  141.8453  159.1023 C   0  0  0  0  0  0  0  0  0  0  0  0
  152.4892  143.1734  159.4533 C   0  0  0  0  0  0  0  0  0  0  0  0
  151.7996  144.1814  158.7523 C   0  0  0  0  0  0  0  0  0  0  0  0
  152.0274  145.6524  159.0289 C   0  0  0  0  0  0  0  0  0  0  0  0
  150.9004  143.8489  157.7919 N   0  3  0  0  0  0  0  0  0  0  0  0
  150.6701  142.5582  157.5058 C   0  0  0  0  0  0  0  0  0  0  0  0
  149.7501  142.2780  156.5117 N   0  0  0  0  0  0  0  0  0  0  0  0
  149.3893  140.9317  156.0841 C   0  0  2  0  0  0  0  0  0  0  0  0
  150.6065  140.0742  155.7141 C   0  0  0  0  0  0  0  0  0  0  0  0
  150.2777  139.6622  154.2737 C   0  0  1  0  0  0  0  0  0  0  0  0
  149.1007  138.6801  154.2040 C   0  0  0  0  0  0  0  0  0  0  0  0
  147.9147  139.5910  154.5200 C   0  0  0  0  0  0  0  0  0  0  0  0
  148.6064  140.9398  154.7608 C   0  0  2  0  0  0  0  0  0  0  0  0
  149.6572  140.8491  153.8123 O   0  0  0  0  0  0  0  0  0  0  0  0
  151.2947  141.5546  158.1394 N   0  0  0  0  0  0  0  0  0  0  0  0
  153.5147  141.0074  160.5936 H   0  0  0  0  0  0  0  0  0  0  0  0
  153.4684  140.1134  159.0705 H   0  0  0  0  0  0  0  0  0  0  0  0
  152.1175  139.9989  160.2068 H   0  0  0  0  0  0  0  0  0  0  0  0
  153.2108  143.4095  160.2222 H   0  0  0  0  0  0  0  0  0  0  0  0
  152.6813  145.7941  159.8900 H   0  0  0  0  0  0  0  0  0  0  0  0
  151.0814  146.1538  159.2351 H   0  0  0  0  0  0  0  0  0  0  0  0
  152.4911  146.1315  158.1662 H   0  0  0  0  0  0  0  0  0  0  0  0
  149.4093  143.0533  155.9621 H   0  0  0  0  0  0  0  0  0  0  0  0
  148.7930  140.4607  156.8669 H   0  0  0  0  0  0  0  0  0  0  0  0
  151.5310  140.6535  155.7365 H   0  0  0  0  0  0  0  0  0  0  0  0
  150.7311  139.2152  156.3739 H   0  0  0  0  0  0  0  0  0  0  0  0
  151.1471  139.3540  153.6924 H   0  0  0  0  0  0  0  0  0  0  0  0
  149.0035  138.2589  153.2027 H   0  0  0  0  0  0  0  0  0  0  0  0
  149.2058  137.8577  154.9125 H   0  0  0  0  0  0  0  0  0  0  0  0
  147.2410  139.6506  153.6642 H   0  0  0  0  0  0  0  0  0  0  0  0
  147.3398  139.2555  155.3839 H   0  0  0  0  0  0  0  0  0  0  0  0
  147.9454  141.7975  154.6290 H   0  0  0  0  0  0  0  0  0  0  0  0
  150.4090  144.5894  157.2909 H   0  0  0  0  0  0  0  0  0  0  0  0
  1  2  1  0  0  0  0
  1 17  1  0  0  0  0
  1 18  1  0  0  0  0
  1 19  1  0  0  0  0
  2 16  1  0  0  0  0
  2  3  2  0  0  0  0
  3  4  1  0  0  0  0
  3 20  1  0  0  0  0
  4  5  1  0  0  0  0
  4  6  2  0  0  0  0
  5 21  1  0  0  0  0
  5 22  1  0  0  0  0
  5 23  1  0  0  0  0
  6  7  1  0  0  0  0
  6 34  1  0  0  0  0
  7  8  1  0  0  0  0
  7 16  2  0  0  0  0
  8  9  1  0  0  0  0
  8 24  1  0  0  0  0
  9 14  1  0  0  0  0
  9 10  1  0  0  0  0
  9 25  1  0  0  0  0
 10 11  1  0  0  0  0
 10 26  1  0  0  0  0
 10 27  1  0  0  0  0
 11 15  1  0  0  0  0
 11 12  1  0  0  0  0
 11 28  1  0  0  0  0
 12 13  1  0  0  0  0
 12 29  1  0  0  0  0
 12 30  1  0  0  0  0
 13 14  1  0  0  0  0
 13 31  1  0  0  0  0
 13 32  1  0  0  0  0
 14 15  1  0  0  0  0
 14 33  1  0  0  0  0
M  CHG  1   6   1
M  END
> <s_m_source_file>
AV-unprocessed.smi

> <i_m_source_file_index>
2888

> <i_lp_mmshare_version>
43012

> <i_f3d_flags>
0

> <s_epik_input>
W0NIM11jMVtjSF1jKFtDSDNdKW5jKG4xKVtOSF1bQ0BIXShbQ0gyXVtDQEBIXTIzKVtDQEBIXShPMylbQ0gyXVtDSDJdMg==

> <s_epik_cmdline>
J2VwaWtfcHl0aG9uJywgJy1waCcsICc3LjAnLCAnLXRuJywgJzgnLCAnLW1hJywgJzIwMCcsICctbWV0YWxfYmluZGluZycsICctaW1hZScsICc8aW5maWxlLm1hZT4nLCAnLW9tYWUnLCAnPG91dGZpbGUubWFlPic=

> <r_lp_tautomer_probability>
0.505494

> <r_epik_Ionization_Penalty>
2.49163

> <r_epik_Ionization_Penalty_Charging>
2.49163

> <r_epik_Ionization_Penalty_Neutral>
3.7631e-06

> <r_epik_State_Penalty>
2.656

> <r_epik_Charging_Adjusted_Penalty>
5.14762

> <i_epik_Tot_Q>
1

> <i_epik_Tot_abs_Q>
1

> <r_epik_Metal_State_Penalty>
2.66479

> <b_epik_Metal_Only>
0

> <s_lp_Force_Field>
OPLS_2005

> <r_lp_Energy>
35.8908

> <b_lp_Chiralities_Consistent>
1

> <s_lp_Variant>
AV-unprocessed.smi:2888-5

> <Gold.Version>
5.8.1

> <Gold.Id.Protein>
6NUR|6NUR_protein|mol2

> <Gold.PLP.Fitness>
41.5458

> <Gold.PLP.PLP>
-30.4693

> <Gold.PLP.part.hbond>
-3.8974

> <Gold.PLP.part.metal>
0.0000

> <Gold.PLP.part.buried>
0.9044

> <Gold.PLP.part.nonpolar>
-29.3279

> <Gold.PLP.part.repulsive>
2.8189

> <Gold.PLP.ligand.clash>
0.0000

> <Gold.PLP.ligand.torsion>
0.1039

> <Gold.PLP.Chemscore.Hbond>
3.7550

> <Gold.PLP.Chemscore.CHOScore>
0.0000

> <Gold.PLP.Chemscore.Metal>
0.0000

> <Gold.Chemscore.Hbonds>
donor molecule, donor type, donor heavy atom, donor atom, acceptor molecule, acceptor atom, score
      L1  H     6    34       P1  8028  0.90
      L1  H     8    24       P1  8028  2.00
      P1  H  8011  8017       L1    15  0.68

> <Gold.PLP.Chemscore.Internal.Correction>
0.0193

> <Gold.Rescore>
     Score         DG    S(hbond)    S(metal)    S(lipo)     H(rot)  DE(clash)    DE(int)     intcor
     17.42     -20.82       2.13        0.00      92.28       1.00       2.35       1.05       ----

> <Gold.Chemscore.Fitness>
17.4150

> <Gold.Chemscore.DG>
-20.8159

> <Gold.Chemscore.ZeroCoef>
-5.4800

> <Gold.Chemscore.Hbond>
2.1257

> <Gold.Chemscore.Metal>
0.0000

> <Gold.Chemscore.Lipo>
92.2753

> <Gold.Chemscore.Internal_Hbond>
0.0000

> <Gold.Chemscore.DEClash>
2.3480

> <Gold.Chemscore.DEInternal>
1.0529

> <Gold.Chemscore.Rot>
1.0000

> <Gold.Chemscore.Internal.Correction>
   9.000000E+99

> <Gold.Chemscore.Hbonds>
donor molecule, donor type, donor heavy atom, donor atom, acceptor molecule, acceptor atom, score
      L1  H     6    34       P1  8028  0.24
      L1  H     8    24       P1  8028  0.99
      P1  H  8011  8017       L1    15  0.61

> <Gold.Chemscore.Hbond.Weighted>
-7.0997

> <Gold.Chemscore.Metal.Weighted>
-0.0000

> <Gold.Chemscore.Lipo.Weighted>
-10.7962

> <Gold.Chemscore.Internal_Hbond.Weighted>
0.0000

> <Gold.Chemscore.DEClash.Weighted>
2.3480

> <Gold.Chemscore.DEInternal.Weighted>
1.0529

> <Gold.Chemscore.Rot.Weighted>
2.5600

> <Gold.Chemscore.Internal.Correction.Weighted>
   9.000000E+99

> <Gold.Protein.RotatedTorsions>
[ 6907 6896 6895 6894 ] final  -55.75 input  -60.11 | X-H torsion
[ 7974 7965 7964 7962 ] final  106.61 input  175.53 | X-H torsion
[ 8008 7997 7996 7995 ] final -142.22 input   59.86 | X-H torsion
[ 10167 10162 10161 10158 ] final  139.25 input  -65.29 | X-H torsion
[ 10718 10713 10712 10709 ] final  130.17 input   66.30 | X-H torsion
[ 10763 10752 10751 10750 ] final -132.11 input  -60.55 | X-H torsion
[ 11005 11000 10999 10996 ] final -151.81 input  -57.11 | X-H torsion

> <Gold.Protein.ActiveResidues>
 VAL166  LYS551  ARG553  GLY616  TRP617  ASP618  TYR619  PRO620  LYS621  CYS622 
 ASP623  PHE694  ASN695  SER759  ASP760  ASP761  ALA762  ILE779  LEU786  VAL792 
 PHE793  MET794  SER795  GLU796  ALA797  LYS798  CYS799  TRP800  GLU811  SER814 

> <Gold.Protein.RotatedAtoms>
  150.8225  134.7440  159.6784 H   0  0  0  0  0  0  0  0  0  0  0  0  # atno 6907 bound_to 6896
  152.4340  134.5720  159.9933 H   0  0  0  0  0  0  0  0  0  0  0  0  # atno 6908 bound_to 6896
  151.5900  133.3330  159.3062 H   0  0  0  0  0  0  0  0  0  0  0  0  # atno 6909 bound_to 6896
  145.3044  139.2559  143.3797 H   0  0  0  0  0  0  0  0  0  0  0  0  # atno 7974 bound_to 7965
  155.4907  140.0567  157.2954 H   0  0  0  0  0  0  0  0  0  0  0  0  # atno 8008 bound_to 7997
  154.4624  140.2003  156.0159 H   0  0  0  0  0  0  0  0  0  0  0  0  # atno 8009 bound_to 7997
  156.0914  140.3233  155.7825 H   0  0  0  0  0  0  0  0  0  0  0  0  # atno 8010 bound_to 7997
  139.5085  144.6306  151.5827 H   0  0  0  0  0  0  0  0  0  0  0  0  # atno 10167 bound_to 10162
  157.5086  131.1096  150.9325 H   0  0  0  0  0  0  0  0  0  0  0  0  # atno 10718 bound_to 10713
  154.8746  135.3808  154.4356 H   0  0  0  0  0  0  0  0  0  0  0  0  # atno 10763 bound_to 10752
  153.5046  135.7030  153.5818 H   0  0  0  0  0  0  0  0  0  0  0  0  # atno 10764 bound_to 10752
  153.4135  135.3919  155.2032 H   0  0  0  0  0  0  0  0  0  0  0  0  # atno 10765 bound_to 10752
  140.7255  134.3679  157.5176 H   0  0  0  0  0  0  0  0  0  0  0  0  # atno 11005 bound_to 11000
  146.3141  140.3565  142.8661 LP  0  0  0  0  0  0  0  0  0  0  0  0  # atno 17320 bound_to 7965
  144.9067  140.7708  143.5833 LP  0  0  0  0  0  0  0  0  0  0  0  0  # atno 17321 bound_to 7965
  140.6037  143.9563  150.6404 LP  0  0  0  0  0  0  0  0  0  0  0  0  # atno 17342 bound_to 10162
  140.2783  143.3407  152.1175 LP  0  0  0  0  0  0  0  0  0  0  0  0  # atno 17343 bound_to 10162
  156.9972  130.5586  149.5308 LP  0  0  0  0  0  0  0  0  0  0  0  0  # atno 17370 bound_to 10713
  156.0274  130.5368  150.8445 LP  0  0  0  0  0  0  0  0  0  0  0  0  # atno 17371 bound_to 10713
  139.8838  134.8984  156.2743 LP  0  0  0  0  0  0  0  0  0  0  0  0  # atno 17394 bound_to 11000
  140.9966  133.7176  156.0895 LP  0  0  0  0  0  0  0  0  0  0  0  0  # atno 17395 bound_to 11000

$$$$
