AV-unprocessed.smi:886|AV-procd|sdf|4050|dock1
  -GOLD-   22720 1533D 1   1.00000     0.00000
 Structure written by MMmdl.
 35 37  0  0  0  0  0  0  0  0  1 V2000
  148.0323  142.4659  152.1628 C   0  0  0  0  0  0  0  0  0  0  0  0
  148.9149  141.5334  152.8465 N   0  0  0  0  0  0  0  0  0  0  0  0
  149.0547  141.4668  154.1794 C   0  0  0  0  0  0  0  0  0  0  0  0
  148.4545  142.2073  154.9592 O   0  0  0  0  0  0  0  0  0  0  0  0
  150.0354  140.4336  154.6722 C   0  0  0  0  0  0  0  0  0  0  0  0
  150.1172  139.1827  154.0163 C   0  0  0  0  0  0  0  0  0  0  0  0
  151.0079  138.2043  154.4925 C   0  0  0  0  0  0  0  0  0  0  0  0
  151.7881  138.5092  155.6208 C   0  0  0  0  0  0  0  0  0  0  0  0
  151.7228  139.6926  156.2628 N   0  0  0  0  0  0  0  0  0  0  0  0
  150.8668  140.6421  155.8110 C   0  0  0  0  0  0  0  0  0  0  0  0
  150.8515  141.8682  156.5005 N   0  0  0  0  0  0  0  0  0  0  0  0
  151.7685  142.1181  157.6076 C   0  0  2  0  0  0  0  0  0  0  0  0
  151.5524  141.1657  158.7910 C   0  0  0  0  0  0  0  0  0  0  0  0
  151.2952  142.1438  159.9440 C   0  0  1  0  0  0  0  0  0  0  0  0
  152.5541  142.9321  160.3299 C   0  0  0  0  0  0  0  0  0  0  0  0
  152.6876  143.9010  159.1554 C   0  0  0  0  0  0  0  0  0  0  0  0
  151.5086  143.4839  158.2655 C   0  0  2  0  0  0  0  0  0  0  0  0
  150.5584  143.1431  159.2624 O   0  0  0  0  0  0  0  0  0  0  0  0
  148.1099  142.3289  151.0844 H   0  0  0  0  0  0  0  0  0  0  0  0
  148.3013  143.4971  152.3956 H   0  0  0  0  0  0  0  0  0  0  0  0
  146.9939  142.3021  152.4541 H   0  0  0  0  0  0  0  0  0  0  0  0
  149.4548  140.9015  152.2730 H   0  0  0  0  0  0  0  0  0  0  0  0
  149.4994  138.9630  153.1577 H   0  0  0  0  0  0  0  0  0  0  0  0
  151.0867  137.2425  154.0079 H   0  0  0  0  0  0  0  0  0  0  0  0
  152.4823  137.7844  156.0191 H   0  0  0  0  0  0  0  0  0  0  0  0
  149.9904  142.3966  156.4916 H   0  0  0  0  0  0  0  0  0  0  0  0
  152.7957  142.0775  157.2424 H   0  0  0  0  0  0  0  0  0  0  0  0
  150.6808  140.5267  158.6408 H   0  0  0  0  0  0  0  0  0  0  0  0
  152.4140  140.5230  158.9737 H   0  0  0  0  0  0  0  0  0  0  0  0
  150.7722  141.7002  160.7916 H   0  0  0  0  0  0  0  0  0  0  0  0
  152.4007  143.4789  161.2608 H   0  0  0  0  0  0  0  0  0  0  0  0
  153.4252  142.2872  160.4496 H   0  0  0  0  0  0  0  0  0  0  0  0
  152.5693  144.9305  159.4952 H   0  0  0  0  0  0  0  0  0  0  0  0
  153.6471  143.8188  158.6437 H   0  0  0  0  0  0  0  0  0  0  0  0
  151.1863  144.2650  157.5759 H   0  0  0  0  0  0  0  0  0  0  0  0
  1  2  1  0  0  0  0
  1 19  1  0  0  0  0
  1 20  1  0  0  0  0
  1 21  1  0  0  0  0
  2  3  1  0  0  0  0
  2 22  1  0  0  0  0
  3  4  2  0  0  0  0
  3  5  1  0  0  0  0
  5 10  1  0  0  0  0
  5  6  2  0  0  0  0
  6  7  1  0  0  0  0
  6 23  1  0  0  0  0
  7  8  2  0  0  0  0
  7 24  1  0  0  0  0
  8  9  1  0  0  0  0
  8 25  1  0  0  0  0
  9 10  2  0  0  0  0
 10 11  1  0  0  0  0
 11 12  1  0  0  0  0
 11 26  1  0  0  0  0
 12 17  1  0  0  0  0
 12 13  1  0  0  0  0
 12 27  1  0  0  0  0
 13 14  1  0  0  0  0
 13 28  1  0  0  0  0
 13 29  1  0  0  0  0
 14 18  1  0  0  0  0
 14 15  1  0  0  0  0
 14 30  1  0  0  0  0
 15 16  1  0  0  0  0
 15 31  1  0  0  0  0
 15 32  1  0  0  0  0
 16 17  1  0  0  0  0
 16 33  1  0  0  0  0
 16 34  1  0  0  0  0
 17 18  1  0  0  0  0
 17 35  1  0  0  0  0
M  END
> <s_m_source_file>
AV-unprocessed.smi

> <i_m_source_file_index>
886

> <i_lp_mmshare_version>
43012

> <i_f3d_flags>
0

> <s_epik_input>
W0NIM11bTkhdQyg9TyljMVtjSF1bY0hdW2NIXW5jMVtOSF1bQ0BIXShbQ0gyXVtDQEhdMjMpW0NASF0oTzMpW0NIMl1bQ0gyXTI=

> <s_epik_cmdline>
J2VwaWtfcHl0aG9uJywgJy1waCcsICc3LjAnLCAnLXRuJywgJzgnLCAnLW1hJywgJzIwMCcsICctbWV0YWxfYmluZGluZycsICctaW1hZScsICc8aW5maWxlLm1hZT4nLCAnLW9tYWUnLCAnPG91dGZpbGUubWFlPic=

> <r_lp_tautomer_probability>
1

> <r_epik_Ionization_Penalty>
0.0065447

> <r_epik_Ionization_Penalty_Charging>
0

> <r_epik_Ionization_Penalty_Neutral>
0.0065447

> <r_epik_State_Penalty>
0.00484214

> <r_epik_Charging_Adjusted_Penalty>
0.00484214

> <i_epik_Tot_Q>
0

> <i_epik_Tot_abs_Q>
0

> <r_epik_Metal_State_Penalty>
-0

> <b_epik_Metal_Only>
0

> <s_lp_Force_Field>
OPLS_2005

> <r_lp_Energy>
46.3803

> <b_lp_Chiralities_Consistent>
1

> <s_lp_Variant>
AV-unprocessed.smi:886-3

> <Gold.Version>
5.8.1

> <Gold.Id.Protein>
6NUR|6NUR_protein|mol2

> <Gold.PLP.Fitness>
42.4807

> <Gold.PLP.PLP>
-38.8989

> <Gold.PLP.part.hbond>
-2.7186

> <Gold.PLP.part.metal>
0.0000

> <Gold.PLP.part.buried>
-5.5807

> <Gold.PLP.part.nonpolar>
-29.9017

> <Gold.PLP.part.repulsive>
0.2857

> <Gold.PLP.ligand.clash>
0.0000

> <Gold.PLP.ligand.torsion>
0.5374

> <Gold.PLP.Chemscore.Hbond>
1.5420

> <Gold.PLP.Chemscore.CHOScore>
0.0000

> <Gold.PLP.Chemscore.Metal>
0.0000

> <Gold.Chemscore.Hbonds>
donor molecule, donor type, donor heavy atom, donor atom, acceptor molecule, acceptor atom, score
      L1  H     2    22       P1  7957  0.68

> <Gold.PLP.Chemscore.Internal.Correction>
0.0307

> <Gold.Rescore>
     Score         DG    S(hbond)    S(metal)    S(lipo)     H(rot)  DE(clash)    DE(int)     intcor
     16.82     -19.08       1.11        0.00     106.50       1.00       1.39       0.88       ----

> <Gold.Chemscore.Fitness>
16.8206

> <Gold.Chemscore.DG>
-19.0834

> <Gold.Chemscore.ZeroCoef>
-5.4800

> <Gold.Chemscore.Hbond>
1.1087

> <Gold.Chemscore.Metal>
0.0000

> <Gold.Chemscore.Lipo>
106.4991

> <Gold.Chemscore.Internal_Hbond>
0.0000

> <Gold.Chemscore.DEClash>
1.3851

> <Gold.Chemscore.DEInternal>
0.8777

> <Gold.Chemscore.Rot>
1.0000

> <Gold.Chemscore.Internal.Correction>
   9.000000E+99

> <Gold.Chemscore.Hbonds>
donor molecule, donor type, donor heavy atom, donor atom, acceptor molecule, acceptor atom, score
      L1  H     2    22       P1  7957  0.64

> <Gold.Chemscore.Hbond.Weighted>
-3.7031

> <Gold.Chemscore.Metal.Weighted>
-0.0000

> <Gold.Chemscore.Lipo.Weighted>
-12.4604

> <Gold.Chemscore.Internal_Hbond.Weighted>
0.0000

> <Gold.Chemscore.DEClash.Weighted>
1.3851

> <Gold.Chemscore.DEInternal.Weighted>
0.8777

> <Gold.Chemscore.Rot.Weighted>
2.5600

> <Gold.Chemscore.Internal.Correction.Weighted>
   9.000000E+99

> <Gold.Protein.RotatedTorsions>
[ 6907 6896 6895 6894 ] final  130.07 input  -60.11 | X-H torsion
[ 7974 7965 7964 7962 ] final  -13.38 input  175.53 | X-H torsion
[ 8008 7997 7996 7995 ] final -164.85 input   59.86 | X-H torsion
[ 10167 10162 10161 10158 ] final   -2.48 input  -65.29 | X-H torsion
[ 10718 10713 10712 10709 ] final -148.80 input   66.30 | X-H torsion
[ 10763 10752 10751 10750 ] final    8.85 input  -60.55 | X-H torsion
[ 11005 11000 10999 10996 ] final  101.69 input  -57.11 | X-H torsion

> <Gold.Protein.ActiveResidues>
 VAL166  LYS551  ARG553  GLY616  TRP617  ASP618  TYR619  PRO620  LYS621  CYS622 
 ASP623  PHE694  ASN695  SER759  ASP760  ASP761  ALA762  ILE779  LEU786  VAL792 
 PHE793  MET794  SER795  GLU796  ALA797  LYS798  CYS799  TRP800  GLU811  SER814 

> <Gold.Protein.RotatedAtoms>
  152.3562  133.6240  159.5980 H   0  0  0  0  0  0  0  0  0  0  0  0  # atno 6907 bound_to 6896
  150.7570  133.9496  159.3490 H   0  0  0  0  0  0  0  0  0  0  0  0  # atno 6908 bound_to 6896
  151.7341  135.0869  160.0356 H   0  0  0  0  0  0  0  0  0  0  0  0  # atno 6909 bound_to 6896
  146.2116  140.3195  142.8389 H   0  0  0  0  0  0  0  0  0  0  0  0  # atno 7974 bound_to 7965
  155.8415  140.0949  157.1732 H   0  0  0  0  0  0  0  0  0  0  0  0  # atno 8008 bound_to 7997
  154.3982  140.1400  156.3795 H   0  0  0  0  0  0  0  0  0  0  0  0  # atno 8009 bound_to 7997
  155.8059  140.3451  155.5432 H   0  0  0  0  0  0  0  0  0  0  0  0  # atno 8010 bound_to 7997
  140.6852  143.6652  150.8232 H   0  0  0  0  0  0  0  0  0  0  0  0  # atno 10167 bound_to 10162
  156.4250  130.8047  151.2272 H   0  0  0  0  0  0  0  0  0  0  0  0  # atno 10718 bound_to 10713
  153.2205  135.6880  153.8006 H   0  0  0  0  0  0  0  0  0  0  0  0  # atno 10763 bound_to 10752
  153.7206  135.3268  155.3267 H   0  0  0  0  0  0  0  0  0  0  0  0  # atno 10764 bound_to 10752
  154.8267  135.4612  154.1050 H   0  0  0  0  0  0  0  0  0  0  0  0  # atno 10765 bound_to 10752
  139.8774  134.9193  156.4944 H   0  0  0  0  0  0  0  0  0  0  0  0  # atno 11005 bound_to 11000
  144.8930  140.7548  143.5915 LP  0  0  0  0  0  0  0  0  0  0  0  0  # atno 17320 bound_to 7965
  145.3118  139.1816  143.4634 LP  0  0  0  0  0  0  0  0  0  0  0  0  # atno 17321 bound_to 7965
  140.0358  143.5396  152.2740 LP  0  0  0  0  0  0  0  0  0  0  0  0  # atno 17342 bound_to 10162
  139.6206  144.7628  151.2750 LP  0  0  0  0  0  0  0  0  0  0  0  0  # atno 17343 bound_to 10162
  157.7508  131.0216  150.3758 LP  0  0  0  0  0  0  0  0  0  0  0  0  # atno 17370 bound_to 10713
  156.4083  130.3929  149.6910 LP  0  0  0  0  0  0  0  0  0  0  0  0  # atno 17371 bound_to 10713
  140.8635  133.8042  155.9289 LP  0  0  0  0  0  0  0  0  0  0  0  0  # atno 17394 bound_to 11000
  140.9026  134.2360  157.5033 LP  0  0  0  0  0  0  0  0  0  0  0  0  # atno 17395 bound_to 11000

$$$$
