AV-unprocessed.smi:2445|AV-procd|sdf|9633|dock4
  -GOLD-   2272013263D 1   1.00000     0.00000
 Structure written by MMmdl.
 40 41  0  0  0  0  0  0  0  0  1 V2000
  143.3307  132.8954  150.8942 C   0  0  0  0  0  0  0  0  0  0  0  0
  144.7717  132.9833  151.2663 C   0  0  0  0  0  0  0  0  0  0  0  0
  145.8068  133.4728  150.5090 C   0  0  0  0  0  0  0  0  0  0  0  0
  147.0484  133.4169  151.1459 N   0  0  0  0  0  0  0  0  0  0  0  0
  146.9716  132.8946  152.3727 C   0  0  0  0  0  0  0  0  0  0  0  0
  148.1595  132.7176  153.2708 C   0  0  2  0  0  0  0  0  0  0  0  0
  148.3426  131.2503  153.6831 C   0  0  0  0  0  0  0  0  0  0  0  0
  148.1360  133.6658  154.4857 C   0  0  0  0  0  0  0  0  0  0  0  0
  148.6053  135.0018  154.1352 N   0  0  0  0  0  0  0  0  0  0  0  0
  148.9540  135.9419  155.0223 C   0  0  0  0  0  0  0  0  0  0  0  0
  148.9427  135.7769  156.2422 O   0  0  0  0  0  0  0  0  0  0  0  0
  149.3116  137.0836  154.4200 N   0  0  0  0  0  0  0  0  0  0  0  0
  149.7320  138.2987  155.1108 C   0  0  2  0  0  0  0  0  0  0  0  0
  148.9640  139.5102  154.6246 C   0  0  0  0  0  0  0  0  0  0  0  0
  149.9137  140.6463  154.9840 C   0  0  0  0  0  0  0  0  0  0  0  0
  151.2240  140.1135  154.8300 O   0  0  0  0  0  0  0  0  0  0  0  0
  151.1791  138.6895  154.7764 C   0  0  1  0  0  0  0  0  0  0  0  0
  152.2280  138.0955  155.7244 C   0  0  0  0  0  0  0  0  0  0  0  0
  145.3330  132.4263  152.8206 S   0  0  0  0  0  0  0  0  0  0  0  0
  143.1508  133.3326  149.9118 H   0  0  0  0  0  0  0  0  0  0  0  0
  142.7111  133.4265  151.6170 H   0  0  0  0  0  0  0  0  0  0  0  0
  143.0016  131.8566  150.8654 H   0  0  0  0  0  0  0  0  0  0  0  0
  145.7503  133.8787  149.5096 H   0  0  0  0  0  0  0  0  0  0  0  0
  149.0390  132.9860  152.6830 H   0  0  0  0  0  0  0  0  0  0  0  0
  148.4375  130.6061  152.8084 H   0  0  0  0  0  0  0  0  0  0  0  0
  147.4947  130.8936  154.2688 H   0  0  0  0  0  0  0  0  0  0  0  0
  149.2411  131.1213  154.2871 H   0  0  0  0  0  0  0  0  0  0  0  0
  147.1187  133.7290  154.8766 H   0  0  0  0  0  0  0  0  0  0  0  0
  148.7586  133.2691  155.2888 H   0  0  0  0  0  0  0  0  0  0  0  0
  148.6474  135.2295  153.1524 H   0  0  0  0  0  0  0  0  0  0  0  0
  149.2890  137.1180  153.4113 H   0  0  0  0  0  0  0  0  0  0  0  0
  149.5989  138.2100  156.1912 H   0  0  0  0  0  0  0  0  0  0  0  0
  148.8280  139.4728  153.5424 H   0  0  0  0  0  0  0  0  0  0  0  0
  147.9829  139.6124  155.0899 H   0  0  0  0  0  0  0  0  0  0  0  0
  149.7649  141.5301  154.3634 H   0  0  0  0  0  0  0  0  0  0  0  0
  149.7784  140.9372  156.0265 H   0  0  0  0  0  0  0  0  0  0  0  0
  151.4123  138.4056  153.7489 H   0  0  0  0  0  0  0  0  0  0  0  0
  152.2351  137.0069  155.6706 H   0  0  0  0  0  0  0  0  0  0  0  0
  152.0319  138.3792  156.7585 H   0  0  0  0  0  0  0  0  0  0  0  0
  153.2275  138.4460  155.4664 H   0  0  0  0  0  0  0  0  0  0  0  0
  1  2  1  0  0  0  0
  1 20  1  0  0  0  0
  1 21  1  0  0  0  0
  1 22  1  0  0  0  0
  2 19  1  0  0  0  0
  2  3  2  0  0  0  0
  3  4  1  0  0  0  0
  3 23  1  0  0  0  0
  4  5  2  0  0  0  0
  5  6  1  0  0  0  0
  5 19  1  0  0  0  0
  6  7  1  0  0  0  0
  6  8  1  0  0  0  0
  6 24  1  0  0  0  0
  7 25  1  0  0  0  0
  7 26  1  0  0  0  0
  7 27  1  0  0  0  0
  8  9  1  0  0  0  0
  8 28  1  0  0  0  0
  8 29  1  0  0  0  0
  9 10  1  0  0  0  0
  9 30  1  0  0  0  0
 10 11  2  0  0  0  0
 10 12  1  0  0  0  0
 12 13  1  0  0  0  0
 12 31  1  0  0  0  0
 13 17  1  0  0  0  0
 13 14  1  0  0  0  0
 13 32  1  0  0  0  0
 14 15  1  0  0  0  0
 14 33  1  0  0  0  0
 14 34  1  0  0  0  0
 15 16  1  0  0  0  0
 15 35  1  0  0  0  0
 15 36  1  0  0  0  0
 16 17  1  0  0  0  0
 17 18  1  0  0  0  0
 17 37  1  0  0  0  0
 18 38  1  0  0  0  0
 18 39  1  0  0  0  0
 18 40  1  0  0  0  0
M  END
> <s_m_source_file>
AV-unprocessed.smi

> <i_m_source_file_index>
2445

> <i_lp_mmshare_version>
43012

> <i_f3d_flags>
0

> <s_epik_input>
W0NIM11jMVtjSF1uYyhzMSlbQ0BIXShbQ0gzXSlbQ0gyXVtOSF1DKD1PKVtOSF1bQ0BASF0yW0NIMl1bQ0gyXU9bQ0BIXTJbQ0gzXQ==

> <s_epik_cmdline>
J2VwaWtfcHl0aG9uJywgJy1waCcsICc3LjAnLCAnLXRuJywgJzgnLCAnLW1hJywgJzIwMCcsICctbWV0YWxfYmluZGluZycsICctaW1hZScsICc8aW5maWxlLm1hZT4nLCAnLW9tYWUnLCAnPG91dGZpbGUubWFlPic=

> <r_epik_Ionization_Penalty>
0.000649483

> <r_epik_Ionization_Penalty_Charging>
0

> <r_epik_Ionization_Penalty_Neutral>
0.000649483

> <r_epik_State_Penalty>
0.000379895

> <r_epik_Charging_Adjusted_Penalty>
0.000379895

> <i_epik_Tot_Q>
0

> <i_epik_Tot_abs_Q>
0

> <r_epik_Metal_State_Penalty>
-0

> <b_epik_Metal_Only>
0

> <s_lp_Force_Field>
OPLS_2005

> <r_lp_Energy>
5.96994

> <b_lp_Chiralities_Consistent>
1

> <s_lp_Variant>
AV-unprocessed.smi:2445-1

> <Gold.Version>
5.8.1

> <Gold.Id.Protein>
6NUR|6NUR_protein|mol2

> <Gold.PLP.Fitness>
43.9241

> <Gold.PLP.PLP>
-32.9000

> <Gold.PLP.part.hbond>
-2.9547

> <Gold.PLP.part.metal>
0.0000

> <Gold.PLP.part.buried>
-2.5485

> <Gold.PLP.part.nonpolar>
-27.3115

> <Gold.PLP.part.repulsive>
0.3568

> <Gold.PLP.ligand.clash>
0.0000

> <Gold.PLP.ligand.torsion>
0.4859

> <Gold.PLP.Chemscore.Hbond>
2.9600

> <Gold.PLP.Chemscore.CHOScore>
1.0000

> <Gold.PLP.Chemscore.Metal>
0.0000

> <Gold.Chemscore.Hbonds>
donor molecule, donor type, donor heavy atom, donor atom, acceptor molecule, acceptor atom, score
      L1  H     9    30       P1  7948  1.00
      L1  H    12    31       P1  7948  0.96
      P1  H  7989  7998       L1    16  0.95
      L1  C     3    23       P1  7921  1.00

> <Gold.PLP.Chemscore.Internal.Correction>
0.1160

> <Gold.Rescore>
     Score         DG    S(hbond)    S(metal)    S(lipo)     H(rot)  DE(clash)    DE(int)     intcor
     18.24     -18.80       2.37        0.00      79.89       1.53       0.08       0.49       ----

> <Gold.Chemscore.Fitness>
18.2352

> <Gold.Chemscore.DG>
-18.8037

> <Gold.Chemscore.ZeroCoef>
-5.4800

> <Gold.Chemscore.Hbond>
2.3653

> <Gold.Chemscore.Metal>
0.0000

> <Gold.Chemscore.Lipo>
79.8877

> <Gold.Chemscore.Internal_Hbond>
0.0000

> <Gold.Chemscore.DEClash>
0.0801

> <Gold.Chemscore.DEInternal>
0.4884

> <Gold.Chemscore.Rot>
1.5325

> <Gold.Chemscore.Internal.Correction>
   9.000000E+99

> <Gold.Chemscore.Hbonds>
donor molecule, donor type, donor heavy atom, donor atom, acceptor molecule, acceptor atom, score
      L1  H     9    30       P1  7948  0.77
      L1  H    12    31       P1  7948  0.90
      P1  H  7989  7998       L1    16  0.20

> <Gold.Chemscore.Hbond.Weighted>
-7.9002

> <Gold.Chemscore.Metal.Weighted>
-0.0000

> <Gold.Chemscore.Lipo.Weighted>
-9.3469

> <Gold.Chemscore.Internal_Hbond.Weighted>
0.0000

> <Gold.Chemscore.DEClash.Weighted>
0.0801

> <Gold.Chemscore.DEInternal.Weighted>
0.4884

> <Gold.Chemscore.Rot.Weighted>
3.9233

> <Gold.Chemscore.Internal.Correction.Weighted>
   9.000000E+99

> <Gold.Protein.RotatedTorsions>
[ 6907 6896 6895 6894 ] final -166.65 input  -60.11 | X-H torsion
[ 7974 7965 7964 7962 ] final  -56.53 input  175.53 | X-H torsion
[ 8008 7997 7996 7995 ] final   32.99 input   59.86 | X-H torsion
[ 10167 10162 10161 10158 ] final  -32.24 input  -65.29 | X-H torsion
[ 10718 10713 10712 10709 ] final  -24.11 input   66.30 | X-H torsion
[ 10763 10752 10751 10750 ] final   99.57 input  -60.55 | X-H torsion
[ 11005 11000 10999 10996 ] final  -52.19 input  -57.11 | X-H torsion

> <Gold.Protein.ActiveResidues>
 VAL166  LYS551  ARG553  GLY616  TRP617  ASP618  TYR619  PRO620  LYS621  CYS622 
 ASP623  PHE694  ASN695  SER759  ASP760  ASP761  ALA762  ILE779  LEU786  VAL792 
 PHE793  MET794  SER795  GLU796  ALA797  LYS798  CYS799  TRP800  GLU811  SER814 

> <Gold.Protein.RotatedAtoms>
  151.4470  133.3628  159.2789 H   0  0  0  0  0  0  0  0  0  0  0  0  # atno 6907 bound_to 6896
  150.9118  134.8536  159.7441 H   0  0  0  0  0  0  0  0  0  0  0  0  # atno 6908 bound_to 6896
  152.4936  134.4400  159.9592 H   0  0  0  0  0  0  0  0  0  0  0  0  # atno 6909 bound_to 6896
  145.8616  140.8281  142.9934 H   0  0  0  0  0  0  0  0  0  0  0  0  # atno 7974 bound_to 7965
  155.1314  140.3257  155.4473 H   0  0  0  0  0  0  0  0  0  0  0  0  # atno 8008 bound_to 7997
  156.2633  140.2010  156.6382 H   0  0  0  0  0  0  0  0  0  0  0  0  # atno 8009 bound_to 7997
  154.6610  140.0547  157.0048 H   0  0  0  0  0  0  0  0  0  0  0  0  # atno 8010 bound_to 7997
  140.7224  143.3710  151.1779 H   0  0  0  0  0  0  0  0  0  0  0  0  # atno 10167 bound_to 10162
  156.4821  130.4547  149.6805 H   0  0  0  0  0  0  0  0  0  0  0  0  # atno 10718 bound_to 10713
  153.3031  135.4109  155.1270 H   0  0  0  0  0  0  0  0  0  0  0  0  # atno 10763 bound_to 10752
  154.8555  135.3546  154.5825 H   0  0  0  0  0  0  0  0  0  0  0  0  # atno 10764 bound_to 10752
  153.6251  135.7063  153.5354 H   0  0  0  0  0  0  0  0  0  0  0  0  # atno 10765 bound_to 10752
  141.0911  133.6632  156.3987 H   0  0  0  0  0  0  0  0  0  0  0  0  # atno 11005 bound_to 11000
  144.6726  140.1103  143.7456 LP  0  0  0  0  0  0  0  0  0  0  0  0  # atno 17320 bound_to 7965
  145.9242  139.2565  143.1363 LP  0  0  0  0  0  0  0  0  0  0  0  0  # atno 17321 bound_to 7965
  139.7281  143.9116  152.3010 LP  0  0  0  0  0  0  0  0  0  0  0  0  # atno 17342 bound_to 10162
  139.8896  144.6973  150.8785 LP  0  0  0  0  0  0  0  0  0  0  0  0  # atno 17343 bound_to 10162
  156.3511  130.7432  151.2392 LP  0  0  0  0  0  0  0  0  0  0  0  0  # atno 17370 bound_to 10713
  157.7482  131.0377  150.4467 LP  0  0  0  0  0  0  0  0  0  0  0  0  # atno 17371 bound_to 10713
  140.5250  134.6268  157.5331 LP  0  0  0  0  0  0  0  0  0  0  0  0  # atno 17394 bound_to 11000
  139.9737  134.7250  155.9991 LP  0  0  0  0  0  0  0  0  0  0  0  0  # atno 17395 bound_to 11000

$$$$
