#       Name:                AV-unprocessed.smi:438
#       Creating user name   scv26
#       Creation time:       Thu Mar 26 22:54:39 2020


#       File generated by GOLD software.
#

@<TRIPOS>MOLECULE
AV-unprocessed.smi:438
    55    56     1
SMALL
NO_CHARGES


@<TRIPOS>ATOM
      1 ****        -3.8978   4.0468  -0.0835 C.3            1 S1                 0.0000
      2 ****        -3.5144   2.6049  -0.3673 C.2            1 S1                 0.0000
      3 ****        -2.1551   2.3915  -0.5108 N.pl3          1 S1                 0.0000
      4 ****        -1.7014   1.1104  -0.7852 C.2            1 S1                 0.0000
      5 ****         0.1081   1.1096  -0.9425 S.3            1 S1                 0.0000
      6 ****         0.4366  -0.6290  -1.3497 C.3            1 S1                 0.0000
      7 ****         1.9299  -0.9290  -1.4217 C.2            1 S1                 0.0000
      8 ****         2.4947  -1.0050  -2.5124 O.2            1 S1                 0.0000
      9 ****         2.5545  -1.0988  -0.2468 N.am           1 S1                 0.0000
     10 ****         3.9769  -1.3869  -0.0668 C.3            1 S1                 0.0000
     11 ****         4.2597  -2.8939  -0.2475 C.3            1 S1                 0.0000
     12 ****         3.6740  -3.7348   0.8997 C.3            1 S1                 0.0000
     13 ****         4.1773  -3.2390   2.2636 C.3            1 S1                 0.0000
     14 ****         3.8828  -1.7430   2.4597 C.3            1 S1                 0.0000
     15 ****         4.4722  -0.8923   1.3150 C.3            1 S1                 0.0000
     16 ****         4.2181   0.6087   1.5386 C.3            1 S1                 0.0000
     17 ****        -2.4846   0.0795  -0.9049 N.2            1 S1                 0.0000
     18 ****        -3.8711   0.2293  -0.7547 C.2            1 S1                 0.0000
     19 ****        -4.6162  -0.7453  -0.8472 O.2            1 S1                 0.0000
     20 ****        -4.3987   1.5843  -0.4857 C.2            1 S1                 0.0000
     21 ****        -5.9095   1.7590  -0.3303 C.3            1 S1                 0.0000
     22 ****        -6.6704   1.7039  -1.6666 C.3            1 S1                 0.0000
     23 ****        -6.3027   2.7835  -2.4992 O.3            1 S1                 0.0000
     24 ****        -4.5910   4.4130  -0.8412 H              1 S1                 0.0000
     25 ****        -3.0267   4.7032  -0.0826 H              1 S1                 0.0000
     26 ****        -4.3774   4.1280   0.8923 H              1 S1                 0.0000
     27 ****        -0.0323  -0.8697  -2.3045 H              1 S1                 0.0000
     28 ****        -0.0206  -1.2715  -0.5959 H              1 S1                 0.0000
     29 ****         2.0019  -1.0182   0.5944 H              1 S1                 0.0000
     30 ****         4.5317  -0.8418  -0.8329 H              1 S1                 0.0000
     31 ****         3.8693  -3.2443  -1.2037 H              1 S1                 0.0000
     32 ****         5.3381  -3.0515  -0.2886 H              1 S1                 0.0000
     33 ****         2.5844  -3.6907   0.8722 H              1 S1                 0.0000
     34 ****         3.9417  -4.7831   0.7646 H              1 S1                 0.0000
     35 ****         3.7131  -3.8166   3.0632 H              1 S1                 0.0000
     36 ****         5.2512  -3.4125   2.3411 H              1 S1                 0.0000
     37 ****         2.8047  -1.5889   2.5224 H              1 S1                 0.0000
     38 ****         4.2934  -1.4159   3.4156 H              1 S1                 0.0000
     39 ****         5.5541  -1.0323   1.3349 H              1 S1                 0.0000
     40 ****         3.1530   0.8374   1.5858 H              1 S1                 0.0000
     41 ****         4.6514   1.2035   0.7341 H              1 S1                 0.0000
     42 ****         4.6674   0.9449   2.4734 H              1 S1                 0.0000
     43 ****        -1.5367   3.1848  -0.4204 H              1 S1                 0.0000
     44 ****        -6.1406   2.6946   0.1777 H              1 S1                 0.0000
     45 ****        -6.2839   0.9781   0.3329 H              1 S1                 0.0000
     46 ****        -6.4811   0.7669  -2.1904 H              1 S1                 0.0000
     47 ****        -7.7442   1.7557  -1.4860 H              1 S1                 0.0000
     48 ****        -6.7822   2.7135  -3.3106 H              1 S1                 0.0000
     49 ****         1.9742  -0.8699  -3.3555 LP             1 S1                 0.0000
     50 ****         3.4741  -1.2019  -2.5556 LP             1 S1                 0.0000
     51 ****        -2.0982  -0.8210  -1.1043 LP             1 S1                 0.0000
     52 ****        -4.2342  -1.6511  -1.0305 LP             1 S1                 0.0000
     53 ****        -5.6039  -0.6317  -0.7391 LP             1 S1                 0.0000
     54 ****        -5.3205   2.7478  -2.6837 LP             1 S1                 0.0000
     55 ****        -6.5261   3.6480  -2.0490 LP             1 S1                 0.0000
@<TRIPOS>BOND
    1    1   24 1     
    2    1   25 1     
    3    1   26 1     
    4    1    2 1     
    5    2   20 2     
    6    2    3 1     
    7    3    4 1     
    8    3   43 1     
    9    4    5 1     
   10    4   17 2     
   11    5    6 1     
   12    6    7 1     
   13    6   27 1     
   14    6   28 1     
   15    7    8 2     
   16    7    9 am    
   17    9   10 1     
   18    9   29 1     
   19   10   15 1     
   20   10   11 1     
   21   10   30 1     
   22   11   12 1     
   23   11   31 1     
   24   11   32 1     
   25   12   13 1     
   26   12   33 1     
   27   12   34 1     
   28   13   14 1     
   29   13   35 1     
   30   13   36 1     
   31   14   15 1     
   32   14   37 1     
   33   14   38 1     
   34   15   16 1     
   35   15   39 1     
   36   16   40 1     
   37   16   41 1     
   38   16   42 1     
   39   17   18 1     
   40   18   19 2     
   41   18   20 1     
   42   20   21 1     
   43   21   22 1     
   44   21   44 1     
   45   21   45 1     
   46   22   23 1     
   47   22   46 1     
   48   22   47 1     
   49   23   48 1     
   50    8   49 1     
   51    8   50 1     
   52   17   51 1     
   53   19   52 1     
   54   19   53 1     
   55   23   54 1     
   56   23   55 1     
@<TRIPOS>SUBSTRUCTURE
      1 S1             1
@<TRIPOS>SET
LONE_PAIRS      STATIC     ATOMS    <user>   **** ""
7 49 50 51 52 53 54 55
DONOR_HYDROGENS      STATIC     ATOMS    <user>   **** ""
3 43 29 48
ATOM$BLUE        STATIC     ATOMS    COLORGROUP SYSTEM
7 49 50 51 52 53 54 55
ATOM$RED        STATIC     ATOMS    COLORGROUP SYSTEM
3 43 29 48
