AV-unprocessed.smi:103|AV-procd|sdf|979|dock6
  -GOLD-   2262017543D 1   1.00000     0.00000
 Structure written by MMmdl.
 53 55  0  0  0  0  0  0  0  0  1 V2000
  150.3043  134.4340  155.9599 C   0  0  0  0  0  0  0  0  0  0  0  0
  151.2105  135.6170  156.2746 C   0  0  0  0  0  0  0  0  0  0  0  0
  151.6008  136.3825  155.3931 O   0  0  0  0  0  0  0  0  0  0  0  0
  151.5060  135.7000  157.5794 O   0  0  0  0  0  0  0  0  0  0  0  0
  152.3319  136.7534  158.0476 C   0  0  0  0  0  0  0  0  0  0  0  0
  151.4504  137.9429  158.4457 C   0  0  2  0  0  0  0  0  0  0  0  0
  150.2044  137.4402  158.9291 O   0  0  0  0  0  0  0  0  0  0  0  0
  149.1600  138.0326  158.2273 C   0  0  2  0  0  0  0  0  0  0  0  0
  148.0428  137.0485  158.1012 N   0  0  0  0  0  0  0  0  0  0  0  0
  147.2596  136.4673  159.0784 C   0  0  0  0  0  0  0  0  0  0  0  0
  147.4114  136.7025  160.8456 S   0  0  0  0  0  0  0  0  0  0  0  0
  147.0560  135.0141  161.4800 C   0  0  0  0  0  0  0  0  0  0  0  0
  148.8155  137.0395  161.1247 O   0  0  0  0  0  0  0  0  0  0  0  0
  146.3301  137.6134  161.2526 O   0  0  0  0  0  0  0  0  0  0  0  0
  146.3826  135.5869  158.6782 N   0  0  0  0  0  0  0  0  0  0  0  0
  146.5267  135.6043  157.2981 C   0  0  0  0  0  0  0  0  0  0  0  0
  145.8862  134.9250  156.2314 C   0  0  0  0  0  0  0  0  0  0  0  0
  144.9002  134.0363  156.4173 N   0  0  0  0  0  0  0  0  0  0  0  0
  146.2877  135.1854  154.9652 N   0  0  0  0  0  0  0  0  0  0  0  0
  147.2701  136.0673  154.7534 C   0  0  0  0  0  0  0  0  0  0  0  0
  147.9639  136.7763  155.6477 N   0  0  0  0  0  0  0  0  0  0  0  0
  147.5567  136.5145  156.9248 C   0  0  0  0  0  0  0  0  0  0  0  0
  149.7258  138.4082  156.8620 C   0  0  1  0  0  0  0  0  0  0  0  0
  148.9721  139.4359  156.2286 O   0  0  0  0  0  0  0  0  0  0  0  0
  149.4480  140.0524  155.1331 C   0  0  0  0  0  0  0  0  0  0  0  0
  148.4166  140.9705  154.4921 C   0  0  0  0  0  0  0  0  0  0  0  0
  150.5740  139.9165  154.6541 O   0  0  0  0  0  0  0  0  0  0  0  0
  151.1199  138.8630  157.2545 C   0  0  1  0  0  0  0  0  0  0  0  0
  151.1094  140.2223  157.6835 O   0  0  0  0  0  0  0  0  0  0  0  0
  152.2197  140.7782  158.1989 C   0  0  0  0  0  0  0  0  0  0  0  0
  152.0277  142.2504  158.5373 C   0  0  0  0  0  0  0  0  0  0  0  0
  153.2903  140.2054  158.4013 O   0  0  0  0  0  0  0  0  0  0  0  0
  150.7977  133.4987  156.2250 H   0  0  0  0  0  0  0  0  0  0  0  0
  150.0620  134.4084  154.8973 H   0  0  0  0  0  0  0  0  0  0  0  0
  149.3750  134.5083  156.5247 H   0  0  0  0  0  0  0  0  0  0  0  0
  152.9328  136.4220  158.8956 H   0  0  0  0  0  0  0  0  0  0  0  0
  153.0185  137.0483  157.2530 H   0  0  0  0  0  0  0  0  0  0  0  0
  151.9359  138.4941  159.2525 H   0  0  0  0  0  0  0  0  0  0  0  0
  148.7822  138.8779  158.7989 H   0  0  0  0  0  0  0  0  0  0  0  0
  147.1145  135.0161  162.5680 H   0  0  0  0  0  0  0  0  0  0  0  0
  147.7841  134.3105  161.0774 H   0  0  0  0  0  0  0  0  0  0  0  0
  146.0545  134.7150  161.1710 H   0  0  0  0  0  0  0  0  0  0  0  0
  144.5830  133.8255  157.3526 H   0  0  0  0  0  0  0  0  0  0  0  0
  144.4736  133.5826  155.6225 H   0  0  0  0  0  0  0  0  0  0  0  0
  147.5401  136.2269  153.7197 H   0  0  0  0  0  0  0  0  0  0  0  0
  149.8071  137.5121  156.2452 H   0  0  0  0  0  0  0  0  0  0  0  0
  147.5778  140.3873  154.1117 H   0  0  0  0  0  0  0  0  0  0  0  0
  148.8581  141.5228  153.6624 H   0  0  0  0  0  0  0  0  0  0  0  0
  148.0392  141.6866  155.2223 H   0  0  0  0  0  0  0  0  0  0  0  0
  151.8114  138.7345  156.4201 H   0  0  0  0  0  0  0  0  0  0  0  0
  151.3138  142.3609  159.3537 H   0  0  0  0  0  0  0  0  0  0  0  0
  151.6507  142.7929  157.6702 H   0  0  0  0  0  0  0  0  0  0  0  0
  152.9733  142.7001  158.8412 H   0  0  0  0  0  0  0  0  0  0  0  0
  1  2  1  0  0  0  0
  1 33  1  0  0  0  0
  1 34  1  0  0  0  0
  1 35  1  0  0  0  0
  2  3  2  0  0  0  0
  2  4  1  0  0  0  0
  4  5  1  0  0  0  0
  5  6  1  0  0  0  0
  5 36  1  0  0  0  0
  5 37  1  0  0  0  0
  6 28  1  0  0  0  0
  6  7  1  0  0  0  0
  6 38  1  0  0  0  0
  7  8  1  0  0  0  0
  8  9  1  0  0  0  0
  8 23  1  0  0  0  0
  8 39  1  0  0  0  0
  9 22  1  0  0  0  0
  9 10  1  0  0  0  0
 10 11  1  0  0  0  0
 10 15  2  0  0  0  0
 11 12  1  0  0  0  0
 11 13  2  0  0  0  0
 11 14  2  0  0  0  0
 12 40  1  0  0  0  0
 12 41  1  0  0  0  0
 12 42  1  0  0  0  0
 15 16  1  0  0  0  0
 16 22  2  0  0  0  0
 16 17  1  0  0  0  0
 17 18  1  0  0  0  0
 17 19  2  0  0  0  0
 18 43  1  0  0  0  0
 18 44  1  0  0  0  0
 19 20  1  0  0  0  0
 20 21  2  0  0  0  0
 20 45  1  0  0  0  0
 21 22  1  0  0  0  0
 23 24  1  0  0  0  0
 23 28  1  0  0  0  0
 23 46  1  0  0  0  0
 24 25  1  0  0  0  0
 25 26  1  0  0  0  0
 25 27  2  0  0  0  0
 26 47  1  0  0  0  0
 26 48  1  0  0  0  0
 26 49  1  0  0  0  0
 28 29  1  0  0  0  0
 28 50  1  0  0  0  0
 29 30  1  0  0  0  0
 30 31  1  0  0  0  0
 30 32  2  0  0  0  0
 31 51  1  0  0  0  0
 31 52  1  0  0  0  0
 31 53  1  0  0  0  0
M  END
> <s_m_source_file>
AV-unprocessed.smi

> <i_m_source_file_index>
103

> <i_lp_mmshare_version>
43012

> <i_f3d_flags>
0

> <s_epik_input>
W0NIM11DKD1PKU9bQ0gyXVtDQEBIXTFPW0NASF0oW0NAQEhdKE9DKD1PKVtDSDNdKVtDQEhdMU9DKD1PKVtDSDNdKW4oYyhuMilTKD1PKSg9TylbQ0gzXSljKGMyMyluW2NIXW5jM1tOSDJd

> <s_epik_cmdline>
J2VwaWtfcHl0aG9uJywgJy1waCcsICc3LjAnLCAnLXRuJywgJzgnLCAnLW1hJywgJzIwMCcsICctbWV0YWxfYmluZGluZycsICctaW1hZScsICc8aW5maWxlLm1hZT4nLCAnLW9tYWUnLCAnPG91dGZpbGUubWFlPic=

> <r_lp_tautomer_probability>
1

> <r_epik_Ionization_Penalty>
1.51338e-05

> <r_epik_Ionization_Penalty_Charging>
0

> <r_epik_Ionization_Penalty_Neutral>
1.51338e-05

> <r_epik_State_Penalty>
-0

> <r_epik_Charging_Adjusted_Penalty>
0

> <i_epik_Tot_Q>
0

> <i_epik_Tot_abs_Q>
0

> <r_epik_Metal_State_Penalty>
-0

> <b_epik_Metal_Only>
0

> <s_epik_Chemistry_Notes>
This compound has an ester and may undergo hydrolysis at high or low pH. This compound contains an acetal/aminal-like group ( X-CH(R)-Y where X, Y are N, S, or O) that may be acid/base labile, releasing an aldehyde.

> <s_lp_Force_Field>
OPLS_2005

> <r_lp_Energy>
16.6357

> <b_lp_Chiralities_Consistent>
1

> <s_lp_Variant>
AV-unprocessed.smi:103-3

> <Gold.Version>
5.8.1

> <Gold.Id.Protein>
6NUR|6NUR_protein|mol2

> <Gold.PLP.Fitness>
43.2966

> <Gold.PLP.PLP>
-28.9136

> <Gold.PLP.part.hbond>
-5.8732

> <Gold.PLP.part.metal>
0.0000

> <Gold.PLP.part.buried>
-4.9876

> <Gold.PLP.part.nonpolar>
-18.0320

> <Gold.PLP.part.repulsive>
0.2487

> <Gold.PLP.ligand.clash>
2.1179

> <Gold.PLP.ligand.torsion>
1.8095

> <Gold.PLP.Chemscore.Hbond>
4.9600

> <Gold.PLP.Chemscore.CHOScore>
1.0000

> <Gold.PLP.Chemscore.Metal>
0.0000

> <Gold.Chemscore.Hbonds>
donor molecule, donor type, donor heavy atom, donor atom, acceptor molecule, acceptor atom, score
      P1  H  6931  6943       L1    13  0.80
      P1  H  6934  6947       L1    14  0.85
      P1  H  7989  7998       L1    27  1.00
      P1  H  7997  8009       L1    32  0.94
      P1  H 10752 10765       L1     3  0.99
      L1  C    20    45       P1  7948  1.00

> <Gold.PLP.Chemscore.Internal.Correction>
2.2400

> <Gold.Rescore>
     Score         DG    S(hbond)    S(metal)    S(lipo)     H(rot)  DE(clash)    DE(int)     intcor
      3.53     -12.97       4.02        0.00      42.26       4.25       0.68       8.77       ----

> <Gold.Chemscore.Fitness>
3.5254

> <Gold.Chemscore.DG>
-12.9728

> <Gold.Chemscore.ZeroCoef>
-5.4800

> <Gold.Chemscore.Hbond>
4.0172

> <Gold.Chemscore.Metal>
0.0000

> <Gold.Chemscore.Lipo>
42.2570

> <Gold.Chemscore.Internal_Hbond>
0.0000

> <Gold.Chemscore.DEClash>
0.6784

> <Gold.Chemscore.DEInternal>
8.7690

> <Gold.Chemscore.Rot>
4.2456

> <Gold.Chemscore.Internal.Correction>
   9.000000E+99

> <Gold.Chemscore.Hbonds>
donor molecule, donor type, donor heavy atom, donor atom, acceptor molecule, acceptor atom, score
      P1  H  6931  6943       L1    13  0.71
      P1  H  6934  6947       L1    14  0.15
      P1  H  7989  7998       L1    27  1.00
      P1  H  7997  8009       L1    32  0.90
      P1  H 10752 10765       L1     3  0.74

> <Gold.Chemscore.Hbond.Weighted>
-13.4174

> <Gold.Chemscore.Metal.Weighted>
-0.0000

> <Gold.Chemscore.Lipo.Weighted>
-4.9441

> <Gold.Chemscore.Internal_Hbond.Weighted>
0.0000

> <Gold.Chemscore.DEClash.Weighted>
0.6784

> <Gold.Chemscore.DEInternal.Weighted>
8.7690

> <Gold.Chemscore.Rot.Weighted>
10.8687

> <Gold.Chemscore.Internal.Correction.Weighted>
   9.000000E+99

> <Gold.Protein.RotatedTorsions>
[ 6907 6896 6895 6894 ] final -149.82 input  -60.11 | X-H torsion
[ 7974 7965 7964 7962 ] final  164.84 input  175.53 | X-H torsion
[ 8008 7997 7996 7995 ] final  147.67 input   59.86 | X-H torsion
[ 10167 10162 10161 10158 ] final -110.07 input  -65.29 | X-H torsion
[ 10718 10713 10712 10709 ] final  -71.16 input   66.30 | X-H torsion
[ 10763 10752 10751 10750 ] final  168.17 input  -60.55 | X-H torsion
[ 11005 11000 10999 10996 ] final -165.29 input  -57.11 | X-H torsion

> <Gold.Protein.ActiveResidues>
 VAL166  LYS551  ARG553  GLY616  TRP617  ASP618  TYR619  PRO620  LYS621  CYS622 
 ASP623  PHE694  ASN695  SER759  ASP760  ASP761  ALA762  ILE779  LEU786  VAL792 
 PHE793  MET794  SER795  GLU796  ALA797  LYS798  CYS799  TRP800  GLU811  SER814 

> <Gold.Protein.RotatedAtoms>
  151.1896  133.4675  159.2594 H   0  0  0  0  0  0  0  0  0  0  0  0  # atno 6907 bound_to 6896
  151.1177  135.0062  159.8534 H   0  0  0  0  0  0  0  0  0  0  0  0  # atno 6908 bound_to 6896
  152.5454  134.1810  159.8688 H   0  0  0  0  0  0  0  0  0  0  0  0  # atno 6909 bound_to 6896
  144.7527  139.8385  143.6360 H   0  0  0  0  0  0  0  0  0  0  0  0  # atno 7974 bound_to 7965
  156.2817  140.2149  156.5575 H   0  0  0  0  0  0  0  0  0  0  0  0  # atno 8008 bound_to 7997
  154.7240  140.0501  157.0689 H   0  0  0  0  0  0  0  0  0  0  0  0  # atno 8009 bound_to 7997
  155.0440  140.3149  155.4717 H   0  0  0  0  0  0  0  0  0  0  0  0  # atno 8010 bound_to 7997
  140.1484  143.4219  152.1512 H   0  0  0  0  0  0  0  0  0  0  0  0  # atno 10167 bound_to 10162
  156.0375  130.4346  150.2402 H   0  0  0  0  0  0  0  0  0  0  0  0  # atno 10718 bound_to 10713
  154.3646  135.2753  155.2301 H   0  0  0  0  0  0  0  0  0  0  0  0  # atno 10763 bound_to 10752
  154.4474  135.5939  153.6173 H   0  0  0  0  0  0  0  0  0  0  0  0  # atno 10764 bound_to 10752
  152.9841  135.6033  154.3870 H   0  0  0  0  0  0  0  0  0  0  0  0  # atno 10765 bound_to 10752
  140.5773  134.5177  157.5172 H   0  0  0  0  0  0  0  0  0  0  0  0  # atno 11005 bound_to 11000
  146.1499  139.4580  143.0055 LP  0  0  0  0  0  0  0  0  0  0  0  0  # atno 17320 bound_to 7965
  145.6885  141.0171  143.1568 LP  0  0  0  0  0  0  0  0  0  0  0  0  # atno 17321 bound_to 7965
  139.5437  144.7280  151.4650 LP  0  0  0  0  0  0  0  0  0  0  0  0  # atno 17342 bound_to 10162
  140.6717  143.8278  150.7008 LP  0  0  0  0  0  0  0  0  0  0  0  0  # atno 17343 bound_to 10162
  157.0500  131.0060  151.3256 LP  0  0  0  0  0  0  0  0  0  0  0  0  # atno 17370 bound_to 10713
  157.5147  130.7960  149.7743 LP  0  0  0  0  0  0  0  0  0  0  0  0  # atno 17371 bound_to 10713
  139.9333  134.7922  156.0870 LP  0  0  0  0  0  0  0  0  0  0  0  0  # atno 17394 bound_to 11000
  141.1018  133.6674  156.2773 LP  0  0  0  0  0  0  0  0  0  0  0  0  # atno 17395 bound_to 11000

$$$$
