AV-unprocessed.smi:1971|AV-procd|sdf|7965|dock3
  -GOLD-   2272010133D 1   1.00000     0.00000
 Structure written by MMmdl.
 44 45  0  0  0  0  0  0  0  0  2 V2000
  150.7453  141.2953  156.2506 C   0  0  0  0  0  0  0  0  0  0  0  0
  151.4308  140.0113  155.7616 C   0  0  0  0  0  0  0  0  0  0  0  0
  150.9289  139.5863  154.4525 N   0  0  0  0  0  0  0  0  0  0  0  0
  151.7053  138.5209  153.8075 C   0  0  0  0  0  0  0  0  0  0  0  0
  151.5475  137.1645  154.5263 C   0  0  0  0  0  0  0  0  0  0  0  0
  150.1159  136.7815  154.5901 N   0  3  0  0  0  0  0  0  0  0  0  0
  149.8779  135.3999  155.1014 C   0  0  1  0  0  0  0  0  0  0  0  0
  150.3726  135.1831  156.5449 C   0  0  0  0  0  0  0  0  0  0  0  0
  148.4010  134.9663  154.9399 C   0  0  0  0  0  0  0  0  0  0  0  0
  148.0257  134.6721  153.5583 N   0  0  0  0  0  0  0  0  0  0  0  0
  146.9663  133.9394  153.1854 C   0  0  0  0  0  0  0  0  0  0  0  0
  146.2008  133.4022  153.9857 O   0  0  0  0  0  0  0  0  0  0  0  0
  146.8660  133.8724  151.8465 N   0  0  0  0  0  0  0  0  0  0  0  0
  145.8916  133.1876  151.0736 C   0  0  0  0  0  0  0  0  0  0  0  0
  146.0866  132.7600  149.8206 N   0  0  0  0  0  0  0  0  0  0  0  0
  144.9579  132.1180  149.3046 C   0  0  0  0  0  0  0  0  0  0  0  0
  143.9050  132.0677  150.1839 C   0  0  0  0  0  0  0  0  0  0  0  0
  144.2908  132.8292  151.7040 S   0  0  0  0  0  0  0  0  0  0  0  0
  149.3181  137.8515  155.2402 C   0  0  0  0  0  0  0  0  0  0  0  0
  149.5190  139.1885  154.4969 C   0  0  0  0  0  0  0  0  0  0  0  0
  151.0423  141.5181  157.2755 H   0  0  0  0  0  0  0  0  0  0  0  0
  149.6596  141.1936  156.2384 H   0  0  0  0  0  0  0  0  0  0  0  0
  151.0126  142.1603  155.6441 H   0  0  0  0  0  0  0  0  0  0  0  0
  152.5124  140.1403  155.7576 H   0  0  0  0  0  0  0  0  0  0  0  0
  151.2179  139.2226  156.4845 H   0  0  0  0  0  0  0  0  0  0  0  0
  151.3614  138.4233  152.7769 H   0  0  0  0  0  0  0  0  0  0  0  0
  152.7572  138.7966  153.7441 H   0  0  0  0  0  0  0  0  0  0  0  0
  152.1011  136.4059  153.9719 H   0  0  0  0  0  0  0  0  0  0  0  0
  151.9828  137.1989  155.5247 H   0  0  0  0  0  0  0  0  0  0  0  0
  150.4639  134.7331  154.4679 H   0  0  0  0  0  0  0  0  0  0  0  0
  150.2802  134.1339  156.8271 H   0  0  0  0  0  0  0  0  0  0  0  0
  149.7936  135.7606  157.2655 H   0  0  0  0  0  0  0  0  0  0  0  0
  151.4216  135.4546  156.6611 H   0  0  0  0  0  0  0  0  0  0  0  0
  148.1949  134.0957  155.5648 H   0  0  0  0  0  0  0  0  0  0  0  0
  147.7374  135.7540  155.2971 H   0  0  0  0  0  0  0  0  0  0  0  0
  148.5958  135.0846  152.8340 H   0  0  0  0  0  0  0  0  0  0  0  0
  147.5640  134.3722  151.3156 H   0  0  0  0  0  0  0  0  0  0  0  0
  144.9911  131.7251  148.2991 H   0  0  0  0  0  0  0  0  0  0  0  0
  142.9298  131.6300  150.0299 H   0  0  0  0  0  0  0  0  0  0  0  0
  148.2605  137.5900  155.2162 H   0  0  0  0  0  0  0  0  0  0  0  0
  149.5916  137.9541  156.2904 H   0  0  0  0  0  0  0  0  0  0  0  0
  148.9282  139.9766  154.9655 H   0  0  0  0  0  0  0  0  0  0  0  0
  149.1496  139.0972  153.4745 H   0  0  0  0  0  0  0  0  0  0  0  0
  149.8105  136.7585  153.6277 H   0  0  0  0  0  0  0  0  0  0  0  0
  1  2  1  0  0  0  0
  1 21  1  0  0  0  0
  1 22  1  0  0  0  0
  1 23  1  0  0  0  0
  2  3  1  0  0  0  0
  2 24  1  0  0  0  0
  2 25  1  0  0  0  0
  3 20  1  0  0  0  0
  3  4  1  0  0  0  0
  4  5  1  0  0  0  0
  4 26  1  0  0  0  0
  4 27  1  0  0  0  0
  5  6  1  0  0  0  0
  5 28  1  0  0  0  0
  5 29  1  0  0  0  0
  6  7  1  0  0  0  0
  6 19  1  0  0  0  0
  6 44  1  0  0  0  0
  7  8  1  0  0  0  0
  7  9  1  0  0  0  0
  7 30  1  0  0  0  0
  8 31  1  0  0  0  0
  8 32  1  0  0  0  0
  8 33  1  0  0  0  0
  9 10  1  0  0  0  0
  9 34  1  0  0  0  0
  9 35  1  0  0  0  0
 10 11  1  0  0  0  0
 10 36  1  0  0  0  0
 11 12  2  0  0  0  0
 11 13  1  0  0  0  0
 13 14  1  0  0  0  0
 13 37  1  0  0  0  0
 14 18  1  0  0  0  0
 14 15  2  0  0  0  0
 15 16  1  0  0  0  0
 16 17  2  0  0  0  0
 16 38  1  0  0  0  0
 17 18  1  0  0  0  0
 17 39  1  0  0  0  0
 19 20  1  0  0  0  0
 19 40  1  0  0  0  0
 19 41  1  0  0  0  0
 20 42  1  0  0  0  0
 20 43  1  0  0  0  0
M  CHG  1   6   1
M  END
> <s_m_source_file>
AV-unprocessed.smi

> <i_m_source_file_index>
1971

> <i_lp_mmshare_version>
43012

> <i_f3d_flags>
0

> <s_epik_input>
W0NIM11bQ0gyXU4xW0NIMl1bQ0gyXU4oW0NIMl1bQ0gyXTEpW0NASF0oW0NIM10pW0NIMl1bTkhdQyg9TylbTkhdYzJuW2NIXVtjSF1zMg==

> <s_epik_cmdline>
J2VwaWtfcHl0aG9uJywgJy1waCcsICc3LjAnLCAnLXRuJywgJzgnLCAnLW1hJywgJzIwMCcsICctbWV0YWxfYmluZGluZycsICctaW1hZScsICc8aW5maWxlLm1hZT4nLCAnLW9tYWUnLCAnPG91dGZpbGUubWFlPic=

> <r_epik_Ionization_Penalty>
0.150098

> <r_epik_Ionization_Penalty_Charging>
0.148467

> <r_epik_Ionization_Penalty_Neutral>
0.00163072

> <r_epik_State_Penalty>
0.974087

> <r_epik_Charging_Adjusted_Penalty>
1.12255

> <i_epik_Tot_Q>
1

> <i_epik_Tot_abs_Q>
1

> <r_epik_Metal_State_Penalty>
1.00741

> <b_epik_Metal_Only>
0

> <s_lp_Force_Field>
OPLS_2005

> <r_lp_Energy>
24.0056

> <b_lp_Chiralities_Consistent>
1

> <s_lp_Variant>
AV-unprocessed.smi:1971-4

> <Gold.Version>
5.8.1

> <Gold.Id.Protein>
6NUR|6NUR_protein|mol2

> <Gold.PLP.Fitness>
46.4702

> <Gold.PLP.PLP>
-31.2498

> <Gold.PLP.part.hbond>
-3.5737

> <Gold.PLP.part.metal>
0.0000

> <Gold.PLP.part.buried>
-3.5481

> <Gold.PLP.part.nonpolar>
-23.5644

> <Gold.PLP.part.repulsive>
1.6597

> <Gold.PLP.ligand.clash>
0.0000

> <Gold.PLP.ligand.torsion>
0.4964

> <Gold.PLP.Chemscore.Hbond>
4.0229

> <Gold.PLP.Chemscore.CHOScore>
1.3395

> <Gold.PLP.Chemscore.Metal>
0.0000

> <Gold.Chemscore.Hbonds>
donor molecule, donor type, donor heavy atom, donor atom, acceptor molecule, acceptor atom, score
      L1  H     6    44       P1  7948  2.00
      L1  H    10    36       P1  7948  0.94
      L1  H    13    37       P1  7948  0.14
      P1  H  7989  7998       L1     3  0.63
      L1  C    17    39       P1 10952  1.00

> <Gold.PLP.Chemscore.Internal.Correction>
0.1261

> <Gold.Rescore>
     Score         DG    S(hbond)    S(metal)    S(lipo)     H(rot)  DE(clash)    DE(int)     intcor
     13.29     -15.42       1.66        0.00      76.79       1.79       0.57       1.55       ----

> <Gold.Chemscore.Fitness>
13.2932

> <Gold.Chemscore.DG>
-15.4177

> <Gold.Chemscore.ZeroCoef>
-5.4800

> <Gold.Chemscore.Hbond>
1.6603

> <Gold.Chemscore.Metal>
0.0000

> <Gold.Chemscore.Lipo>
76.7880

> <Gold.Chemscore.Internal_Hbond>
0.0000

> <Gold.Chemscore.DEClash>
0.5732

> <Gold.Chemscore.DEInternal>
1.5514

> <Gold.Chemscore.Rot>
1.7937

> <Gold.Chemscore.Internal.Correction>
   9.000000E+99

> <Gold.Chemscore.Hbonds>
donor molecule, donor type, donor heavy atom, donor atom, acceptor molecule, acceptor atom, score
      L1  H     6    44       P1  7948  0.43
      L1  H    10    36       P1  7948  0.48
      L1  H    13    37       P1  7948  0.01
      P1  H  7989  7998       L1     3  0.01

> <Gold.Chemscore.Hbond.Weighted>
-5.5455

> <Gold.Chemscore.Metal.Weighted>
-0.0000

> <Gold.Chemscore.Lipo.Weighted>
-8.9842

> <Gold.Chemscore.Internal_Hbond.Weighted>
0.0000

> <Gold.Chemscore.DEClash.Weighted>
0.5732

> <Gold.Chemscore.DEInternal.Weighted>
1.5514

> <Gold.Chemscore.Rot.Weighted>
4.5919

> <Gold.Chemscore.Internal.Correction.Weighted>
   9.000000E+99

> <Gold.Protein.RotatedTorsions>
[ 6907 6896 6895 6894 ] final -150.48 input  -60.11 | X-H torsion
[ 7974 7965 7964 7962 ] final -140.27 input  175.53 | X-H torsion
[ 8008 7997 7996 7995 ] final  159.72 input   59.86 | X-H torsion
[ 10167 10162 10161 10158 ] final   21.95 input  -65.29 | X-H torsion
[ 10718 10713 10712 10709 ] final  -46.25 input   66.30 | X-H torsion
[ 10763 10752 10751 10750 ] final   28.76 input  -60.55 | X-H torsion
[ 11005 11000 10999 10996 ] final -156.96 input  -57.11 | X-H torsion

> <Gold.Protein.ActiveResidues>
 VAL166  LYS551  ARG553  GLY616  TRP617  ASP618  TYR619  PRO620  LYS621  CYS622 
 ASP623  PHE694  ASN695  SER759  ASP760  ASP761  ALA762  ILE779  LEU786  VAL792 
 PHE793  MET794  SER795  GLU796  ALA797  LYS798  CYS799  TRP800  GLU811  SER814 

> <Gold.Protein.RotatedAtoms>
  151.1991  133.4621  159.2595 H   0  0  0  0  0  0  0  0  0  0  0  0  # atno 6907 bound_to 6896
  151.1087  135.0014  159.8493 H   0  0  0  0  0  0  0  0  0  0  0  0  # atno 6908 bound_to 6896
  152.5449  134.1912  159.8728 H   0  0  0  0  0  0  0  0  0  0  0  0  # atno 6909 bound_to 6896
  144.8610  140.6220  143.5328 H   0  0  0  0  0  0  0  0  0  0  0  0  # atno 7974 bound_to 7965
  156.2220  140.1823  156.7454 H   0  0  0  0  0  0  0  0  0  0  0  0  # atno 8008 bound_to 7997
  154.5880  140.0655  156.9227 H   0  0  0  0  0  0  0  0  0  0  0  0  # atno 8009 bound_to 7997
  155.2386  140.3320  155.4297 H   0  0  0  0  0  0  0  0  0  0  0  0  # atno 8010 bound_to 7997
  140.5387  143.9716  150.6506 H   0  0  0  0  0  0  0  0  0  0  0  0  # atno 10167 bound_to 10162
  156.2201  130.4165  149.9003 H   0  0  0  0  0  0  0  0  0  0  0  0  # atno 10718 bound_to 10713
  153.0472  135.6505  154.0787 H   0  0  0  0  0  0  0  0  0  0  0  0  # atno 10763 bound_to 10752
  154.0483  135.2898  155.3346 H   0  0  0  0  0  0  0  0  0  0  0  0  # atno 10764 bound_to 10752
  154.6737  135.5346  153.8237 H   0  0  0  0  0  0  0  0  0  0  0  0  # atno 10765 bound_to 10752
  140.6699  134.4259  157.5232 H   0  0  0  0  0  0  0  0  0  0  0  0  # atno 11005 bound_to 11000
  145.4312  139.1549  143.4021 LP  0  0  0  0  0  0  0  0  0  0  0  0  # atno 17320 bound_to 7965
  146.2860  140.4428  142.8757 LP  0  0  0  0  0  0  0  0  0  0  0  0  # atno 17321 bound_to 7965
  140.3110  143.3198  152.0878 LP  0  0  0  0  0  0  0  0  0  0  0  0  # atno 17342 bound_to 10162
  139.4980  144.6636  151.6408 LP  0  0  0  0  0  0  0  0  0  0  0  0  # atno 17343 bound_to 10162
  156.6653  130.8798  151.3554 LP  0  0  0  0  0  0  0  0  0  0  0  0  # atno 17370 bound_to 10713
  157.7083  130.9411  150.1004 LP  0  0  0  0  0  0  0  0  0  0  0  0  # atno 17371 bound_to 10713
  139.8985  134.8612  156.1999 LP  0  0  0  0  0  0  0  0  0  0  0  0  # atno 17394 bound_to 11000
  141.0400  133.6943  156.1581 LP  0  0  0  0  0  0  0  0  0  0  0  0  # atno 17395 bound_to 11000

$$$$
