#       Name:                AV-unprocessed.smi:3158
#       Creating user name   scv26
#       Creation time:       Fri Mar 27 17:47:18 2020


#       File generated by GOLD software.
#

@<TRIPOS>MOLECULE
AV-unprocessed.smi:3158
    43    43     1
SMALL
NO_CHARGES


@<TRIPOS>ATOM
      1 ****        -1.8020   1.3763  -4.0594 C.3            1 S1                 0.0000
      2 ****        -2.4898   1.2706  -2.6903 C.3            1 S1                 0.0000
      3 ****        -1.6750   1.8878  -1.5320 C.3            1 S1                 0.0000
      4 ****        -2.4344   1.8501  -0.1936 C.3            1 S1                 0.0000
      5 ****        -0.3343   1.3104  -1.4062 N.am           1 S1                 0.0000
      6 ****        -0.0176   0.0368  -1.1150 C.2            1 S1                 0.0000
      7 ****        -0.8517  -0.8451  -0.9090 O.2            1 S1                 0.0000
      8 ****         1.4818  -0.2862  -1.0098 C.3            1 S1                 0.0000
      9 ****         1.8621  -1.3972  -2.0011 C.3            1 S1                 0.0000
     10 ****         1.8954  -0.6701   0.3511 N.3            1 S1                 0.0000
     11 ****         1.6765   0.3601   1.3625 C.3            1 S1                 0.0000
     12 ****         2.1644  -0.1330   2.7343 C.3            1 S1                 0.0000
     13 ****         1.3373  -1.2077   3.2546 N.pl3          1 S1                 0.0000
     14 ****         0.1002  -1.1189   3.8576 C.2            1 S1                 0.0000
     15 ****        -0.2921  -2.3891   4.1697 C.2            1 S1                 0.0000
     16 ****         0.7867  -3.1972   3.7137 C.2            1 S1                 0.0000
     17 ****         1.7603  -2.4874   3.1666 N.2            1 S1                 0.0000
     18 ****        -2.4449   0.9796  -4.8454 H              1 S1                 0.0000
     19 ****        -0.8687   0.8131  -4.0847 H              1 S1                 0.0000
     20 ****        -1.5759   2.4137  -4.3072 H              1 S1                 0.0000
     21 ****        -3.4546   1.7755  -2.7494 H              1 S1                 0.0000
     22 ****        -2.7167   0.2248  -2.4810 H              1 S1                 0.0000
     23 ****        -1.5137   2.9388  -1.7743 H              1 S1                 0.0000
     24 ****        -3.3742   2.3982  -0.2647 H              1 S1                 0.0000
     25 ****        -1.8478   2.3067   0.6043 H              1 S1                 0.0000
     26 ****        -2.6738   0.8308   0.1101 H              1 S1                 0.0000
     27 ****         0.4347   1.9489  -1.5495 H              1 S1                 0.0000
     28 ****         2.0449   0.6060  -1.2901 H              1 S1                 0.0000
     29 ****         1.5798  -1.1319  -3.0208 H              1 S1                 0.0000
     30 ****         1.3740  -2.3414  -1.7552 H              1 S1                 0.0000
     31 ****         2.9384  -1.5722  -1.9966 H              1 S1                 0.0000
     32 ****         1.4577  -1.5332   0.6425 H              1 S1                 0.0000
     33 ****         2.2243   1.2594   1.0787 H              1 S1                 0.0000
     34 ****         0.6234   0.6336   1.4348 H              1 S1                 0.0000
     35 ****         3.2035  -0.4632   2.6830 H              1 S1                 0.0000
     36 ****         2.1348   0.6881   3.4513 H              1 S1                 0.0000
     37 ****        -0.3933  -0.1702   4.0088 H              1 S1                 0.0000
     38 ****        -1.2098  -2.6945   4.6499 H              1 S1                 0.0000
     39 ****         0.8904  -4.2712   3.7633 H              1 S1                 0.0000
     40 ****        -1.8274  -0.6308  -0.9542 LP             1 S1                 0.0000
     41 ****        -0.5534  -1.7756  -0.6966 LP             1 S1                 0.0000
     42 ****         2.8849  -0.7985   0.2855 LP             1 S1                 0.0000
     43 ****         2.6172  -2.8232   2.7756 LP             1 S1                 0.0000
@<TRIPOS>BOND
    1    1    2 1     
    2    1   18 1     
    3    1   19 1     
    4    1   20 1     
    5    2    3 1     
    6    2   21 1     
    7    2   22 1     
    8    3    4 1     
    9    3    5 1     
   10    3   23 1     
   11    4   24 1     
   12    4   25 1     
   13    4   26 1     
   14    5    6 am    
   15    5   27 1     
   16    6    7 2     
   17    6    8 1     
   18    8    9 1     
   19    8   10 1     
   20    8   28 1     
   21    9   29 1     
   22    9   30 1     
   23    9   31 1     
   24   10   11 1     
   25   10   32 1     
   26   11   12 1     
   27   11   33 1     
   28   11   34 1     
   29   12   13 1     
   30   12   35 1     
   31   12   36 1     
   32   13   17 1     
   33   13   14 1     
   34   14   15 2     
   35   14   37 1     
   36   15   16 1     
   37   15   38 1     
   38   16   17 2     
   39   16   39 1     
   40    7   40 1     
   41    7   41 1     
   42   10   42 1     
   43   17   43 1     
@<TRIPOS>SUBSTRUCTURE
      1 S1             1
@<TRIPOS>SET
LONE_PAIRS      STATIC     ATOMS    <user>   **** ""
4 40 41 42 43
DONOR_HYDROGENS      STATIC     ATOMS    <user>   **** ""
2 27 32
ATOM$BLUE        STATIC     ATOMS    COLORGROUP SYSTEM
4 40 41 42 43
ATOM$RED        STATIC     ATOMS    COLORGROUP SYSTEM
2 27 32
