AV-unprocessed.smi:1586|AV-procd|sdf|6374|dock8
  -GOLD-   22720 7 03D 1   1.00000     0.00000
 Structure written by MMmdl.
 47 48  0  0  0  0  0  0  0  0  2 V2000
  145.5189  142.6156  155.2375 C   0  0  0  0  0  0  0  0  0  0  0  0
  146.7495  142.0517  154.5131 C   0  0  0  0  0  0  0  0  0  0  0  0
  147.9454  141.9833  155.3891 N   0  3  0  0  0  0  0  0  0  0  0  0
  149.1872  141.7093  154.6264 C   0  0  0  0  0  0  0  0  0  0  0  0
  150.4099  141.7031  155.5676 C   0  0  0  0  0  0  0  0  0  0  0  0
  150.2833  140.6873  156.6217 N   0  0  0  0  0  0  0  0  0  0  0  0
  150.3588  139.2834  156.1602 C   0  0  1  0  0  0  0  0  0  0  0  0
  151.4067  139.1126  155.0386 C   0  0  0  0  0  0  0  0  0  0  0  0
  150.6762  138.3059  157.3183 C   0  0  0  0  0  0  0  0  0  0  0  0
  149.4629  137.8260  157.9708 N   0  0  0  0  0  0  0  0  0  0  0  0
  149.4321  137.2030  159.1554 C   0  0  0  0  0  0  0  0  0  0  0  0
  150.4408  136.9596  159.8175 O   0  0  0  0  0  0  0  0  0  0  0  0
  148.1736  136.8868  159.5038 N   0  0  0  0  0  0  0  0  0  0  0  0
  147.7191  136.2528  160.6884 C   0  0  0  0  0  0  0  0  0  0  0  0
  146.8017  135.1647  160.7648 C   0  0  0  0  0  0  0  0  0  0  0  0
  146.7113  134.9348  162.1087 C   0  0  0  0  0  0  0  0  0  0  0  0
  145.9406  133.9506  162.9199 C   0  0  0  0  0  0  0  0  0  0  0  0
  147.5052  135.8019  162.7926 O   0  0  0  0  0  0  0  0  0  0  0  0
  148.1483  136.6407  161.8751 N   0  0  0  0  0  0  0  0  0  0  0  0
  149.0785  141.0290  157.3909 C   0  0  0  0  0  0  0  0  0  0  0  0
  147.8078  141.0232  156.5135 C   0  0  0  0  0  0  0  0  0  0  0  0
  144.6896  142.7398  154.5409 H   0  0  0  0  0  0  0  0  0  0  0  0
  145.7307  143.5923  155.6739 H   0  0  0  0  0  0  0  0  0  0  0  0
  145.1746  141.9564  156.0340 H   0  0  0  0  0  0  0  0  0  0  0  0
  146.5327  141.0671  154.0956 H   0  0  0  0  0  0  0  0  0  0  0  0
  146.9666  142.7049  153.6666 H   0  0  0  0  0  0  0  0  0  0  0  0
  149.0985  140.7663  154.0854 H   0  0  0  0  0  0  0  0  0  0  0  0
  149.3240  142.4870  153.8743 H   0  0  0  0  0  0  0  0  0  0  0  0
  151.3306  141.5722  155.0015 H   0  0  0  0  0  0  0  0  0  0  0  0
  150.5054  142.6824  156.0388 H   0  0  0  0  0  0  0  0  0  0  0  0
  149.3955  138.9873  155.7473 H   0  0  0  0  0  0  0  0  0  0  0  0
  151.5592  138.0585  154.8055 H   0  0  0  0  0  0  0  0  0  0  0  0
  152.3746  139.5275  155.3227 H   0  0  0  0  0  0  0  0  0  0  0  0
  151.0934  139.5862  154.1087 H   0  0  0  0  0  0  0  0  0  0  0  0
  151.2718  137.4585  156.9792 H   0  0  0  0  0  0  0  0  0  0  0  0
  151.2980  138.8155  158.0564 H   0  0  0  0  0  0  0  0  0  0  0  0
  148.5914  137.9846  157.4864 H   0  0  0  0  0  0  0  0  0  0  0  0
  147.4509  137.1303  158.8427 H   0  0  0  0  0  0  0  0  0  0  0  0
  146.2894  134.6307  159.9791 H   0  0  0  0  0  0  0  0  0  0  0  0
  145.1820  133.4546  162.3142 H   0  0  0  0  0  0  0  0  0  0  0  0
  145.4383  134.4432  163.7528 H   0  0  0  0  0  0  0  0  0  0  0  0
  146.6013  133.1854  163.3273 H   0  0  0  0  0  0  0  0  0  0  0  0
  148.9558  140.3682  158.2472 H   0  0  0  0  0  0  0  0  0  0  0  0
  149.2129  142.0235  157.8192 H   0  0  0  0  0  0  0  0  0  0  0  0
  146.9581  141.3044  157.1343 H   0  0  0  0  0  0  0  0  0  0  0  0
  147.5955  140.0229  156.1346 H   0  0  0  0  0  0  0  0  0  0  0  0
  148.0631  142.8998  155.7968 H   0  0  0  0  0  0  0  0  0  0  0  0
  1  2  1  0  0  0  0
  1 22  1  0  0  0  0
  1 23  1  0  0  0  0
  1 24  1  0  0  0  0
  2  3  1  0  0  0  0
  2 25  1  0  0  0  0
  2 26  1  0  0  0  0
  3 21  1  0  0  0  0
  3  4  1  0  0  0  0
  3 47  1  0  0  0  0
  4  5  1  0  0  0  0
  4 27  1  0  0  0  0
  4 28  1  0  0  0  0
  5  6  1  0  0  0  0
  5 29  1  0  0  0  0
  5 30  1  0  0  0  0
  6  7  1  0  0  0  0
  6 20  1  0  0  0  0
  7  8  1  0  0  0  0
  7  9  1  0  0  0  0
  7 31  1  0  0  0  0
  8 32  1  0  0  0  0
  8 33  1  0  0  0  0
  8 34  1  0  0  0  0
  9 10  1  0  0  0  0
  9 35  1  0  0  0  0
  9 36  1  0  0  0  0
 10 11  1  0  0  0  0
 10 37  1  0  0  0  0
 11 12  2  0  0  0  0
 11 13  1  0  0  0  0
 13 14  1  0  0  0  0
 13 38  1  0  0  0  0
 14 19  2  0  0  0  0
 14 15  1  0  0  0  0
 15 16  2  0  0  0  0
 15 39  1  0  0  0  0
 16 17  1  0  0  0  0
 16 18  1  0  0  0  0
 17 40  1  0  0  0  0
 17 41  1  0  0  0  0
 17 42  1  0  0  0  0
 18 19  1  0  0  0  0
 20 21  1  0  0  0  0
 20 43  1  0  0  0  0
 20 44  1  0  0  0  0
 21 45  1  0  0  0  0
 21 46  1  0  0  0  0
M  CHG  1   3   1
M  END
> <s_m_source_file>
AV-unprocessed.smi

> <i_m_source_file_index>
1586

> <i_lp_mmshare_version>
43012

> <i_f3d_flags>
0

> <s_epik_input>
W0NIM11bQ0gyXU4xW0NIMl1bQ0gyXU4oW0NIMl1bQ0gyXTEpW0NASF0oW0NIM10pW0NIMl1bTkhdQyg9TylbTkhdYzJbY0hdYyhbQ0gzXSlvbjI=

> <s_epik_cmdline>
J2VwaWtfcHl0aG9uJywgJy1waCcsICc3LjAnLCAnLXRuJywgJzgnLCAnLW1hJywgJzIwMCcsICctbWV0YWxfYmluZGluZycsICctaW1hZScsICc8aW5maWxlLm1hZT4nLCAnLW9tYWUnLCAnPG91dGZpbGUubWFlPic=

> <r_epik_Ionization_Penalty>
0.0459786

> <r_epik_Ionization_Penalty_Charging>
0.0453654

> <r_epik_Ionization_Penalty_Neutral>
0.000613264

> <r_epik_State_Penalty>
0.163057

> <r_epik_Charging_Adjusted_Penalty>
0.208422

> <i_epik_Tot_Q>
1

> <i_epik_Tot_abs_Q>
1

> <r_epik_Metal_State_Penalty>
0.17399

> <b_epik_Metal_Only>
0

> <s_lp_Force_Field>
OPLS_2005

> <r_lp_Energy>
25.6668

> <b_lp_Chiralities_Consistent>
1

> <s_lp_Variant>
AV-unprocessed.smi:1586-2

> <Gold.Version>
5.8.1

> <Gold.Id.Protein>
6NUR|6NUR_protein|mol2

> <Gold.PLP.Fitness>
40.4254

> <Gold.PLP.PLP>
-31.0874

> <Gold.PLP.part.hbond>
-3.2424

> <Gold.PLP.part.metal>
0.0000

> <Gold.PLP.part.buried>
-3.6592

> <Gold.PLP.part.nonpolar>
-24.6295

> <Gold.PLP.part.repulsive>
0.3912

> <Gold.PLP.ligand.clash>
0.0000

> <Gold.PLP.ligand.torsion>
1.2352

> <Gold.PLP.Chemscore.Hbond>
3.9200

> <Gold.PLP.Chemscore.CHOScore>
0.0000

> <Gold.PLP.Chemscore.Metal>
0.0000

> <Gold.Chemscore.Hbonds>
donor molecule, donor type, donor heavy atom, donor atom, acceptor molecule, acceptor atom, score
      L1  H     3    47       P1  8028  1.92
      P1  H  6896  6908       L1    12  1.00
      P1  H  6931  6943       L1    19  1.00

> <Gold.PLP.Chemscore.Internal.Correction>
0.0483

> <Gold.Rescore>
     Score         DG    S(hbond)    S(metal)    S(lipo)     H(rot)  DE(clash)    DE(int)     intcor
     16.96     -19.03       2.93        0.00      70.79       1.76       0.80       1.28       ----

> <Gold.Chemscore.Fitness>
16.9566

> <Gold.Chemscore.DG>
-19.0318

> <Gold.Chemscore.ZeroCoef>
-5.4800

> <Gold.Chemscore.Hbond>
2.9294

> <Gold.Chemscore.Metal>
0.0000

> <Gold.Chemscore.Lipo>
70.7919

> <Gold.Chemscore.Internal_Hbond>
0.0000

> <Gold.Chemscore.DEClash>
0.7997

> <Gold.Chemscore.DEInternal>
1.2755

> <Gold.Chemscore.Rot>
1.7637

> <Gold.Chemscore.Internal.Correction>
   9.000000E+99

> <Gold.Chemscore.Hbonds>
donor molecule, donor type, donor heavy atom, donor atom, acceptor molecule, acceptor atom, score
      L1  H     3    47       P1  8028  0.74
      P1  H  6896  6908       L1    12  0.85
      P1  H  6931  6943       L1    19  0.93

> <Gold.Chemscore.Hbond.Weighted>
-9.7842

> <Gold.Chemscore.Metal.Weighted>
-0.0000

> <Gold.Chemscore.Lipo.Weighted>
-8.2826

> <Gold.Chemscore.Internal_Hbond.Weighted>
0.0000

> <Gold.Chemscore.DEClash.Weighted>
0.7997

> <Gold.Chemscore.DEInternal.Weighted>
1.2755

> <Gold.Chemscore.Rot.Weighted>
4.5150

> <Gold.Chemscore.Internal.Correction.Weighted>
   9.000000E+99

> <Gold.Protein.RotatedTorsions>
[ 6907 6896 6895 6894 ] final -157.09 input  -60.11 | X-H torsion
[ 7974 7965 7964 7962 ] final  121.73 input  175.53 | X-H torsion
[ 8008 7997 7996 7995 ] final    3.39 input   59.86 | X-H torsion
[ 10167 10162 10161 10158 ] final -108.73 input  -65.29 | X-H torsion
[ 10718 10713 10712 10709 ] final -175.46 input   66.30 | X-H torsion
[ 10763 10752 10751 10750 ] final  -32.60 input  -60.55 | X-H torsion
[ 11005 11000 10999 10996 ] final -133.58 input  -57.11 | X-H torsion

> <Gold.Protein.ActiveResidues>
 VAL166  LYS551  ARG553  GLY616  TRP617  ASP618  TYR619  PRO620  LYS621  CYS622 
 ASP623  PHE694  ASN695  SER759  ASP760  ASP761  ALA762  ILE779  LEU786  VAL792 
 PHE793  MET794  SER795  GLU796  ALA797  LYS798  CYS799  TRP800  GLU811  SER814 

> <Gold.Protein.RotatedAtoms>
  151.2975  133.4137  159.2637 H   0  0  0  0  0  0  0  0  0  0  0  0  # atno 6907 bound_to 6896
  151.0224  134.9479  159.8077 H   0  0  0  0  0  0  0  0  0  0  0  0  # atno 6908 bound_to 6896
  152.5327  134.2938  159.9105 H   0  0  0  0  0  0  0  0  0  0  0  0  # atno 6909 bound_to 6896
  145.1159  139.3421  143.4739 H   0  0  0  0  0  0  0  0  0  0  0  0  # atno 7974 bound_to 7965
  154.7031  140.2677  155.6700 H   0  0  0  0  0  0  0  0  0  0  0  0  # atno 8008 bound_to 7997
  156.2771  140.2768  156.1572 H   0  0  0  0  0  0  0  0  0  0  0  0  # atno 8009 bound_to 7997
  155.0737  140.0372  157.2607 H   0  0  0  0  0  0  0  0  0  0  0  0  # atno 8010 bound_to 7997
  140.1630  143.4105  152.1411 H   0  0  0  0  0  0  0  0  0  0  0  0  # atno 10167 bound_to 10162
  156.8002  130.9549  151.3119 H   0  0  0  0  0  0  0  0  0  0  0  0  # atno 10718 bound_to 10713
  153.8164  135.6878  153.4833 H   0  0  0  0  0  0  0  0  0  0  0  0  # atno 10763 bound_to 10752
  153.1596  135.4585  154.9752 H   0  0  0  0  0  0  0  0  0  0  0  0  # atno 10764 bound_to 10752
  154.7946  135.3314  154.7640 H   0  0  0  0  0  0  0  0  0  0  0  0  # atno 10765 bound_to 10752
  140.9068  134.1620  157.4420 H   0  0  0  0  0  0  0  0  0  0  0  0  # atno 11005 bound_to 11000
  146.3524  140.1098  142.8604 LP  0  0  0  0  0  0  0  0  0  0  0  0  # atno 17320 bound_to 7965
  145.0794  140.9211  143.4834 LP  0  0  0  0  0  0  0  0  0  0  0  0  # atno 17321 bound_to 7965
  139.5372  144.7222  151.4852 LP  0  0  0  0  0  0  0  0  0  0  0  0  # atno 17342 bound_to 10162
  140.6631  143.8456  150.6910 LP  0  0  0  0  0  0  0  0  0  0  0  0  # atno 17343 bound_to 10162
  157.6557  130.8923  149.9725 LP  0  0  0  0  0  0  0  0  0  0  0  0  # atno 17370 bound_to 10713
  156.1106  130.3650  150.0056 LP  0  0  0  0  0  0  0  0  0  0  0  0  # atno 17371 bound_to 10713
  139.8750  134.9920  156.5575 LP  0  0  0  0  0  0  0  0  0  0  0  0  # atno 17394 bound_to 11000
  140.8161  133.8390  155.8853 LP  0  0  0  0  0  0  0  0  0  0  0  0  # atno 17395 bound_to 11000

$$$$
