AV-unprocessed.smi:999|AV-procd|sdf|4353|dock10
  -GOLD-   22720 2253D 1   1.00000     0.00000
 Structure written by MMmdl.
 37 38  0  0  0  0  0  0  0  0  2 V2000
  152.1411  144.6727  158.5818 C   0  0  0  0  0  0  0  0  0  0  0  0
  152.4803  143.1923  158.8522 C   0  0  2  0  0  0  0  0  0  0  0  0
  151.3735  142.2362  158.3812 C   0  0  0  0  0  0  0  0  0  0  0  0
  150.2381  142.3056  158.8538 O   0  0  0  0  0  0  0  0  0  0  0  0
  151.7256  141.3446  157.4416 N   0  0  0  0  0  0  0  0  0  0  0  0
  150.8469  140.3421  156.8489 C   0  0  2  0  0  0  0  0  0  0  0  0
  150.2202  139.4908  157.9697 C   0  0  0  0  0  0  0  0  0  0  0  0
  149.3543  138.3518  157.3994 C   0  0  0  0  0  0  0  0  0  0  0  0
  150.1410  137.4497  156.4175 C   0  0  2  0  0  0  0  0  0  0  0  0
  151.1919  136.5674  157.1322 C   0  0  0  0  0  0  0  0  0  0  0  0
  151.9089  135.8233  156.4270 O   0  0  0  0  0  0  0  0  0  0  0  0
  151.2484  136.6229  158.3809 O   0  5  0  0  0  0  0  0  0  0  0  0
  150.7553  138.3226  155.2955 C   0  0  0  0  0  0  0  0  0  0  0  0
  151.6290  139.4638  155.8498 C   0  0  0  0  0  0  0  0  0  0  0  0
  152.8029  142.9394  160.2519 N   0  0  0  0  0  0  0  0  0  0  0  0
  153.4013  141.8198  160.7940 C   0  0  0  0  0  0  0  0  0  0  0  0
  153.4665  142.0011  162.1458 C   0  0  0  0  0  0  0  0  0  0  0  0
  152.8605  143.2723  162.3450 C   0  0  0  0  0  0  0  0  0  0  0  0
  152.4556  143.8257  161.2141 N   0  0  0  0  0  0  0  0  0  0  0  0
  151.9488  144.8428  157.5220 H   0  0  0  0  0  0  0  0  0  0  0  0
  152.9698  145.3196  158.8702 H   0  0  0  0  0  0  0  0  0  0  0  0
  151.2587  145.0008  159.1326 H   0  0  0  0  0  0  0  0  0  0  0  0
  153.3763  142.9619  158.2730 H   0  0  0  0  0  0  0  0  0  0  0  0
  152.6780  141.3617  157.1074 H   0  0  0  0  0  0  0  0  0  0  0  0
  150.0371  140.8440  156.3159 H   0  0  0  0  0  0  0  0  0  0  0  0
  151.0049  139.0746  158.6029 H   0  0  0  0  0  0  0  0  0  0  0  0
  149.6103  140.1217  158.6171 H   0  0  0  0  0  0  0  0  0  0  0  0
  148.9244  137.7670  158.2135 H   0  0  0  0  0  0  0  0  0  0  0  0
  148.5023  138.7846  156.8744 H   0  0  0  0  0  0  0  0  0  0  0  0
  149.4372  136.7550  155.9581 H   0  0  0  0  0  0  0  0  0  0  0  0
  151.3321  137.7163  154.5961 H   0  0  0  0  0  0  0  0  0  0  0  0
  149.9472  138.7545  154.7040 H   0  0  0  0  0  0  0  0  0  0  0  0
  151.9949  140.0732  155.0228 H   0  0  0  0  0  0  0  0  0  0  0  0
  152.5132  139.0482  156.3350 H   0  0  0  0  0  0  0  0  0  0  0  0
  153.7278  140.9947  160.1781 H   0  0  0  0  0  0  0  0  0  0  0  0
  153.8781  141.3260  162.8811 H   0  0  0  0  0  0  0  0  0  0  0  0
  152.6989  143.8033  163.2715 H   0  0  0  0  0  0  0  0  0  0  0  0
  1  2  1  0  0  0  0
  1 20  1  0  0  0  0
  1 21  1  0  0  0  0
  1 22  1  0  0  0  0
  2  3  1  0  0  0  0
  2 15  1  0  0  0  0
  2 23  1  0  0  0  0
  3  4  2  0  0  0  0
  3  5  1  0  0  0  0
  5  6  1  0  0  0  0
  5 24  1  0  0  0  0
  6 14  1  0  0  0  0
  6  7  1  0  0  0  0
  6 25  1  0  0  0  0
  7  8  1  0  0  0  0
  7 26  1  0  0  0  0
  7 27  1  0  0  0  0
  8  9  1  0  0  0  0
  8 28  1  0  0  0  0
  8 29  1  0  0  0  0
  9 10  1  0  0  0  0
  9 13  1  0  0  0  0
  9 30  1  0  0  0  0
 10 11  2  0  0  0  0
 10 12  1  0  0  0  0
 13 14  1  0  0  0  0
 13 31  1  0  0  0  0
 13 32  1  0  0  0  0
 14 33  1  0  0  0  0
 14 34  1  0  0  0  0
 15 19  1  0  0  0  0
 15 16  1  0  0  0  0
 16 17  2  0  0  0  0
 16 35  1  0  0  0  0
 17 18  1  0  0  0  0
 17 36  1  0  0  0  0
 18 19  2  0  0  0  0
 18 37  1  0  0  0  0
M  CHG  1  12  -1
M  END
> <s_m_source_file>
AV-unprocessed.smi

> <i_m_source_file_index>
999

> <i_lp_mmshare_version>
43012

> <i_f3d_flags>
0

> <s_epik_input>
bjFbY0hdW2NIXVtjSF1uMVtDQEhdKFtDSDNdKUMoPU8pW05IXVtDQEBIXTJbQ0gyXVtDSDJdW0NAQEhdKEMoPU8pW09IXSlbQ0gyXVtDSDJdMg==

> <s_epik_cmdline>
J2VwaWtfcHl0aG9uJywgJy1waCcsICc3LjAnLCAnLXRuJywgJzgnLCAnLW1hJywgJzIwMCcsICctbWV0YWxfYmluZGluZycsICctaW1hZScsICc8aW5maWxlLm1hZT4nLCAnLW9tYWUnLCAnPG91dGZpbGUubWFlPic=

> <r_lp_tautomer_probability>
1

> <r_epik_Ionization_Penalty>
0.00221712

> <r_epik_Ionization_Penalty_Charging>
0.00217268

> <r_epik_Ionization_Penalty_Neutral>
4.44343e-05

> <r_epik_State_Penalty>
0.0014925

> <r_epik_Charging_Adjusted_Penalty>
0.00366518

> <i_epik_Tot_Q>
-1

> <i_epik_Tot_abs_Q>
1

> <r_epik_Metal_State_Penalty>
-0

> <b_epik_Metal_Only>
0

> <s_lp_Force_Field>
OPLS_2005

> <r_lp_Energy>
7.42219

> <b_lp_Chiralities_Consistent>
1

> <s_lp_Variant>
AV-unprocessed.smi:999-3

> <Gold.Version>
5.8.1

> <Gold.Id.Protein>
6NUR|6NUR_protein|mol2

> <Gold.PLP.Fitness>
48.7160

> <Gold.PLP.PLP>
-39.0471

> <Gold.PLP.part.hbond>
-2.5713

> <Gold.PLP.part.metal>
0.0000

> <Gold.PLP.part.buried>
-5.2901

> <Gold.PLP.part.nonpolar>
-31.8055

> <Gold.PLP.part.repulsive>
0.2544

> <Gold.PLP.ligand.clash>
0.0000

> <Gold.PLP.ligand.torsion>
0.3911

> <Gold.PLP.Chemscore.Hbond>
3.4400

> <Gold.PLP.Chemscore.CHOScore>
0.0000

> <Gold.PLP.Chemscore.Metal>
0.0000

> <Gold.Chemscore.Hbonds>
donor molecule, donor type, donor heavy atom, donor atom, acceptor molecule, acceptor atom, score
      P1  H  6896  6909       L1    12  1.12
      P1  H 10752 10763       L1    11  2.00

> <Gold.PLP.Chemscore.Internal.Correction>
0.1312

> <Gold.Rescore>
     Score         DG    S(hbond)    S(metal)    S(lipo)     H(rot)  DE(clash)    DE(int)     intcor
     16.24     -16.54       1.77        0.00      87.33       1.98       0.00       0.29       ----

> <Gold.Chemscore.Fitness>
16.2436

> <Gold.Chemscore.DG>
-16.5383

> <Gold.Chemscore.ZeroCoef>
-5.4800

> <Gold.Chemscore.Hbond>
1.7674

> <Gold.Chemscore.Metal>
0.0000

> <Gold.Chemscore.Lipo>
87.3269

> <Gold.Chemscore.Internal_Hbond>
0.0000

> <Gold.Chemscore.DEClash>
0.0038

> <Gold.Chemscore.DEInternal>
0.2910

> <Gold.Chemscore.Rot>
1.9774

> <Gold.Chemscore.Internal.Correction>
   9.000000E+99

> <Gold.Chemscore.Hbonds>
donor molecule, donor type, donor heavy atom, donor atom, acceptor molecule, acceptor atom, score
      P1  H  6896  6909       L1    12  0.57
      P1  H 10752 10763       L1    11  0.94

> <Gold.Chemscore.Hbond.Weighted>
-5.9031

> <Gold.Chemscore.Metal.Weighted>
-0.0000

> <Gold.Chemscore.Lipo.Weighted>
-10.2172

> <Gold.Chemscore.Internal_Hbond.Weighted>
0.0000

> <Gold.Chemscore.DEClash.Weighted>
0.0038

> <Gold.Chemscore.DEInternal.Weighted>
0.2910

> <Gold.Chemscore.Rot.Weighted>
5.0620

> <Gold.Chemscore.Internal.Correction.Weighted>
   9.000000E+99

> <Gold.Protein.RotatedTorsions>
[ 6907 6896 6895 6894 ] final   98.93 input  -60.11 | X-H torsion
[ 7974 7965 7964 7962 ] final  -14.50 input  175.53 | X-H torsion
[ 8008 7997 7996 7995 ] final  172.62 input   59.86 | X-H torsion
[ 10167 10162 10161 10158 ] final -130.69 input  -65.29 | X-H torsion
[ 10718 10713 10712 10709 ] final  178.45 input   66.30 | X-H torsion
[ 10763 10752 10751 10750 ] final  113.74 input  -60.55 | X-H torsion
[ 11005 11000 10999 10996 ] final   -1.16 input  -57.11 | X-H torsion

> <Gold.Protein.ActiveResidues>
 VAL166  LYS551  ARG553  GLY616  TRP617  ASP618  TYR619  PRO620  LYS621  CYS622 
 ASP623  PHE694  ASN695  SER759  ASP760  ASP761  ALA762  ILE779  LEU786  VAL792 
 PHE793  MET794  SER795  GLU796  ALA797  LYS798  CYS799  TRP800  GLU811  SER814 

> <Gold.Protein.RotatedAtoms>
  152.5401  134.0506  159.8107 H   0  0  0  0  0  0  0  0  0  0  0  0  # atno 6907 bound_to 6896
  151.0648  133.5507  159.2639 H   0  0  0  0  0  0  0  0  0  0  0  0  # atno 6908 bound_to 6896
  151.2392  135.0591  159.9072 H   0  0  0  0  0  0  0  0  0  0  0  0  # atno 6909 bound_to 6896
  146.2071  140.3358  142.8403 H   0  0  0  0  0  0  0  0  0  0  0  0  # atno 7974 bound_to 7965
  156.1156  140.1481  156.9277 H   0  0  0  0  0  0  0  0  0  0  0  0  # atno 8008 bound_to 7997
  154.4798  140.0883  156.7393 H   0  0  0  0  0  0  0  0  0  0  0  0  # atno 8009 bound_to 7997
  155.4519  140.3435  155.4304 H   0  0  0  0  0  0  0  0  0  0  0  0  # atno 8010 bound_to 7997
  139.9267  143.6319  152.2540 H   0  0  0  0  0  0  0  0  0  0  0  0  # atno 10167 bound_to 10162
  156.8904  130.9845  151.3050 H   0  0  0  0  0  0  0  0  0  0  0  0  # atno 10718 bound_to 10713
  153.4970  135.3646  155.2521 H   0  0  0  0  0  0  0  0  0  0  0  0  # atno 10763 bound_to 10752
  154.8749  135.3991  154.3522 H   0  0  0  0  0  0  0  0  0  0  0  0  # atno 10764 bound_to 10752
  153.4152  135.7079  153.6398 H   0  0  0  0  0  0  0  0  0  0  0  0  # atno 10765 bound_to 10752
  140.6442  133.9462  155.8343 H   0  0  0  0  0  0  0  0  0  0  0  0  # atno 11005 bound_to 11000
  144.8820  140.7413  143.5980 LP  0  0  0  0  0  0  0  0  0  0  0  0  # atno 17320 bound_to 7965
  145.3278  139.1768  143.4553 LP  0  0  0  0  0  0  0  0  0  0  0  0  # atno 17321 bound_to 7965
  139.6816  144.7655  151.1598 LP  0  0  0  0  0  0  0  0  0  0  0  0  # atno 17342 bound_to 10162
  140.7648  143.5717  150.8989 LP  0  0  0  0  0  0  0  0  0  0  0  0  # atno 17343 bound_to 10162
  157.6087  130.8567  149.8917 LP  0  0  0  0  0  0  0  0  0  0  0  0  # atno 17370 bound_to 10713
  156.0632  130.3696  150.0936 LP  0  0  0  0  0  0  0  0  0  0  0  0  # atno 17371 bound_to 10713
  141.0584  134.0382  157.3691 LP  0  0  0  0  0  0  0  0  0  0  0  0  # atno 17394 bound_to 11000
  139.9069  135.0181  156.7524 LP  0  0  0  0  0  0  0  0  0  0  0  0  # atno 17395 bound_to 11000

$$$$
