AV-unprocessed.smi:2226|AV-procd|sdf|9016|dock4
  -GOLD-   2272012223D 1   1.00000     0.00000
 Structure written by MMmdl.
 40 42  0  0  0  0  0  0  0  0  2 V2000
  151.3752  125.3043  153.3459 C   0  0  0  0  0  0  0  0  0  0  0  0
  150.3429  126.3421  153.1125 N   0  3  1  0  0  0  0  0  0  0  0  0
  149.0390  125.8271  152.6281 C   0  0  1  0  0  0  0  0  0  0  0  0
  148.2937  125.0445  153.7392 C   0  0  0  0  0  0  0  0  0  0  0  0
  148.1594  125.8147  155.0665 C   0  0  0  0  0  0  0  0  0  0  0  0
  149.4467  126.5738  155.4403 C   0  0  0  0  0  0  0  0  0  0  0  0
  150.1334  127.2792  154.2430 C   0  0  2  0  0  0  0  0  0  0  0  0
  149.3977  128.5346  153.7202 C   0  0  0  0  0  0  0  0  0  0  0  0
  148.1016  128.2360  152.9284 C   0  0  1  0  0  0  0  0  0  0  0  0
  147.7624  129.4003  152.1114 N   0  0  0  0  0  0  0  0  0  0  0  0
  146.5604  129.9893  152.0138 C   0  0  0  0  0  0  0  0  0  0  0  0
  145.5795  129.5769  152.6406 O   0  0  0  0  0  0  0  0  0  0  0  0
  146.6361  131.0647  151.1401 N   0  0  0  0  0  0  0  0  0  0  0  0
  145.5907  131.8019  150.9192 C   0  0  0  0  0  0  0  0  0  0  0  0
  144.2835  131.7659  151.3979 N   0  0  0  0  0  0  0  0  0  0  0  0
  143.5911  132.7956  150.8249 C   0  0  0  0  0  0  0  0  0  0  0  0
  144.4212  133.4529  150.0209 C   0  0  0  0  0  0  0  0  0  0  0  0
  145.6514  132.8681  150.0578 O   0  0  0  0  0  0  0  0  0  0  0  0
  148.2393  126.9972  152.0103 C   0  0  0  0  0  0  0  0  0  0  0  0
  151.1004  124.6194  154.1476 H   0  0  0  0  0  0  0  0  0  0  0  0
  152.3262  125.7679  153.6094 H   0  0  0  0  0  0  0  0  0  0  0  0
  151.5348  124.7179  152.4408 H   0  0  0  0  0  0  0  0  0  0  0  0
  149.2380  125.1263  151.8159 H   0  0  0  0  0  0  0  0  0  0  0  0
  147.3070  124.7408  153.3880 H   0  0  0  0  0  0  0  0  0  0  0  0
  148.8293  124.1148  153.9338 H   0  0  0  0  0  0  0  0  0  0  0  0
  147.3156  126.4979  155.0243 H   0  0  0  0  0  0  0  0  0  0  0  0
  147.9038  125.1183  155.8659 H   0  0  0  0  0  0  0  0  0  0  0  0
  149.2330  127.2952  156.2296 H   0  0  0  0  0  0  0  0  0  0  0  0
  150.1486  125.8648  155.8801 H   0  0  0  0  0  0  0  0  0  0  0  0
  151.1138  127.6153  154.5839 H   0  0  0  0  0  0  0  0  0  0  0  0
  149.1842  129.2192  154.5421 H   0  0  0  0  0  0  0  0  0  0  0  0
  150.0904  129.0679  153.0665 H   0  0  0  0  0  0  0  0  0  0  0  0
  147.2988  128.0525  153.6370 H   0  0  0  0  0  0  0  0  0  0  0  0
  148.5124  129.7997  151.5657 H   0  0  0  0  0  0  0  0  0  0  0  0
  143.8741  131.1144  152.0523 H   0  0  0  0  0  0  0  0  0  0  0  0
  142.5489  132.9521  151.0606 H   0  0  0  0  0  0  0  0  0  0  0  0
  144.2957  134.3159  149.3840 H   0  0  0  0  0  0  0  0  0  0  0  0
  148.7558  127.2967  151.0964 H   0  0  0  0  0  0  0  0  0  0  0  0
  147.2533  126.6569  151.6917 H   0  0  0  0  0  0  0  0  0  0  0  0
  150.7118  126.9032  152.3580 H   0  0  0  0  0  0  0  0  0  0  0  0
  1  2  1  0  0  0  0
  1 20  1  0  0  0  0
  1 21  1  0  0  0  0
  1 22  1  0  0  0  0
  2  7  1  0  0  0  0
  2  3  1  0  0  0  0
  2 40  1  0  0  0  0
  3 19  1  0  0  0  0
  3  4  1  0  0  0  0
  3 23  1  0  0  0  0
  4  5  1  0  0  0  0
  4 24  1  0  0  0  0
  4 25  1  0  0  0  0
  5  6  1  0  0  0  0
  5 26  1  0  0  0  0
  5 27  1  0  0  0  0
  6  7  1  0  0  0  0
  6 28  1  0  0  0  0
  6 29  1  0  0  0  0
  7  8  1  0  0  0  0
  7 30  1  0  0  0  0
  8  9  1  0  0  0  0
  8 31  1  0  0  0  0
  8 32  1  0  0  0  0
  9 10  1  0  0  0  0
  9 19  1  0  0  0  0
  9 33  1  0  0  0  0
 10 34  1  0  0  0  0
 10 11  1  0  0  0  0
 11 13  1  0  0  0  0
 11 12  2  0  0  0  0
 13 14  2  0  0  0  0
 14 18  1  0  0  0  0
 14 15  1  0  0  0  0
 15 35  1  0  0  0  0
 15 16  1  0  0  0  0
 16 36  1  0  0  0  0
 16 17  2  0  0  0  0
 17 37  1  0  0  0  0
 17 18  1  0  0  0  0
 19 38  1  0  0  0  0
 19 39  1  0  0  0  0
M  CHG  1   2   1
M  END
> <s_m_source_file>
AV-unprocessed.smi

> <i_m_source_file_index>
2226

> <i_lp_mmshare_version>
43012

> <i_f3d_flags>
0

> <s_epik_input>
W0NIMl0xW0NIMl1bQ0gyXVtDQEhdKE4oW0NIM10pW0NIXTEyKVtDSDJdW0NASF0oW0NIMl0yKVtOSF1DKD1PKVtOSF1jM25bY0hdW2NIXW8z

> <s_epik_cmdline>
J2VwaWtfcHl0aG9uJywgJy1waCcsICc3LjAnLCAnLXRuJywgJzgnLCAnLW1hJywgJzIwMCcsICctbWV0YWxfYmluZGluZycsICctaW1hZScsICc8aW5maWxlLm1hZT4nLCAnLW9tYWUnLCAnPG91dGZpbGUubWFlPic=

> <r_lp_tautomer_probability>
0.107061

> <r_epik_Ionization_Penalty>
1.08307

> <r_epik_Ionization_Penalty_Charging>
1.08272

> <r_epik_Ionization_Penalty_Neutral>
0.000345913

> <r_epik_State_Penalty>
2.5744

> <r_epik_Charging_Adjusted_Penalty>
3.65713

> <i_epik_Tot_Q>
1

> <i_epik_Tot_abs_Q>
1

> <r_epik_Metal_State_Penalty>
3.72133

> <b_epik_Metal_Only>
0

> <s_lp_Force_Field>
OPLS_2005

> <r_lp_Energy>
58.4837

> <b_lp_Chiralities_Consistent>
1

> <s_lp_Variant>
AV-unprocessed.smi:2226-16

> <Gold.Version>
5.8.1

> <Gold.Id.Protein>
6NUR|6NUR_protein|mol2

> <Gold.PLP.Fitness>
34.0665

> <Gold.PLP.PLP>
-21.4147

> <Gold.PLP.part.hbond>
-2.0000

> <Gold.PLP.part.metal>
0.0000

> <Gold.PLP.part.buried>
-2.7954

> <Gold.PLP.part.nonpolar>
-21.5536

> <Gold.PLP.part.repulsive>
4.4506

> <Gold.PLP.ligand.clash>
0.0000

> <Gold.PLP.ligand.torsion>
0.1636

> <Gold.PLP.Chemscore.Hbond>
1.9760

> <Gold.PLP.Chemscore.CHOScore>
2.3484

> <Gold.PLP.Chemscore.Metal>
0.0000

> <Gold.Chemscore.Hbonds>
donor molecule, donor type, donor heavy atom, donor atom, acceptor molecule, acceptor atom, score
      L1  H     2    40       P1 10737  0.94
      L1  H    10    34       P1 10747  0.98
      L1  C    16    36       P1 10186  0.69
      L1  C    17    37       P1  7921  0.66

> <Gold.PLP.Chemscore.Internal.Correction>
0.0058

> <Gold.Rescore>
     Score         DG    S(hbond)    S(metal)    S(lipo)     H(rot)  DE(clash)    DE(int)     intcor
     12.81     -14.43       1.62        0.00      52.20       1.00       1.56       0.06       ----

> <Gold.Chemscore.Fitness>
12.8135

> <Gold.Chemscore.DG>
-14.4347

> <Gold.Chemscore.ZeroCoef>
-5.4800

> <Gold.Chemscore.Hbond>
1.6189

> <Gold.Chemscore.Metal>
0.0000

> <Gold.Chemscore.Lipo>
52.2009

> <Gold.Chemscore.Internal_Hbond>
0.0000

> <Gold.Chemscore.DEClash>
1.5563

> <Gold.Chemscore.DEInternal>
0.0648

> <Gold.Chemscore.Rot>
1.0000

> <Gold.Chemscore.Internal.Correction>
   9.000000E+99

> <Gold.Chemscore.Hbonds>
donor molecule, donor type, donor heavy atom, donor atom, acceptor molecule, acceptor atom, score
      L1  H     2    40       P1 10737  0.91
      L1  H    10    34       P1 10747  0.32

> <Gold.Chemscore.Hbond.Weighted>
-5.4071

> <Gold.Chemscore.Metal.Weighted>
-0.0000

> <Gold.Chemscore.Lipo.Weighted>
-6.1075

> <Gold.Chemscore.Internal_Hbond.Weighted>
0.0000

> <Gold.Chemscore.DEClash.Weighted>
1.5563

> <Gold.Chemscore.DEInternal.Weighted>
0.0648

> <Gold.Chemscore.Rot.Weighted>
2.5600

> <Gold.Chemscore.Internal.Correction.Weighted>
   9.000000E+99

> <Gold.Protein.RotatedTorsions>
[ 6907 6896 6895 6894 ] final  -13.43 input  -60.11 | X-H torsion
[ 7974 7965 7964 7962 ] final   10.38 input  175.53 | X-H torsion
[ 8008 7997 7996 7995 ] final  100.07 input   59.86 | X-H torsion
[ 10167 10162 10161 10158 ] final  128.53 input  -65.29 | X-H torsion
[ 10718 10713 10712 10709 ] final  -42.94 input   66.30 | X-H torsion
[ 10763 10752 10751 10750 ] final  140.71 input  -60.55 | X-H torsion
[ 11005 11000 10999 10996 ] final -129.06 input  -57.11 | X-H torsion

> <Gold.Protein.ActiveResidues>
 VAL166  LYS551  ARG553  GLY616  TRP617  ASP618  TYR619  PRO620  LYS621  CYS622 
 ASP623  PHE694  ASN695  SER759  ASP760  ASP761  ALA762  ILE779  LEU786  VAL792 
 PHE793  MET794  SER795  GLU796  ALA797  LYS798  CYS799  TRP800  GLU811  SER814 

> <Gold.Protein.RotatedAtoms>
  151.3551  135.0892  159.9415 H   0  0  0  0  0  0  0  0  0  0  0  0  # atno 6907 bound_to 6896
  152.5177  133.9314  159.7592 H   0  0  0  0  0  0  0  0  0  0  0  0  # atno 6908 bound_to 6896
  150.9697  133.6303  159.2769 H   0  0  0  0  0  0  0  0  0  0  0  0  # atno 6909 bound_to 6896
  146.2389  139.9642  142.8455 H   0  0  0  0  0  0  0  0  0  0  0  0  # atno 7974 bound_to 7965
  156.1167  140.3219  155.8149 H   0  0  0  0  0  0  0  0  0  0  0  0  # atno 8008 bound_to 7997
  155.4578  140.0537  157.3011 H   0  0  0  0  0  0  0  0  0  0  0  0  # atno 8009 bound_to 7997
  154.4798  140.2048  155.9805 H   0  0  0  0  0  0  0  0  0  0  0  0  # atno 8010 bound_to 7997
  139.5522  144.6822  151.4288 H   0  0  0  0  0  0  0  0  0  0  0  0  # atno 10167 bound_to 10162
  156.2542  130.4191  149.8615 H   0  0  0  0  0  0  0  0  0  0  0  0  # atno 10718 bound_to 10713
  153.9272  135.2994  155.3446 H   0  0  0  0  0  0  0  0  0  0  0  0  # atno 10763 bound_to 10752
  154.7545  135.4964  153.9353 H   0  0  0  0  0  0  0  0  0  0  0  0  # atno 10764 bound_to 10752
  153.1110  135.6759  153.9604 H   0  0  0  0  0  0  0  0  0  0  0  0  # atno 10765 bound_to 10752
  140.9464  134.1125  157.4103 H   0  0  0  0  0  0  0  0  0  0  0  0  # atno 11005 bound_to 11000
  145.1742  140.9736  143.4304 LP  0  0  0  0  0  0  0  0  0  0  0  0  # atno 17320 bound_to 7965
  145.0001  139.3607  143.6172 LP  0  0  0  0  0  0  0  0  0  0  0  0  # atno 17321 bound_to 7965
  140.6788  143.8130  150.7093 LP  0  0  0  0  0  0  0  0  0  0  0  0  # atno 17342 bound_to 10162
  140.1576  143.4303  152.2088 LP  0  0  0  0  0  0  0  0  0  0  0  0  # atno 17343 bound_to 10162
  156.6153  130.8603  151.3463 LP  0  0  0  0  0  0  0  0  0  0  0  0  # atno 17370 bound_to 10713
  157.7226  130.9579  150.1501 LP  0  0  0  0  0  0  0  0  0  0  0  0  # atno 17371 bound_to 10713
  139.8834  135.0052  156.6301 LP  0  0  0  0  0  0  0  0  0  0  0  0  # atno 17394 bound_to 11000
  140.7664  133.8775  155.8457 LP  0  0  0  0  0  0  0  0  0  0  0  0  # atno 17395 bound_to 11000

$$$$
