AV-unprocessed.smi:371|AV-procd|sdf|2442|dock10
  -GOLD-   2262022383D 1   1.00000     0.00000
 Structure written by MMmdl.
 39 40  0  0  0  0  0  0  0  0  1 V2000
  154.0406  143.7623  160.1847 C   0  0  0  0  0  0  0  0  0  0  0  0
  152.9675  143.3473  159.1858 C   0  0  0  0  0  0  0  0  0  0  0  0
  153.0283  142.0107  158.6412 C   0  0  0  0  0  0  0  0  0  0  0  0
  152.1764  141.6125  157.6826 C   0  0  0  0  0  0  0  0  0  0  0  0
  152.2446  140.1980  157.1181 C   0  0  0  0  0  0  0  0  0  0  0  0
  151.1660  142.4910  157.2038 N   0  0  0  0  0  0  0  0  0  0  0  0
  150.3077  142.0625  156.0705 C   0  0  0  0  0  0  0  0  0  0  0  0
  149.2976  140.9538  156.4629 C   0  0  1  0  0  0  0  0  0  0  0  0
  148.3557  141.5126  157.3571 O   0  0  0  0  0  0  0  0  0  0  0  0
  148.6339  140.2839  155.2634 C   0  0  0  0  0  0  0  0  0  0  0  0
  148.8990  138.9276  154.9688 C   0  0  0  0  0  0  0  0  0  0  0  0
  148.2597  138.2954  153.8850 C   0  0  0  0  0  0  0  0  0  0  0  0
  147.3499  139.0143  153.0874 C   0  0  0  0  0  0  0  0  0  0  0  0
  147.0807  140.3660  153.3737 C   0  0  0  0  0  0  0  0  0  0  0  0
  147.7194  141.0006  154.4568 C   0  0  0  0  0  0  0  0  0  0  0  0
  147.4335  142.2969  154.7279 F   0  0  0  0  0  0  0  0  0  0  0  0
  150.9632  143.7304  157.7582 C   0  0  0  0  0  0  0  0  0  0  0  0
  149.9890  144.4133  157.4259 O   0  0  0  0  0  0  0  0  0  0  0  0
  151.9810  144.1749  158.7483 C   0  0  0  0  0  0  0  0  0  0  0  0
  151.8578  145.5600  159.2425 C   0  0  0  0  0  0  0  0  0  0  0  0
  151.1741  146.3901  158.4419 N   0  0  0  0  0  0  0  0  0  0  0  0
  152.3921  145.9929  160.2623 O   0  0  0  0  0  0  0  0  0  0  0  0
  154.8281  143.0110  160.2519 H   0  0  0  0  0  0  0  0  0  0  0  0
  153.6114  143.8816  161.1796 H   0  0  0  0  0  0  0  0  0  0  0  0
  154.5104  144.7011  159.8897 H   0  0  0  0  0  0  0  0  0  0  0  0
  153.7771  141.3234  159.0077 H   0  0  0  0  0  0  0  0  0  0  0  0
  153.1158  139.6689  157.5053 H   0  0  0  0  0  0  0  0  0  0  0  0
  152.3295  140.1915  156.0328 H   0  0  0  0  0  0  0  0  0  0  0  0
  151.3642  139.6250  157.4105 H   0  0  0  0  0  0  0  0  0  0  0  0
  149.7769  142.9101  155.6403 H   0  0  0  0  0  0  0  0  0  0  0  0
  150.9059  141.7116  155.2281 H   0  0  0  0  0  0  0  0  0  0  0  0
  149.8161  140.1833  157.0317 H   0  0  0  0  0  0  0  0  0  0  0  0
  147.8613  142.1734  156.8966 H   0  0  0  0  0  0  0  0  0  0  0  0
  149.5845  138.3617  155.5827 H   0  0  0  0  0  0  0  0  0  0  0  0
  148.4641  137.2569  153.6694 H   0  0  0  0  0  0  0  0  0  0  0  0
  146.8571  138.5290  152.2580 H   0  0  0  0  0  0  0  0  0  0  0  0
  146.3792  140.9164  152.7643 H   0  0  0  0  0  0  0  0  0  0  0  0
  151.0560  147.3591  158.7009 H   0  0  0  0  0  0  0  0  0  0  0  0
  150.7905  146.0451  157.5739 H   0  0  0  0  0  0  0  0  0  0  0  0
  1  2  1  0  0  0  0
  1 23  1  0  0  0  0
  1 24  1  0  0  0  0
  1 25  1  0  0  0  0
  2 19  2  0  0  0  0
  2  3  1  0  0  0  0
  3  4  2  0  0  0  0
  3 26  1  0  0  0  0
  4  5  1  0  0  0  0
  4  6  1  0  0  0  0
  5 27  1  0  0  0  0
  5 28  1  0  0  0  0
  5 29  1  0  0  0  0
  6  7  1  0  0  0  0
  6 17  1  0  0  0  0
  7  8  1  0  0  0  0
  7 30  1  0  0  0  0
  7 31  1  0  0  0  0
  8  9  1  0  0  0  0
  8 10  1  0  0  0  0
  8 32  1  0  0  0  0
  9 33  1  0  0  0  0
 10 15  1  0  0  0  0
 10 11  2  0  0  0  0
 11 12  1  0  0  0  0
 11 34  1  0  0  0  0
 12 13  2  0  0  0  0
 12 35  1  0  0  0  0
 13 14  1  0  0  0  0
 13 36  1  0  0  0  0
 14 15  2  0  0  0  0
 14 37  1  0  0  0  0
 15 16  1  0  0  0  0
 17 18  2  0  0  0  0
 17 19  1  0  0  0  0
 19 20  1  0  0  0  0
 20 21  1  0  0  0  0
 20 22  2  0  0  0  0
 21 38  1  0  0  0  0
 21 39  1  0  0  0  0
M  END
> <s_m_source_file>
AV-unprocessed.smi

> <i_m_source_file_index>
371

> <i_lp_mmshare_version>
43012

> <i_f3d_flags>
0

> <s_epik_input>
W0NIM11jMVtjSF1jKFtDSDNdKW4oYyg9TyljMUMoPU8pW05IMl0pW0NIMl1bQ0BIXShbT0hdKWMyW2NIXVtjSF1bY0hdW2NIXWMyRg==

> <s_epik_cmdline>
J2VwaWtfcHl0aG9uJywgJy1waCcsICc3LjAnLCAnLXRuJywgJzgnLCAnLW1hJywgJzIwMCcsICctbWV0YWxfYmluZGluZycsICctaW1hZScsICc8aW5maWxlLm1hZT4nLCAnLW9tYWUnLCAnPG91dGZpbGUubWFlPic=

> <r_lp_tautomer_probability>
1

> <r_epik_Ionization_Penalty>
3.46512e-07

> <r_epik_Ionization_Penalty_Charging>
1.35363e-07

> <r_epik_Ionization_Penalty_Neutral>
2.11149e-07

> <r_epik_State_Penalty>
-0

> <r_epik_Charging_Adjusted_Penalty>
1.35363e-07

> <i_epik_Tot_Q>
0

> <i_epik_Tot_abs_Q>
0

> <r_epik_Metal_State_Penalty>
-0

> <b_epik_Metal_Only>
0

> <s_lp_Force_Field>
OPLS_2005

> <r_lp_Energy>
37.7279

> <b_lp_Chiralities_Consistent>
1

> <s_lp_Variant>
AV-unprocessed.smi:371-2

> <Gold.Version>
5.8.1

> <Gold.Id.Protein>
6NUR|6NUR_protein|mol2

> <Gold.PLP.Fitness>
43.1867

> <Gold.PLP.PLP>
-40.8923

> <Gold.PLP.part.hbond>
-1.0000

> <Gold.PLP.part.metal>
0.0000

> <Gold.PLP.part.buried>
-3.4220

> <Gold.PLP.part.nonpolar>
-35.4463

> <Gold.PLP.part.repulsive>
0.0567

> <Gold.PLP.ligand.clash>
0.0000

> <Gold.PLP.ligand.torsion>
0.4313

> <Gold.PLP.Chemscore.Hbond>
0.9280

> <Gold.PLP.Chemscore.CHOScore>
0.0000

> <Gold.PLP.Chemscore.Metal>
0.0000

> <Gold.PLP.Chemscore.Internal.Correction>
0.3731

> <Gold.Rescore>
     Score         DG    S(hbond)    S(metal)    S(lipo)     H(rot)  DE(clash)    DE(int)     intcor
     11.01     -14.07       0.59        0.00     101.29       2.04       0.09       2.98       ----

> <Gold.Chemscore.Fitness>
11.0089

> <Gold.Chemscore.DG>
-14.0729

> <Gold.Chemscore.ZeroCoef>
-5.4800

> <Gold.Chemscore.Hbond>
0.5879

> <Gold.Chemscore.Metal>
0.0000

> <Gold.Chemscore.Lipo>
101.2893

> <Gold.Chemscore.Internal_Hbond>
0.0000

> <Gold.Chemscore.DEClash>
0.0875

> <Gold.Chemscore.DEInternal>
2.9766

> <Gold.Chemscore.Rot>
2.0396

> <Gold.Chemscore.Internal.Correction>
   9.000000E+99

> <Gold.Chemscore.Hbond.Weighted>
-1.9634

> <Gold.Chemscore.Metal.Weighted>
-0.0000

> <Gold.Chemscore.Lipo.Weighted>
-11.8508

> <Gold.Chemscore.Internal_Hbond.Weighted>
0.0000

> <Gold.Chemscore.DEClash.Weighted>
0.0875

> <Gold.Chemscore.DEInternal.Weighted>
2.9766

> <Gold.Chemscore.Rot.Weighted>
5.2214

> <Gold.Chemscore.Internal.Correction.Weighted>
   9.000000E+99

> <Gold.Protein.RotatedTorsions>
[ 6907 6896 6895 6894 ] final -163.08 input  -60.11 | X-H torsion
[ 7974 7965 7964 7962 ] final    9.39 input  175.53 | X-H torsion
[ 8008 7997 7996 7995 ] final -123.18 input   59.86 | X-H torsion
[ 10167 10162 10161 10158 ] final   44.58 input  -65.29 | X-H torsion
[ 10718 10713 10712 10709 ] final  166.57 input   66.30 | X-H torsion
[ 10763 10752 10751 10750 ] final -135.74 input  -60.55 | X-H torsion
[ 11005 11000 10999 10996 ] final  -61.96 input  -57.11 | X-H torsion

> <Gold.Protein.ActiveResidues>
 VAL166  LYS551  ARG553  GLY616  TRP617  ASP618  TYR619  PRO620  LYS621  CYS622 
 ASP623  PHE694  ASN695  SER759  ASP760  ASP761  ALA762  ILE779  LEU786  VAL792 
 PHE793  MET794  SER795  GLU796  ALA797  LYS798  CYS799  TRP800  GLU811  SER814 

> <Gold.Protein.RotatedAtoms>
  151.3904  133.3790  159.2720 H   0  0  0  0  0  0  0  0  0  0  0  0  # atno 6907 bound_to 6896
  150.9509  134.8910  159.7682 H   0  0  0  0  0  0  0  0  0  0  0  0  # atno 6908 bound_to 6896
  152.5111  134.3860  159.9419 H   0  0  0  0  0  0  0  0  0  0  0  0  # atno 6909 bound_to 6896
  146.2404  139.9791  142.8438 H   0  0  0  0  0  0  0  0  0  0  0  0  # atno 7974 bound_to 7965
  155.1763  140.0409  157.2873 H   0  0  0  0  0  0  0  0  0  0  0  0  # atno 8008 bound_to 7997
  154.6234  140.2506  155.7494 H   0  0  0  0  0  0  0  0  0  0  0  0  # atno 8009 bound_to 7997
  156.2446  140.2890  156.0553 H   0  0  0  0  0  0  0  0  0  0  0  0  # atno 8010 bound_to 7997
  140.3329  144.2566  150.6165 H   0  0  0  0  0  0  0  0  0  0  0  0  # atno 10167 bound_to 10162
  157.0639  131.0348  151.2636 H   0  0  0  0  0  0  0  0  0  0  0  0  # atno 10718 bound_to 10713
  154.8697  135.3694  154.4948 H   0  0  0  0  0  0  0  0  0  0  0  0  # atno 10763 bound_to 10752
  153.5593  135.7023  153.5560 H   0  0  0  0  0  0  0  0  0  0  0  0  # atno 10764 bound_to 10752
  153.3643  135.4038  155.1705 H   0  0  0  0  0  0  0  0  0  0  0  0  # atno 10765 bound_to 10752
  141.1343  133.6635  156.5455 H   0  0  0  0  0  0  0  0  0  0  0  0  # atno 11005 bound_to 11000
  145.1609  140.9672  143.4378 LP  0  0  0  0  0  0  0  0  0  0  0  0  # atno 17320 bound_to 7965
  145.0117  139.3504  143.6116 LP  0  0  0  0  0  0  0  0  0  0  0  0  # atno 17321 bound_to 7965
  140.5381  143.2229  151.8130 LP  0  0  0  0  0  0  0  0  0  0  0  0  # atno 17342 bound_to 10162
  139.4853  144.4636  151.9511 LP  0  0  0  0  0  0  0  0  0  0  0  0  # atno 17343 bound_to 10162
  157.4932  130.7835  149.7529 LP  0  0  0  0  0  0  0  0  0  0  0  0  # atno 17370 bound_to 10713
  155.9970  130.3902  150.2757 LP  0  0  0  0  0  0  0  0  0  0  0  0  # atno 17371 bound_to 10713
  140.4105  134.7276  157.4833 LP  0  0  0  0  0  0  0  0  0  0  0  0  # atno 17394 bound_to 11000
  140.0431  134.6239  155.8956 LP  0  0  0  0  0  0  0  0  0  0  0  0  # atno 17395 bound_to 11000

$$$$
