#       Name:                AV-unprocessed.smi:774
#       Creating user name   scv26
#       Creation time:       Fri Mar 27 01:11:08 2020


#       File generated by GOLD software.
#

@<TRIPOS>MOLECULE
AV-unprocessed.smi:774
    40    41     1
SMALL
NO_CHARGES


@<TRIPOS>ATOM
      1 ****        -5.4266   3.0389   0.8048 C.3            1 S1                 0.0000
      2 ****        -3.9337   2.8538   1.0893 C.3            1 S1                 0.0000
      3 ****        -3.6004   1.2533   1.8746 S.3            1 S1                 0.0000
      4 ****        -1.8046   1.3779   2.1183 C.3            1 S1                 0.0000
      5 ****        -1.2415   0.2065   2.9196 C.3            1 S1                 0.0000
      6 ****         0.2519   0.2156   2.5931 C.3            1 S1                 0.0000
      7 ****         0.3629   0.7413   1.1508 C.3            1 S1                 0.0000
      8 ****         0.6977  -0.3427   0.2290 N.am           1 S1                 0.0000
      9 ****         1.8561  -0.4817  -0.4316 C.2            1 S1                 0.0000
     10 ****         2.7973   0.3026  -0.3239 O.2            1 S1                 0.0000
     11 ****         1.8349  -1.5795  -1.2076 N.am           1 S1                 0.0000
     12 ****         2.8212  -2.0783  -2.1041 C.ar           1 S1                 0.0000
     13 ****         2.5145  -3.2596  -2.8115 C.ar           1 S1                 0.0000
     14 ****         3.4564  -3.7877  -3.7143 C.ar           1 S1                 0.0000
     15 ****         4.6792  -3.1096  -3.8772 C.ar           1 S1                 0.0000
     16 ****         4.9921  -1.9798  -3.2094 N.ar           1 S1                 0.0000
     17 ****         4.0837  -1.4783  -2.3445 C.ar           1 S1                 0.0000
     18 ****        -1.0125   1.3449   0.8065 C.3            1 S1                 0.0000
     19 ****        -5.6164   4.0052   0.3373 H              1 S1                 0.0000
     20 ****        -6.0110   2.9939   1.7241 H              1 S1                 0.0000
     21 ****        -5.7972   2.2649   0.1322 H              1 S1                 0.0000
     22 ****        -3.3683   2.9208   0.1597 H              1 S1                 0.0000
     23 ****        -3.5768   3.6498   1.7429 H              1 S1                 0.0000
     24 ****        -1.5835   2.3043   2.6504 H              1 S1                 0.0000
     25 ****        -1.4368   0.2956   3.9886 H              1 S1                 0.0000
     26 ****        -1.6833  -0.7300   2.5761 H              1 S1                 0.0000
     27 ****         0.7612   0.9065   3.2664 H              1 S1                 0.0000
     28 ****         0.7101  -0.7642   2.7349 H              1 S1                 0.0000
     29 ****         1.1183   1.5285   1.1190 H              1 S1                 0.0000
     30 ****        -0.0161  -1.0410   0.0802 H              1 S1                 0.0000
     31 ****         0.9858  -2.1237  -1.1659 H              1 S1                 0.0000
     32 ****         1.5667  -3.7579  -2.6678 H              1 S1                 0.0000
     33 ****         3.2460  -4.6900  -4.2691 H              1 S1                 0.0000
     34 ****         5.4252  -3.4839  -4.5626 H              1 S1                 0.0000
     35 ****         4.4023  -0.5751  -1.8509 H              1 S1                 0.0000
     36 ****        -1.5334   0.7193   0.0794 H              1 S1                 0.0000
     37 ****        -0.9200   2.3376   0.3648 H              1 S1                 0.0000
     38 ****         2.7213   1.0947   0.2817 LP             1 S1                 0.0000
     39 ****         3.6385   0.1483  -0.8421 LP             1 S1                 0.0000
     40 ****         5.8720  -1.5262  -3.3508 LP             1 S1                 0.0000
@<TRIPOS>BOND
    1    1    2 1     
    2    1   19 1     
    3    1   20 1     
    4    1   21 1     
    5    2    3 1     
    6    2   22 1     
    7    2   23 1     
    8    3    4 1     
    9    4   18 1     
   10    4    5 1     
   11    4   24 1     
   12    5    6 1     
   13    5   25 1     
   14    5   26 1     
   15    6    7 1     
   16    6   27 1     
   17    6   28 1     
   18    7    8 1     
   19    7   18 1     
   20    7   29 1     
   21    8    9 am    
   22    8   30 1     
   23    9   10 2     
   24    9   11 am    
   25   11   12 1     
   26   11   31 1     
   27   12   17 ar    
   28   12   13 ar    
   29   13   14 ar    
   30   13   32 1     
   31   14   15 ar    
   32   14   33 1     
   33   15   16 ar    
   34   15   34 1     
   35   16   17 ar    
   36   17   35 1     
   37   18   36 1     
   38   18   37 1     
   39   10   38 1     
   40   10   39 1     
   41   16   40 1     
@<TRIPOS>SUBSTRUCTURE
      1 S1             1
@<TRIPOS>SET
LONE_PAIRS      STATIC     ATOMS    <user>   **** ""
3 38 39 40
DONOR_HYDROGENS      STATIC     ATOMS    <user>   **** ""
2 30 31
ATOM$BLUE        STATIC     ATOMS    COLORGROUP SYSTEM
3 38 39 40
ATOM$RED        STATIC     ATOMS    COLORGROUP SYSTEM
2 30 31
