AV-unprocessed.smi:3121|AV-procd|sdf|11894|dock3
  -GOLD-   2272017283D 1   1.00000     0.00000
 Structure written by MMmdl.
 24 25  0  0  0  0  0  0  0  0  2 V2000
  153.9381  141.7055  160.7730 C   0  0  0  0  0  0  0  0  0  0  0  0
  153.0582  142.7789  160.5377 C   0  0  0  0  0  0  0  0  0  0  0  0
  152.0424  142.6249  159.5741 C   0  0  0  0  0  0  0  0  0  0  0  0
  151.9484  141.3977  158.8824 C   0  0  0  0  0  0  0  0  0  0  0  0
  150.8623  141.1793  157.8383 C   0  0  2  0  0  0  0  0  0  0  0  0
  151.3452  140.9814  156.4038 C   0  0  0  0  0  0  0  0  0  0  0  0
  150.0830  141.2508  155.5720 C   0  0  0  0  0  0  0  0  0  0  0  0
  149.1737  142.0561  156.4180 N   0  3  0  0  0  0  0  0  0  0  0  0
  149.8492  142.3151  157.7025 C   0  0  0  0  0  0  0  0  0  0  0  0
  152.7915  140.3632  159.1061 N   0  0  0  0  0  0  0  0  0  0  0  0
  153.7622  140.5204  160.0322 C   0  0  0  0  0  0  0  0  0  0  0  0
  154.7280  141.7879  161.5050 H   0  0  0  0  0  0  0  0  0  0  0  0
  153.1597  143.7033  161.0873 H   0  0  0  0  0  0  0  0  0  0  0  0
  151.3534  143.4329  159.3765 H   0  0  0  0  0  0  0  0  0  0  0  0
  150.3080  140.2821  158.1207 H   0  0  0  0  0  0  0  0  0  0  0  0
  152.1034  141.7243  156.1522 H   0  0  0  0  0  0  0  0  0  0  0  0
  151.7742  139.9942  156.2302 H   0  0  0  0  0  0  0  0  0  0  0  0
  150.3160  141.7701  154.6421 H   0  0  0  0  0  0  0  0  0  0  0  0
  149.5827  140.3159  155.3177 H   0  0  0  0  0  0  0  0  0  0  0  0
  148.9315  142.9257  155.9646 H   0  0  0  0  0  0  0  0  0  0  0  0
  149.1451  142.3619  158.5337 H   0  0  0  0  0  0  0  0  0  0  0  0
  150.3528  143.2801  157.6296 H   0  0  0  0  0  0  0  0  0  0  0  0
  154.4179  139.6765  160.1881 H   0  0  0  0  0  0  0  0  0  0  0  0
  148.3365  141.5175  156.5893 H   0  0  0  0  0  0  0  0  0  0  0  0
  1 11  1  0  0  0  0
  1  2  2  0  0  0  0
  1 12  1  0  0  0  0
  2  3  1  0  0  0  0
  2 13  1  0  0  0  0
  3  4  2  0  0  0  0
  3 14  1  0  0  0  0
  4  5  1  0  0  0  0
  4 10  1  0  0  0  0
  5  9  1  0  0  0  0
  5  6  1  0  0  0  0
  5 15  1  0  0  0  0
  6  7  1  0  0  0  0
  6 16  1  0  0  0  0
  6 17  1  0  0  0  0
  7  8  1  0  0  0  0
  7 18  1  0  0  0  0
  7 19  1  0  0  0  0
  8  9  1  0  0  0  0
  8 20  1  0  0  0  0
  8 24  1  0  0  0  0
  9 21  1  0  0  0  0
  9 22  1  0  0  0  0
 10 11  2  0  0  0  0
 11 23  1  0  0  0  0
M  CHG  1   8   1
M  END
> <s_m_source_file>
AV-unprocessed.smi

> <i_m_source_file_index>
3121

> <i_lp_mmshare_version>
43012

> <i_f3d_flags>
0

> <s_epik_input>
bjFbY0hdW2NIXVtjSF1bY0hdYzFbQ0BASF0yW0NIMl1bQ0gyXVtOSF1bQ0gyXTI=

> <s_epik_cmdline>
J2VwaWtfcHl0aG9uJywgJy1waCcsICc3LjAnLCAnLXRuJywgJzgnLCAnLW1hJywgJzIwMCcsICctbWV0YWxfYmluZGluZycsICctaW1hZScsICc8aW5maWxlLm1hZT4nLCAnLW9tYWUnLCAnPG91dGZpbGUubWFlPic=

> <r_lp_tautomer_probability>
1

> <r_epik_Ionization_Penalty>
0.00154319

> <r_epik_Ionization_Penalty_Charging>
0.000126521

> <r_epik_Ionization_Penalty_Neutral>
0.00141667

> <r_epik_State_Penalty>
-0

> <r_epik_Charging_Adjusted_Penalty>
0.000126521

> <i_epik_Tot_Q>
1

> <i_epik_Tot_abs_Q>
1

> <r_epik_Metal_State_Penalty>
-0

> <b_epik_Metal_Only>
0

> <s_lp_Force_Field>
OPLS_2005

> <r_lp_Energy>
22.4968

> <b_lp_Chiralities_Consistent>
1

> <s_lp_Variant>
AV-unprocessed.smi:3121-1

> <Gold.Version>
5.8.1

> <Gold.Id.Protein>
6NUR|6NUR_protein|mol2

> <Gold.PLP.Fitness>
31.3593

> <Gold.PLP.PLP>
-25.4611

> <Gold.PLP.part.hbond>
-1.0000

> <Gold.PLP.part.metal>
0.0000

> <Gold.PLP.part.buried>
-3.2714

> <Gold.PLP.part.nonpolar>
-21.2931

> <Gold.PLP.part.repulsive>
0.0386

> <Gold.PLP.ligand.clash>
0.0000

> <Gold.PLP.ligand.torsion>
0.0510

> <Gold.PLP.Chemscore.Hbond>
2.0000

> <Gold.PLP.Chemscore.CHOScore>
0.0000

> <Gold.PLP.Chemscore.Metal>
0.0000

> <Gold.Chemscore.Hbonds>
donor molecule, donor type, donor heavy atom, donor atom, acceptor molecule, acceptor atom, score
      L1  H     8    20       P1  8028  2.00

> <Gold.PLP.Chemscore.Internal.Correction>
0.0003

> <Gold.Rescore>
     Score         DG    S(hbond)    S(metal)    S(lipo)     H(rot)  DE(clash)    DE(int)     intcor
     15.06     -15.13       0.99        0.00      76.13       1.00       0.06       0.01       ----

> <Gold.Chemscore.Fitness>
15.0600

> <Gold.Chemscore.DG>
-15.1298

> <Gold.Chemscore.ZeroCoef>
-5.4800

> <Gold.Chemscore.Hbond>
0.9887

> <Gold.Chemscore.Metal>
0.0000

> <Gold.Chemscore.Lipo>
76.1327

> <Gold.Chemscore.Internal_Hbond>
0.0000

> <Gold.Chemscore.DEClash>
0.0628

> <Gold.Chemscore.DEInternal>
0.0070

> <Gold.Chemscore.Rot>
1.0000

> <Gold.Chemscore.Internal.Correction>
   9.000000E+99

> <Gold.Chemscore.Hbonds>
donor molecule, donor type, donor heavy atom, donor atom, acceptor molecule, acceptor atom, score
      L1  H     8    20       P1  8028  0.99

> <Gold.Chemscore.Hbond.Weighted>
-3.3023

> <Gold.Chemscore.Metal.Weighted>
-0.0000

> <Gold.Chemscore.Lipo.Weighted>
-8.9075

> <Gold.Chemscore.Internal_Hbond.Weighted>
0.0000

> <Gold.Chemscore.DEClash.Weighted>
0.0628

> <Gold.Chemscore.DEInternal.Weighted>
0.0070

> <Gold.Chemscore.Rot.Weighted>
2.5600

> <Gold.Chemscore.Internal.Correction.Weighted>
   9.000000E+99

> <Gold.Protein.RotatedTorsions>
[ 6907 6896 6895 6894 ] final  141.67 input  -60.11 | X-H torsion
[ 7974 7965 7964 7962 ] final -132.29 input  175.53 | X-H torsion
[ 8008 7997 7996 7995 ] final  -72.17 input   59.86 | X-H torsion
[ 10167 10162 10161 10158 ] final -146.76 input  -65.29 | X-H torsion
[ 10718 10713 10712 10709 ] final  105.55 input   66.30 | X-H torsion
[ 10763 10752 10751 10750 ] final   63.59 input  -60.55 | X-H torsion
[ 11005 11000 10999 10996 ] final  -89.74 input  -57.11 | X-H torsion

> <Gold.Protein.ActiveResidues>
 VAL166  LYS551  ARG553  GLY616  TRP617  ASP618  TYR619  PRO620  LYS621  CYS622 
 ASP623  PHE694  ASN695  SER759  ASP760  ASP761  ALA762  ILE779  LEU786  VAL792 
 PHE793  MET794  SER795  GLU796  ALA797  LYS798  CYS799  TRP800  GLU811  SER814 

> <Gold.Protein.RotatedAtoms>
  152.2282  133.5037  159.5200 H   0  0  0  0  0  0  0  0  0  0  0  0  # atno 6907 bound_to 6896
  150.7030  134.1252  159.4058 H   0  0  0  0  0  0  0  0  0  0  0  0  # atno 6908 bound_to 6896
  151.9173  135.0313  160.0570 H   0  0  0  0  0  0  0  0  0  0  0  0  # atno 6909 bound_to 6896
  144.9299  140.7116  143.4912 H   0  0  0  0  0  0  0  0  0  0  0  0  # atno 7974 bound_to 7965
  154.5145  140.0802  156.8054 H   0  0  0  0  0  0  0  0  0  0  0  0  # atno 8008 bound_to 7997
  155.3711  140.3423  155.4225 H   0  0  0  0  0  0  0  0  0  0  0  0  # atno 8009 bound_to 7997
  156.1612  140.1589  156.8597 H   0  0  0  0  0  0  0  0  0  0  0  0  # atno 8010 bound_to 7997
  139.7684  143.8274  152.2620 H   0  0  0  0  0  0  0  0  0  0  0  0  # atno 10167 bound_to 10162
  157.6701  131.0830  150.5874 H   0  0  0  0  0  0  0  0  0  0  0  0  # atno 10718 bound_to 10713
  153.0023  135.5423  154.6376 H   0  0  0  0  0  0  0  0  0  0  0  0  # atno 10763 bound_to 10752
  154.5638  135.2836  155.0895 H   0  0  0  0  0  0  0  0  0  0  0  0  # atno 10764 bound_to 10752
  154.2087  135.6471  153.5161 H   0  0  0  0  0  0  0  0  0  0  0  0  # atno 10765 bound_to 10752
  141.1579  133.7649  156.9638 H   0  0  0  0  0  0  0  0  0  0  0  0  # atno 11005 bound_to 11000
  145.3158  139.1804  143.4614 LP  0  0  0  0  0  0  0  0  0  0  0  0  # atno 17320 bound_to 7965
  146.3242  140.3169  142.8630 LP  0  0  0  0  0  0  0  0  0  0  0  0  # atno 17321 bound_to 7965
  139.8301  144.7257  150.9461 LP  0  0  0  0  0  0  0  0  0  0  0  0  # atno 17342 bound_to 10162
  140.7812  143.4078  151.1043 LP  0  0  0  0  0  0  0  0  0  0  0  0  # atno 17343 bound_to 10162
  156.6174  130.4396  149.5835 LP  0  0  0  0  0  0  0  0  0  0  0  0  # atno 17370 bound_to 10713
  156.2382  130.6835  151.1530 LP  0  0  0  0  0  0  0  0  0  0  0  0  # atno 17371 bound_to 10713
  140.1175  134.9438  157.2155 LP  0  0  0  0  0  0  0  0  0  0  0  0  # atno 17394 bound_to 11000
  140.3114  134.3019  155.7266 LP  0  0  0  0  0  0  0  0  0  0  0  0  # atno 17395 bound_to 11000

$$$$
