AV-unprocessed.smi:1762|AV-procd|sdf|7115|dock2
  -GOLD-   22720 8343D 1   1.00000     0.00000
 Structure written by MMmdl.
 53 54  0  0  0  0  0  0  0  0  2 V2000
  146.8819  132.2147  150.4377 C   0  0  0  0  0  0  0  0  0  0  0  0
  146.9154  133.4850  151.2947 C   0  0  2  0  0  0  0  0  0  0  0  0
  147.5923  133.2472  152.6584 C   0  0  0  0  0  0  0  0  0  0  0  0
  147.5460  134.4726  153.5044 N   0  3  2  0  0  0  0  0  0  0  0  0
  148.2247  134.3523  154.8410 C   0  0  2  0  0  0  0  0  0  0  0  0
  147.8851  135.5564  155.7459 C   0  0  0  0  0  0  0  0  0  0  0  0
  148.2428  136.6912  155.4276 O   0  0  0  0  0  0  0  0  0  0  0  0
  147.1944  135.2945  156.8654 N   0  0  0  0  0  0  0  0  0  0  0  0
  146.7848  136.3024  157.8333 C   0  0  0  0  0  0  0  0  0  0  0  0
  147.8940  136.5423  158.8668 C   0  0  0  0  0  0  0  0  0  0  0  0
  147.4815  136.1115  160.2616 C   0  0  0  0  0  0  0  0  0  0  0  0
  147.6837  134.7838  160.6957 C   0  0  0  0  0  0  0  0  0  0  0  0
  147.2887  134.4383  162.0028 C   0  0  0  0  0  0  0  0  0  0  0  0
  146.7112  135.4282  162.8209 C   0  0  0  0  0  0  0  0  0  0  0  0
  146.5532  136.7256  162.2935 C   0  0  0  0  0  0  0  0  0  0  0  0
  146.9281  137.0674  161.0418 N   0  0  0  0  0  0  0  0  0  0  0  0
  149.7752  134.1425  154.7606 C   0  0  0  0  0  0  0  0  0  0  0  0
  150.1734  132.7952  154.1259 C   0  0  0  0  0  0  0  0  0  0  0  0
  150.5065  134.3298  156.1066 C   0  0  0  0  0  0  0  0  0  0  0  0
  146.1309  134.9326  153.6095 C   0  0  0  0  0  0  0  0  0  0  0  0
  145.5066  135.1357  152.2175 C   0  0  2  0  0  0  0  0  0  0  0  0
  144.0345  135.5549  152.2987 C   0  0  0  0  0  0  0  0  0  0  0  0
  145.5759  133.9111  151.5010 O   0  0  0  0  0  0  0  0  0  0  0  0
  147.8890  131.8474  150.2389 H   0  0  0  0  0  0  0  0  0  0  0  0
  146.4026  132.4051  149.4770 H   0  0  0  0  0  0  0  0  0  0  0  0
  146.3267  131.4181  150.9340 H   0  0  0  0  0  0  0  0  0  0  0  0
  147.4579  134.2571  150.7458 H   0  0  0  0  0  0  0  0  0  0  0  0
  147.1082  132.4233  153.1855 H   0  0  0  0  0  0  0  0  0  0  0  0
  148.6177  132.9444  152.4563 H   0  0  0  0  0  0  0  0  0  0  0  0
  147.8092  133.4590  155.3116 H   0  0  0  0  0  0  0  0  0  0  0  0
  146.9379  134.3374  157.0610 H   0  0  0  0  0  0  0  0  0  0  0  0
  146.5527  137.2300  157.3078 H   0  0  0  0  0  0  0  0  0  0  0  0
  145.8717  135.9783  158.3358 H   0  0  0  0  0  0  0  0  0  0  0  0
  148.7951  135.9968  158.5819 H   0  0  0  0  0  0  0  0  0  0  0  0
  148.1668  137.5984  158.8835 H   0  0  0  0  0  0  0  0  0  0  0  0
  148.1311  134.0464  160.0454 H   0  0  0  0  0  0  0  0  0  0  0  0
  147.4273  133.4325  162.3711 H   0  0  0  0  0  0  0  0  0  0  0  0
  146.3970  135.1994  163.8284 H   0  0  0  0  0  0  0  0  0  0  0  0
  146.1150  137.5095  162.8934 H   0  0  0  0  0  0  0  0  0  0  0  0
  150.1752  134.8811  154.0675 H   0  0  0  0  0  0  0  0  0  0  0  0
  149.9259  131.9489  154.7674 H   0  0  0  0  0  0  0  0  0  0  0  0
  151.2474  132.7554  153.9424 H   0  0  0  0  0  0  0  0  0  0  0  0
  149.6742  132.6476  153.1680 H   0  0  0  0  0  0  0  0  0  0  0  0
  150.2506  133.5447  156.8180 H   0  0  0  0  0  0  0  0  0  0  0  0
  150.2700  135.2860  156.5724 H   0  0  0  0  0  0  0  0  0  0  0  0
  151.5875  134.2976  155.9671 H   0  0  0  0  0  0  0  0  0  0  0  0
  145.5538  134.1986  154.1746 H   0  0  0  0  0  0  0  0  0  0  0  0
  146.0583  135.8738  154.1541 H   0  0  0  0  0  0  0  0  0  0  0  0
  146.0567  135.9070  151.6750 H   0  0  0  0  0  0  0  0  0  0  0  0
  143.9227  136.4985  152.8335 H   0  0  0  0  0  0  0  0  0  0  0  0
  143.4373  134.8035  152.8165 H   0  0  0  0  0  0  0  0  0  0  0  0
  143.6120  135.6867  151.3023 H   0  0  0  0  0  0  0  0  0  0  0  0
  148.0489  135.1889  152.9992 H   0  0  0  0  0  0  0  0  0  0  0  0
  1  2  1  0  0  0  0
  1 24  1  0  0  0  0
  1 25  1  0  0  0  0
  1 26  1  0  0  0  0
  2 23  1  0  0  0  0
  2  3  1  0  0  0  0
  2 27  1  0  0  0  0
  3  4  1  0  0  0  0
  3 28  1  0  0  0  0
  3 29  1  0  0  0  0
  4  5  1  0  0  0  0
  4 20  1  0  0  0  0
  4 53  1  0  0  0  0
  5  6  1  0  0  0  0
  5 17  1  0  0  0  0
  5 30  1  0  0  0  0
  6  7  2  0  0  0  0
  6  8  1  0  0  0  0
  8  9  1  0  0  0  0
  8 31  1  0  0  0  0
  9 10  1  0  0  0  0
  9 32  1  0  0  0  0
  9 33  1  0  0  0  0
 10 11  1  0  0  0  0
 10 34  1  0  0  0  0
 10 35  1  0  0  0  0
 11 16  1  0  0  0  0
 11 12  2  0  0  0  0
 12 13  1  0  0  0  0
 12 36  1  0  0  0  0
 13 14  2  0  0  0  0
 13 37  1  0  0  0  0
 14 15  1  0  0  0  0
 14 38  1  0  0  0  0
 15 16  2  0  0  0  0
 15 39  1  0  0  0  0
 17 18  1  0  0  0  0
 17 19  1  0  0  0  0
 17 40  1  0  0  0  0
 18 41  1  0  0  0  0
 18 42  1  0  0  0  0
 18 43  1  0  0  0  0
 19 44  1  0  0  0  0
 19 45  1  0  0  0  0
 19 46  1  0  0  0  0
 20 21  1  0  0  0  0
 20 47  1  0  0  0  0
 20 48  1  0  0  0  0
 21 22  1  0  0  0  0
 21 23  1  0  0  0  0
 21 49  1  0  0  0  0
 22 50  1  0  0  0  0
 22 51  1  0  0  0  0
 22 52  1  0  0  0  0
M  CHG  1   4   1
M  END
> <s_m_source_file>
AV-unprocessed.smi

> <i_m_source_file_index>
1762

> <i_lp_mmshare_version>
43012

> <i_f3d_flags>
0

> <s_epik_input>
W0NIM11bQ0BASF0xW0NIMl1OKFtDSDJdW0NASF0oTzEpW0NIM10pW0NAQEhdKFtDSF0oW0NIM10pW0NIM10pQyg9TylbTkhdW0NIMl1bQ0gyXWMyW2NIXVtjSF1bY0hdW2NIXW4y

> <s_epik_cmdline>
J2VwaWtfcHl0aG9uJywgJy1waCcsICc3LjAnLCAnLXRuJywgJzgnLCAnLW1hJywgJzIwMCcsICctbWV0YWxfYmluZGluZycsICctaW1hZScsICc8aW5maWxlLm1hZT4nLCAnLW9tYWUnLCAnPG91dGZpbGUubWFlPic=

> <r_epik_Ionization_Penalty>
2.27005

> <r_epik_Ionization_Penalty_Charging>
2.24983

> <r_epik_Ionization_Penalty_Neutral>
0.0202209

> <r_epik_State_Penalty>
2.40228

> <r_epik_Charging_Adjusted_Penalty>
4.65211

> <i_epik_Tot_Q>
1

> <i_epik_Tot_abs_Q>
1

> <r_epik_Metal_State_Penalty>
2.40762

> <b_epik_Metal_Only>
0

> <s_lp_Force_Field>
OPLS_2005

> <r_lp_Energy>
21.2519

> <b_lp_Chiralities_Consistent>
1

> <s_lp_Variant>
AV-unprocessed.smi:1762-17

> <Gold.Version>
5.8.1

> <Gold.Id.Protein>
6NUR|6NUR_protein|mol2

> <Gold.PLP.Fitness>
46.8081

> <Gold.PLP.PLP>
-38.4752

> <Gold.PLP.part.hbond>
-3.0000

> <Gold.PLP.part.metal>
0.0000

> <Gold.PLP.part.buried>
-5.9177

> <Gold.PLP.part.nonpolar>
-31.2329

> <Gold.PLP.part.repulsive>
0.2205

> <Gold.PLP.ligand.clash>
0.0000

> <Gold.PLP.ligand.torsion>
1.2666

> <Gold.PLP.Chemscore.Hbond>
3.4808

> <Gold.PLP.Chemscore.CHOScore>
0.0000

> <Gold.PLP.Chemscore.Metal>
0.0000

> <Gold.Chemscore.Hbonds>
donor molecule, donor type, donor heavy atom, donor atom, acceptor molecule, acceptor atom, score
      L1  H     4    53       P1  7948  2.00
      P1  H  6934  6947       L1    16  1.00

> <Gold.PLP.Chemscore.Internal.Correction>
0.4237

> <Gold.Rescore>
     Score         DG    S(hbond)    S(metal)    S(lipo)     H(rot)  DE(clash)    DE(int)     intcor
     16.23     -18.26       1.88        0.00      91.83       1.66       0.00       2.02       ----

> <Gold.Chemscore.Fitness>
16.2315

> <Gold.Chemscore.DG>
-18.2587

> <Gold.Chemscore.ZeroCoef>
-5.4800

> <Gold.Chemscore.Hbond>
1.8841

> <Gold.Chemscore.Metal>
0.0000

> <Gold.Chemscore.Lipo>
91.8337

> <Gold.Chemscore.Internal_Hbond>
0.0000

> <Gold.Chemscore.DEClash>
0.0048

> <Gold.Chemscore.DEInternal>
2.0224

> <Gold.Chemscore.Rot>
1.6635

> <Gold.Chemscore.Internal.Correction>
   9.000000E+99

> <Gold.Chemscore.Hbonds>
donor molecule, donor type, donor heavy atom, donor atom, acceptor molecule, acceptor atom, score
      L1  H     4    53       P1  7948  0.99
      P1  H  6934  6947       L1    16  0.73

> <Gold.Chemscore.Hbond.Weighted>
-6.2928

> <Gold.Chemscore.Metal.Weighted>
-0.0000

> <Gold.Chemscore.Lipo.Weighted>
-10.7445

> <Gold.Chemscore.Internal_Hbond.Weighted>
0.0000

> <Gold.Chemscore.DEClash.Weighted>
0.0048

> <Gold.Chemscore.DEInternal.Weighted>
2.0224

> <Gold.Chemscore.Rot.Weighted>
4.2586

> <Gold.Chemscore.Internal.Correction.Weighted>
   9.000000E+99

> <Gold.Protein.RotatedTorsions>
[ 6907 6896 6895 6894 ] final   85.02 input  -60.11 | X-H torsion
[ 7974 7965 7964 7962 ] final -120.72 input  175.53 | X-H torsion
[ 8008 7997 7996 7995 ] final  170.20 input   59.86 | X-H torsion
[ 10167 10162 10161 10158 ] final   48.56 input  -65.29 | X-H torsion
[ 10718 10713 10712 10709 ] final   45.38 input   66.30 | X-H torsion
[ 10763 10752 10751 10750 ] final   91.02 input  -60.55 | X-H torsion
[ 11005 11000 10999 10996 ] final  -41.51 input  -57.11 | X-H torsion

> <Gold.Protein.ActiveResidues>
 VAL166  LYS551  ARG553  GLY616  TRP617  ASP618  TYR619  PRO620  LYS621  CYS622 
 ASP623  PHE694  ASN695  SER759  ASP760  ASP761  ALA762  ILE779  LEU786  VAL792 
 PHE793  MET794  SER795  GLU796  ALA797  LYS798  CYS799  TRP800  GLU811  SER814 

> <Gold.Protein.RotatedAtoms>
  152.5365  134.2651  159.8949 H   0  0  0  0  0  0  0  0  0  0  0  0  # atno 6907 bound_to 6896
  151.2609  133.4296  159.2623 H   0  0  0  0  0  0  0  0  0  0  0  0  # atno 6908 bound_to 6896
  151.0453  134.9650  159.8240 H   0  0  0  0  0  0  0  0  0  0  0  0  # atno 6909 bound_to 6896
  145.0483  140.8198  143.4225 H   0  0  0  0  0  0  0  0  0  0  0  0  # atno 7974 bound_to 7965
  156.1387  140.1544  156.8954 H   0  0  0  0  0  0  0  0  0  0  0  0  # atno 8008 bound_to 7997
  154.4969  140.0836  156.7754 H   0  0  0  0  0  0  0  0  0  0  0  0  # atno 8009 bound_to 7997
  155.4119  140.3419  155.4266 H   0  0  0  0  0  0  0  0  0  0  0  0  # atno 8010 bound_to 7997
  140.2920  144.3034  150.6238 H   0  0  0  0  0  0  0  0  0  0  0  0  # atno 10167 bound_to 10162
  157.4370  130.8058  149.7657 H   0  0  0  0  0  0  0  0  0  0  0  0  # atno 10718 bound_to 10713
  153.2037  135.4413  155.0298 H   0  0  0  0  0  0  0  0  0  0  0  0  # atno 10763 bound_to 10752
  154.8162  135.3316  154.7173 H   0  0  0  0  0  0  0  0  0  0  0  0  # atno 10764 bound_to 10752
  153.7616  135.6991  153.4980 H   0  0  0  0  0  0  0  0  0  0  0  0  # atno 10765 bound_to 10752
  141.0251  133.6845  156.2468 H   0  0  0  0  0  0  0  0  0  0  0  0  # atno 11005 bound_to 11000
  145.1560  139.2486  143.5416 LP  0  0  0  0  0  0  0  0  0  0  0  0  # atno 17320 bound_to 7965
  146.3516  140.1275  142.8598 LP  0  0  0  0  0  0  0  0  0  0  0  0  # atno 17321 bound_to 7965
  140.5724  143.2179  151.7576 LP  0  0  0  0  0  0  0  0  0  0  0  0  # atno 17342 bound_to 10162
  139.4935  144.4198  151.9990 LP  0  0  0  0  0  0  0  0  0  0  0  0  # atno 17343 bound_to 10162
  155.9934  130.3924  150.2901 LP  0  0  0  0  0  0  0  0  0  0  0  0  # atno 17370 bound_to 10713
  157.1063  131.0209  151.3066 LP  0  0  0  0  0  0  0  0  0  0  0  0  # atno 17371 bound_to 10713
  140.6505  134.5072  157.5577 LP  0  0  0  0  0  0  0  0  0  0  0  0  # atno 17394 bound_to 11000
  139.9171  134.8225  156.1332 LP  0  0  0  0  0  0  0  0  0  0  0  0  # atno 17395 bound_to 11000

$$$$
