#       Name:                AV-unprocessed.smi:3335
#       Creating user name   scv26
#       Creation time:       Fri Mar 27 19:22:14 2020


#       File generated by GOLD software.
#

@<TRIPOS>MOLECULE
AV-unprocessed.smi:3335
    50    51     1
SMALL
NO_CHARGES


@<TRIPOS>ATOM
      1 ****        -3.6593  -3.0051   3.2670 C.3            1 S1                 0.0000
      2 ****        -3.4521  -1.6807   2.5906 C.2            1 S1                 0.0000
      3 ****        -3.7666  -0.3849   3.0881 C.2            1 S1                 0.0000
      4 ****        -3.4509   0.5800   2.2403 N.2            1 S1                 0.0000
      5 ****        -2.9384  -0.0604   1.1647 N.pl3          1 S1                 0.0000
      6 ****        -2.4399   0.6804   0.0098 C.3            1 S1                 0.0000
      7 ****        -3.2981   1.9271  -0.2972 C.3            1 S1                 0.0000
      8 ****        -0.9225   0.9764   0.1327 C.3            1 S1                 0.0000
      9 ****        -0.5596   1.9546   1.2691 C.3            1 S1                 0.0000
     10 ****        -0.3986   1.4486  -1.1733 N.4            1 S1                 1.0000
     11 ****         1.0532   1.2654  -1.4170 C.3            1 S1                 0.0000
     12 ****         1.4741   2.1214  -2.6225 C.3            1 S1                 0.0000
     13 ****         1.4039  -0.2134  -1.6797 C.2            1 S1                 0.0000
     14 ****         0.5771  -0.9262  -2.2514 O.2            1 S1                 0.0000
     15 ****         2.6061  -0.6884  -1.2883 N.am           1 S1                 0.0000
     16 ****         3.0227  -2.0751  -1.4929 C.3            1 S1                 0.0000
     17 ****         4.3169  -2.2444  -0.6971 C.3            1 S1                 0.0000
     18 ****         4.8925  -0.8376  -0.6222 C.3            1 S1                 0.0000
     19 ****         3.6619   0.0693  -0.6158 C.3            1 S1                 0.0000
     20 ****        -2.9161  -1.4260   1.3605 C.2            1 S1                 0.0000
     21 ****        -4.3044  -2.9180   4.1416 H              1 S1                 0.0000
     22 ****        -2.7165  -3.4353   3.6048 H              1 S1                 0.0000
     23 ****        -4.1233  -3.7303   2.5982 H              1 S1                 0.0000
     24 ****        -4.2083  -0.1189   4.0372 H              1 S1                 0.0000
     25 ****        -2.5636   0.0085  -0.8414 H              1 S1                 0.0000
     26 ****        -2.9805   2.4119  -1.2203 H              1 S1                 0.0000
     27 ****        -3.2461   2.6702   0.4987 H              1 S1                 0.0000
     28 ****        -4.3465   1.6544  -0.4219 H              1 S1                 0.0000
     29 ****        -0.4411   0.0242   0.3586 H              1 S1                 0.0000
     30 ****        -0.9347   1.6082   2.2314 H              1 S1                 0.0000
     31 ****        -0.9683   2.9490   1.0904 H              1 S1                 0.0000
     32 ****         0.5188   2.0612   1.3801 H              1 S1                 0.0000
     33 ****        -0.8835   0.9470  -1.9040 H              1 S1                 0.0000
     34 ****         1.5866   1.6323  -0.5420 H              1 S1                 0.0000
     35 ****         2.5404   2.0276  -2.8304 H              1 S1                 0.0000
     36 ****         1.2714   3.1773  -2.4412 H              1 S1                 0.0000
     37 ****         0.9358   1.8324  -3.5265 H              1 S1                 0.0000
     38 ****         2.2625  -2.7862  -1.1653 H              1 S1                 0.0000
     39 ****         3.2033  -2.2377  -2.5566 H              1 S1                 0.0000
     40 ****         4.0846  -2.5973   0.3088 H              1 S1                 0.0000
     41 ****         5.0029  -2.9595  -1.1522 H              1 S1                 0.0000
     42 ****         5.5340  -0.6878   0.2466 H              1 S1                 0.0000
     43 ****         5.4877  -0.6399  -1.5147 H              1 S1                 0.0000
     44 ****         3.8766   1.0178  -1.1087 H              1 S1                 0.0000
     45 ****         3.3522   0.2787   0.4093 H              1 S1                 0.0000
     46 ****        -2.5250  -2.0998   0.6124 H              1 S1                 0.0000
     47 ****        -0.6224   2.4295  -1.2593 H              1 S1                 0.0000
     48 ****        -3.5657   1.5653   2.3666 LP             1 S1                 0.0000
     49 ****        -0.3018  -0.5432  -2.5356 LP             1 S1                 0.0000
     50 ****         0.7851  -1.8877  -2.4311 LP             1 S1                 0.0000
@<TRIPOS>BOND
    1    1    2 1     
    2    1   21 1     
    3    1   22 1     
    4    1   23 1     
    5    2   20 2     
    6    2    3 1     
    7    3    4 2     
    8    3   24 1     
    9    4    5 1     
   10    5    6 1     
   11    5   20 1     
   12    6    7 1     
   13    6    8 1     
   14    6   25 1     
   15    7   26 1     
   16    7   27 1     
   17    7   28 1     
   18    8    9 1     
   19    8   10 1     
   20    8   29 1     
   21    9   30 1     
   22    9   31 1     
   23    9   32 1     
   24   10   11 1     
   25   10   33 1     
   26   10   47 1     
   27   11   12 1     
   28   11   13 1     
   29   11   34 1     
   30   12   35 1     
   31   12   36 1     
   32   12   37 1     
   33   13   14 2     
   34   13   15 am    
   35   15   19 1     
   36   15   16 1     
   37   16   17 1     
   38   16   38 1     
   39   16   39 1     
   40   17   18 1     
   41   17   40 1     
   42   17   41 1     
   43   18   19 1     
   44   18   42 1     
   45   18   43 1     
   46   19   44 1     
   47   19   45 1     
   48   20   46 1     
   49    4   48 1     
   50   14   49 1     
   51   14   50 1     
@<TRIPOS>SUBSTRUCTURE
      1 S1             1
@<TRIPOS>SET
LONE_PAIRS      STATIC     ATOMS    <user>   **** ""
3 48 49 50
DONOR_HYDROGENS      STATIC     ATOMS    <user>   **** ""
2 33 47
ATOM$BLUE        STATIC     ATOMS    COLORGROUP SYSTEM
3 48 49 50
ATOM$RED        STATIC     ATOMS    COLORGROUP SYSTEM
2 33 47
