AV-unprocessed.smi:1507|AV-procd|sdf|6082|dock2
  -GOLD-   22720 6203D 1   1.00000     0.00000
 Structure written by MMmdl.
 34 35  0  0  0  0  0  0  0  0  3 V2000
  146.5971  137.3144  153.4813 N   0  0  0  0  0  0  0  0  0  0  0  0
  147.1107  137.6852  155.0779 S   0  0  0  0  0  0  0  0  0  0  0  0
  145.8940  138.0518  155.8204 O   0  0  0  0  0  0  0  0  0  0  0  0
  147.8900  136.5224  155.5322 O   0  0  0  0  0  0  0  0  0  0  0  0
  148.0273  138.9563  154.6729 N   0  5  0  0  0  0  0  0  0  0  0  0
  149.4711  138.8231  154.7195 C   0  0  0  0  0  0  0  0  0  0  0  0
  150.0905  139.8670  155.6356 C   0  0  0  0  0  0  0  0  0  0  0  0
  151.1951  139.5476  156.4600 C   0  0  0  0  0  0  0  0  0  0  0  0
  151.7367  140.5366  157.3079 C   0  0  0  0  0  0  0  0  0  0  0  0
  151.1669  141.8269  157.3223 C   0  0  0  0  0  0  0  0  0  0  0  0
  151.6717  142.8313  158.1599 N   0  0  0  0  0  0  0  0  0  0  0  0
  150.6466  143.7444  158.6495 C   0  0  0  0  0  0  0  0  0  0  0  0
  151.2975  144.8778  159.4611 C   0  0  0  0  0  0  0  0  0  0  0  0
  152.0770  144.3212  160.5158 O   0  0  0  0  0  0  0  0  0  0  0  0
  153.1248  143.4889  160.0261 C   0  0  0  0  0  0  0  0  0  0  0  0
  152.5216  142.3200  159.2283 C   0  0  0  0  0  0  0  0  0  0  0  0
  150.1121  142.0945  156.5159 N   0  3  0  0  0  0  0  0  0  0  0  0
  149.5629  141.1772  155.6890 C   0  0  0  0  0  0  0  0  0  0  0  0
  147.3439  136.9049  152.9212 H   0  0  0  0  0  0  0  0  0  0  0  0
  146.1327  138.1032  153.0331 H   0  0  0  0  0  0  0  0  0  0  0  0
  149.7746  137.8358  155.0691 H   0  0  0  0  0  0  0  0  0  0  0  0
  149.9205  138.9360  153.7323 H   0  0  0  0  0  0  0  0  0  0  0  0
  151.6305  138.5574  156.4589 H   0  0  0  0  0  0  0  0  0  0  0  0
  152.5776  140.3014  157.9440 H   0  0  0  0  0  0  0  0  0  0  0  0
  150.0877  144.1582  157.8093 H   0  0  0  0  0  0  0  0  0  0  0  0
  149.9363  143.2019  159.2752 H   0  0  0  0  0  0  0  0  0  0  0  0
  151.9239  145.5039  158.8233 H   0  0  0  0  0  0  0  0  0  0  0  0
  150.5304  145.5239  159.8882 H   0  0  0  0  0  0  0  0  0  0  0  0
  153.8084  144.0725  159.4074 H   0  0  0  0  0  0  0  0  0  0  0  0
  153.7024  143.1104  160.8692 H   0  0  0  0  0  0  0  0  0  0  0  0
  151.9373  141.6828  159.8937 H   0  0  0  0  0  0  0  0  0  0  0  0
  153.3163  141.7040  158.8057 H   0  0  0  0  0  0  0  0  0  0  0  0
  148.7181  141.5227  155.1088 H   0  0  0  0  0  0  0  0  0  0  0  0
  149.7066  143.0301  156.5366 H   0  0  0  0  0  0  0  0  0  0  0  0
  1  2  1  0  0  0  0
  1 19  1  0  0  0  0
  1 20  1  0  0  0  0
  2  3  2  0  0  0  0
  2  4  2  0  0  0  0
  2  5  1  0  0  0  0
  5  6  1  0  0  0  0
  6  7  1  0  0  0  0
  6 21  1  0  0  0  0
  6 22  1  0  0  0  0
  7 18  1  0  0  0  0
  7  8  2  0  0  0  0
  8  9  1  0  0  0  0
  8 23  1  0  0  0  0
  9 10  2  0  0  0  0
  9 24  1  0  0  0  0
 10 11  1  0  0  0  0
 10 17  1  0  0  0  0
 11 16  1  0  0  0  0
 11 12  1  0  0  0  0
 12 13  1  0  0  0  0
 12 25  1  0  0  0  0
 12 26  1  0  0  0  0
 13 14  1  0  0  0  0
 13 27  1  0  0  0  0
 13 28  1  0  0  0  0
 14 15  1  0  0  0  0
 15 16  1  0  0  0  0
 15 29  1  0  0  0  0
 15 30  1  0  0  0  0
 16 31  1  0  0  0  0
 16 32  1  0  0  0  0
 17 18  2  0  0  0  0
 17 34  1  0  0  0  0
 18 33  1  0  0  0  0
M  CHG  1   5  -1
M  CHG  1  17   1
M  END
> <s_m_source_file>
AV-unprocessed.smi

> <i_m_source_file_index>
1507

> <i_lp_mmshare_version>
43012

> <i_f3d_flags>
0

> <s_epik_input>
W05IMl1TKD1PKSg9TylbTkhdW0NIMl1jMVtjSF1bY0hdYyhuW2NIXTEpTjJbQ0gyXVtDSDJdT1tDSDJdW0NIMl0y

> <s_epik_cmdline>
J2VwaWtfcHl0aG9uJywgJy1waCcsICc3LjAnLCAnLXRuJywgJzgnLCAnLW1hJywgJzIwMCcsICctbWV0YWxfYmluZGluZycsICctaW1hZScsICc8aW5maWxlLm1hZT4nLCAnLW9tYWUnLCAnPG91dGZpbGUubWFlPic=

> <r_epik_Ionization_Penalty>
1.53449

> <r_epik_Ionization_Penalty_Charging>
1.53276

> <r_epik_Ionization_Penalty_Neutral>
0.00173209

> <r_epik_State_Penalty>
2.14469

> <r_epik_Charging_Adjusted_Penalty>
3.67745

> <i_epik_Tot_Q>
0

> <i_epik_Tot_abs_Q>
2

> <r_epik_Metal_State_Penalty>
2.50812

> <b_epik_Metal_Only>
0

> <s_lp_Force_Field>
OPLS_2005

> <r_lp_Energy>
19.2824

> <b_lp_Chiralities_Consistent>
1

> <s_lp_Variant>
AV-unprocessed.smi:1507-3

> <Gold.Version>
5.8.1

> <Gold.Id.Protein>
6NUR|6NUR_protein|mol2

> <Gold.PLP.Fitness>
37.6627

> <Gold.PLP.PLP>
-30.9465

> <Gold.PLP.part.hbond>
-2.0000

> <Gold.PLP.part.metal>
0.0000

> <Gold.PLP.part.buried>
-5.6455

> <Gold.PLP.part.nonpolar>
-24.4752

> <Gold.PLP.part.repulsive>
0.5711

> <Gold.PLP.ligand.clash>
0.5333

> <Gold.PLP.ligand.torsion>
1.3935

> <Gold.PLP.Chemscore.Hbond>
3.0000

> <Gold.PLP.Chemscore.CHOScore>
0.0000

> <Gold.PLP.Chemscore.Metal>
0.0000

> <Gold.Chemscore.Hbonds>
donor molecule, donor type, donor heavy atom, donor atom, acceptor molecule, acceptor atom, score
      L1  H     1    19       P1  7948  0.98
      L1  H    17    34       P1  8028  1.79

> <Gold.PLP.Chemscore.Internal.Correction>
1.0365

> <Gold.Rescore>
     Score         DG    S(hbond)    S(metal)    S(lipo)     H(rot)  DE(clash)    DE(int)     intcor
     15.87     -16.53       2.00        0.00      79.23       1.91       0.03       0.64       ----

> <Gold.Chemscore.Fitness>
15.8659

> <Gold.Chemscore.DG>
-16.5335

> <Gold.Chemscore.ZeroCoef>
-5.4800

> <Gold.Chemscore.Hbond>
1.9994

> <Gold.Chemscore.Metal>
0.0000

> <Gold.Chemscore.Lipo>
79.2339

> <Gold.Chemscore.Internal_Hbond>
0.0000

> <Gold.Chemscore.DEClash>
0.0276

> <Gold.Chemscore.DEInternal>
0.6399

> <Gold.Chemscore.Rot>
1.9121

> <Gold.Chemscore.Internal.Correction>
   9.000000E+99

> <Gold.Chemscore.Hbonds>
donor molecule, donor type, donor heavy atom, donor atom, acceptor molecule, acceptor atom, score
      L1  H     1    19       P1  7948  0.92
      L1  H    17    34       P1  8028  0.85

> <Gold.Chemscore.Hbond.Weighted>
-6.6781

> <Gold.Chemscore.Metal.Weighted>
-0.0000

> <Gold.Chemscore.Lipo.Weighted>
-9.2704

> <Gold.Chemscore.Internal_Hbond.Weighted>
0.0000

> <Gold.Chemscore.DEClash.Weighted>
0.0276

> <Gold.Chemscore.DEInternal.Weighted>
0.6399

> <Gold.Chemscore.Rot.Weighted>
4.8950

> <Gold.Chemscore.Internal.Correction.Weighted>
   9.000000E+99

> <Gold.Protein.RotatedTorsions>
[ 6907 6896 6895 6894 ] final  -47.07 input  -60.11 | X-H torsion
[ 7974 7965 7964 7962 ] final  -77.68 input  175.53 | X-H torsion
[ 8008 7997 7996 7995 ] final   38.95 input   59.86 | X-H torsion
[ 10167 10162 10161 10158 ] final  142.62 input  -65.29 | X-H torsion
[ 10718 10713 10712 10709 ] final   58.32 input   66.30 | X-H torsion
[ 10763 10752 10751 10750 ] final  143.08 input  -60.55 | X-H torsion
[ 11005 11000 10999 10996 ] final  143.23 input  -57.11 | X-H torsion

> <Gold.Protein.ActiveResidues>
 VAL166  LYS551  ARG553  GLY616  TRP617  ASP618  TYR619  PRO620  LYS621  CYS622 
 ASP623  PHE694  ASN695  SER759  ASP760  ASP761  ALA762  ILE779  LEU786  VAL792 
 PHE793  MET794  SER795  GLU796  ALA797  LYS798  CYS799  TRP800  GLU811  SER814 

> <Gold.Protein.RotatedAtoms>
  150.9047  134.8461  159.7383 H   0  0  0  0  0  0  0  0  0  0  0  0  # atno 6907 bound_to 6896
  152.4912  134.4450  159.9566 H   0  0  0  0  0  0  0  0  0  0  0  0  # atno 6908 bound_to 6896
  151.4498  133.3581  159.2829 H   0  0  0  0  0  0  0  0  0  0  0  0  # atno 6909 bound_to 6896
  145.5965  140.9418  143.1264 H   0  0  0  0  0  0  0  0  0  0  0  0  # atno 7974 bound_to 7965
  155.2286  140.3336  155.4306 H   0  0  0  0  0  0  0  0  0  0  0  0  # atno 8008 bound_to 7997
  156.2304  140.1848  156.7303 H   0  0  0  0  0  0  0  0  0  0  0  0  # atno 8009 bound_to 7997
  154.5968  140.0629  156.9300 H   0  0  0  0  0  0  0  0  0  0  0  0  # atno 8010 bound_to 7997
  139.4990  144.6095  151.6303 H   0  0  0  0  0  0  0  0  0  0  0  0  # atno 10167 bound_to 10162
  157.5587  130.8819  149.9076 H   0  0  0  0  0  0  0  0  0  0  0  0  # atno 10718 bound_to 10713
  153.9665  135.2955  155.3430 H   0  0  0  0  0  0  0  0  0  0  0  0  # atno 10763 bound_to 10752
  154.7346  135.5052  153.9023 H   0  0  0  0  0  0  0  0  0  0  0  0  # atno 10764 bound_to 10752
  153.0921  135.6710  153.9945 H   0  0  0  0  0  0  0  0  0  0  0  0  # atno 10765 bound_to 10752
  140.0538  134.9241  157.1064 H   0  0  0  0  0  0  0  0  0  0  0  0  # atno 11005 bound_to 11000
  144.7328  139.7673  143.7340 LP  0  0  0  0  0  0  0  0  0  0  0  0  # atno 17320 bound_to 7965
  146.1608  139.4722  142.9989 LP  0  0  0  0  0  0  0  0  0  0  0  0  # atno 17321 bound_to 7965
  140.5766  144.0018  150.6245 LP  0  0  0  0  0  0  0  0  0  0  0  0  # atno 17342 bound_to 10162
  140.3153  143.3171  152.0838 LP  0  0  0  0  0  0  0  0  0  0  0  0  # atno 17343 bound_to 10162
  156.0642  130.3695  150.0915 LP  0  0  0  0  0  0  0  0  0  0  0  0  # atno 17370 bound_to 10713
  156.9081  130.9642  151.3567 LP  0  0  0  0  0  0  0  0  0  0  0  0  # atno 17371 bound_to 10713
  140.3876  134.2219  155.7167 LP  0  0  0  0  0  0  0  0  0  0  0  0  # atno 17394 bound_to 11000
  141.1942  133.8132  157.0765 LP  0  0  0  0  0  0  0  0  0  0  0  0  # atno 17395 bound_to 11000

$$$$
