AV-unprocessed.smi:743|AV-procd|sdf|3565|dock10
  -GOLD-   22720 0563D 1   1.00000     0.00000
 Structure written by MMmdl.
 28 29  0  0  0  0  0  0  0  0  1 V2000
  148.5349  141.0995  153.8555 C   0  0  0  0  0  0  0  0  0  0  0  0
  149.5102  140.9997  154.9201 N   0  0  0  0  0  0  0  0  0  0  0  0
  149.5318  141.6598  156.1292 C   0  0  0  0  0  0  0  0  0  0  0  0
  150.6488  141.2506  156.8049 C   0  0  0  0  0  0  0  0  0  0  0  0
  151.1459  141.6593  158.1721 C   0  0  1  0  0  0  0  0  0  0  0  0
  152.3683  140.9270  158.5191 N   0  0  0  0  0  0  0  0  0  0  0  0
  153.4427  141.4019  159.1743 C   0  0  0  0  0  0  0  0  0  0  0  0
  154.3957  140.6777  159.4526 O   0  0  0  0  0  0  0  0  0  0  0  0
  153.4898  142.8891  159.5532 C   0  0  0  0  0  0  0  0  0  0  0  0
  152.1103  143.5633  159.5357 C   0  0  0  0  0  0  0  0  0  0  0  0
  151.3463  143.1913  158.2600 C   0  0  2  0  0  0  0  0  0  0  0  0
  150.0721  143.8869  158.2323 N   0  0  0  0  0  0  0  0  0  0  0  0
  151.2487  140.3220  155.9057 C   0  0  0  0  0  0  0  0  0  0  0  0
  150.5688  140.1766  154.7803 N   0  0  0  0  0  0  0  0  0  0  0  0
  151.9275  143.5281  157.4002 H   0  0  0  0  0  0  0  0  0  0  0  0
  147.5970  141.4957  154.2459 H   0  0  0  0  0  0  0  0  0  0  0  0
  148.3488  140.1156  153.4231 H   0  0  0  0  0  0  0  0  0  0  0  0
  148.9081  141.7679  153.0792 H   0  0  0  0  0  0  0  0  0  0  0  0
  148.7575  142.3599  156.4074 H   0  0  0  0  0  0  0  0  0  0  0  0
  150.4151  141.3670  158.9280 H   0  0  0  0  0  0  0  0  0  0  0  0
  152.3828  139.9490  158.2681 H   0  0  0  0  0  0  0  0  0  0  0  0
  153.9479  143.0009  160.5365 H   0  0  0  0  0  0  0  0  0  0  0  0
  154.1485  143.3897  158.8427 H   0  0  0  0  0  0  0  0  0  0  0  0
  151.5422  143.2608  160.4171 H   0  0  0  0  0  0  0  0  0  0  0  0
  152.2349  144.6448  159.6023 H   0  0  0  0  0  0  0  0  0  0  0  0
  150.1734  144.7986  158.6549 H   0  0  0  0  0  0  0  0  0  0  0  0
  149.7933  144.0451  157.2745 H   0  0  0  0  0  0  0  0  0  0  0  0
  152.1569  139.7527  156.0384 H   0  0  0  0  0  0  0  0  0  0  0  0
  1  2  1  0  0  0  0
  1 16  1  0  0  0  0
  1 17  1  0  0  0  0
  1 18  1  0  0  0  0
  2 14  1  0  0  0  0
  2  3  1  0  0  0  0
  3  4  2  0  0  0  0
  3 19  1  0  0  0  0
  4  5  1  0  0  0  0
  4 13  1  0  0  0  0
  5 11  1  0  0  0  0
  5  6  1  0  0  0  0
  5 20  1  0  0  0  0
  6  7  1  0  0  0  0
  6 21  1  0  0  0  0
  7  8  2  0  0  0  0
  7  9  1  0  0  0  0
  9 10  1  0  0  0  0
  9 22  1  0  0  0  0
  9 23  1  0  0  0  0
 10 11  1  0  0  0  0
 10 24  1  0  0  0  0
 10 25  1  0  0  0  0
 11 15  1  0  0  0  0
 11 12  1  0  0  0  0
 12 26  1  0  0  0  0
 12 27  1  0  0  0  0
 13 14  2  0  0  0  0
 13 28  1  0  0  0  0
M  END
> <s_m_source_file>
AV-unprocessed.smi

> <i_m_source_file_index>
743

> <i_lp_mmshare_version>
43012

> <i_f3d_flags>
0

> <s_epik_input>
W0NIM11uMVtjSF1jKFtjSF1uMSlbQ0BASF0yW05IXUMoPU8pW0NIMl1bQ0gyXVtDQEBIXTJbTkgyXQ==

> <s_epik_cmdline>
J2VwaWtfcHl0aG9uJywgJy1waCcsICc3LjAnLCAnLXRuJywgJzgnLCAnLW1hJywgJzIwMCcsICctbWV0YWxfYmluZGluZycsICctaW1hZScsICc8aW5maWxlLm1hZT4nLCAnLW9tYWUnLCAnPG91dGZpbGUubWFlPic=

> <r_lp_tautomer_probability>
1

> <r_epik_Ionization_Penalty>
2.50279

> <r_epik_Ionization_Penalty_Charging>
0

> <r_epik_Ionization_Penalty_Neutral>
2.50279

> <r_epik_State_Penalty>
2.66754

> <r_epik_Charging_Adjusted_Penalty>
2.66754

> <i_epik_Tot_Q>
0

> <i_epik_Tot_abs_Q>
0

> <r_epik_Metal_State_Penalty>
2.66721

> <b_epik_Metal_Only>
0

> <s_lp_Force_Field>
OPLS_2005

> <r_lp_Energy>
8.34042

> <b_lp_Chiralities_Consistent>
1

> <s_lp_Variant>
AV-unprocessed.smi:743-6

> <Gold.Version>
5.8.1

> <Gold.Id.Protein>
6NUR|6NUR_protein|mol2

> <Gold.PLP.Fitness>
38.1121

> <Gold.PLP.PLP>
-29.1069

> <Gold.PLP.part.hbond>
-3.2884

> <Gold.PLP.part.metal>
0.0000

> <Gold.PLP.part.buried>
-0.3180

> <Gold.PLP.part.nonpolar>
-24.8349

> <Gold.PLP.part.repulsive>
0.1734

> <Gold.PLP.ligand.clash>
0.0000

> <Gold.PLP.ligand.torsion>
0.0140

> <Gold.PLP.Chemscore.Hbond>
2.1674

> <Gold.PLP.Chemscore.CHOScore>
0.8350

> <Gold.PLP.Chemscore.Metal>
0.0000

> <Gold.Chemscore.Hbonds>
donor molecule, donor type, donor heavy atom, donor atom, acceptor molecule, acceptor atom, score
      L1  H    12    27       P1  8028  1.00
      P1  H  7989  7998       L1    14  1.00
      P1  H  7997  8009       L1     8  0.21
      L1  C     3    19       P1  8028  0.81

> <Gold.PLP.Chemscore.Internal.Correction>
0.0260

> <Gold.Rescore>
     Score         DG    S(hbond)    S(metal)    S(lipo)     H(rot)  DE(clash)    DE(int)     intcor
     15.13     -15.43       1.32        0.00      69.19       1.00       0.13       0.17       ----

> <Gold.Chemscore.Fitness>
15.1267

> <Gold.Chemscore.DG>
-15.4266

> <Gold.Chemscore.ZeroCoef>
-5.4800

> <Gold.Chemscore.Hbond>
1.3209

> <Gold.Chemscore.Metal>
0.0000

> <Gold.Chemscore.Lipo>
69.1857

> <Gold.Chemscore.Internal_Hbond>
0.0000

> <Gold.Chemscore.DEClash>
0.1285

> <Gold.Chemscore.DEInternal>
0.1714

> <Gold.Chemscore.Rot>
1.0000

> <Gold.Chemscore.Internal.Correction>
   9.000000E+99

> <Gold.Chemscore.Hbonds>
donor molecule, donor type, donor heavy atom, donor atom, acceptor molecule, acceptor atom, score
      L1  H    12    27       P1  8028  0.64
      P1  H  7989  7998       L1    14  0.30
      P1  H  7997  8009       L1     8  0.07

> <Gold.Chemscore.Hbond.Weighted>
-4.4119

> <Gold.Chemscore.Metal.Weighted>
-0.0000

> <Gold.Chemscore.Lipo.Weighted>
-8.0947

> <Gold.Chemscore.Internal_Hbond.Weighted>
0.0000

> <Gold.Chemscore.DEClash.Weighted>
0.1285

> <Gold.Chemscore.DEInternal.Weighted>
0.1714

> <Gold.Chemscore.Rot.Weighted>
2.5600

> <Gold.Chemscore.Internal.Correction.Weighted>
   9.000000E+99

> <Gold.Protein.RotatedTorsions>
[ 6907 6896 6895 6894 ] final   -4.28 input  -60.11 | X-H torsion
[ 7974 7965 7964 7962 ] final  -46.15 input  175.53 | X-H torsion
[ 8008 7997 7996 7995 ] final  120.32 input   59.86 | X-H torsion
[ 10167 10162 10161 10158 ] final  -92.16 input  -65.29 | X-H torsion
[ 10718 10713 10712 10709 ] final -170.66 input   66.30 | X-H torsion
[ 10763 10752 10751 10750 ] final -109.49 input  -60.55 | X-H torsion
[ 11005 11000 10999 10996 ] final  -87.65 input  -57.11 | X-H torsion

> <Gold.Protein.ActiveResidues>
 VAL166  LYS551  ARG553  GLY616  TRP617  ASP618  TYR619  PRO620  LYS621  CYS622 
 ASP623  PHE694  ASN695  SER759  ASP760  ASP761  ALA762  ILE779  LEU786  VAL792 
 PHE793  MET794  SER795  GLU796  ALA797  LYS798  CYS799  TRP800  GLU811  SER814 

> <Gold.Protein.RotatedAtoms>
  151.5002  135.1061  159.9826 H   0  0  0  0  0  0  0  0  0  0  0  0  # atno 6907 bound_to 6896
  152.4705  133.8015  159.6966 H   0  0  0  0  0  0  0  0  0  0  0  0  # atno 6908 bound_to 6896
  150.8711  133.7441  159.2987 H   0  0  0  0  0  0  0  0  0  0  0  0  # atno 6909 bound_to 6896
  145.9748  140.7345  142.9392 H   0  0  0  0  0  0  0  0  0  0  0  0  # atno 7974 bound_to 7965
  156.2637  140.2833  156.1131 H   0  0  0  0  0  0  0  0  0  0  0  0  # atno 8008 bound_to 7997
  155.1236  140.0392  157.2774 H   0  0  0  0  0  0  0  0  0  0  0  0  # atno 8009 bound_to 7997
  154.6652  140.2575  155.7072 H   0  0  0  0  0  0  0  0  0  0  0  0  # atno 8010 bound_to 7997
  140.3376  143.2960  151.9872 H   0  0  0  0  0  0  0  0  0  0  0  0  # atno 10167 bound_to 10162
  156.7295  130.9301  151.3103 H   0  0  0  0  0  0  0  0  0  0  0  0  # atno 10718 bound_to 10713
  154.8196  135.4599  154.0741 H   0  0  0  0  0  0  0  0  0  0  0  0  # atno 10763 bound_to 10752
  153.2105  135.6881  153.8126 H   0  0  0  0  0  0  0  0  0  0  0  0  # atno 10764 bound_to 10752
  153.7579  135.3288  155.3309 H   0  0  0  0  0  0  0  0  0  0  0  0  # atno 10765 bound_to 10752
  141.1613  133.7524  156.9338 H   0  0  0  0  0  0  0  0  0  0  0  0  # atno 11005 bound_to 11000
  144.6846  140.2810  143.7292 LP  0  0  0  0  0  0  0  0  0  0  0  0  # atno 17320 bound_to 7965
  145.7854  139.1907  143.2134 LP  0  0  0  0  0  0  0  0  0  0  0  0  # atno 17321 bound_to 7965
  139.4846  144.6183  151.7303 LP  0  0  0  0  0  0  0  0  0  0  0  0  # atno 17342 bound_to 10162
  140.5339  144.0687  150.6063 LP  0  0  0  0  0  0  0  0  0  0  0  0  # atno 17343 bound_to 10162
  157.6865  130.9190  150.0399 LP  0  0  0  0  0  0  0  0  0  0  0  0  # atno 17370 bound_to 10713
  156.1539  130.3643  149.9398 LP  0  0  0  0  0  0  0  0  0  0  0  0  # atno 17371 bound_to 10713
  140.1368  134.9320  157.2413 LP  0  0  0  0  0  0  0  0  0  0  0  0  # atno 17394 bound_to 11000
  140.2885  134.3268  155.7322 LP  0  0  0  0  0  0  0  0  0  0  0  0  # atno 17395 bound_to 11000

$$$$
