#       Name:                AV-unprocessed.smi:3002
#       Creating user name   scv26
#       Creation time:       Fri Mar 27 16:36:12 2020


#       File generated by GOLD software.
#

@<TRIPOS>MOLECULE
AV-unprocessed.smi:3002
    38    39     1
SMALL
NO_CHARGES


@<TRIPOS>ATOM
      1 ****        -2.9618  -2.3542  -1.9243 C.3            1 S1                 0.0000
      2 ****        -2.2670  -1.4836  -0.8538 C.3            1 S1                 0.0000
      3 ****        -0.7560  -1.3903  -1.1229 C.2            1 S1                 0.0000
      4 ****        -0.1176  -2.3890  -1.4561 O.2            1 S1                 0.0000
      5 ****        -0.1946  -0.1833  -0.9599 N.am           1 S1                 0.0000
      6 ****         1.2246   0.1010  -1.1261 C.3            1 S1                 0.0000
      7 ****         1.5921   1.4547  -0.4957 C.3            1 S1                 0.0000
      8 ****         3.0793   1.8085  -0.6895 C.3            1 S1                 0.0000
      9 ****         3.4115   3.0174   0.1901 C.3            1 S1                 0.0000
     10 ****         2.3898   2.8220   1.6971 S.o2           1 S1                 0.0000
     11 ****         3.2044   2.2279   2.7678 O.2            1 S1                 0.0000
     12 ****         1.6269   4.0588   1.9232 O.2            1 S1                 0.0000
     13 ****         1.2816   1.5322   1.0103 C.3            1 S1                 0.0000
     14 ****        -2.5222  -1.9326   0.5177 N.pl3          1 S1                 0.0000
     15 ****        -1.9636  -1.5525   1.6729 C.2            1 S1                 0.0000
     16 ****        -2.4927  -2.1215   2.7465 N.2            1 S1                 0.0000
     17 ****        -3.4575  -2.8795   2.1484 C.2            1 S1                 0.0000
     18 ****        -3.5329  -2.7868   0.8212 N.2            1 S1                 0.0000
     19 ****        -2.6913  -2.0345  -2.9314 H              1 S1                 0.0000
     20 ****        -4.0471  -2.2816  -1.8476 H              1 S1                 0.0000
     21 ****        -2.6911  -3.4066  -1.8277 H              1 S1                 0.0000
     22 ****        -2.6825  -0.4776  -0.9338 H              1 S1                 0.0000
     23 ****        -0.7882   0.5871  -0.6879 H              1 S1                 0.0000
     24 ****         1.8197  -0.6934  -0.6719 H              1 S1                 0.0000
     25 ****         1.4595   0.1069  -2.1913 H              1 S1                 0.0000
     26 ****         1.0107   2.2348  -0.9900 H              1 S1                 0.0000
     27 ****         3.6942   0.9644  -0.3739 H              1 S1                 0.0000
     28 ****         3.3163   2.0014  -1.7362 H              1 S1                 0.0000
     29 ****         4.4676   3.0812   0.4527 H              1 S1                 0.0000
     30 ****         3.1157   3.9448  -0.3009 H              1 S1                 0.0000
     31 ****         0.2415   1.7829   1.2193 H              1 S1                 0.0000
     32 ****         1.5174   0.5917   1.5097 H              1 S1                 0.0000
     33 ****        -1.1537  -0.8403   1.7342 H              1 S1                 0.0000
     34 ****        -4.1331  -3.5092   2.7086 H              1 S1                 0.0000
     35 ****        -0.5816  -3.2695  -1.5536 LP             1 S1                 0.0000
     36 ****         0.8649  -2.3197  -1.6292 LP             1 S1                 0.0000
     37 ****        -2.2546  -2.0240   3.7129 LP             1 S1                 0.0000
     38 ****        -4.1760  -3.2361   0.2011 LP             1 S1                 0.0000
@<TRIPOS>BOND
    1    1    2 1     
    2    1   19 1     
    3    1   20 1     
    4    1   21 1     
    5    2    3 1     
    6    2   14 1     
    7    2   22 1     
    8    3    4 2     
    9    3    5 am    
   10    5    6 1     
   11    5   23 1     
   12    6    7 1     
   13    6   24 1     
   14    6   25 1     
   15    7   13 1     
   16    7    8 1     
   17    7   26 1     
   18    8    9 1     
   19    8   27 1     
   20    8   28 1     
   21    9   10 1     
   22    9   29 1     
   23    9   30 1     
   24   10   11 2     
   25   10   12 2     
   26   10   13 1     
   27   13   31 1     
   28   13   32 1     
   29   14   18 1     
   30   14   15 1     
   31   15   16 2     
   32   15   33 1     
   33   16   17 1     
   34   17   18 2     
   35   17   34 1     
   36    4   35 1     
   37    4   36 1     
   38   16   37 1     
   39   18   38 1     
@<TRIPOS>SUBSTRUCTURE
      1 S1             1
@<TRIPOS>SET
LONE_PAIRS      STATIC     ATOMS    <user>   **** ""
6 35 36 11 12 37 38
DONOR_HYDROGENS      STATIC     ATOMS    <user>   **** ""
1 23
ATOM$BLUE        STATIC     ATOMS    COLORGROUP SYSTEM
6 35 36 11 12 37 38
ATOM$RED        STATIC     ATOMS    COLORGROUP SYSTEM
1 23
