AV-unprocessed.smi:495|AV-procd|sdf|2714|dock3
  -GOLD-   2262023163D 1   1.00000     0.00000
 Structure written by MMmdl.
 35 37  0  0  0  0  0  0  0  0  2 V2000
  147.8611  138.6049  152.8035 N   0  0  0  0  0  0  0  0  0  0  0  0
  148.5046  139.3308  153.8039 C   0  0  0  0  0  0  0  0  0  0  0  0
  149.6151  138.7819  154.4736 C   0  0  0  0  0  0  0  0  0  0  0  0
  150.2634  139.5185  155.4840 C   0  0  0  0  0  0  0  0  0  0  0  0
  149.8103  140.8065  155.8430 C   0  0  0  0  0  0  0  0  0  0  0  0
  150.4977  141.5672  156.8975 C   0  0  0  0  0  0  0  0  0  0  0  0
  150.6280  142.9210  156.9135 N   0  3  0  0  0  0  0  0  0  0  0  0
  151.3475  143.2927  158.0512 C   0  0  0  0  0  0  0  0  0  0  0  0
  151.7324  144.5478  158.5129 C   0  0  0  0  0  0  0  0  0  0  0  0
  152.4721  144.5817  159.7133 C   0  0  0  0  0  0  0  0  0  0  0  0
  152.8043  143.3990  160.4053 C   0  0  0  0  0  0  0  0  0  0  0  0
  152.4101  142.1313  159.9288 C   0  0  0  0  0  0  0  0  0  0  0  0
  151.6744  142.1046  158.7442 C   0  0  0  0  0  0  0  0  0  0  0  0
  151.1272  141.0562  157.9932 N   0  0  0  0  0  0  0  0  0  0  0  0
  151.3285  139.6708  158.4417 C   0  0  0  0  0  0  0  0  0  0  0  0
  152.7846  139.2223  158.2588 C   0  0  0  0  0  0  0  0  0  0  0  0
  153.0737  139.1024  156.8838 O   0  0  0  0  0  0  0  0  0  0  0  0
  148.7000  141.3491  155.1599 C   0  0  0  0  0  0  0  0  0  0  0  0
  148.0484  140.6178  154.1479 C   0  0  0  0  0  0  0  0  0  0  0  0
  147.0641  138.9796  152.3091 H   0  0  0  0  0  0  0  0  0  0  0  0
  148.2218  137.7182  152.4811 H   0  0  0  0  0  0  0  0  0  0  0  0
  149.9740  137.7959  154.2164 H   0  0  0  0  0  0  0  0  0  0  0  0
  151.1129  139.0853  155.9916 H   0  0  0  0  0  0  0  0  0  0  0  0
  151.4820  145.4557  157.9839 H   0  0  0  0  0  0  0  0  0  0  0  0
  152.7929  145.5340  160.1103 H   0  0  0  0  0  0  0  0  0  0  0  0
  153.3741  143.4648  161.3210 H   0  0  0  0  0  0  0  0  0  0  0  0
  152.6732  141.2324  160.4666 H   0  0  0  0  0  0  0  0  0  0  0  0
  151.0155  139.5869  159.4828 H   0  0  0  0  0  0  0  0  0  0  0  0
  150.6631  139.0249  157.8706 H   0  0  0  0  0  0  0  0  0  0  0  0
  153.4684  139.9454  158.7049 H   0  0  0  0  0  0  0  0  0  0  0  0
  152.9608  138.2617  158.7434 H   0  0  0  0  0  0  0  0  0  0  0  0
  152.6198  138.3457  156.5447 H   0  0  0  0  0  0  0  0  0  0  0  0
  148.3444  142.3382  155.4087 H   0  0  0  0  0  0  0  0  0  0  0  0
  147.2000  141.0501  153.6373 H   0  0  0  0  0  0  0  0  0  0  0  0
  150.2511  143.5378  156.2055 H   0  0  0  0  0  0  0  0  0  0  0  0
  1  2  1  0  0  0  0
  1 20  1  0  0  0  0
  1 21  1  0  0  0  0
  2 19  1  0  0  0  0
  2  3  2  0  0  0  0
  3  4  1  0  0  0  0
  3 22  1  0  0  0  0
  4  5  2  0  0  0  0
  4 23  1  0  0  0  0
  5  6  1  0  0  0  0
  5 18  1  0  0  0  0
  6 14  1  0  0  0  0
  6  7  2  0  0  0  0
  7  8  1  0  0  0  0
  7 35  1  0  0  0  0
  8 13  2  0  0  0  0
  8  9  1  0  0  0  0
  9 10  2  0  0  0  0
  9 24  1  0  0  0  0
 10 11  1  0  0  0  0
 10 25  1  0  0  0  0
 11 12  2  0  0  0  0
 11 26  1  0  0  0  0
 12 13  1  0  0  0  0
 12 27  1  0  0  0  0
 13 14  1  0  0  0  0
 14 15  1  0  0  0  0
 15 16  1  0  0  0  0
 15 28  1  0  0  0  0
 15 29  1  0  0  0  0
 16 17  1  0  0  0  0
 16 30  1  0  0  0  0
 16 31  1  0  0  0  0
 17 32  1  0  0  0  0
 18 19  2  0  0  0  0
 18 33  1  0  0  0  0
 19 34  1  0  0  0  0
M  CHG  1   7   1
M  END
> <s_m_source_file>
AV-unprocessed.smi

> <i_m_source_file_index>
495

> <i_lp_mmshare_version>
43012

> <i_f3d_flags>
0

> <s_epik_input>
W05IMl1jMVtjSF1bY0hdYyhbY0hdW2NIXTEpLWMobjIpbihbQ0gyXVtDSDJdW09IXSljKGMyMylbY0hdW2NIXVtjSF1bY0hdMw==

> <s_epik_cmdline>
J2VwaWtfcHl0aG9uJywgJy1waCcsICc3LjAnLCAnLXRuJywgJzgnLCAnLW1hJywgJzIwMCcsICctbWV0YWxfYmluZGluZycsICctaW1hZScsICc8aW5maWxlLm1hZT4nLCAnLW9tYWUnLCAnPG91dGZpbGUubWFlPic=

> <r_epik_Ionization_Penalty>
0.309176

> <r_epik_Ionization_Penalty_Charging>
0.30902

> <r_epik_Ionization_Penalty_Neutral>
0.000156086

> <r_epik_State_Penalty>
0.184773

> <r_epik_Charging_Adjusted_Penalty>
0.493792

> <i_epik_Tot_Q>
1

> <i_epik_Tot_abs_Q>
1

> <r_epik_Metal_State_Penalty>
3.49751

> <b_epik_Metal_Only>
0

> <s_lp_Force_Field>
OPLS_2005

> <r_lp_Energy>
21.3699

> <b_lp_Chiralities_Consistent>
1

> <s_lp_Variant>
AV-unprocessed.smi:495-1

> <Gold.Version>
5.8.1

> <Gold.Id.Protein>
6NUR|6NUR_protein|mol2

> <Gold.PLP.Fitness>
54.0102

> <Gold.PLP.PLP>
-43.3766

> <Gold.PLP.part.hbond>
-3.9022

> <Gold.PLP.part.metal>
0.0000

> <Gold.PLP.part.buried>
-3.1847

> <Gold.PLP.part.nonpolar>
-37.3409

> <Gold.PLP.part.repulsive>
0.1037

> <Gold.PLP.ligand.clash>
0.0000

> <Gold.PLP.ligand.torsion>
0.5695

> <Gold.PLP.Chemscore.Hbond>
3.9200

> <Gold.PLP.Chemscore.CHOScore>
0.0000

> <Gold.PLP.Chemscore.Metal>
0.0000

> <Gold.Chemscore.Hbonds>
donor molecule, donor type, donor heavy atom, donor atom, acceptor molecule, acceptor atom, score
      L1  H     1    21       P1  7948  1.00
      L1  H     7    35       P1  8028  1.95
      P1  H  7997  8008       L1    17  1.00

> <Gold.PLP.Chemscore.Internal.Correction>
0.0126

> <Gold.Rescore>
     Score         DG    S(hbond)    S(metal)    S(lipo)     H(rot)  DE(clash)    DE(int)     intcor
     23.37     -23.89       2.92        0.00     112.95       1.78       0.08       0.45       ----

> <Gold.Chemscore.Fitness>
23.3654

> <Gold.Chemscore.DG>
-23.8903

> <Gold.Chemscore.ZeroCoef>
-5.4800

> <Gold.Chemscore.Hbond>
2.9237

> <Gold.Chemscore.Metal>
0.0000

> <Gold.Chemscore.Lipo>
112.9451

> <Gold.Chemscore.Internal_Hbond>
0.0000

> <Gold.Chemscore.DEClash>
0.0756

> <Gold.Chemscore.DEInternal>
0.4493

> <Gold.Chemscore.Rot>
1.7849

> <Gold.Chemscore.Internal.Correction>
   9.000000E+99

> <Gold.Chemscore.Hbonds>
donor molecule, donor type, donor heavy atom, donor atom, acceptor molecule, acceptor atom, score
      L1  H     1    21       P1  7948  1.00
      L1  H     7    35       P1  8028  0.93
      P1  H  7997  8008       L1    17  0.85

> <Gold.Chemscore.Hbond.Weighted>
-9.7651

> <Gold.Chemscore.Metal.Weighted>
-0.0000

> <Gold.Chemscore.Lipo.Weighted>
-13.2146

> <Gold.Chemscore.Internal_Hbond.Weighted>
0.0000

> <Gold.Chemscore.DEClash.Weighted>
0.0756

> <Gold.Chemscore.DEInternal.Weighted>
0.4493

> <Gold.Chemscore.Rot.Weighted>
4.5694

> <Gold.Chemscore.Internal.Correction.Weighted>
   9.000000E+99

> <Gold.Protein.RotatedTorsions>
[ 6907 6896 6895 6894 ] final -172.68 input  -60.11 | X-H torsion
[ 7974 7965 7964 7962 ] final -135.57 input  175.53 | X-H torsion
[ 8008 7997 7996 7995 ] final  -42.52 input   59.86 | X-H torsion
[ 10167 10162 10161 10158 ] final -166.37 input  -65.29 | X-H torsion
[ 10718 10713 10712 10709 ] final -120.51 input   66.30 | X-H torsion
[ 10763 10752 10751 10750 ] final  -14.47 input  -60.55 | X-H torsion
[ 11005 11000 10999 10996 ] final  -35.55 input  -57.11 | X-H torsion

> <Gold.Protein.ActiveResidues>
 VAL166  LYS551  ARG553  GLY616  TRP617  ASP618  TYR619  PRO620  LYS621  CYS622 
 ASP623  PHE694  ASN695  SER759  ASP760  ASP761  ALA762  ILE779  LEU786  VAL792 
 PHE793  MET794  SER795  GLU796  ALA797  LYS798  CYS799  TRP800  GLU811  SER814 

> <Gold.Protein.RotatedAtoms>
  151.5439  133.3428  159.2940 H   0  0  0  0  0  0  0  0  0  0  0  0  # atno 6907 bound_to 6896
  150.8519  134.7849  159.7026 H   0  0  0  0  0  0  0  0  0  0  0  0  # atno 6908 bound_to 6896
  152.4563  134.5293  159.9858 H   0  0  0  0  0  0  0  0  0  0  0  0  # atno 6909 bound_to 6896
  144.9002  140.6761  143.5090 H   0  0  0  0  0  0  0  0  0  0  0  0  # atno 7974 bound_to 7965
  154.3999  140.1471  156.3369 H   0  0  0  0  0  0  0  0  0  0  0  0  # atno 8008 bound_to 7997
  155.8392  140.3462  155.5600 H   0  0  0  0  0  0  0  0  0  0  0  0  # atno 8009 bound_to 7997
  155.8105  140.0883  157.1897 H   0  0  0  0  0  0  0  0  0  0  0  0  # atno 8010 bound_to 7997
  139.6119  144.0797  152.1850 H   0  0  0  0  0  0  0  0  0  0  0  0  # atno 10167 bound_to 10162
  156.1264  130.6362  150.9549 H   0  0  0  0  0  0  0  0  0  0  0  0  # atno 10718 bound_to 10713
  153.5288  135.7015  153.5694 H   0  0  0  0  0  0  0  0  0  0  0  0  # atno 10763 bound_to 10752
  153.3710  135.3945  155.1788 H   0  0  0  0  0  0  0  0  0  0  0  0  # atno 10764 bound_to 10752
  154.8687  135.3812  154.4783 H   0  0  0  0  0  0  0  0  0  0  0  0  # atno 10765 bound_to 10752
  140.9805  133.7059  156.1675 H   0  0  0  0  0  0  0  0  0  0  0  0  # atno 11005 bound_to 11000
  145.3629  139.1677  143.4373 LP  0  0  0  0  0  0  0  0  0  0  0  0  # atno 17320 bound_to 7965
  146.3104  140.3693  142.8672 LP  0  0  0  0  0  0  0  0  0  0  0  0  # atno 17321 bound_to 7965
  140.0418  144.6001  150.7405 LP  0  0  0  0  0  0  0  0  0  0  0  0  # atno 17342 bound_to 10162
  140.7325  143.2706  151.3901 LP  0  0  0  0  0  0  0  0  0  0  0  0  # atno 17343 bound_to 10162
  157.6445  131.0906  150.8183 LP  0  0  0  0  0  0  0  0  0  0  0  0  # atno 17370 bound_to 10713
  156.8273  130.5004  149.5336 LP  0  0  0  0  0  0  0  0  0  0  0  0  # atno 17371 bound_to 10713
  140.7194  134.4375  157.5576 LP  0  0  0  0  0  0  0  0  0  0  0  0  # atno 17394 bound_to 11000
  139.8948  134.8698  156.2160 LP  0  0  0  0  0  0  0  0  0  0  0  0  # atno 17395 bound_to 11000

$$$$
