AV-unprocessed.smi:438|AV-procd|sdf|2573|dock2
  -GOLD-   2262022553D 1   1.00000     0.00000
 Structure written by MMmdl.
 47 48  0  0  0  0  0  0  0  0  2 V2000
  148.3017  133.5632  158.3756 C   0  0  0  0  0  0  0  0  0  0  0  0
  148.4408  134.9954  158.8602 C   0  0  0  0  0  0  0  0  0  0  0  0
  149.2972  135.8154  158.1069 N   0  0  0  0  0  0  0  0  0  0  0  0
  149.4710  137.0336  158.4540 C   0  0  0  0  0  0  0  0  0  0  0  0
  150.5742  138.0848  157.4935 S   0  0  0  0  0  0  0  0  0  0  0  0
  150.4509  139.7043  158.3121 C   0  0  0  0  0  0  0  0  0  0  0  0
  151.7868  140.4402  158.3637 C   0  0  0  0  0  0  0  0  0  0  0  0
  152.7718  139.9780  157.7885 O   0  0  0  0  0  0  0  0  0  0  0  0
  151.8078  141.5789  159.0731 N   0  0  0  0  0  0  0  0  0  0  0  0
  152.9666  142.4505  159.2643 C   0  0  2  0  0  0  0  0  0  0  0  0
  153.6066  142.2156  160.6496 C   0  0  0  0  0  0  0  0  0  0  0  0
  152.7144  142.7244  161.7950 C   0  0  0  0  0  0  0  0  0  0  0  0
  152.3453  144.2023  161.5984 C   0  0  0  0  0  0  0  0  0  0  0  0
  151.6862  144.4377  160.2301 C   0  0  0  0  0  0  0  0  0  0  0  0
  152.5791  143.9383  159.0750 C   0  0  2  0  0  0  0  0  0  0  0  0
  151.9374  144.2174  157.7045 C   0  0  0  0  0  0  0  0  0  0  0  0
  148.8614  137.6157  159.5412 N   0  5  0  0  0  0  0  0  0  0  0  0
  148.0164  136.8855  160.3241 C   0  0  0  0  0  0  0  0  0  0  0  0
  147.4551  137.3665  161.3077 O   0  0  0  0  0  0  0  0  0  0  0  0
  147.7914  135.4757  159.9588 C   0  0  0  0  0  0  0  0  0  0  0  0
  146.8389  134.6369  160.8075 C   0  0  0  0  0  0  0  0  0  0  0  0
  147.5377  133.4193  161.4298 C   0  0  0  0  0  0  0  0  0  0  0  0
  146.5741  132.4978  161.8925 O   0  0  0  0  0  0  0  0  0  0  0  0
  148.4973  132.8618  159.1871 H   0  0  0  0  0  0  0  0  0  0  0  0
  149.0061  133.3483  157.5711 H   0  0  0  0  0  0  0  0  0  0  0  0
  147.2951  133.3868  157.9966 H   0  0  0  0  0  0  0  0  0  0  0  0
  150.0651  139.5662  159.3229 H   0  0  0  0  0  0  0  0  0  0  0  0
  149.7356  140.3280  157.7748 H   0  0  0  0  0  0  0  0  0  0  0  0
  150.9455  141.8734  159.5087 H   0  0  0  0  0  0  0  0  0  0  0  0
  153.7077  142.2026  158.5021 H   0  0  0  0  0  0  0  0  0  0  0  0
  153.8298  141.1577  160.7926 H   0  0  0  0  0  0  0  0  0  0  0  0
  154.5662  142.7325  160.6908 H   0  0  0  0  0  0  0  0  0  0  0  0
  151.8053  142.1238  161.8495 H   0  0  0  0  0  0  0  0  0  0  0  0
  153.2259  142.5940  162.7490 H   0  0  0  0  0  0  0  0  0  0  0  0
  151.6743  144.5263  162.3944 H   0  0  0  0  0  0  0  0  0  0  0  0
  153.2425  144.8169  161.6817 H   0  0  0  0  0  0  0  0  0  0  0  0
  150.7197  143.9330  160.1997 H   0  0  0  0  0  0  0  0  0  0  0  0
  151.4789  145.5012  160.1063 H   0  0  0  0  0  0  0  0  0  0  0  0
  153.5038  144.5162  159.1111 H   0  0  0  0  0  0  0  0  0  0  0  0
  150.9722  143.7209  157.6002 H   0  0  0  0  0  0  0  0  0  0  0  0
  152.5791  143.8716  156.8937 H   0  0  0  0  0  0  0  0  0  0  0  0
  151.7733  145.2857  157.5608 H   0  0  0  0  0  0  0  0  0  0  0  0
  145.9963  134.3037  160.2024 H   0  0  0  0  0  0  0  0  0  0  0  0
  146.3994  135.2599  161.5880 H   0  0  0  0  0  0  0  0  0  0  0  0
  148.1769  132.9262  160.6967 H   0  0  0  0  0  0  0  0  0  0  0  0
  148.1705  133.7195  162.2653 H   0  0  0  0  0  0  0  0  0  0  0  0
  146.0045  132.2741  161.1725 H   0  0  0  0  0  0  0  0  0  0  0  0
  1 24  1  0  0  0  0
  1 25  1  0  0  0  0
  1 26  1  0  0  0  0
  1  2  1  0  0  0  0
  2 20  2  0  0  0  0
  2  3  1  0  0  0  0
  3  4  2  0  0  0  0
  4  5  1  0  0  0  0
  4 17  1  0  0  0  0
  5  6  1  0  0  0  0
  6  7  1  0  0  0  0
  6 27  1  0  0  0  0
  6 28  1  0  0  0  0
  7  8  2  0  0  0  0
  7  9  1  0  0  0  0
  9 10  1  0  0  0  0
  9 29  1  0  0  0  0
 10 15  1  0  0  0  0
 10 11  1  0  0  0  0
 10 30  1  0  0  0  0
 11 12  1  0  0  0  0
 11 31  1  0  0  0  0
 11 32  1  0  0  0  0
 12 13  1  0  0  0  0
 12 33  1  0  0  0  0
 12 34  1  0  0  0  0
 13 14  1  0  0  0  0
 13 35  1  0  0  0  0
 13 36  1  0  0  0  0
 14 15  1  0  0  0  0
 14 37  1  0  0  0  0
 14 38  1  0  0  0  0
 15 16  1  0  0  0  0
 15 39  1  0  0  0  0
 16 40  1  0  0  0  0
 16 41  1  0  0  0  0
 16 42  1  0  0  0  0
 17 18  1  0  0  0  0
 18 19  2  0  0  0  0
 18 20  1  0  0  0  0
 20 21  1  0  0  0  0
 21 22  1  0  0  0  0
 21 43  1  0  0  0  0
 21 44  1  0  0  0  0
 22 23  1  0  0  0  0
 22 45  1  0  0  0  0
 22 46  1  0  0  0  0
 23 47  1  0  0  0  0
M  CHG  1  17  -1
M  END
> <s_m_source_file>
AV-unprocessed.smi

> <i_m_source_file_index>
438

> <i_lp_mmshare_version>
43012

> <i_f3d_flags>
0

> <s_epik_input>
W09IXVtDSDJdW0NIMl1jMWMoW09IXSluYyhuYzFbQ0gzXSlTW0NIMl1DKD1PKVtOSF1bQ0BASF0yW0NIMl1bQ0gyXVtDSDJdW0NIMl1bQ0BIXTJbQ0gzXQ==

> <s_epik_cmdline>
J2VwaWtfcHl0aG9uJywgJy1waCcsICc3LjAnLCAnLXRuJywgJzgnLCAnLW1hJywgJzIwMCcsICctbWV0YWxfYmluZGluZycsICctaW1hZScsICc8aW5maWxlLm1hZT4nLCAnLW9tYWUnLCAnPG91dGZpbGUubWFlPic=

> <r_lp_tautomer_probability>
1

> <r_epik_Ionization_Penalty>
3.69231

> <r_epik_Ionization_Penalty_Charging>
0.00434774

> <r_epik_Ionization_Penalty_Neutral>
3.68796

> <r_epik_State_Penalty>
2.13826

> <r_epik_Charging_Adjusted_Penalty>
2.14261

> <i_epik_Tot_Q>
-1

> <i_epik_Tot_abs_Q>
1

> <r_epik_Metal_State_Penalty>
0.260979

> <b_epik_Metal_Only>
0

> <s_lp_Force_Field>
OPLS_2005

> <r_lp_Energy>
17.6813

> <b_lp_Chiralities_Consistent>
1

> <s_lp_Variant>
AV-unprocessed.smi:438-11

> <Gold.Version>
5.8.1

> <Gold.Id.Protein>
6NUR|6NUR_protein|mol2

> <Gold.PLP.Fitness>
54.5926

> <Gold.PLP.PLP>
-47.0957

> <Gold.PLP.part.hbond>
-4.1658

> <Gold.PLP.part.metal>
0.0000

> <Gold.PLP.part.buried>
-5.7610

> <Gold.PLP.part.nonpolar>
-36.3007

> <Gold.PLP.part.repulsive>
0.1303

> <Gold.PLP.ligand.clash>
0.0000

> <Gold.PLP.ligand.torsion>
0.5922

> <Gold.PLP.Chemscore.Hbond>
2.8640

> <Gold.PLP.Chemscore.CHOScore>
0.0000

> <Gold.PLP.Chemscore.Metal>
0.0000

> <Gold.Chemscore.Hbonds>
donor molecule, donor type, donor heavy atom, donor atom, acceptor molecule, acceptor atom, score
      P1  H  6931  6943       L1    19  0.57
      P1  H  6934  6947       L1    19  0.91
      P1  H  7997  8008       L1     8  1.00

> <Gold.PLP.Chemscore.Internal.Correction>
0.0893

> <Gold.Rescore>
     Score         DG    S(hbond)    S(metal)    S(lipo)     H(rot)  DE(clash)    DE(int)     intcor
     17.84     -18.44       2.04        0.00     113.71       2.79       0.03       0.56       ----

> <Gold.Chemscore.Fitness>
17.8426

> <Gold.Chemscore.DG>
-18.4369

> <Gold.Chemscore.ZeroCoef>
-5.4800

> <Gold.Chemscore.Hbond>
2.0365

> <Gold.Chemscore.Metal>
0.0000

> <Gold.Chemscore.Lipo>
113.7102

> <Gold.Chemscore.Internal_Hbond>
0.0000

> <Gold.Chemscore.DEClash>
0.0331

> <Gold.Chemscore.DEInternal>
0.5611

> <Gold.Chemscore.Rot>
2.7927

> <Gold.Chemscore.Internal.Correction>
   9.000000E+99

> <Gold.Chemscore.Hbonds>
donor molecule, donor type, donor heavy atom, donor atom, acceptor molecule, acceptor atom, score
      P1  H  6931  6943       L1    19  0.06
      P1  H  6934  6947       L1    19  0.49
      P1  H  7997  8008       L1     8  0.98

> <Gold.Chemscore.Hbond.Weighted>
-6.8020

> <Gold.Chemscore.Metal.Weighted>
-0.0000

> <Gold.Chemscore.Lipo.Weighted>
-13.3041

> <Gold.Chemscore.Internal_Hbond.Weighted>
0.0000

> <Gold.Chemscore.DEClash.Weighted>
0.0331

> <Gold.Chemscore.DEInternal.Weighted>
0.5611

> <Gold.Chemscore.Rot.Weighted>
7.1492

> <Gold.Chemscore.Internal.Correction.Weighted>
   9.000000E+99

> <Gold.Protein.RotatedTorsions>
[ 6907 6896 6895 6894 ] final -154.42 input  -60.11 | X-H torsion
[ 7974 7965 7964 7962 ] final  -81.25 input  175.53 | X-H torsion
[ 8008 7997 7996 7995 ] final  -72.92 input   59.86 | X-H torsion
[ 10167 10162 10161 10158 ] final  -86.77 input  -65.29 | X-H torsion
[ 10718 10713 10712 10709 ] final -128.21 input   66.30 | X-H torsion
[ 10763 10752 10751 10750 ] final -146.10 input  -60.55 | X-H torsion
[ 11005 11000 10999 10996 ] final -134.47 input  -57.11 | X-H torsion

> <Gold.Protein.ActiveResidues>
 VAL166  LYS551  ARG553  GLY616  TRP617  ASP618  TYR619  PRO620  LYS621  CYS622 
 ASP623  PHE694  ASN695  SER759  ASP760  ASP761  ALA762  ILE779  LEU786  VAL792 
 PHE793  MET794  SER795  GLU796  ALA797  LYS798  CYS799  TRP800  GLU811  SER814 

> <Gold.Protein.RotatedAtoms>
  151.2572  133.4320  159.2614 H   0  0  0  0  0  0  0  0  0  0  0  0  # atno 6907 bound_to 6896
  151.0563  134.9707  159.8248 H   0  0  0  0  0  0  0  0  0  0  0  0  # atno 6908 bound_to 6896
  152.5391  134.2525  159.8957 H   0  0  0  0  0  0  0  0  0  0  0  0  # atno 6909 bound_to 6896
  145.5492  140.9499  143.1508 H   0  0  0  0  0  0  0  0  0  0  0  0  # atno 7974 bound_to 7965
  154.5205  140.0788  156.8163 H   0  0  0  0  0  0  0  0  0  0  0  0  # atno 8008 bound_to 7997
  155.3586  140.3416  155.4222 H   0  0  0  0  0  0  0  0  0  0  0  0  # atno 8009 bound_to 7997
  156.1676  140.1609  156.8491 H   0  0  0  0  0  0  0  0  0  0  0  0  # atno 8010 bound_to 7997
  140.3909  143.2705  151.9265 H   0  0  0  0  0  0  0  0  0  0  0  0  # atno 10167 bound_to 10162
  156.1930  130.6807  151.0447 H   0  0  0  0  0  0  0  0  0  0  0  0  # atno 10718 bound_to 10713
  154.8352  135.3395  154.6609 H   0  0  0  0  0  0  0  0  0  0  0  0  # atno 10763 bound_to 10752
  153.7224  135.6957  153.5014 H   0  0  0  0  0  0  0  0  0  0  0  0  # atno 10764 bound_to 10752
  153.2371  135.4397  155.0611 H   0  0  0  0  0  0  0  0  0  0  0  0  # atno 10765 bound_to 10752
  140.8987  134.1718  157.4476 H   0  0  0  0  0  0  0  0  0  0  0  0  # atno 11005 bound_to 11000
  144.7538  139.7126  143.7262 LP  0  0  0  0  0  0  0  0  0  0  0  0  # atno 17320 bound_to 7965
  146.1928  139.5178  142.9794 LP  0  0  0  0  0  0  0  0  0  0  0  0  # atno 17321 bound_to 7965
  139.4789  144.5728  151.8060 LP  0  0  0  0  0  0  0  0  0  0  0  0  # atno 17342 bound_to 10162
  140.4840  144.1408  150.5937 LP  0  0  0  0  0  0  0  0  0  0  0  0  # atno 17343 bound_to 10162
  157.6940  131.0800  150.7023 LP  0  0  0  0  0  0  0  0  0  0  0  0  # atno 17370 bound_to 10713
  156.7080  130.4643  149.5555 LP  0  0  0  0  0  0  0  0  0  0  0  0  # atno 17371 bound_to 10713
  139.8739  134.9889  156.5433 LP  0  0  0  0  0  0  0  0  0  0  0  0  # atno 17394 bound_to 11000
  140.8257  133.8318  155.8937 LP  0  0  0  0  0  0  0  0  0  0  0  0  # atno 17395 bound_to 11000

$$$$
