AV-unprocessed.smi:157|AV-procd|sdf|1311|dock1
  -GOLD-   2262019 03D 1   1.00000     0.00000
 Structure written by MMmdl.
 36 38  0  0  0  0  0  0  0  0  2 V2000
  151.1476  140.2027  155.0522 O   0  0  0  0  0  0  0  0  0  0  0  0
  152.0768  139.1776  155.3304 C   0  0  0  0  0  0  0  0  0  0  0  0
  152.0280  138.8004  156.8200 C   0  0  1  0  0  0  0  0  0  0  0  0
  152.8027  139.7213  157.5948 O   0  0  0  0  0  0  0  0  0  0  0  0
  152.1026  140.1200  158.7388 C   0  0  1  0  0  0  0  0  0  0  0  0
  151.5777  141.5106  158.5207 N   0  0  0  0  0  0  0  0  0  0  0  0
  150.8285  141.9487  157.4849 C   0  0  0  0  0  0  0  0  0  0  0  0
  150.5204  143.2333  157.5362 N   0  3  0  0  0  0  0  0  0  0  0  0
  151.1114  143.7313  158.6771 C   0  0  0  0  0  0  0  0  0  0  0  0
  151.7638  142.6490  159.2731 C   0  0  0  0  0  0  0  0  0  0  0  0
  152.5334  142.6012  160.4455 N   0  0  0  0  0  0  0  0  0  0  0  0
  152.5088  143.5329  161.3423 C   0  0  0  0  0  0  0  0  0  0  0  0
  151.8482  144.7498  161.3195 N   0  0  0  0  0  0  0  0  0  0  0  0
  151.8732  145.6422  160.1743 C   0  0  0  0  0  0  0  0  0  0  0  0
  150.9778  145.1832  159.0158 C   0  0  2  0  0  0  0  0  0  0  0  0
  149.6446  145.5527  159.3020 O   0  0  0  0  0  0  0  0  0  0  0  0
  150.9413  139.1378  158.8888 C   0  0  0  0  0  0  0  0  0  0  0  0
  150.6261  138.8202  157.4423 C   0  0  2  0  0  0  0  0  0  0  0  0
  149.9691  137.5746  157.3392 O   0  0  0  0  0  0  0  0  0  0  0  0
  152.4866  137.8210  156.9707 H   0  0  0  0  0  0  0  0  0  0  0  0
  152.7459  140.2013  159.6156 H   0  0  0  0  0  0  0  0  0  0  0  0
  151.2634  145.7555  158.1325 H   0  0  0  0  0  0  0  0  0  0  0  0
  150.0115  139.6089  157.0060 H   0  0  0  0  0  0  0  0  0  0  0  0
  150.3513  139.8087  154.7297 H   0  0  0  0  0  0  0  0  0  0  0  0
  151.8235  138.3123  154.7173 H   0  0  0  0  0  0  0  0  0  0  0  0
  153.0737  139.5039  155.0350 H   0  0  0  0  0  0  0  0  0  0  0  0
  150.5134  141.3104  156.6802 H   0  0  0  0  0  0  0  0  0  0  0  0
  153.0778  143.3941  162.2626 H   0  0  0  0  0  0  0  0  0  0  0  0
  151.7507  145.2630  162.1843 H   0  0  0  0  0  0  0  0  0  0  0  0
  151.6114  146.6528  160.4901 H   0  0  0  0  0  0  0  0  0  0  0  0
  152.9053  145.6933  159.8239 H   0  0  0  0  0  0  0  0  0  0  0  0
  149.1657  145.6171  158.4902 H   0  0  0  0  0  0  0  0  0  0  0  0
  151.3068  138.2548  159.4156 H   0  0  0  0  0  0  0  0  0  0  0  0
  150.1025  139.5569  159.4447 H   0  0  0  0  0  0  0  0  0  0  0  0
  149.6216  137.4896  156.4638 H   0  0  0  0  0  0  0  0  0  0  0  0
  149.9728  143.7479  156.8582 H   0  0  0  0  0  0  0  0  0  0  0  0
  1  2  1  0  0  0  0
  1 24  1  0  0  0  0
  2  3  1  0  0  0  0
  2 25  1  0  0  0  0
  2 26  1  0  0  0  0
  3 20  1  0  0  0  0
  3 18  1  0  0  0  0
  3  4  1  0  0  0  0
  4  5  1  0  0  0  0
  5 21  1  0  0  0  0
  5  6  1  0  0  0  0
  5 17  1  0  0  0  0
  6 10  1  0  0  0  0
  6  7  1  0  0  0  0
  7  8  2  0  0  0  0
  7 27  1  0  0  0  0
  8  9  1  0  0  0  0
  8 36  1  0  0  0  0
  9 15  1  0  0  0  0
  9 10  2  0  0  0  0
 10 11  1  0  0  0  0
 11 12  2  0  0  0  0
 12 13  1  0  0  0  0
 12 28  1  0  0  0  0
 13 14  1  0  0  0  0
 13 29  1  0  0  0  0
 14 15  1  0  0  0  0
 14 30  1  0  0  0  0
 14 31  1  0  0  0  0
 15 22  1  0  0  0  0
 15 16  1  0  0  0  0
 16 32  1  0  0  0  0
 17 18  1  0  0  0  0
 17 33  1  0  0  0  0
 17 34  1  0  0  0  0
 18 23  1  0  0  0  0
 18 19  1  0  0  0  0
 19 35  1  0  0  0  0
M  CHG  1   8   1
M  END
> <s_m_source_file>
AV-unprocessed.smi

> <i_m_source_file_index>
157

> <i_lp_mmshare_version>
43012

> <i_f3d_flags>
0

> <s_epik_input>
W09IXVtDSDJdW0NASF0xT1tDQEhdKFtDSDJdW0NAQEhdMVtPSF0pbihbY0hdbjIpYyhjMjMpTj1bQ0hdW05IXVtDSDJdW0NASF0zW09IXQ==

> <s_epik_cmdline>
J2VwaWtfcHl0aG9uJywgJy1waCcsICc3LjAnLCAnLXRuJywgJzgnLCAnLW1hJywgJzIwMCcsICctbWV0YWxfYmluZGluZycsICctaW1hZScsICc8aW5maWxlLm1hZT4nLCAnLW9tYWUnLCAnPG91dGZpbGUubWFlPic=

> <r_epik_Ionization_Penalty>
1.68594

> <r_epik_Ionization_Penalty_Charging>
0

> <r_epik_Ionization_Penalty_Neutral>
1.68594

> <r_epik_State_Penalty>
1.79006

> <r_epik_Charging_Adjusted_Penalty>
1.79006

> <i_epik_Tot_Q>
1

> <i_epik_Tot_abs_Q>
1

> <r_epik_Metal_State_Penalty>
5.85324

> <b_epik_Metal_Only>
0

> <s_epik_Chemistry_Notes>
This compound has an imine and may undergo hydrolysis. This compound contains an acetal/aminal-like group ( X-CH(R)-Y where X, Y are N, S, or O) that may be acid/base labile, releasing an aldehyde.

> <s_lp_Force_Field>
OPLS_2005

> <r_lp_Energy>
51.6948

> <b_lp_Chiralities_Consistent>
1

> <s_lp_Variant>
AV-unprocessed.smi:157-21

> <Gold.Version>
5.8.1

> <Gold.Id.Protein>
6NUR|6NUR_protein|mol2

> <Gold.PLP.Fitness>
51.9595

> <Gold.PLP.PLP>
-37.4579

> <Gold.PLP.part.hbond>
-5.9977

> <Gold.PLP.part.metal>
0.0000

> <Gold.PLP.part.buried>
-7.1546

> <Gold.PLP.part.nonpolar>
-25.3501

> <Gold.PLP.part.repulsive>
0.0889

> <Gold.PLP.ligand.clash>
0.0000

> <Gold.PLP.ligand.torsion>
0.2614

> <Gold.PLP.Chemscore.Hbond>
5.0000

> <Gold.PLP.Chemscore.CHOScore>
0.0000

> <Gold.PLP.Chemscore.Metal>
0.0000

> <Gold.Chemscore.Hbonds>
donor molecule, donor type, donor heavy atom, donor atom, acceptor molecule, acceptor atom, score
      L1  H     8    36       P1  8028  2.00
      L1  H    16    32       P1  8029  1.00
      P1  H  7989  7998       L1     1  0.80
      P1  H  7997  8008       L1     4  1.00

> <Gold.PLP.Chemscore.Internal.Correction>
0.0245

> <Gold.Rescore>
     Score         DG    S(hbond)    S(metal)    S(lipo)     H(rot)  DE(clash)    DE(int)     intcor
     12.64     -13.84       3.40        0.00      54.52       3.67       0.06       1.15       ----

> <Gold.Chemscore.Fitness>
12.6393

> <Gold.Chemscore.DG>
-13.8446

> <Gold.Chemscore.ZeroCoef>
-5.4800

> <Gold.Chemscore.Hbond>
3.4044

> <Gold.Chemscore.Metal>
0.0000

> <Gold.Chemscore.Lipo>
54.5184

> <Gold.Chemscore.Internal_Hbond>
0.0000

> <Gold.Chemscore.DEClash>
0.0580

> <Gold.Chemscore.DEInternal>
1.1473

> <Gold.Chemscore.Rot>
3.6659

> <Gold.Chemscore.Internal.Correction>
   9.000000E+99

> <Gold.Chemscore.Hbonds>
donor molecule, donor type, donor heavy atom, donor atom, acceptor molecule, acceptor atom, score
      L1  H     8    36       P1  8028  0.99
      L1  H    16    32       P1  8029  0.98
      P1  H  7989  7998       L1     1  0.06
      P1  H  7997  8008       L1     4  0.65

> <Gold.Chemscore.Hbond.Weighted>
-11.3708

> <Gold.Chemscore.Metal.Weighted>
-0.0000

> <Gold.Chemscore.Lipo.Weighted>
-6.3787

> <Gold.Chemscore.Internal_Hbond.Weighted>
0.0000

> <Gold.Chemscore.DEClash.Weighted>
0.0580

> <Gold.Chemscore.DEInternal.Weighted>
1.1473

> <Gold.Chemscore.Rot.Weighted>
9.3848

> <Gold.Chemscore.Internal.Correction.Weighted>
   9.000000E+99

> <Gold.Protein.RotatedTorsions>
[ 6907 6896 6895 6894 ] final  111.98 input  -60.11 | X-H torsion
[ 7974 7965 7964 7962 ] final    5.28 input  175.53 | X-H torsion
[ 8008 7997 7996 7995 ] final  -58.66 input   59.86 | X-H torsion
[ 10167 10162 10161 10158 ] final  -26.05 input  -65.29 | X-H torsion
[ 10718 10713 10712 10709 ] final  118.13 input   66.30 | X-H torsion
[ 10763 10752 10751 10750 ] final   97.69 input  -60.55 | X-H torsion
[ 11005 11000 10999 10996 ] final  -28.61 input  -57.11 | X-H torsion

> <Gold.Protein.ActiveResidues>
 VAL166  LYS551  ARG553  GLY616  TRP617  ASP618  TYR619  PRO620  LYS621  CYS622 
 ASP623  PHE694  ASN695  SER759  ASP760  ASP761  ALA762  ILE779  LEU786  VAL792 
 PHE793  MET794  SER795  GLU796  ALA797  LYS798  CYS799  TRP800  GLU811  SER814 

> <Gold.Protein.RotatedAtoms>
  152.4941  133.8581  159.7235 H   0  0  0  0  0  0  0  0  0  0  0  0  # atno 6907 bound_to 6896
  150.9100  133.7000  159.2864 H   0  0  0  0  0  0  0  0  0  0  0  0  # atno 6908 bound_to 6896
  151.4413  135.1024  159.9723 H   0  0  0  0  0  0  0  0  0  0  0  0  # atno 6909 bound_to 6896
  146.2441  140.0407  142.8382 H   0  0  0  0  0  0  0  0  0  0  0  0  # atno 7974 bound_to 7965
  154.4318  140.1079  156.5993 H   0  0  0  0  0  0  0  0  0  0  0  0  # atno 8008 bound_to 7997
  155.5929  140.3492  155.4553 H   0  0  0  0  0  0  0  0  0  0  0  0  # atno 8009 bound_to 7997
  156.0233  140.1244  157.0324 H   0  0  0  0  0  0  0  0  0  0  0  0  # atno 8010 bound_to 7997
  140.7284  143.4211  151.0949 H   0  0  0  0  0  0  0  0  0  0  0  0  # atno 10167 bound_to 10162
  157.6051  131.1045  150.7713 H   0  0  0  0  0  0  0  0  0  0  0  0  # atno 10718 bound_to 10713
  153.2800  135.4174  155.1069 H   0  0  0  0  0  0  0  0  0  0  0  0  # atno 10763 bound_to 10752
  154.8486  135.3493  154.6125 H   0  0  0  0  0  0  0  0  0  0  0  0  # atno 10764 bound_to 10752
  153.6546  135.7051  153.5255 H   0  0  0  0  0  0  0  0  0  0  0  0  # atno 10765 bound_to 10752
  140.9224  133.7390  156.0820 H   0  0  0  0  0  0  0  0  0  0  0  0  # atno 11005 bound_to 11000
  145.1072  140.9382  143.4678 LP  0  0  0  0  0  0  0  0  0  0  0  0  # atno 17320 bound_to 7965
  145.0613  139.3103  143.5879 LP  0  0  0  0  0  0  0  0  0  0  0  0  # atno 17321 bound_to 7965
  139.7857  143.8291  152.3144 LP  0  0  0  0  0  0  0  0  0  0  0  0  # atno 17342 bound_to 10162
  139.8257  144.7276  150.9515 LP  0  0  0  0  0  0  0  0  0  0  0  0  # atno 17343 bound_to 10162
  156.8103  130.4950  149.5357 LP  0  0  0  0  0  0  0  0  0  0  0  0  # atno 17370 bound_to 10713
  156.1135  130.6057  151.0084 LP  0  0  0  0  0  0  0  0  0  0  0  0  # atno 17371 bound_to 10713
  140.7970  134.3552  157.5449 LP  0  0  0  0  0  0  0  0  0  0  0  0  # atno 17394 bound_to 11000
  139.8778  134.9175  156.3180 LP  0  0  0  0  0  0  0  0  0  0  0  0  # atno 17395 bound_to 11000

$$$$
