#       Name:                AV-unprocessed.smi:1006
#       Creating user name   scv26
#       Creation time:       Fri Mar 27 02:32:48 2020


#       File generated by GOLD software.
#

@<TRIPOS>MOLECULE
AV-unprocessed.smi:1006
    50    52     1
SMALL
NO_CHARGES


@<TRIPOS>ATOM
      1 ****        -5.8901  -0.4763  -2.1186 C.3            1 S1                 0.0000
      2 ****        -5.5121   0.7448  -1.3080 C.ar           1 S1                 0.0000
      3 ****        -6.4886   1.5327  -0.6615 C.ar           1 S1                 0.0000
      4 ****        -6.0121   2.6462   0.0612 C.ar           1 S1                 0.0000
      5 ****        -6.8928   3.4868   0.7370 N.pl3          1 S1                 0.0000
      6 ****        -4.6963   2.9406   0.1295 N.ar           1 S1                 0.0000
      7 ****        -3.8662   2.1211  -0.5196 C.ar           1 S1                 0.0000
      8 ****        -2.1369   2.5458  -0.4033 S.3            1 S1                 0.0000
      9 ****        -1.3156   1.0151  -0.9454 C.3            1 S1                 0.0000
     10 ****         0.2112   1.0920  -0.7883 C.3            1 S1                 0.0000
     11 ****         0.5323   1.2064   0.5851 O.3            1 S1                 0.0000
     12 ****         0.9129  -0.1407  -1.3906 C.3            1 S1                 0.0000
     13 ****         2.3763  -0.0787  -1.2659 N.pl3          1 S1                 0.0000
     14 ****         3.2871   0.5476  -2.0592 C.2            1 S1                 0.0000
     15 ****         4.5203   0.3199  -1.5285 N.pl3          1 S1                 1.0000
     16 ****         4.3956  -0.4622  -0.3785 C.ar           1 S1                 0.0000
     17 ****         5.3573  -0.9478   0.4996 C.ar           1 S1                 0.0000
     18 ****         4.9022  -1.7199   1.5921 C.ar           1 S1                 0.0000
     19 ****         5.9274  -2.2642   2.5726 C.3            1 S1                 0.0000
     20 ****         3.5197  -1.9817   1.7753 C.ar           1 S1                 0.0000
     21 ****         3.0411  -2.8098   2.9557 C.3            1 S1                 0.0000
     22 ****         2.5576  -1.4807   0.8694 C.ar           1 S1                 0.0000
     23 ****         3.0222  -0.7219  -0.2028 C.ar           1 S1                 0.0000
     24 ****        -4.1956   1.0421  -1.2368 N.ar           1 S1                 0.0000
     25 ****        -6.9383  -0.7373  -1.9697 H              1 S1                 0.0000
     26 ****        -5.2823  -1.3327  -1.8252 H              1 S1                 0.0000
     27 ****        -5.7314  -0.2884  -3.1807 H              1 S1                 0.0000
     28 ****        -7.5413   1.2961  -0.7175 H              1 S1                 0.0000
     29 ****        -7.8894   3.3254   0.7297 H              1 S1                 0.0000
     30 ****        -6.5593   4.2812   1.2637 H              1 S1                 0.0000
     31 ****        -1.7096   0.1722  -0.3759 H              1 S1                 0.0000
     32 ****        -1.5688   0.8433  -1.9921 H              1 S1                 0.0000
     33 ****         0.5776   1.9870  -1.2931 H              1 S1                 0.0000
     34 ****         0.1613   0.4683   1.0437 H              1 S1                 0.0000
     35 ****         0.5489  -1.0648  -0.9414 H              1 S1                 0.0000
     36 ****         0.6866  -0.2111  -2.4553 H              1 S1                 0.0000
     37 ****         3.0705   1.1233  -2.9475 H              1 S1                 0.0000
     38 ****         6.4080  -0.7425   0.3551 H              1 S1                 0.0000
     39 ****         5.8698  -3.3517   2.6249 H              1 S1                 0.0000
     40 ****         5.7546  -1.8590   3.5700 H              1 S1                 0.0000
     41 ****         6.9427  -1.9990   2.2763 H              1 S1                 0.0000
     42 ****         1.9539  -2.8926   2.9710 H              1 S1                 0.0000
     43 ****         3.3522  -2.3542   3.8958 H              1 S1                 0.0000
     44 ****         3.4512  -3.8185   2.9061 H              1 S1                 0.0000
     45 ****         1.5060  -1.6781   1.0133 H              1 S1                 0.0000
     46 ****         5.3817   0.6759  -1.9227 H              1 S1                 0.0000
     47 ****        -4.3607   3.7321   0.6403 LP             1 S1                 0.0000
     48 ****         0.1518   2.0560   0.9505 LP             1 S1                 0.0000
     49 ****         1.5257   1.2096   0.6998 LP             1 S1                 0.0000
     50 ****        -3.5044   0.4844  -1.6963 LP             1 S1                 0.0000
@<TRIPOS>BOND
    1    1    2 1     
    2    1   25 1     
    3    1   26 1     
    4    1   27 1     
    5    2   24 ar    
    6    2    3 ar    
    7    3    4 ar    
    8    3   28 1     
    9    4    5 1     
   10    4    6 ar    
   11    5   29 1     
   12    5   30 1     
   13    6    7 ar    
   14    7    8 1     
   15    7   24 ar    
   16    8    9 1     
   17    9   10 1     
   18    9   31 1     
   19    9   32 1     
   20   10   11 1     
   21   10   12 1     
   22   10   33 1     
   23   11   34 1     
   24   12   13 1     
   25   12   35 1     
   26   12   36 1     
   27   13   23 1     
   28   13   14 1     
   29   14   15 2     
   30   14   37 1     
   31   15   16 1     
   32   15   46 1     
   33   16   23 ar    
   34   16   17 ar    
   35   17   18 ar    
   36   17   38 1     
   37   18   19 1     
   38   18   20 ar    
   39   19   39 1     
   40   19   40 1     
   41   19   41 1     
   42   20   21 1     
   43   20   22 ar    
   44   21   42 1     
   45   21   43 1     
   46   21   44 1     
   47   22   23 ar    
   48   22   45 1     
   49    6   47 1     
   50   11   48 1     
   51   11   49 1     
   52   24   50 1     
@<TRIPOS>SUBSTRUCTURE
      1 S1             1
@<TRIPOS>SET
LONE_PAIRS      STATIC     ATOMS    <user>   **** ""
4 47 48 49 50
DONOR_HYDROGENS      STATIC     ATOMS    <user>   **** ""
4 29 30 34 46
ATOM$BLUE        STATIC     ATOMS    COLORGROUP SYSTEM
4 47 48 49 50
ATOM$RED        STATIC     ATOMS    COLORGROUP SYSTEM
4 29 30 34 46
