AV-unprocessed.smi:705|AV-procd|sdf|3447|dock2
  -GOLD-   22720 0433D 1   1.00000     0.00000
 Structure written by MMmdl.
 29 30  0  0  0  0  0  0  0  0  2 V2000
  154.7066  137.8559  160.5175 N   0  0  0  0  0  0  0  0  0  0  0  0
  153.4641  137.5715  160.1170 C   0  0  0  0  0  0  0  0  0  0  0  0
  153.0428  136.4179  160.0599 O   0  0  0  0  0  0  0  0  0  0  0  0
  152.6197  138.7113  159.7027 C   0  0  0  0  0  0  0  0  0  0  0  0
  152.9558  140.0339  159.7613 C   0  0  0  0  0  0  0  0  0  0  0  0
  151.7816  140.6810  159.2690 C   0  0  0  0  0  0  0  0  0  0  0  0
  151.5623  142.1613  159.0860 C   0  0  1  0  0  0  0  0  0  0  0  0
  152.8295  142.9767  159.4090 C   0  0  0  0  0  0  0  0  0  0  0  0
  152.5678  144.4771  159.2072 C   0  0  0  0  0  0  0  0  0  0  0  0
  152.0282  144.7549  157.7941 C   0  0  0  0  0  0  0  0  0  0  0  0
  150.8116  143.9557  157.5305 N   0  3  0  0  0  0  0  0  0  0  0  0
  151.0319  142.4999  157.6768 C   0  0  0  0  0  0  0  0  0  0  0  0
  150.8144  139.8206  158.9539 N   0  0  0  0  0  0  0  0  0  0  0  0
  151.3350  138.6093  159.2325 N   0  0  0  0  0  0  0  0  0  0  0  0
  150.8195  137.7514  159.0946 H   0  0  0  0  0  0  0  0  0  0  0  0
  155.3235  137.1104  160.8060 H   0  0  0  0  0  0  0  0  0  0  0  0
  155.0262  138.8133  160.5263 H   0  0  0  0  0  0  0  0  0  0  0  0
  153.8835  140.4753  160.0948 H   0  0  0  0  0  0  0  0  0  0  0  0
  150.7948  142.4703  159.7975 H   0  0  0  0  0  0  0  0  0  0  0  0
  153.1489  142.7892  160.4349 H   0  0  0  0  0  0  0  0  0  0  0  0
  153.6520  142.6633  158.7643 H   0  0  0  0  0  0  0  0  0  0  0  0
  151.8511  144.8282  159.9510 H   0  0  0  0  0  0  0  0  0  0  0  0
  153.4863  145.0408  159.3734 H   0  0  0  0  0  0  0  0  0  0  0  0
  151.7907  145.8130  157.6813 H   0  0  0  0  0  0  0  0  0  0  0  0
  152.7843  144.5154  157.0451 H   0  0  0  0  0  0  0  0  0  0  0  0
  150.0944  144.2388  158.1826 H   0  0  0  0  0  0  0  0  0  0  0  0
  151.7347  142.1721  156.9094 H   0  0  0  0  0  0  0  0  0  0  0  0
  150.0910  141.9813  157.4895 H   0  0  0  0  0  0  0  0  0  0  0  0
  150.4917  144.1454  156.5914 H   0  0  0  0  0  0  0  0  0  0  0  0
  1  2  1  0  0  0  0
  1 16  1  0  0  0  0
  1 17  1  0  0  0  0
  2  3  2  0  0  0  0
  2  4  1  0  0  0  0
  4 14  1  0  0  0  0
  4  5  2  0  0  0  0
  5  6  1  0  0  0  0
  5 18  1  0  0  0  0
  6  7  1  0  0  0  0
  6 13  2  0  0  0  0
  7 12  1  0  0  0  0
  7  8  1  0  0  0  0
  7 19  1  0  0  0  0
  8  9  1  0  0  0  0
  8 20  1  0  0  0  0
  8 21  1  0  0  0  0
  9 10  1  0  0  0  0
  9 22  1  0  0  0  0
  9 23  1  0  0  0  0
 10 11  1  0  0  0  0
 10 24  1  0  0  0  0
 10 25  1  0  0  0  0
 11 12  1  0  0  0  0
 11 26  1  0  0  0  0
 11 29  1  0  0  0  0
 12 27  1  0  0  0  0
 12 28  1  0  0  0  0
 13 14  1  0  0  0  0
 14 15  1  0  0  0  0
M  CHG  1  11   1
M  END
> <s_m_source_file>
AV-unprocessed.smi

> <i_m_source_file_index>
705

> <i_lp_mmshare_version>
43012

> <i_f3d_flags>
0

> <s_epik_input>
W05IMl1DKD1PKWMxW2NIXWMoW25IXW4xKVtDQEBIXTJbQ0gyXVtDSDJdW0NIMl1bTkhdW0NIMl0y

> <s_epik_cmdline>
J2VwaWtfcHl0aG9uJywgJy1waCcsICc3LjAnLCAnLXRuJywgJzgnLCAnLW1hJywgJzIwMCcsICctbWV0YWxfYmluZGluZycsICctaW1hZScsICc8aW5maWxlLm1hZT4nLCAnLW9tYWUnLCAnPG91dGZpbGUubWFlPic=

> <r_lp_tautomer_probability>
0.5

> <r_epik_Ionization_Penalty>
0.000242638

> <r_epik_Ionization_Penalty_Charging>
0.000157527

> <r_epik_Ionization_Penalty_Neutral>
8.51112e-05

> <r_epik_State_Penalty>
0.41068

> <r_epik_Charging_Adjusted_Penalty>
0.410837

> <i_epik_Tot_Q>
1

> <i_epik_Tot_abs_Q>
1

> <r_epik_Metal_State_Penalty>
0.446108

> <b_epik_Metal_Only>
0

> <s_lp_Force_Field>
OPLS_2005

> <r_lp_Energy>
10.1374

> <b_lp_Chiralities_Consistent>
1

> <s_lp_Variant>
AV-unprocessed.smi:705-2

> <Gold.Version>
5.8.1

> <Gold.Id.Protein>
6NUR|6NUR_protein|mol2

> <Gold.PLP.Fitness>
35.9857

> <Gold.PLP.PLP>
-27.1668

> <Gold.PLP.part.hbond>
-2.0000

> <Gold.PLP.part.metal>
0.0000

> <Gold.PLP.part.buried>
-4.3698

> <Gold.PLP.part.nonpolar>
-20.2268

> <Gold.PLP.part.repulsive>
0.1574

> <Gold.PLP.ligand.clash>
0.0000

> <Gold.PLP.ligand.torsion>
0.1069

> <Gold.PLP.Chemscore.Hbond>
3.0000

> <Gold.PLP.Chemscore.CHOScore>
0.0000

> <Gold.PLP.Chemscore.Metal>
0.0000

> <Gold.Chemscore.Hbonds>
donor molecule, donor type, donor heavy atom, donor atom, acceptor molecule, acceptor atom, score
      L1  H    11    29       P1  8028  1.60
      P1  H  6896  6907       L1     3  1.00

> <Gold.PLP.Chemscore.Internal.Correction>
0.0328

> <Gold.Rescore>
     Score         DG    S(hbond)    S(metal)    S(lipo)     H(rot)  DE(clash)    DE(int)     intcor
     18.32     -18.39       1.98        0.00      75.74       1.00       0.04       0.03       ----

> <Gold.Chemscore.Fitness>
18.3165

> <Gold.Chemscore.DG>
-18.3871

> <Gold.Chemscore.ZeroCoef>
-5.4800

> <Gold.Chemscore.Hbond>
1.9778

> <Gold.Chemscore.Metal>
0.0000

> <Gold.Chemscore.Lipo>
75.7368

> <Gold.Chemscore.Internal_Hbond>
0.0000

> <Gold.Chemscore.DEClash>
0.0396

> <Gold.Chemscore.DEInternal>
0.0310

> <Gold.Chemscore.Rot>
1.0000

> <Gold.Chemscore.Internal.Correction>
   9.000000E+99

> <Gold.Chemscore.Hbonds>
donor molecule, donor type, donor heavy atom, donor atom, acceptor molecule, acceptor atom, score
      L1  H    11    29       P1  8028  0.79
      P1  H  6896  6907       L1     3  1.00

> <Gold.Chemscore.Hbond.Weighted>
-6.6059

> <Gold.Chemscore.Metal.Weighted>
-0.0000

> <Gold.Chemscore.Lipo.Weighted>
-8.8612

> <Gold.Chemscore.Internal_Hbond.Weighted>
0.0000

> <Gold.Chemscore.DEClash.Weighted>
0.0396

> <Gold.Chemscore.DEInternal.Weighted>
0.0310

> <Gold.Chemscore.Rot.Weighted>
2.5600

> <Gold.Chemscore.Internal.Correction.Weighted>
   9.000000E+99

> <Gold.Protein.RotatedTorsions>
[ 6907 6896 6895 6894 ] final   36.69 input  -60.11 | X-H torsion
[ 7974 7965 7964 7962 ] final   94.93 input  175.53 | X-H torsion
[ 8008 7997 7996 7995 ] final  -63.41 input   59.86 | X-H torsion
[ 10167 10162 10161 10158 ] final  139.02 input  -65.29 | X-H torsion
[ 10718 10713 10712 10709 ] final  -31.48 input   66.30 | X-H torsion
[ 10763 10752 10751 10750 ] final   40.23 input  -60.55 | X-H torsion
[ 11005 11000 10999 10996 ] final   82.74 input  -57.11 | X-H torsion

> <Gold.Protein.ActiveResidues>
 VAL166  LYS551  ARG553  GLY616  TRP617  ASP618  TYR619  PRO620  LYS621  CYS622 
 ASP623  PHE694  ASN695  SER759  ASP760  ASP761  ALA762  ILE779  LEU786  VAL792 
 PHE793  MET794  SER795  GLU796  ALA797  LYS798  CYS799  TRP800  GLU811  SER814 

> <Gold.Protein.RotatedAtoms>
  152.1332  134.9119  160.0557 H   0  0  0  0  0  0  0  0  0  0  0  0  # atno 6907 bound_to 6896
  152.0216  133.3896  159.4268 H   0  0  0  0  0  0  0  0  0  0  0  0  # atno 6908 bound_to 6896
  150.6858  134.3541  159.4966 H   0  0  0  0  0  0  0  0  0  0  0  0  # atno 6909 bound_to 6896
  145.4589  139.2288  143.2998 H   0  0  0  0  0  0  0  0  0  0  0  0  # atno 7974 bound_to 7965
  154.4553  140.0975  156.6737 H   0  0  0  0  0  0  0  0  0  0  0  0  # atno 8008 bound_to 7997
  155.5159  140.3477  155.4379 H   0  0  0  0  0  0  0  0  0  0  0  0  # atno 8009 bound_to 7997
  156.0764  140.1362  156.9755 H   0  0  0  0  0  0  0  0  0  0  0  0  # atno 8010 bound_to 7997
  139.5092  144.6319  151.5796 H   0  0  0  0  0  0  0  0  0  0  0  0  # atno 10167 bound_to 10162
  156.3868  130.4366  149.7426 H   0  0  0  0  0  0  0  0  0  0  0  0  # atno 10718 bound_to 10713
  152.9942  135.6197  154.2593 H   0  0  0  0  0  0  0  0  0  0  0  0  # atno 10763 bound_to 10752
  154.2329  135.2791  155.2885 H   0  0  0  0  0  0  0  0  0  0  0  0  # atno 10764 bound_to 10752
  154.5434  135.5754  153.6917 H   0  0  0  0  0  0  0  0  0  0  0  0  # atno 10765 bound_to 10752
  139.9053  134.8094  156.2216 H   0  0  0  0  0  0  0  0  0  0  0  0  # atno 11005 bound_to 11000
  146.2462  140.5356  142.8913 LP  0  0  0  0  0  0  0  0  0  0  0  0  # atno 17320 bound_to 7965
  144.8015  140.6221  143.6475 LP  0  0  0  0  0  0  0  0  0  0  0  0  # atno 17321 bound_to 7965
  140.6055  143.9533  150.6415 LP  0  0  0  0  0  0  0  0  0  0  0  0  # atno 17342 bound_to 10162
  140.2758  143.3424  152.1196 LP  0  0  0  0  0  0  0  0  0  0  0  0  # atno 17343 bound_to 10162
  156.4495  130.7899  151.2921 LP  0  0  0  0  0  0  0  0  0  0  0  0  # atno 17370 bound_to 10713
  157.7496  131.0100  150.3288 LP  0  0  0  0  0  0  0  0  0  0  0  0  # atno 17371 bound_to 10713
  141.0402  133.6942  156.1584 LP  0  0  0  0  0  0  0  0  0  0  0  0  # atno 17394 bound_to 11000
  140.6966  134.4608  157.5587 LP  0  0  0  0  0  0  0  0  0  0  0  0  # atno 17395 bound_to 11000

$$$$
