AV-unprocessed.smi:72|AV-procd|sdf|702|dock1
  -GOLD-   2262017 23D 1   1.00000     0.00000
 Structure written by MMmdl.
 30 31  0  0  0  0  0  0  0  0  2 V2000
  144.1663  140.1024  155.3090 N   0  0  0  0  0  0  0  0  0  0  0  0
  145.5377  139.9711  155.2391 C   0  0  0  0  0  0  0  0  0  0  0  0
  146.1354  140.1130  154.0002 N   0  3  0  0  0  0  0  0  0  0  0  0
  147.4531  140.0394  153.7706 C   0  0  0  0  0  0  0  0  0  0  0  0
  148.2751  139.8639  154.7848 N   0  0  0  0  0  0  0  0  0  0  0  0
  149.7590  139.7489  154.5341 C   0  0  1  0  0  0  0  0  0  0  0  0
  150.3992  140.3049  155.6375 O   0  0  0  0  0  0  0  0  0  0  0  0
  151.5452  139.5265  155.9543 C   0  0  1  0  0  0  0  0  0  0  0  0
  151.9225  139.7254  157.4303 C   0  0  0  0  0  0  0  0  0  0  0  0
  153.0797  138.9781  157.7382 O   0  0  0  0  0  0  0  0  0  0  0  0
  151.0981  138.0985  155.6226 C   0  0  2  0  0  0  0  0  0  0  0  0
  152.2187  137.2845  155.3404 O   0  0  0  0  0  0  0  0  0  0  0  0
  150.2422  138.2913  154.3765 C   0  0  1  0  0  0  0  0  0  0  0  0
  149.2054  137.3294  154.2976 O   0  0  0  0  0  0  0  0  0  0  0  0
  147.7473  139.6097  156.0781 C   0  0  0  0  0  0  0  0  0  0  0  0
  148.4876  139.3320  157.0203 O   0  0  0  0  0  0  0  0  0  0  0  0
  146.3554  139.7103  156.2212 N   0  0  0  0  0  0  0  0  0  0  0  0
  149.9937  140.3280  153.6412 H   0  0  0  0  0  0  0  0  0  0  0  0
  152.3640  139.8192  155.2932 H   0  0  0  0  0  0  0  0  0  0  0  0
  150.5144  137.6790  156.4435 H   0  0  0  0  0  0  0  0  0  0  0  0
  150.8543  138.2414  153.4741 H   0  0  0  0  0  0  0  0  0  0  0  0
  143.6444  140.0039  156.1685 H   0  0  0  0  0  0  0  0  0  0  0  0
  143.5776  140.3142  154.5161 H   0  0  0  0  0  0  0  0  0  0  0  0
  147.8227  140.1050  152.7552 H   0  0  0  0  0  0  0  0  0  0  0  0
  152.0747  140.7794  157.6645 H   0  0  0  0  0  0  0  0  0  0  0  0
  151.1212  139.3631  158.0750 H   0  0  0  0  0  0  0  0  0  0  0  0
  152.9776  138.1058  157.3891 H   0  0  0  0  0  0  0  0  0  0  0  0
  152.9241  137.8348  155.0358 H   0  0  0  0  0  0  0  0  0  0  0  0
  149.2703  136.8829  153.4667 H   0  0  0  0  0  0  0  0  0  0  0  0
  145.5293  140.2784  153.2093 H   0  0  0  0  0  0  0  0  0  0  0  0
  1  2  1  0  0  0  0
  1 22  1  0  0  0  0
  1 23  1  0  0  0  0
  2 17  2  0  0  0  0
  2  3  1  0  0  0  0
  3  4  2  0  0  0  0
  3 30  1  0  0  0  0
  4  5  1  0  0  0  0
  4 24  1  0  0  0  0
  5  6  1  0  0  0  0
  5 15  1  0  0  0  0
  6 18  1  0  0  0  0
  6 13  1  0  0  0  0
  6  7  1  0  0  0  0
  7  8  1  0  0  0  0
  8 19  1  0  0  0  0
  8  9  1  0  0  0  0
  8 11  1  0  0  0  0
  9 10  1  0  0  0  0
  9 25  1  0  0  0  0
  9 26  1  0  0  0  0
 10 27  1  0  0  0  0
 11 20  1  0  0  0  0
 11 12  1  0  0  0  0
 11 13  1  0  0  0  0
 12 28  1  0  0  0  0
 13 21  1  0  0  0  0
 13 14  1  0  0  0  0
 14 29  1  0  0  0  0
 15 16  2  0  0  0  0
 15 17  1  0  0  0  0
M  CHG  1   3   1
M  END
> <s_m_source_file>
AV-unprocessed.smi

> <i_m_source_file_index>
72

> <i_lp_mmshare_version>
43012

> <i_f3d_flags>
0

> <s_epik_input>
W05IMl1jMW5bY0hdbihjKD1PKW4xKVtDQEBIXTJPW0NASF0oW0NIMl1bT0hdKVtDQEBIXShbT0hdKVtDQEhdMltPSF0=

> <s_epik_cmdline>
J2VwaWtfcHl0aG9uJywgJy1waCcsICc3LjAnLCAnLXRuJywgJzgnLCAnLW1hJywgJzIwMCcsICctbWV0YWxfYmluZGluZycsICctaW1hZScsICc8aW5maWxlLm1hZT4nLCAnLW9tYWUnLCAnPG91dGZpbGUubWFlPic=

> <r_lp_tautomer_probability>
4.77166e-05

> <r_epik_Ionization_Penalty>
0.104979

> <r_epik_Ionization_Penalty_Charging>
0.0999619

> <r_epik_Ionization_Penalty_Neutral>
0.00501745

> <r_epik_State_Penalty>
2.51541

> <r_epik_Charging_Adjusted_Penalty>
2.61537

> <i_epik_Tot_Q>
1

> <i_epik_Tot_abs_Q>
1

> <r_epik_Metal_State_Penalty>
3.53763

> <b_epik_Metal_Only>
0

> <s_epik_Chemistry_Notes>
This compound contains an acetal/aminal-like group ( X-CH(R)-Y where X, Y are N, S, or O) that may be acid/base labile, releasing an aldehyde.

> <s_lp_Force_Field>
OPLS_2005

> <r_lp_Energy>
34.1778

> <b_lp_Chiralities_Consistent>
1

> <s_lp_Variant>
AV-unprocessed.smi:72-40

> <Gold.Version>
5.8.1

> <Gold.Id.Protein>
6NUR|6NUR_protein|mol2

> <Gold.PLP.Fitness>
39.8861

> <Gold.PLP.PLP>
-21.4583

> <Gold.PLP.part.hbond>
-5.7144

> <Gold.PLP.part.metal>
0.0000

> <Gold.PLP.part.buried>
-1.5128

> <Gold.PLP.part.nonpolar>
-14.9122

> <Gold.PLP.part.repulsive>
0.0698

> <Gold.PLP.ligand.clash>
0.0000

> <Gold.PLP.ligand.torsion>
0.6378

> <Gold.PLP.Chemscore.Hbond>
5.5200

> <Gold.PLP.Chemscore.CHOScore>
1.0000

> <Gold.PLP.Chemscore.Metal>
0.0000

> <Gold.Chemscore.Hbonds>
donor molecule, donor type, donor heavy atom, donor atom, acceptor molecule, acceptor atom, score
      L1  H     1    23       P1 10175  0.83
      L1  H     3    30       P1 10175  1.98
      L1  H    14    29       P1  7948  1.00
      P1  H  7997  8009       L1    10  1.00
      P1  H 10752 10765       L1    12  0.64
      L1  C     4    24       P1  7957  1.00

> <Gold.PLP.Chemscore.Internal.Correction>
0.1435

> <Gold.Rescore>
     Score         DG    S(hbond)    S(metal)    S(lipo)     H(rot)  DE(clash)    DE(int)     intcor
      8.77     -10.92       3.83        0.00      26.47       4.08       0.00       2.15       ----

> <Gold.Chemscore.Fitness>
8.7707

> <Gold.Chemscore.DG>
-10.9187

> <Gold.Chemscore.ZeroCoef>
-5.4800

> <Gold.Chemscore.Hbond>
3.8269

> <Gold.Chemscore.Metal>
0.0000

> <Gold.Chemscore.Lipo>
26.4724

> <Gold.Chemscore.Internal_Hbond>
0.0000

> <Gold.Chemscore.DEClash>
0.0009

> <Gold.Chemscore.DEInternal>
2.1471

> <Gold.Chemscore.Rot>
4.0783

> <Gold.Chemscore.Internal.Correction>
   9.000000E+99

> <Gold.Chemscore.Hbonds>
donor molecule, donor type, donor heavy atom, donor atom, acceptor molecule, acceptor atom, score
      L1  H     1    23       P1 10175  0.79
      L1  H     3    30       P1 10175  0.90
      L1  H    14    29       P1  7948  0.97
      P1  H  7997  8009       L1    10  0.45
      P1  H 10752 10765       L1    12  0.09

> <Gold.Chemscore.Hbond.Weighted>
-12.7819

> <Gold.Chemscore.Metal.Weighted>
-0.0000

> <Gold.Chemscore.Lipo.Weighted>
-3.0973

> <Gold.Chemscore.Internal_Hbond.Weighted>
0.0000

> <Gold.Chemscore.DEClash.Weighted>
0.0009

> <Gold.Chemscore.DEInternal.Weighted>
2.1471

> <Gold.Chemscore.Rot.Weighted>
10.4404

> <Gold.Chemscore.Internal.Correction.Weighted>
   9.000000E+99

> <Gold.Protein.RotatedTorsions>
[ 6907 6896 6895 6894 ] final   97.79 input  -60.11 | X-H torsion
[ 7974 7965 7964 7962 ] final -108.68 input  175.53 | X-H torsion
[ 8008 7997 7996 7995 ] final  154.81 input   59.86 | X-H torsion
[ 10167 10162 10161 10158 ] final  -94.22 input  -65.29 | X-H torsion
[ 10718 10713 10712 10709 ] final  169.67 input   66.30 | X-H torsion
[ 10763 10752 10751 10750 ] final -172.80 input  -60.55 | X-H torsion
[ 11005 11000 10999 10996 ] final  171.95 input  -57.11 | X-H torsion

> <Gold.Protein.ActiveResidues>
 VAL166  LYS551  ARG553  GLY616  TRP617  ASP618  TYR619  PRO620  LYS621  CYS622 
 ASP623  PHE694  ASN695  SER759  ASP760  ASP761  ALA762  ILE779  LEU786  VAL792 
 PHE793  MET794  SER795  GLU796  ALA797  LYS798  CYS799  TRP800  GLU811  SER814 

> <Gold.Protein.RotatedAtoms>
  152.5418  134.0680  159.8180 H   0  0  0  0  0  0  0  0  0  0  0  0  # atno 6907 bound_to 6896
  151.0798  133.5391  159.2628 H   0  0  0  0  0  0  0  0  0  0  0  0  # atno 6908 bound_to 6896
  151.2223  135.0531  159.9008 H   0  0  0  0  0  0  0  0  0  0  0  0  # atno 6909 bound_to 6896
  145.1898  140.9009  143.3431 H   0  0  0  0  0  0  0  0  0  0  0  0  # atno 7974 bound_to 7965
  156.2512  140.1956  156.6703 H   0  0  0  0  0  0  0  0  0  0  0  0  # atno 8008 bound_to 7997
  154.6398  140.0585  156.9857 H   0  0  0  0  0  0  0  0  0  0  0  0  # atno 8009 bound_to 7997
  155.1581  140.3257  155.4420 H   0  0  0  0  0  0  0  0  0  0  0  0  # atno 8010 bound_to 7997
  140.3166  143.3073  152.0091 H   0  0  0  0  0  0  0  0  0  0  0  0  # atno 10167 bound_to 10162
  157.0193  131.0227  151.2779 H   0  0  0  0  0  0  0  0  0  0  0  0  # atno 10718 bound_to 10713
  154.6152  135.2869  155.0388 H   0  0  0  0  0  0  0  0  0  0  0  0  # atno 10763 bound_to 10752
  154.1603  135.6489  153.4988 H   0  0  0  0  0  0  0  0  0  0  0  0  # atno 10764 bound_to 10752
  153.0212  135.5377  154.6920 H   0  0  0  0  0  0  0  0  0  0  0  0  # atno 10765 bound_to 10752
  140.3245  134.7409  157.4089 H   0  0  0  0  0  0  0  0  0  0  0  0  # atno 11005 bound_to 11000
  145.0052  139.3561  143.6147 LP  0  0  0  0  0  0  0  0  0  0  0  0  # atno 17320 bound_to 7965
  146.3438  139.9292  142.8756 LP  0  0  0  0  0  0  0  0  0  0  0  0  # atno 17321 bound_to 7965
  139.4882  144.6343  151.7007 LP  0  0  0  0  0  0  0  0  0  0  0  0  # atno 17342 bound_to 10162
  140.5521  144.0409  150.6131 LP  0  0  0  0  0  0  0  0  0  0  0  0  # atno 17343 bound_to 10162
  157.5262  130.8029  149.7864 LP  0  0  0  0  0  0  0  0  0  0  0  0  # atno 17370 bound_to 10713
  156.0108  130.3834  150.2272 LP  0  0  0  0  0  0  0  0  0  0  0  0  # atno 17371 bound_to 10713
  140.0913  134.5597  155.8441 LP  0  0  0  0  0  0  0  0  0  0  0  0  # atno 17394 bound_to 11000
  141.2078  133.6668  156.6333 LP  0  0  0  0  0  0  0  0  0  0  0  0  # atno 17395 bound_to 11000

$$$$
