AV-unprocessed.smi:1716|AV-procd|sdf|6916|dock3
  -GOLD-   22720 8123D 1   1.00000     0.00000
 Structure written by MMmdl.
 40 41  0  0  0  0  0  0  0  0  1 V2000
  149.4069  140.9478  156.2147 C   0  0  0  0  0  0  0  0  0  0  0  0
  148.7941  141.2693  154.8496 C   0  0  0  0  0  0  0  0  0  0  0  0
  149.4118  142.0289  154.1032 O   0  0  0  0  0  0  0  0  0  0  0  0
  147.6069  140.7124  154.5083 N   0  0  0  0  0  0  0  0  0  0  0  0
  146.9843  140.9128  153.1944 C   0  0  0  0  0  0  0  0  0  0  0  0
  147.0447  139.5923  152.4054 C   0  0  0  0  0  0  0  0  0  0  0  0
  146.3854  138.4364  153.1923 C   0  0  0  0  0  0  0  0  0  0  0  0
  146.6169  137.1590  152.5243 N   0  0  0  0  0  0  0  0  0  0  0  0
  145.6742  136.2421  152.2599 C   0  0  0  0  0  0  0  0  0  0  0  0
  144.4874  136.3847  152.5561 O   0  0  0  0  0  0  0  0  0  0  0  0
  146.1994  135.1713  151.6384 N   0  0  0  0  0  0  0  0  0  0  0  0
  145.5391  133.9898  151.1965 C   0  0  0  0  0  0  0  0  0  0  0  0
  144.4475  134.0188  150.3908 N   0  0  0  0  0  0  0  0  0  0  0  0
  143.8703  132.8610  150.0099 C   0  0  0  0  0  0  0  0  0  0  0  0
  144.3448  131.5996  150.4081 C   0  0  0  0  0  0  0  0  0  0  0  0
  145.4747  131.5510  151.2423 C   0  0  0  0  0  0  0  0  0  0  0  0
  146.0854  132.7575  151.6460 C   0  0  0  0  0  0  0  0  0  0  0  0
  147.3079  132.7065  152.5481 C   0  0  0  0  0  0  0  0  0  0  0  0
  146.9163  138.3691  154.6403 C   0  0  0  0  0  0  0  0  0  0  0  0
  146.8550  139.7481  155.3213 C   0  0  0  0  0  0  0  0  0  0  0  0
  149.5705  139.8751  156.3230 H   0  0  0  0  0  0  0  0  0  0  0  0
  148.7578  141.2920  157.0203 H   0  0  0  0  0  0  0  0  0  0  0  0
  150.3711  141.4439  156.3291 H   0  0  0  0  0  0  0  0  0  0  0  0
  145.9467  141.2216  153.3292 H   0  0  0  0  0  0  0  0  0  0  0  0
  147.4576  141.7092  152.6187 H   0  0  0  0  0  0  0  0  0  0  0  0
  146.5560  139.7175  151.4385 H   0  0  0  0  0  0  0  0  0  0  0  0
  148.0875  139.3500  152.1953 H   0  0  0  0  0  0  0  0  0  0  0  0
  145.3110  138.6237  153.2440 H   0  0  0  0  0  0  0  0  0  0  0  0
  147.5658  136.9600  152.2435 H   0  0  0  0  0  0  0  0  0  0  0  0
  147.1921  135.2017  151.4598 H   0  0  0  0  0  0  0  0  0  0  0  0
  143.0048  132.9438  149.3695 H   0  0  0  0  0  0  0  0  0  0  0  0
  143.8547  130.6943  150.0820 H   0  0  0  0  0  0  0  0  0  0  0  0
  145.8651  130.5974  151.5664 H   0  0  0  0  0  0  0  0  0  0  0  0
  147.5799  131.6788  152.7909 H   0  0  0  0  0  0  0  0  0  0  0  0
  147.1145  133.2315  153.4838 H   0  0  0  0  0  0  0  0  0  0  0  0
  148.1634  133.1728  152.0590 H   0  0  0  0  0  0  0  0  0  0  0  0
  146.3402  137.6441  155.2164 H   0  0  0  0  0  0  0  0  0  0  0  0
  147.9489  138.0160  154.6421 H   0  0  0  0  0  0  0  0  0  0  0  0
  147.2103  139.6698  156.3475 H   0  0  0  0  0  0  0  0  0  0  0  0
  145.8181  140.0782  155.3985 H   0  0  0  0  0  0  0  0  0  0  0  0
  1  2  1  0  0  0  0
  1 21  1  0  0  0  0
  1 22  1  0  0  0  0
  1 23  1  0  0  0  0
  2  3  2  0  0  0  0
  2  4  1  0  0  0  0
  4 20  1  0  0  0  0
  4  5  1  0  0  0  0
  5  6  1  0  0  0  0
  5 24  1  0  0  0  0
  5 25  1  0  0  0  0
  6  7  1  0  0  0  0
  6 26  1  0  0  0  0
  6 27  1  0  0  0  0
  7  8  1  0  0  0  0
  7 19  1  0  0  0  0
  7 28  1  0  0  0  0
  8  9  1  0  0  0  0
  8 29  1  0  0  0  0
  9 10  2  0  0  0  0
  9 11  1  0  0  0  0
 11 12  1  0  0  0  0
 11 30  1  0  0  0  0
 12 17  1  0  0  0  0
 12 13  2  0  0  0  0
 13 14  1  0  0  0  0
 14 15  2  0  0  0  0
 14 31  1  0  0  0  0
 15 16  1  0  0  0  0
 15 32  1  0  0  0  0
 16 17  2  0  0  0  0
 16 33  1  0  0  0  0
 17 18  1  0  0  0  0
 18 34  1  0  0  0  0
 18 35  1  0  0  0  0
 18 36  1  0  0  0  0
 19 20  1  0  0  0  0
 19 37  1  0  0  0  0
 19 38  1  0  0  0  0
 20 39  1  0  0  0  0
 20 40  1  0  0  0  0
M  END
> <s_m_source_file>
AV-unprocessed.smi

> <i_m_source_file_index>
1716

> <i_lp_mmshare_version>
43012

> <i_f3d_flags>
0

> <s_epik_input>
W0NIM11DKD1PKU4xW0NIMl1bQ0gyXVtDSF0oW0NIMl1bQ0gyXTEpW05IXUMoPU8pW05IXWMybltjSF1bY0hdW2NIXWMyW0NIM10=

> <s_epik_cmdline>
J2VwaWtfcHl0aG9uJywgJy1waCcsICc3LjAnLCAnLXRuJywgJzgnLCAnLW1hJywgJzIwMCcsICctbWV0YWxfYmluZGluZycsICctaW1hZScsICc8aW5maWxlLm1hZT4nLCAnLW9tYWUnLCAnPG91dGZpbGUubWFlPic=

> <r_lp_tautomer_probability>
1

> <r_epik_Ionization_Penalty>
5.94044e-05

> <r_epik_Ionization_Penalty_Charging>
0

> <r_epik_Ionization_Penalty_Neutral>
5.94044e-05

> <r_epik_State_Penalty>
-0

> <r_epik_Charging_Adjusted_Penalty>
0

> <i_epik_Tot_Q>
0

> <i_epik_Tot_abs_Q>
0

> <r_epik_Metal_State_Penalty>
-0

> <b_epik_Metal_Only>
0

> <s_lp_Force_Field>
OPLS_2005

> <r_lp_Energy>
26.4914

> <b_lp_Chiralities_Consistent>
1

> <s_lp_Variant>
AV-unprocessed.smi:1716-1

> <Gold.Version>
5.8.1

> <Gold.Id.Protein>
6NUR|6NUR_protein|mol2

> <Gold.PLP.Fitness>
38.5429

> <Gold.PLP.PLP>
-29.8963

> <Gold.PLP.part.hbond>
-3.9007

> <Gold.PLP.part.metal>
0.0000

> <Gold.PLP.part.buried>
-1.9898

> <Gold.PLP.part.nonpolar>
-26.1058

> <Gold.PLP.part.repulsive>
0.7730

> <Gold.PLP.ligand.clash>
0.0000

> <Gold.PLP.ligand.torsion>
0.6396

> <Gold.PLP.Chemscore.Hbond>
2.3037

> <Gold.PLP.Chemscore.CHOScore>
1.0000

> <Gold.PLP.Chemscore.Metal>
0.0000

> <Gold.Chemscore.Hbonds>
donor molecule, donor type, donor heavy atom, donor atom, acceptor molecule, acceptor atom, score
      L1  H     8    29       P1  7948  1.00
      L1  H    11    30       P1  7948  0.93
      P1  H  8011  8017       L1     3  0.37
      L1  C    14    31       P1 10186  1.00

> <Gold.PLP.Chemscore.Internal.Correction>
0.0146

> <Gold.Rescore>
     Score         DG    S(hbond)    S(metal)    S(lipo)     H(rot)  DE(clash)    DE(int)     intcor
     16.46     -17.38       1.91        0.00      69.15       1.00       0.35       0.56       ----

> <Gold.Chemscore.Fitness>
16.4632

> <Gold.Chemscore.DG>
-17.3797

> <Gold.Chemscore.ZeroCoef>
-5.4800

> <Gold.Chemscore.Hbond>
1.9069

> <Gold.Chemscore.Metal>
0.0000

> <Gold.Chemscore.Lipo>
69.1505

> <Gold.Chemscore.Internal_Hbond>
0.0000

> <Gold.Chemscore.DEClash>
0.3518

> <Gold.Chemscore.DEInternal>
0.5647

> <Gold.Chemscore.Rot>
1.0000

> <Gold.Chemscore.Internal.Correction>
   9.000000E+99

> <Gold.Chemscore.Hbonds>
donor molecule, donor type, donor heavy atom, donor atom, acceptor molecule, acceptor atom, score
      L1  H     8    29       P1  7948  0.99
      L1  H    11    30       P1  7948  0.74
      P1  H  8011  8017       L1     3  0.38

> <Gold.Chemscore.Hbond.Weighted>
-6.3691

> <Gold.Chemscore.Metal.Weighted>
-0.0000

> <Gold.Chemscore.Lipo.Weighted>
-8.0906

> <Gold.Chemscore.Internal_Hbond.Weighted>
0.0000

> <Gold.Chemscore.DEClash.Weighted>
0.3518

> <Gold.Chemscore.DEInternal.Weighted>
0.5647

> <Gold.Chemscore.Rot.Weighted>
2.5600

> <Gold.Chemscore.Internal.Correction.Weighted>
   9.000000E+99

> <Gold.Protein.RotatedTorsions>
[ 6907 6896 6895 6894 ] final  111.02 input  -60.11 | X-H torsion
[ 7974 7965 7964 7962 ] final  160.29 input  175.53 | X-H torsion
[ 8008 7997 7996 7995 ] final   79.74 input   59.86 | X-H torsion
[ 10167 10162 10161 10158 ] final -102.60 input  -65.29 | X-H torsion
[ 10718 10713 10712 10709 ] final  -69.43 input   66.30 | X-H torsion
[ 10763 10752 10751 10750 ] final   56.41 input  -60.55 | X-H torsion
[ 11005 11000 10999 10996 ] final -131.91 input  -57.11 | X-H torsion

> <Gold.Protein.ActiveResidues>
 VAL166  LYS551  ARG553  GLY616  TRP617  ASP618  TYR619  PRO620  LYS621  CYS622 
 ASP623  PHE694  ASN695  SER759  ASP760  ASP761  ALA762  ILE779  LEU786  VAL792 
 PHE793  MET794  SER795  GLU796  ALA797  LYS798  CYS799  TRP800  GLU811  SER814 

> <Gold.Protein.RotatedAtoms>
  152.4990  133.8717  159.7301 H   0  0  0  0  0  0  0  0  0  0  0  0  # atno 6907 bound_to 6896
  150.9202  133.6881  159.2840 H   0  0  0  0  0  0  0  0  0  0  0  0  # atno 6908 bound_to 6896
  151.4260  135.1008  159.9681 H   0  0  0  0  0  0  0  0  0  0  0  0  # atno 6909 bound_to 6896
  144.7745  139.7736  143.6284 H   0  0  0  0  0  0  0  0  0  0  0  0  # atno 7974 bound_to 7965
  155.8739  140.3447  155.5840 H   0  0  0  0  0  0  0  0  0  0  0  0  # atno 8008 bound_to 7997
  155.7796  140.0856  157.2085 H   0  0  0  0  0  0  0  0  0  0  0  0  # atno 8009 bound_to 7997
  154.4019  140.1503  156.3024 H   0  0  0  0  0  0  0  0  0  0  0  0  # atno 8010 bound_to 7997
  140.2290  143.3621  152.0903 H   0  0  0  0  0  0  0  0  0  0  0  0  # atno 10167 bound_to 10162
  156.0456  130.4312  150.2147 H   0  0  0  0  0  0  0  0  0  0  0  0  # atno 10718 bound_to 10713
  152.9831  135.5677  154.5224 H   0  0  0  0  0  0  0  0  0  0  0  0  # atno 10763 bound_to 10752
  154.4710  135.2785  155.1645 H   0  0  0  0  0  0  0  0  0  0  0  0  # atno 10764 bound_to 10752
  154.3193  135.6272  153.5554 H   0  0  0  0  0  0  0  0  0  0  0  0  # atno 10765 bound_to 10752
  140.9217  134.1435  157.4308 H   0  0  0  0  0  0  0  0  0  0  0  0  # atno 11005 bound_to 11000
  146.1915  139.5158  142.9802 LP  0  0  0  0  0  0  0  0  0  0  0  0  # atno 17320 bound_to 7965
  145.6226  141.0319  143.1906 LP  0  0  0  0  0  0  0  0  0  0  0  0  # atno 17321 bound_to 7965
  139.5117  144.6904  151.5774 LP  0  0  0  0  0  0  0  0  0  0  0  0  # atno 17342 bound_to 10162
  140.6199  143.9277  150.6518 LP  0  0  0  0  0  0  0  0  0  0  0  0  # atno 17343 bound_to 10162
  157.0237  130.9987  151.3332 LP  0  0  0  0  0  0  0  0  0  0  0  0  # atno 17370 bound_to 10713
  157.5326  130.8068  149.7935 LP  0  0  0  0  0  0  0  0  0  0  0  0  # atno 17371 bound_to 10713
  139.8777  134.9974  156.5843 LP  0  0  0  0  0  0  0  0  0  0  0  0  # atno 17394 bound_to 11000
  140.7979  133.8529  155.8701 LP  0  0  0  0  0  0  0  0  0  0  0  0  # atno 17395 bound_to 11000

$$$$
