AV-unprocessed.smi:2929|AV-procd|sdf|11239|dock1
  -GOLD-   2272016133D 1   1.00000     0.00000
 Structure written by MMmdl.
 33 34  0  0  0  0  0  0  0  0  1 V2000
  153.4221  138.3694  158.0903 C   0  0  0  0  0  0  0  0  0  0  0  0
  152.7586  137.9402  156.4299 S   0  0  0  0  0  0  0  0  0  0  0  0
  153.8544  138.0748  155.4573 O   0  0  0  0  0  0  0  0  0  0  0  0
  152.0356  136.6633  156.5374 O   0  0  0  0  0  0  0  0  0  0  0  0
  151.5588  139.2275  156.1069 C   0  0  0  0  0  0  0  0  0  0  0  0
  151.6993  140.4982  156.6999 C   0  0  0  0  0  0  0  0  0  0  0  0
  150.7040  141.4619  156.4488 C   0  0  0  0  0  0  0  0  0  0  0  0
  149.6081  141.1159  155.6194 C   0  0  0  0  0  0  0  0  0  0  0  0
  148.5308  141.9865  155.2979 N   0  0  0  0  0  0  0  0  0  0  0  0
  147.2223  141.7054  155.1715 C   0  0  0  0  0  0  0  0  0  0  0  0
  146.7086  140.6002  155.3417 O   0  0  0  0  0  0  0  0  0  0  0  0
  146.5235  142.8011  154.8435 N   0  0  0  0  0  0  0  0  0  0  0  0
  145.0837  142.8368  154.6211 C   0  0  0  0  0  0  0  0  0  0  0  0
  144.3915  144.0853  155.1329 C   0  0  0  0  0  0  0  0  0  0  0  0
  142.8833  144.1519  155.1911 C   0  0  0  0  0  0  0  0  0  0  0  0
  143.6369  145.0020  154.1976 C   0  0  0  0  0  0  0  0  0  0  0  0
  149.5631  139.8031  155.1022 C   0  0  0  0  0  0  0  0  0  0  0  0
  150.5090  138.8701  155.3377 N   0  0  0  0  0  0  0  0  0  0  0  0
  154.1722  137.6350  158.3824 H   0  0  0  0  0  0  0  0  0  0  0  0
  152.6100  138.3682  158.8173 H   0  0  0  0  0  0  0  0  0  0  0  0
  153.8764  139.3593  158.0550 H   0  0  0  0  0  0  0  0  0  0  0  0
  152.5417  140.7325  157.3333 H   0  0  0  0  0  0  0  0  0  0  0  0
  150.7986  142.4325  156.9088 H   0  0  0  0  0  0  0  0  0  0  0  0
  148.7836  142.9576  155.1866 H   0  0  0  0  0  0  0  0  0  0  0  0
  147.0239  143.6703  154.7293 H   0  0  0  0  0  0  0  0  0  0  0  0
  144.8637  142.7018  153.5605 H   0  0  0  0  0  0  0  0  0  0  0  0
  144.6511  141.9768  155.1326 H   0  0  0  0  0  0  0  0  0  0  0  0
  144.9094  144.5630  155.9627 H   0  0  0  0  0  0  0  0  0  0  0  0
  142.3217  143.3051  154.8017 H   0  0  0  0  0  0  0  0  0  0  0  0
  142.4358  144.6550  156.0460 H   0  0  0  0  0  0  0  0  0  0  0  0
  143.6948  146.0714  154.3899 H   0  0  0  0  0  0  0  0  0  0  0  0
  143.5777  144.7199  153.1481 H   0  0  0  0  0  0  0  0  0  0  0  0
  148.7389  139.4889  154.4785 H   0  0  0  0  0  0  0  0  0  0  0  0
  1  2  1  0  0  0  0
  1 19  1  0  0  0  0
  1 20  1  0  0  0  0
  1 21  1  0  0  0  0
  2  3  2  0  0  0  0
  2  4  2  0  0  0  0
  2  5  1  0  0  0  0
  5 18  1  0  0  0  0
  5  6  2  0  0  0  0
  6  7  1  0  0  0  0
  6 22  1  0  0  0  0
  7  8  2  0  0  0  0
  7 23  1  0  0  0  0
  8  9  1  0  0  0  0
  8 17  1  0  0  0  0
  9 10  1  0  0  0  0
  9 24  1  0  0  0  0
 10 11  2  0  0  0  0
 10 12  1  0  0  0  0
 12 13  1  0  0  0  0
 12 25  1  0  0  0  0
 13 14  1  0  0  0  0
 13 26  1  0  0  0  0
 13 27  1  0  0  0  0
 14 16  1  0  0  0  0
 14 15  1  0  0  0  0
 14 28  1  0  0  0  0
 15 16  1  0  0  0  0
 15 29  1  0  0  0  0
 15 30  1  0  0  0  0
 16 31  1  0  0  0  0
 16 32  1  0  0  0  0
 17 18  2  0  0  0  0
 17 33  1  0  0  0  0
M  END
> <s_m_source_file>
AV-unprocessed.smi

> <i_m_source_file_index>
2929

> <i_lp_mmshare_version>
43012

> <i_f3d_flags>
0

> <s_epik_input>
W0NIM11TKD1PKSg9TyljMVtjSF1bY0hdYyhbY0hdbjEpW05IXUMoPU8pW05IXVtDSDJdW0NIXTJbQ0gyXVtDSDJdMg==

> <s_epik_cmdline>
J2VwaWtfcHl0aG9uJywgJy1waCcsICc3LjAnLCAnLXRuJywgJzgnLCAnLW1hJywgJzIwMCcsICctbWV0YWxfYmluZGluZycsICctaW1hZScsICc8aW5maWxlLm1hZT4nLCAnLW9tYWUnLCAnPG91dGZpbGUubWFlPic=

> <r_lp_tautomer_probability>
1

> <r_epik_Ionization_Penalty>
4.04513e-05

> <r_epik_Ionization_Penalty_Charging>
0

> <r_epik_Ionization_Penalty_Neutral>
4.04513e-05

> <r_epik_State_Penalty>
-0

> <r_epik_Charging_Adjusted_Penalty>
0

> <i_epik_Tot_Q>
0

> <i_epik_Tot_abs_Q>
0

> <r_epik_Metal_State_Penalty>
-0

> <b_epik_Metal_Only>
0

> <s_lp_Force_Field>
OPLS_2005

> <r_lp_Energy>
13.7936

> <b_lp_Chiralities_Consistent>
1

> <s_lp_Variant>
AV-unprocessed.smi:2929-1

> <Gold.Version>
5.8.1

> <Gold.Id.Protein>
6NUR|6NUR_protein|mol2

> <Gold.PLP.Fitness>
42.6017

> <Gold.PLP.PLP>
-33.7598

> <Gold.PLP.part.hbond>
-4.9136

> <Gold.PLP.part.metal>
0.0000

> <Gold.PLP.part.buried>
-1.4460

> <Gold.PLP.part.nonpolar>
-27.1640

> <Gold.PLP.part.repulsive>
0.6554

> <Gold.PLP.ligand.clash>
0.0000

> <Gold.PLP.ligand.torsion>
2.0256

> <Gold.PLP.Chemscore.Hbond>
2.5840

> <Gold.PLP.Chemscore.CHOScore>
0.8602

> <Gold.PLP.Chemscore.Metal>
0.0000

> <Gold.Chemscore.Hbonds>
donor molecule, donor type, donor heavy atom, donor atom, acceptor molecule, acceptor atom, score
      L1  H     9    24       P1  8028  1.00
      L1  H    12    25       P1  8028  0.11
      P1  H  7997  8009       L1     3  0.23
      P1  H 10752 10763       L1     4  0.56

> <Gold.PLP.Chemscore.Internal.Correction>
2.5606

> <Gold.Rescore>
     Score         DG    S(hbond)    S(metal)    S(lipo)     H(rot)  DE(clash)    DE(int)     intcor
     12.14     -15.57       2.10        0.00      53.19       1.23       0.39       3.04       ----

> <Gold.Chemscore.Fitness>
12.1407

> <Gold.Chemscore.DG>
-15.5704

> <Gold.Chemscore.ZeroCoef>
-5.4800

> <Gold.Chemscore.Hbond>
2.1044

> <Gold.Chemscore.Metal>
0.0000

> <Gold.Chemscore.Lipo>
53.1905

> <Gold.Chemscore.Internal_Hbond>
0.0000

> <Gold.Chemscore.DEClash>
0.3931

> <Gold.Chemscore.DEInternal>
3.0366

> <Gold.Chemscore.Rot>
1.2350

> <Gold.Chemscore.Internal.Correction>
   9.000000E+99

> <Gold.Chemscore.Hbonds>
donor molecule, donor type, donor heavy atom, donor atom, acceptor molecule, acceptor atom, score
      L1  H     9    24       P1  8028  0.99
      P1  H  7997  8009       L1     3  0.10
      P1  H 10752 10763       L1     4  0.13

> <Gold.Chemscore.Hbond.Weighted>
-7.0287

> <Gold.Chemscore.Metal.Weighted>
-0.0000

> <Gold.Chemscore.Lipo.Weighted>
-6.2233

> <Gold.Chemscore.Internal_Hbond.Weighted>
0.0000

> <Gold.Chemscore.DEClash.Weighted>
0.3931

> <Gold.Chemscore.DEInternal.Weighted>
3.0366

> <Gold.Chemscore.Rot.Weighted>
3.1616

> <Gold.Chemscore.Internal.Correction.Weighted>
   9.000000E+99

> <Gold.Protein.RotatedTorsions>
[ 6907 6896 6895 6894 ] final  146.47 input  -60.11 | X-H torsion
[ 7974 7965 7964 7962 ] final   82.23 input  175.53 | X-H torsion
[ 8008 7997 7996 7995 ] final -125.40 input   59.86 | X-H torsion
[ 10167 10162 10161 10158 ] final  -71.32 input  -65.29 | X-H torsion
[ 10718 10713 10712 10709 ] final -115.90 input   66.30 | X-H torsion
[ 10763 10752 10751 10750 ] final   93.22 input  -60.55 | X-H torsion
[ 11005 11000 10999 10996 ] final  -34.27 input  -57.11 | X-H torsion

> <Gold.Protein.ActiveResidues>
 VAL166  LYS551  ARG553  GLY616  TRP617  ASP618  TYR619  PRO620  LYS621  CYS622 
 ASP623  PHE694  ASN695  SER759  ASP760  ASP761  ALA762  ILE779  LEU786  VAL792 
 PHE793  MET794  SER795  GLU796  ALA797  LYS798  CYS799  TRP800  GLU811  SER814 

> <Gold.Protein.RotatedAtoms>
  152.1675  133.4622  159.4891 H   0  0  0  0  0  0  0  0  0  0  0  0  # atno 6907 bound_to 6896
  150.6915  134.1994  159.4325 H   0  0  0  0  0  0  0  0  0  0  0  0  # atno 6908 bound_to 6896
  151.9900  134.9984  160.0612 H   0  0  0  0  0  0  0  0  0  0  0  0  # atno 6909 bound_to 6896
  145.6278  139.2398  143.2102 H   0  0  0  0  0  0  0  0  0  0  0  0  # atno 7974 bound_to 7965
  155.2127  140.0419  157.2936 H   0  0  0  0  0  0  0  0  0  0  0  0  # atno 8008 bound_to 7997
  154.6001  140.2450  155.7775 H   0  0  0  0  0  0  0  0  0  0  0  0  # atno 8009 bound_to 7997
  156.2315  140.2936  156.0211 H   0  0  0  0  0  0  0  0  0  0  0  0  # atno 8010 bound_to 7997
  140.5282  143.2324  151.7309 H   0  0  0  0  0  0  0  0  0  0  0  0  # atno 10167 bound_to 10162
  156.0926  130.6106  150.8965 H   0  0  0  0  0  0  0  0  0  0  0  0  # atno 10718 bound_to 10713
  153.2279  135.4333  155.0562 H   0  0  0  0  0  0  0  0  0  0  0  0  # atno 10763 bound_to 10752
  154.8282  135.3372  154.6831 H   0  0  0  0  0  0  0  0  0  0  0  0  # atno 10764 bound_to 10752
  153.7260  135.7014  153.5057 H   0  0  0  0  0  0  0  0  0  0  0  0  # atno 10765 bound_to 10752
  140.9702  133.7114  156.1512 H   0  0  0  0  0  0  0  0  0  0  0  0  # atno 11005 bound_to 11000
  146.1381  140.7095  142.9380 LP  0  0  0  0  0  0  0  0  0  0  0  0  # atno 17320 bound_to 7965
  144.7205  140.4359  143.7011 LP  0  0  0  0  0  0  0  0  0  0  0  0  # atno 17321 bound_to 7965
  139.4945  144.4154  152.0036 LP  0  0  0  0  0  0  0  0  0  0  0  0  # atno 17342 bound_to 10162
  140.3254  144.3379  150.5999 LP  0  0  0  0  0  0  0  0  0  0  0  0  # atno 17343 bound_to 10162
  157.6080  131.0938  150.8846 LP  0  0  0  0  0  0  0  0  0  0  0  0  # atno 17370 bound_to 10713
  156.8990  130.5240  149.5283 LP  0  0  0  0  0  0  0  0  0  0  0  0  # atno 17371 bound_to 10713
  140.7340  134.4224  157.5563 LP  0  0  0  0  0  0  0  0  0  0  0  0  # atno 17394 bound_to 11000
  139.8909  134.8792  156.2344 LP  0  0  0  0  0  0  0  0  0  0  0  0  # atno 17395 bound_to 11000

$$$$
