AV-unprocessed.smi:308|AV-procd|sdf|2288|dock7
  -GOLD-   2262022193D 1   1.00000     0.00000
 Structure written by MMmdl.
 50 51  0  0  0  0  0  0  0  0  2 V2000
  143.6185  134.3305  152.0193 C   0  0  0  0  0  0  0  0  0  0  0  0
  145.1285  134.4330  151.7412 C   0  0  2  0  0  0  0  0  0  0  0  0
  145.9663  134.5240  153.0293 C   0  0  0  0  0  0  0  0  0  0  0  0
  145.8568  135.9054  153.7000 C   0  0  0  0  0  0  0  0  0  0  0  0
  146.2249  136.9954  152.7597 N   0  3  2  0  0  0  0  0  0  0  0  0
  146.2438  138.3229  153.4245 C   0  0  0  0  0  0  0  0  0  0  0  0
  147.0613  139.3656  152.6373 C   0  0  0  0  0  0  0  0  0  0  0  0
  148.3862  139.5562  153.2166 N   0  0  0  0  0  0  0  0  0  0  0  0
  148.6218  140.0327  154.4475 C   0  0  0  0  0  0  0  0  0  0  0  0
  147.7268  140.3526  155.2297 O   0  0  0  0  0  0  0  0  0  0  0  0
  149.9404  140.1226  154.6915 N   0  0  0  0  0  0  0  0  0  0  0  0
  150.5929  140.5905  155.8641 C   0  0  0  0  0  0  0  0  0  0  0  0
  150.1500  141.6839  156.6433 C   0  0  0  0  0  0  0  0  0  0  0  0
  150.8793  142.0440  157.7930 C   0  0  0  0  0  0  0  0  0  0  0  0
  152.0322  141.3000  158.1469 C   0  0  0  0  0  0  0  0  0  0  0  0
  152.7995  141.6266  159.2886 N   0  0  0  0  0  0  0  0  0  0  0  0
  152.5039  142.8432  160.0386 C   0  0  0  0  0  0  0  0  0  0  0  0
  153.8255  140.7094  159.7690 C   0  0  0  0  0  0  0  0  0  0  0  0
  152.4402  140.2417  157.4045 N   0  0  0  0  0  0  0  0  0  0  0  0
  151.7389  139.9001  156.3040 C   0  0  0  0  0  0  0  0  0  0  0  0
  145.3820  136.9678  151.5344 C   0  0  0  0  0  0  0  0  0  0  0  0
  145.4861  135.6103  150.8163 C   0  0  0  0  0  0  0  0  0  0  0  0
  143.2327  135.2096  152.5346 H   0  0  0  0  0  0  0  0  0  0  0  0
  143.3945  133.4617  152.6388 H   0  0  0  0  0  0  0  0  0  0  0  0
  143.0576  134.2211  151.0907 H   0  0  0  0  0  0  0  0  0  0  0  0
  145.4104  133.5126  151.2281 H   0  0  0  0  0  0  0  0  0  0  0  0
  145.6687  133.7428  153.7296 H   0  0  0  0  0  0  0  0  0  0  0  0
  147.0126  134.3302  152.7886 H   0  0  0  0  0  0  0  0  0  0  0  0
  144.8463  136.0709  154.0763 H   0  0  0  0  0  0  0  0  0  0  0  0
  146.5205  135.9290  154.5653 H   0  0  0  0  0  0  0  0  0  0  0  0
  145.2194  138.6624  153.5856 H   0  0  0  0  0  0  0  0  0  0  0  0
  146.6930  138.2239  154.4138 H   0  0  0  0  0  0  0  0  0  0  0  0
  147.1875  139.0354  151.6058 H   0  0  0  0  0  0  0  0  0  0  0  0
  146.5515  140.3283  152.5945 H   0  0  0  0  0  0  0  0  0  0  0  0
  149.1785  139.3234  152.6356 H   0  0  0  0  0  0  0  0  0  0  0  0
  150.5518  139.8915  153.9221 H   0  0  0  0  0  0  0  0  0  0  0  0
  149.2630  142.2447  156.3938 H   0  0  0  0  0  0  0  0  0  0  0  0
  150.5360  142.8807  158.3822 H   0  0  0  0  0  0  0  0  0  0  0  0
  151.4945  142.8034  160.4496 H   0  0  0  0  0  0  0  0  0  0  0  0
  152.5823  143.7198  159.3945 H   0  0  0  0  0  0  0  0  0  0  0  0
  153.1984  142.9782  160.8678 H   0  0  0  0  0  0  0  0  0  0  0  0
  154.6249  140.6117  159.0341 H   0  0  0  0  0  0  0  0  0  0  0  0
  153.4016  139.7229  159.9593 H   0  0  0  0  0  0  0  0  0  0  0  0
  154.2697  141.0627  160.6997 H   0  0  0  0  0  0  0  0  0  0  0  0
  152.1118  139.0490  155.7529 H   0  0  0  0  0  0  0  0  0  0  0  0
  144.3450  137.1815  151.7970 H   0  0  0  0  0  0  0  0  0  0  0  0
  145.6922  137.7501  150.8432 H   0  0  0  0  0  0  0  0  0  0  0  0
  146.5060  135.4809  150.4513 H   0  0  0  0  0  0  0  0  0  0  0  0
  144.8470  135.6045  149.9325 H   0  0  0  0  0  0  0  0  0  0  0  0
  147.1735  136.8056  152.4694 H   0  0  0  0  0  0  0  0  0  0  0  0
  1  2  1  0  0  0  0
  1 23  1  0  0  0  0
  1 24  1  0  0  0  0
  1 25  1  0  0  0  0
  2 22  1  0  0  0  0
  2  3  1  0  0  0  0
  2 26  1  0  0  0  0
  3  4  1  0  0  0  0
  3 27  1  0  0  0  0
  3 28  1  0  0  0  0
  4  5  1  0  0  0  0
  4 29  1  0  0  0  0
  4 30  1  0  0  0  0
  5  6  1  0  0  0  0
  5 21  1  0  0  0  0
  5 50  1  0  0  0  0
  6  7  1  0  0  0  0
  6 31  1  0  0  0  0
  6 32  1  0  0  0  0
  7  8  1  0  0  0  0
  7 33  1  0  0  0  0
  7 34  1  0  0  0  0
  8  9  1  0  0  0  0
  8 35  1  0  0  0  0
  9 10  2  0  0  0  0
  9 11  1  0  0  0  0
 11 12  1  0  0  0  0
 11 36  1  0  0  0  0
 12 20  1  0  0  0  0
 12 13  2  0  0  0  0
 13 14  1  0  0  0  0
 13 37  1  0  0  0  0
 14 15  2  0  0  0  0
 14 38  1  0  0  0  0
 15 16  1  0  0  0  0
 15 19  1  0  0  0  0
 16 17  1  0  0  0  0
 16 18  1  0  0  0  0
 17 39  1  0  0  0  0
 17 40  1  0  0  0  0
 17 41  1  0  0  0  0
 18 42  1  0  0  0  0
 18 43  1  0  0  0  0
 18 44  1  0  0  0  0
 19 20  2  0  0  0  0
 20 45  1  0  0  0  0
 21 22  1  0  0  0  0
 21 46  1  0  0  0  0
 21 47  1  0  0  0  0
 22 48  1  0  0  0  0
 22 49  1  0  0  0  0
M  CHG  1   5   1
M  END
> <s_m_source_file>
AV-unprocessed.smi

> <i_m_source_file_index>
308

> <i_lp_mmshare_version>
43012

> <i_f3d_flags>
0

> <s_epik_input>
W0NIM11bQ0hdMVtDSDJdW0NIMl1OKFtDSDJdW0NIMl0xKVtDSDJdW0NIMl1bTkhdQyg9TylbTkhdYzJbY0hdW2NIXWMoTihbQ0gzXSlbQ0gzXSluW2NIXTI=

> <s_epik_cmdline>
J2VwaWtfcHl0aG9uJywgJy1waCcsICc3LjAnLCAnLXRuJywgJzgnLCAnLW1hJywgJzIwMCcsICctbWV0YWxfYmluZGluZycsICctaW1hZScsICc8aW5maWxlLm1hZT4nLCAnLW9tYWUnLCAnPG91dGZpbGUubWFlPic=

> <r_lp_tautomer_probability>
1

> <r_epik_Ionization_Penalty>
0.536661

> <r_epik_Ionization_Penalty_Charging>
0.00139388

> <r_epik_Ionization_Penalty_Neutral>
0.535267

> <r_epik_State_Penalty>
0.543381

> <r_epik_Charging_Adjusted_Penalty>
0.544775

> <i_epik_Tot_Q>
1

> <i_epik_Tot_abs_Q>
1

> <r_epik_Metal_State_Penalty>
0.284523

> <b_epik_Metal_Only>
0

> <s_lp_Force_Field>
OPLS_2005

> <r_lp_Energy>
22.9976

> <b_lp_Chiralities_Consistent>
1

> <s_lp_Variant>
AV-unprocessed.smi:308-4

> <Gold.Version>
5.8.1

> <Gold.Id.Protein>
6NUR|6NUR_protein|mol2

> <Gold.PLP.Fitness>
48.2013

> <Gold.PLP.PLP>
-38.8756

> <Gold.PLP.part.hbond>
-2.7300

> <Gold.PLP.part.metal>
0.0000

> <Gold.PLP.part.buried>
-1.8348

> <Gold.PLP.part.nonpolar>
-34.1486

> <Gold.PLP.part.repulsive>
0.5314

> <Gold.PLP.ligand.clash>
0.0000

> <Gold.PLP.ligand.torsion>
0.7605

> <Gold.PLP.Chemscore.Hbond>
3.6000

> <Gold.PLP.Chemscore.CHOScore>
0.0000

> <Gold.PLP.Chemscore.Metal>
0.0000

> <Gold.Chemscore.Hbonds>
donor molecule, donor type, donor heavy atom, donor atom, acceptor molecule, acceptor atom, score
      L1  H     5    50       P1  7948  2.00
      L1  H     8    35       P1  7957  0.54
      P1  H  7997  8010       L1    19  0.88

> <Gold.PLP.Chemscore.Internal.Correction>
0.0466

> <Gold.Rescore>
     Score         DG    S(hbond)    S(metal)    S(lipo)     H(rot)  DE(clash)    DE(int)     intcor
     17.65     -19.06       2.20        0.00      84.40       1.42       0.06       1.35       ----

> <Gold.Chemscore.Fitness>
17.6516

> <Gold.Chemscore.DG>
-19.0641

> <Gold.Chemscore.ZeroCoef>
-5.4800

> <Gold.Chemscore.Hbond>
2.2021

> <Gold.Chemscore.Metal>
0.0000

> <Gold.Chemscore.Lipo>
84.3978

> <Gold.Chemscore.Internal_Hbond>
0.0000

> <Gold.Chemscore.DEClash>
0.0586

> <Gold.Chemscore.DEInternal>
1.3539

> <Gold.Chemscore.Rot>
1.4241

> <Gold.Chemscore.Internal.Correction>
   9.000000E+99

> <Gold.Chemscore.Hbonds>
donor molecule, donor type, donor heavy atom, donor atom, acceptor molecule, acceptor atom, score
      L1  H     5    50       P1  7948  0.99
      L1  H     8    35       P1  7957  0.56
      P1  H  7997  8010       L1    19  0.21

> <Gold.Chemscore.Hbond.Weighted>
-7.3552

> <Gold.Chemscore.Metal.Weighted>
-0.0000

> <Gold.Chemscore.Lipo.Weighted>
-9.8745

> <Gold.Chemscore.Internal_Hbond.Weighted>
0.0000

> <Gold.Chemscore.DEClash.Weighted>
0.0586

> <Gold.Chemscore.DEInternal.Weighted>
1.3539

> <Gold.Chemscore.Rot.Weighted>
3.6456

> <Gold.Chemscore.Internal.Correction.Weighted>
   9.000000E+99

> <Gold.Protein.RotatedTorsions>
[ 6907 6896 6895 6894 ] final -170.88 input  -60.11 | X-H torsion
[ 7974 7965 7964 7962 ] final   55.18 input  175.53 | X-H torsion
[ 8008 7997 7996 7995 ] final   59.00 input   59.86 | X-H torsion
[ 10167 10162 10161 10158 ] final  150.21 input  -65.29 | X-H torsion
[ 10718 10713 10712 10709 ] final  -55.14 input   66.30 | X-H torsion
[ 10763 10752 10751 10750 ] final  -29.84 input  -60.55 | X-H torsion
[ 11005 11000 10999 10996 ] final -114.58 input  -57.11 | X-H torsion

> <Gold.Protein.ActiveResidues>
 VAL166  LYS551  ARG553  GLY616  TRP617  ASP618  TYR619  PRO620  LYS621  CYS622 
 ASP623  PHE694  ASN695  SER759  ASP760  ASP761  ALA762  ILE779  LEU786  VAL792 
 PHE793  MET794  SER795  GLU796  ALA797  LYS798  CYS799  TRP800  GLU811  SER814 

> <Gold.Protein.RotatedAtoms>
  151.5149  133.3477  159.2891 H   0  0  0  0  0  0  0  0  0  0  0  0  # atno 6907 bound_to 6896
  150.8689  134.8060  159.7150 H   0  0  0  0  0  0  0  0  0  0  0  0  # atno 6908 bound_to 6896
  152.4684  134.5030  159.9782 H   0  0  0  0  0  0  0  0  0  0  0  0  # atno 6909 bound_to 6896
  145.9531  139.3990  143.0294 H   0  0  0  0  0  0  0  0  0  0  0  0  # atno 7974 bound_to 7965
  155.5591  140.3488  155.4487 H   0  0  0  0  0  0  0  0  0  0  0  0  # atno 8008 bound_to 7997
  156.0528  140.1321  157.0057 H   0  0  0  0  0  0  0  0  0  0  0  0  # atno 8009 bound_to 7997
  154.4442  140.1001  156.6386 H   0  0  0  0  0  0  0  0  0  0  0  0  # atno 8010 bound_to 7997
  139.4852  144.5540  151.7351 H   0  0  0  0  0  0  0  0  0  0  0  0  # atno 10167 bound_to 10162
  156.1392  130.4155  150.0132 H   0  0  0  0  0  0  0  0  0  0  0  0  # atno 10718 bound_to 10713
  153.7712  135.6912  153.4906 H   0  0  0  0  0  0  0  0  0  0  0  0  # atno 10763 bound_to 10752
  153.1873  135.4484  155.0103 H   0  0  0  0  0  0  0  0  0  0  0  0  # atno 10764 bound_to 10752
  154.8117  135.3380  154.7221 H   0  0  0  0  0  0  0  0  0  0  0  0  # atno 10765 bound_to 10752
  141.0543  133.9638  157.2782 H   0  0  0  0  0  0  0  0  0  0  0  0  # atno 11005 bound_to 11000
  145.8144  140.9710  143.0932 LP  0  0  0  0  0  0  0  0  0  0  0  0  # atno 17320 bound_to 7965
  144.6799  139.9962  143.7484 LP  0  0  0  0  0  0  0  0  0  0  0  0  # atno 17321 bound_to 7965
  140.5098  144.1042  150.5992 LP  0  0  0  0  0  0  0  0  0  0  0  0  # atno 17342 bound_to 10162
  140.3964  143.2726  152.0000 LP  0  0  0  0  0  0  0  0  0  0  0  0  # atno 17343 bound_to 10162
  156.8022  130.9294  151.3646 LP  0  0  0  0  0  0  0  0  0  0  0  0  # atno 17370 bound_to 10713
  157.6560  130.8925  149.9731 LP  0  0  0  0  0  0  0  0  0  0  0  0  # atno 17371 bound_to 10713
  139.9376  135.0195  156.8607 LP  0  0  0  0  0  0  0  0  0  0  0  0  # atno 17394 bound_to 11000
  140.5995  134.0185  155.7531 LP  0  0  0  0  0  0  0  0  0  0  0  0  # atno 17395 bound_to 11000

$$$$
