AV-unprocessed.smi:1129|AV-procd|sdf|4846|dock4
  -GOLD-   22720 3413D 1   1.00000     0.00000
 Structure written by MMmdl.
 40 41  0  0  0  0  0  0  0  0  1 V2000
  151.8927  144.7641  158.5294 C   0  0  0  0  0  0  0  0  0  0  0  0
  152.1326  143.3776  158.3635 O   0  0  0  0  0  0  0  0  0  0  0  0
  150.9697  142.6684  157.9701 C   0  0  0  0  0  0  0  0  0  0  0  0
  151.3477  141.2156  157.6686 C   0  0  0  0  0  0  0  0  0  0  0  0
  151.2667  141.0049  156.2622 O   0  0  0  0  0  0  0  0  0  0  0  0
  150.8755  139.7640  155.8030 C   0  0  0  0  0  0  0  0  0  0  0  0
  150.8941  138.6779  156.7001 C   0  0  0  0  0  0  0  0  0  0  0  0
  150.4931  137.4103  156.2380 C   0  0  0  0  0  0  0  0  0  0  0  0
  150.0761  137.2653  154.8996 C   0  0  0  0  0  0  0  0  0  0  0  0
  149.6887  135.9704  154.4601 N   0  0  0  0  0  0  0  0  0  0  0  0
  149.7180  134.8079  155.1380 C   0  0  0  0  0  0  0  0  0  0  0  0
  150.1109  134.6855  156.2981 O   0  0  0  0  0  0  0  0  0  0  0  0
  149.2400  133.5719  154.3626 C   0  0  2  0  0  0  0  0  0  0  0  0
  147.8045  133.7616  153.8460 C   0  0  0  0  0  0  0  0  0  0  0  0
  147.3530  132.5484  153.0169 C   0  0  0  0  0  0  0  0  0  0  0  0
  147.6748  131.2015  153.6812 C   0  0  0  0  0  0  0  0  0  0  0  0
  147.0962  130.1864  153.3012 O   0  0  0  0  0  0  0  0  0  0  0  0
  148.6136  131.1564  154.6429 N   0  0  0  0  0  0  0  0  0  0  0  0
  149.3020  132.3018  155.2384 C   0  0  0  0  0  0  0  0  0  0  0  0
  150.1069  138.4145  154.0724 C   0  0  0  0  0  0  0  0  0  0  0  0
  150.4924  139.6325  154.5091 N   0  0  0  0  0  0  0  0  0  0  0  0
  152.8096  145.2590  158.8492 H   0  0  0  0  0  0  0  0  0  0  0  0
  151.1301  144.9456  159.2880 H   0  0  0  0  0  0  0  0  0  0  0  0
  151.5719  145.2228  157.5933 H   0  0  0  0  0  0  0  0  0  0  0  0
  150.2244  142.7027  158.7660 H   0  0  0  0  0  0  0  0  0  0  0  0
  150.5294  143.1296  157.0848 H   0  0  0  0  0  0  0  0  0  0  0  0
  152.3602  141.0186  158.0250 H   0  0  0  0  0  0  0  0  0  0  0  0
  150.6669  140.5429  158.1928 H   0  0  0  0  0  0  0  0  0  0  0  0
  151.2102  138.8148  157.7236 H   0  0  0  0  0  0  0  0  0  0  0  0
  150.5014  136.5627  156.9078 H   0  0  0  0  0  0  0  0  0  0  0  0
  149.4126  135.9075  153.4909 H   0  0  0  0  0  0  0  0  0  0  0  0
  149.8929  133.4268  153.4995 H   0  0  0  0  0  0  0  0  0  0  0  0
  147.1170  133.9037  154.6819 H   0  0  0  0  0  0  0  0  0  0  0  0
  147.7369  134.6633  153.2359 H   0  0  0  0  0  0  0  0  0  0  0  0
  146.2826  132.6097  152.8164 H   0  0  0  0  0  0  0  0  0  0  0  0
  147.8526  132.5641  152.0477 H   0  0  0  0  0  0  0  0  0  0  0  0
  148.8265  130.2518  155.0379 H   0  0  0  0  0  0  0  0  0  0  0  0
  150.3400  132.0249  155.4253 H   0  0  0  0  0  0  0  0  0  0  0  0
  148.8468  132.4807  156.2138 H   0  0  0  0  0  0  0  0  0  0  0  0
  149.8398  138.3765  153.0282 H   0  0  0  0  0  0  0  0  0  0  0  0
  1  2  1  0  0  0  0
  1 22  1  0  0  0  0
  1 23  1  0  0  0  0
  1 24  1  0  0  0  0
  2  3  1  0  0  0  0
  3  4  1  0  0  0  0
  3 25  1  0  0  0  0
  3 26  1  0  0  0  0
  4  5  1  0  0  0  0
  4 27  1  0  0  0  0
  4 28  1  0  0  0  0
  5  6  1  0  0  0  0
  6 21  1  0  0  0  0
  6  7  2  0  0  0  0
  7  8  1  0  0  0  0
  7 29  1  0  0  0  0
  8  9  2  0  0  0  0
  8 30  1  0  0  0  0
  9 10  1  0  0  0  0
  9 20  1  0  0  0  0
 10 11  1  0  0  0  0
 10 31  1  0  0  0  0
 11 12  2  0  0  0  0
 11 13  1  0  0  0  0
 13 19  1  0  0  0  0
 13 14  1  0  0  0  0
 13 32  1  0  0  0  0
 14 15  1  0  0  0  0
 14 33  1  0  0  0  0
 14 34  1  0  0  0  0
 15 16  1  0  0  0  0
 15 35  1  0  0  0  0
 15 36  1  0  0  0  0
 16 17  2  0  0  0  0
 16 18  1  0  0  0  0
 18 19  1  0  0  0  0
 18 37  1  0  0  0  0
 19 38  1  0  0  0  0
 19 39  1  0  0  0  0
 20 21  2  0  0  0  0
 20 40  1  0  0  0  0
M  END
> <s_m_source_file>
AV-unprocessed.smi

> <i_m_source_file_index>
1129

> <i_lp_mmshare_version>
43012

> <i_f3d_flags>
0

> <s_epik_input>
W0NIM11PW0NIMl1bQ0gyXU9jMVtjSF1bY0hdYyhbY0hdbjEpW05IXUMoPU8pW0NAQEhdMltDSDJdW0NIMl1DKD1PKVtOSF1bQ0gyXTI=

> <s_epik_cmdline>
J2VwaWtfcHl0aG9uJywgJy1waCcsICc3LjAnLCAnLXRuJywgJzgnLCAnLW1hJywgJzIwMCcsICctbWV0YWxfYmluZGluZycsICctaW1hZScsICc8aW5maWxlLm1hZT4nLCAnLW9tYWUnLCAnPG91dGZpbGUubWFlPic=

> <r_lp_tautomer_probability>
1

> <r_epik_Ionization_Penalty>
1.79985e-05

> <r_epik_Ionization_Penalty_Charging>
0

> <r_epik_Ionization_Penalty_Neutral>
1.79985e-05

> <r_epik_State_Penalty>
-0

> <r_epik_Charging_Adjusted_Penalty>
0

> <i_epik_Tot_Q>
0

> <i_epik_Tot_abs_Q>
0

> <r_epik_Metal_State_Penalty>
-0

> <b_epik_Metal_Only>
0

> <s_lp_Force_Field>
OPLS_2005

> <r_lp_Energy>
17.0479

> <b_lp_Chiralities_Consistent>
1

> <s_lp_Variant>
AV-unprocessed.smi:1129-1

> <Gold.Version>
5.8.1

> <Gold.Id.Protein>
6NUR|6NUR_protein|mol2

> <Gold.PLP.Fitness>
43.2752

> <Gold.PLP.PLP>
-33.3373

> <Gold.PLP.part.hbond>
-2.6263

> <Gold.PLP.part.metal>
0.0000

> <Gold.PLP.part.buried>
-5.5668

> <Gold.PLP.part.nonpolar>
-27.7747

> <Gold.PLP.part.repulsive>
0.3270

> <Gold.PLP.ligand.clash>
0.0000

> <Gold.PLP.ligand.torsion>
0.7830

> <Gold.PLP.Chemscore.Hbond>
1.9500

> <Gold.PLP.Chemscore.CHOScore>
1.8527

> <Gold.PLP.Chemscore.Metal>
0.0000

> <Gold.Chemscore.Hbonds>
donor molecule, donor type, donor heavy atom, donor atom, acceptor molecule, acceptor atom, score
      L1  H    10    31       P1  7948  1.00
      P1  H  7989  7998       L1    21  1.00
      L1  C    20    40       P1  7948  0.84
      L1  C    20    40       P1  7957  1.00

> <Gold.PLP.Chemscore.Internal.Correction>
0.0957

> <Gold.Rescore>
     Score         DG    S(hbond)    S(metal)    S(lipo)     H(rot)  DE(clash)    DE(int)     intcor
     11.87     -14.16       1.75        0.00      68.52       2.03       0.03       2.26       ----

> <Gold.Chemscore.Fitness>
11.8726

> <Gold.Chemscore.DG>
-14.1628

> <Gold.Chemscore.ZeroCoef>
-5.4800

> <Gold.Chemscore.Hbond>
1.7517

> <Gold.Chemscore.Metal>
0.0000

> <Gold.Chemscore.Lipo>
68.5228

> <Gold.Chemscore.Internal_Hbond>
0.0000

> <Gold.Chemscore.DEClash>
0.0335

> <Gold.Chemscore.DEInternal>
2.2567

> <Gold.Chemscore.Rot>
2.0255

> <Gold.Chemscore.Internal.Correction>
   9.000000E+99

> <Gold.Chemscore.Hbonds>
donor molecule, donor type, donor heavy atom, donor atom, acceptor molecule, acceptor atom, score
      L1  H    10    31       P1  7948  0.45
      P1  H  7989  7998       L1    21  0.54

> <Gold.Chemscore.Hbond.Weighted>
-5.8508

> <Gold.Chemscore.Metal.Weighted>
-0.0000

> <Gold.Chemscore.Lipo.Weighted>
-8.0172

> <Gold.Chemscore.Internal_Hbond.Weighted>
0.0000

> <Gold.Chemscore.DEClash.Weighted>
0.0335

> <Gold.Chemscore.DEInternal.Weighted>
2.2567

> <Gold.Chemscore.Rot.Weighted>
5.1853

> <Gold.Chemscore.Internal.Correction.Weighted>
   9.000000E+99

> <Gold.Protein.RotatedTorsions>
[ 6907 6896 6895 6894 ] final   97.01 input  -60.11 | X-H torsion
[ 7974 7965 7964 7962 ] final  175.90 input  175.53 | X-H torsion
[ 8008 7997 7996 7995 ] final   11.29 input   59.86 | X-H torsion
[ 10167 10162 10161 10158 ] final   13.99 input  -65.29 | X-H torsion
[ 10718 10713 10712 10709 ] final  -26.52 input   66.30 | X-H torsion
[ 10763 10752 10751 10750 ] final   44.48 input  -60.55 | X-H torsion
[ 11005 11000 10999 10996 ] final   14.07 input  -57.11 | X-H torsion

> <Gold.Protein.ActiveResidues>
 VAL166  LYS551  ARG553  GLY616  TRP617  ASP618  TYR619  PRO620  LYS621  CYS622 
 ASP623  PHE694  ASN695  SER759  ASP760  ASP761  ALA762  ILE779  LEU786  VAL792 
 PHE793  MET794  SER795  GLU796  ALA797  LYS798  CYS799  TRP800  GLU811  SER814 

> <Gold.Protein.RotatedAtoms>
  152.5428  134.0798  159.8230 H   0  0  0  0  0  0  0  0  0  0  0  0  # atno 6907 bound_to 6896
  151.0902  133.5315  159.2623 H   0  0  0  0  0  0  0  0  0  0  0  0  # atno 6908 bound_to 6896
  151.2109  135.0489  159.8965 H   0  0  0  0  0  0  0  0  0  0  0  0  # atno 6909 bound_to 6896
  144.7193  140.0016  143.6440 H   0  0  0  0  0  0  0  0  0  0  0  0  # atno 7974 bound_to 7965
  154.8049  140.2858  155.5895 H   0  0  0  0  0  0  0  0  0  0  0  0  # atno 8008 bound_to 7997
  156.2981  140.2579  156.2854 H   0  0  0  0  0  0  0  0  0  0  0  0  # atno 8009 bound_to 7997
  154.9515  140.0379  157.2136 H   0  0  0  0  0  0  0  0  0  0  0  0  # atno 8010 bound_to 7997
  140.5965  143.8690  150.6923 H   0  0  0  0  0  0  0  0  0  0  0  0  # atno 10167 bound_to 10162
  156.4501  130.4482  149.6995 H   0  0  0  0  0  0  0  0  0  0  0  0  # atno 10718 bound_to 10713
  152.9840  135.6069  154.3280 H   0  0  0  0  0  0  0  0  0  0  0  0  # atno 10763 bound_to 10752
  154.2986  135.2773  155.2623 H   0  0  0  0  0  0  0  0  0  0  0  0  # atno 10764 bound_to 10752
  154.4886  135.5898  153.6499 H   0  0  0  0  0  0  0  0  0  0  0  0  # atno 10765 bound_to 10752
  140.4736  134.1006  155.7737 H   0  0  0  0  0  0  0  0  0  0  0  0  # atno 11005 bound_to 11000
  146.0331  139.3353  143.0743 LP  0  0  0  0  0  0  0  0  0  0  0  0  # atno 17320 bound_to 7965
  145.8428  140.9571  143.0790 LP  0  0  0  0  0  0  0  0  0  0  0  0  # atno 17321 bound_to 7965
  140.2226  143.3797  152.1631 LP  0  0  0  0  0  0  0  0  0  0  0  0  # atno 17342 bound_to 10162
  139.5262  144.7105  151.5221 LP  0  0  0  0  0  0  0  0  0  0  0  0  # atno 17343 bound_to 10162
  156.3825  130.7586  151.2580 LP  0  0  0  0  0  0  0  0  0  0  0  0  # atno 17370 bound_to 10713
  157.7503  131.0291  150.4080 LP  0  0  0  0  0  0  0  0  0  0  0  0  # atno 17371 bound_to 10713
  141.1565  133.8873  157.1963 LP  0  0  0  0  0  0  0  0  0  0  0  0  # atno 17394 bound_to 11000
  139.9870  135.0078  156.9885 LP  0  0  0  0  0  0  0  0  0  0  0  0  # atno 17395 bound_to 11000

$$$$
