AV-unprocessed.smi:3346|AV-procd|sdf|12907|dock6
  -GOLD-   2272019323D 1   1.00000     0.00000
 Structure written by MMmdl.
 48 49  0  0  0  0  0  0  0  0  2 V2000
  151.7473  145.8308  159.8154 C   0  0  0  0  0  0  0  0  0  0  0  0
  150.4558  145.1214  159.3750 C   0  0  0  0  0  0  0  0  0  0  0  0
  149.3532  145.3179  160.4270 C   0  0  0  0  0  0  0  0  0  0  0  0
  150.6703  143.6167  159.1048 C   0  0  0  0  0  0  0  0  0  0  0  0
  151.2871  143.2448  157.7358 C   0  0  2  0  0  0  0  0  0  0  0  0
  151.9288  144.4535  157.0368 C   0  0  0  0  0  0  0  0  0  0  0  0
  150.2414  142.6788  156.8574 N   0  3  0  0  0  0  0  0  0  0  0  0
  150.7410  141.9987  155.6442 C   0  0  0  0  0  0  0  0  0  0  0  0
  149.6431  141.1448  155.0328 C   0  0  0  0  0  0  0  0  0  0  0  0
  148.5087  141.7631  154.4656 C   0  0  0  0  0  0  0  0  0  0  0  0
  147.4896  140.9593  153.9237 C   0  0  0  0  0  0  0  0  0  0  0  0
  147.6449  139.5616  153.9718 C   0  0  0  0  0  0  0  0  0  0  0  0
  148.7236  138.9568  154.5118 N   0  0  0  0  0  0  0  0  0  0  0  0
  149.7086  139.7265  155.0342 C   0  0  0  0  0  0  0  0  0  0  0  0
  150.8288  139.0706  155.5748 N   0  0  0  0  0  0  0  0  0  0  0  0
  152.0744  139.2252  154.8308 C   0  0  0  0  0  0  0  0  0  0  0  0
  153.1678  138.3378  155.4505 C   0  0  0  0  0  0  0  0  0  0  0  0
  153.3219  138.6668  156.8279 O   0  0  0  0  0  0  0  0  0  0  0  0
  152.1252  138.4511  157.5703 C   0  0  0  0  0  0  0  0  0  0  0  0
  150.9938  139.3256  157.0006 C   0  0  0  0  0  0  0  0  0  0  0  0
  152.1742  145.3633  160.7034 H   0  0  0  0  0  0  0  0  0  0  0  0
  151.5566  146.8778  160.0524 H   0  0  0  0  0  0  0  0  0  0  0  0
  152.5030  145.8158  159.0306 H   0  0  0  0  0  0  0  0  0  0  0  0
  150.1057  145.5979  158.4595 H   0  0  0  0  0  0  0  0  0  0  0  0
  149.6287  144.8658  161.3805 H   0  0  0  0  0  0  0  0  0  0  0  0
  148.4148  144.8651  160.1047 H   0  0  0  0  0  0  0  0  0  0  0  0
  149.1609  146.3766  160.6041 H   0  0  0  0  0  0  0  0  0  0  0  0
  151.2946  143.2201  159.9044 H   0  0  0  0  0  0  0  0  0  0  0  0
  149.7137  143.1011  159.2020 H   0  0  0  0  0  0  0  0  0  0  0  0
  152.0574  142.4837  157.8632 H   0  0  0  0  0  0  0  0  0  0  0  0
  152.7780  144.8385  157.6008 H   0  0  0  0  0  0  0  0  0  0  0  0
  151.2137  145.2671  156.9104 H   0  0  0  0  0  0  0  0  0  0  0  0
  152.3007  144.1819  156.0483 H   0  0  0  0  0  0  0  0  0  0  0  0
  149.6999  142.0220  157.4009 H   0  0  0  0  0  0  0  0  0  0  0  0
  151.0811  142.7488  154.9296 H   0  0  0  0  0  0  0  0  0  0  0  0
  151.6074  141.3766  155.8668 H   0  0  0  0  0  0  0  0  0  0  0  0
  148.4165  142.8393  154.4485 H   0  0  0  0  0  0  0  0  0  0  0  0
  146.6088  141.4025  153.4832 H   0  0  0  0  0  0  0  0  0  0  0  0
  146.8832  138.9121  153.5666 H   0  0  0  0  0  0  0  0  0  0  0  0
  151.9171  138.9543  153.7862 H   0  0  0  0  0  0  0  0  0  0  0  0
  152.3945  140.2679  154.8521 H   0  0  0  0  0  0  0  0  0  0  0  0
  152.9222  137.2802  155.3437 H   0  0  0  0  0  0  0  0  0  0  0  0
  154.1168  138.4978  154.9387 H   0  0  0  0  0  0  0  0  0  0  0  0
  151.8555  137.3946  157.5436 H   0  0  0  0  0  0  0  0  0  0  0  0
  152.3053  138.7049  158.6150 H   0  0  0  0  0  0  0  0  0  0  0  0
  151.2263  140.3805  157.1545 H   0  0  0  0  0  0  0  0  0  0  0  0
  150.0624  139.1224  157.5304 H   0  0  0  0  0  0  0  0  0  0  0  0
  149.6306  143.4254  156.5580 H   0  0  0  0  0  0  0  0  0  0  0  0
  1  2  1  0  0  0  0
  1 21  1  0  0  0  0
  1 22  1  0  0  0  0
  1 23  1  0  0  0  0
  2  3  1  0  0  0  0
  2  4  1  0  0  0  0
  2 24  1  0  0  0  0
  3 25  1  0  0  0  0
  3 26  1  0  0  0  0
  3 27  1  0  0  0  0
  4  5  1  0  0  0  0
  4 28  1  0  0  0  0
  4 29  1  0  0  0  0
  5  6  1  0  0  0  0
  5  7  1  0  0  0  0
  5 30  1  0  0  0  0
  6 31  1  0  0  0  0
  6 32  1  0  0  0  0
  6 33  1  0  0  0  0
  7  8  1  0  0  0  0
  7 34  1  0  0  0  0
  7 48  1  0  0  0  0
  8  9  1  0  0  0  0
  8 35  1  0  0  0  0
  8 36  1  0  0  0  0
  9 14  1  0  0  0  0
  9 10  2  0  0  0  0
 10 11  1  0  0  0  0
 10 37  1  0  0  0  0
 11 12  2  0  0  0  0
 11 38  1  0  0  0  0
 12 13  1  0  0  0  0
 12 39  1  0  0  0  0
 13 14  2  0  0  0  0
 14 15  1  0  0  0  0
 15 20  1  0  0  0  0
 15 16  1  0  0  0  0
 16 17  1  0  0  0  0
 16 40  1  0  0  0  0
 16 41  1  0  0  0  0
 17 18  1  0  0  0  0
 17 42  1  0  0  0  0
 17 43  1  0  0  0  0
 18 19  1  0  0  0  0
 19 20  1  0  0  0  0
 19 44  1  0  0  0  0
 19 45  1  0  0  0  0
 20 46  1  0  0  0  0
 20 47  1  0  0  0  0
M  CHG  1   7   1
M  END
> <s_m_source_file>
AV-unprocessed.smi

> <i_m_source_file_index>
3346

> <i_lp_mmshare_version>
43012

> <i_f3d_flags>
0

> <s_epik_input>
W0NIM11bQ0hdKFtDSDNdKVtDSDJdW0NASF0oW0NIM10pW05IXVtDSDJdYzFbY0hdW2NIXVtjSF1uYzFOMltDSDJdW0NIMl1PW0NIMl1bQ0gyXTI=

> <s_epik_cmdline>
J2VwaWtfcHl0aG9uJywgJy1waCcsICc3LjAnLCAnLXRuJywgJzgnLCAnLW1hJywgJzIwMCcsICctbWV0YWxfYmluZGluZycsICctaW1hZScsICc8aW5maWxlLm1hZT4nLCAnLW9tYWUnLCAnPG91dGZpbGUubWFlPic=

> <r_lp_tautomer_probability>
1

> <r_epik_Ionization_Penalty>
0.0185938

> <r_epik_Ionization_Penalty_Charging>
0.0176519

> <r_epik_Ionization_Penalty_Neutral>
0.000941891

> <r_epik_State_Penalty>
0.0140027

> <r_epik_Charging_Adjusted_Penalty>
0.0316546

> <i_epik_Tot_Q>
1

> <i_epik_Tot_abs_Q>
1

> <r_epik_Metal_State_Penalty>
0.0141454

> <b_epik_Metal_Only>
0

> <s_lp_Force_Field>
OPLS_2005

> <r_lp_Energy>
22.6913

> <b_lp_Chiralities_Consistent>
1

> <s_lp_Variant>
AV-unprocessed.smi:3346-1

> <Gold.Version>
5.8.1

> <Gold.Id.Protein>
6NUR|6NUR_protein|mol2

> <Gold.PLP.Fitness>
44.9406

> <Gold.PLP.PLP>
-38.0545

> <Gold.PLP.part.hbond>
-2.0000

> <Gold.PLP.part.metal>
0.0000

> <Gold.PLP.part.buried>
-2.2980

> <Gold.PLP.part.nonpolar>
-33.2368

> <Gold.PLP.part.repulsive>
0.1894

> <Gold.PLP.ligand.clash>
0.0000

> <Gold.PLP.ligand.torsion>
1.1363

> <Gold.PLP.Chemscore.Hbond>
3.0000

> <Gold.PLP.Chemscore.CHOScore>
0.0000

> <Gold.PLP.Chemscore.Metal>
0.0000

> <Gold.Chemscore.Hbonds>
donor molecule, donor type, donor heavy atom, donor atom, acceptor molecule, acceptor atom, score
      L1  H     7    48       P1  8028  2.00
      P1  H  7997  8008       L1    18  1.00

> <Gold.PLP.Chemscore.Internal.Correction>
0.1587

> <Gold.Rescore>
     Score         DG    S(hbond)    S(metal)    S(lipo)     H(rot)  DE(clash)    DE(int)     intcor
     17.96     -21.34       1.80        0.00     119.80       1.62       1.06       2.32       ----

> <Gold.Chemscore.Fitness>
17.9587

> <Gold.Chemscore.DG>
-21.3401

> <Gold.Chemscore.ZeroCoef>
-5.4800

> <Gold.Chemscore.Hbond>
1.7974

> <Gold.Chemscore.Metal>
0.0000

> <Gold.Chemscore.Lipo>
119.7983

> <Gold.Chemscore.Internal_Hbond>
0.0000

> <Gold.Chemscore.DEClash>
1.0565

> <Gold.Chemscore.DEInternal>
2.3249

> <Gold.Chemscore.Rot>
1.6248

> <Gold.Chemscore.Internal.Correction>
   9.000000E+99

> <Gold.Chemscore.Hbonds>
donor molecule, donor type, donor heavy atom, donor atom, acceptor molecule, acceptor atom, score
      L1  H     7    48       P1  8028  1.00
      P1  H  7997  8008       L1    18  0.25

> <Gold.Chemscore.Hbond.Weighted>
-6.0033

> <Gold.Chemscore.Metal.Weighted>
-0.0000

> <Gold.Chemscore.Lipo.Weighted>
-14.0164

> <Gold.Chemscore.Internal_Hbond.Weighted>
0.0000

> <Gold.Chemscore.DEClash.Weighted>
1.0565

> <Gold.Chemscore.DEInternal.Weighted>
2.3249

> <Gold.Chemscore.Rot.Weighted>
4.1596

> <Gold.Chemscore.Internal.Correction.Weighted>
   9.000000E+99

> <Gold.Protein.RotatedTorsions>
[ 6907 6896 6895 6894 ] final  157.27 input  -60.11 | X-H torsion
[ 7974 7965 7964 7962 ] final  -86.21 input  175.53 | X-H torsion
[ 8008 7997 7996 7995 ] final  -64.11 input   59.86 | X-H torsion
[ 10167 10162 10161 10158 ] final  -38.14 input  -65.29 | X-H torsion
[ 10718 10713 10712 10709 ] final   99.14 input   66.30 | X-H torsion
[ 10763 10752 10751 10750 ] final  115.09 input  -60.55 | X-H torsion
[ 11005 11000 10999 10996 ] final  -83.03 input  -57.11 | X-H torsion

> <Gold.Protein.ActiveResidues>
 VAL166  LYS551  ARG553  GLY616  TRP617  ASP618  TYR619  PRO620  LYS621  CYS622 
 ASP623  PHE694  ASN695  SER759  ASP760  ASP761  ALA762  ILE779  LEU786  VAL792 
 PHE793  MET794  SER795  GLU796  ALA797  LYS798  CYS799  TRP800  GLU811  SER814 

> <Gold.Protein.RotatedAtoms>
  152.0176  133.3886  159.4244 H   0  0  0  0  0  0  0  0  0  0  0  0  # atno 6907 bound_to 6896
  150.6893  134.3661  159.4981 H   0  0  0  0  0  0  0  0  0  0  0  0  # atno 6908 bound_to 6896
  152.1431  134.9047  160.0603 H   0  0  0  0  0  0  0  0  0  0  0  0  # atno 6909 bound_to 6896
  145.4829  140.9556  143.1854 H   0  0  0  0  0  0  0  0  0  0  0  0  # atno 7974 bound_to 7965
  154.4592  140.0961  156.6846 H   0  0  0  0  0  0  0  0  0  0  0  0  # atno 8008 bound_to 7997
  155.5044  140.3474  155.4358 H   0  0  0  0  0  0  0  0  0  0  0  0  # atno 8009 bound_to 7997
  156.0838  140.1380  156.9668 H   0  0  0  0  0  0  0  0  0  0  0  0  # atno 8010 bound_to 7997
  140.7100  143.3296  151.2599 H   0  0  0  0  0  0  0  0  0  0  0  0  # atno 10167 bound_to 10162
  157.6882  131.0661  150.4903 H   0  0  0  0  0  0  0  0  0  0  0  0  # atno 10718 bound_to 10713
  153.5170  135.3606  155.2614 H   0  0  0  0  0  0  0  0  0  0  0  0  # atno 10763 bound_to 10752
  154.8738  135.4036  154.3303 H   0  0  0  0  0  0  0  0  0  0  0  0  # atno 10764 bound_to 10752
  153.3967  135.7073  153.6522 H   0  0  0  0  0  0  0  0  0  0  0  0  # atno 10765 bound_to 10752
  141.1660  133.7274  156.8659 H   0  0  0  0  0  0  0  0  0  0  0  0  # atno 11005 bound_to 11000
  144.7878  139.6390  143.7126 LP  0  0  0  0  0  0  0  0  0  0  0  0  # atno 17320 bound_to 7965
  146.2330  139.5851  142.9542 LP  0  0  0  0  0  0  0  0  0  0  0  0  # atno 17321 bound_to 7965
  139.6774  143.9913  152.2789 LP  0  0  0  0  0  0  0  0  0  0  0  0  # atno 17342 bound_to 10162
  139.9532  144.6607  150.8152 LP  0  0  0  0  0  0  0  0  0  0  0  0  # atno 17343 bound_to 10162
  156.5230  130.4166  149.6240 LP  0  0  0  0  0  0  0  0  0  0  0  0  # atno 17370 bound_to 10713
  156.3137  130.7243  151.2141 LP  0  0  0  0  0  0  0  0  0  0  0  0  # atno 17371 bound_to 10713
  140.1816  134.9029  157.2955 LP  0  0  0  0  0  0  0  0  0  0  0  0  # atno 17394 bound_to 11000
  140.2389  134.3819  155.7489 LP  0  0  0  0  0  0  0  0  0  0  0  0  # atno 17395 bound_to 11000

$$$$
