AV-unprocessed.smi:2336|AV-procd|sdf|9332|dock5
  -GOLD-   2272012553D 1   1.00000     0.00000
 Structure written by MMmdl.
 49 50  0  0  0  0  0  0  0  0  1 V2000
  150.4299  136.7228  155.6671 C   0  0  0  0  0  0  0  0  0  0  0  0
  150.7195  137.6613  154.4817 C   0  0  0  0  0  0  0  0  0  0  0  0
  152.2342  137.7406  154.2124 C   0  0  0  0  0  0  0  0  0  0  0  0
  149.9981  139.0492  154.5875 C   0  0  1  0  0  0  0  0  0  0  0  0
  148.4625  138.8851  154.7879 C   0  0  0  0  0  0  0  0  0  0  0  0
  147.9055  137.8302  153.9462 N   0  0  0  0  0  0  0  0  0  0  0  0
  146.6652  137.3324  154.0339 C   0  0  0  0  0  0  0  0  0  0  0  0
  145.8443  137.6921  154.8776 O   0  0  0  0  0  0  0  0  0  0  0  0
  146.4584  136.3950  153.0939 N   0  0  0  0  0  0  0  0  0  0  0  0
  145.2723  135.6681  152.8021 C   0  0  0  0  0  0  0  0  0  0  0  0
  143.9653  136.1236  153.1017 C   0  0  0  0  0  0  0  0  0  0  0  0
  142.8695  135.3162  152.7362 C   0  0  0  0  0  0  0  0  0  0  0  0
  142.9968  134.1291  152.1064 N   0  0  0  0  0  0  0  0  0  0  0  0
  144.2435  133.7040  151.8118 C   0  0  0  0  0  0  0  0  0  0  0  0
  145.4058  134.4337  152.1319 C   0  0  0  0  0  0  0  0  0  0  0  0
  146.6284  133.9514  151.8016 F   0  0  0  0  0  0  0  0  0  0  0  0
  150.6155  139.9922  155.5565 N   0  0  0  0  0  0  0  0  0  0  0  0
  150.4687  139.5416  156.9508 C   0  0  0  0  0  0  0  0  0  0  0  0
  151.1300  140.5050  157.9533 C   0  0  0  0  0  0  0  0  0  0  0  0
  150.5645  141.8455  157.8550 N   0  0  0  0  0  0  0  0  0  0  0  0
  151.1786  142.7565  158.8086 C   0  0  0  0  0  0  0  0  0  0  0  0
  150.7255  142.3149  156.4839 C   0  0  0  0  0  0  0  0  0  0  0  0
  150.0652  141.3551  155.4767 C   0  0  0  0  0  0  0  0  0  0  0  0
  150.9586  137.0250  156.5709 H   0  0  0  0  0  0  0  0  0  0  0  0
  150.7495  135.7054  155.4396 H   0  0  0  0  0  0  0  0  0  0  0  0
  149.3638  136.6864  155.8922 H   0  0  0  0  0  0  0  0  0  0  0  0
  150.2809  137.1332  153.6369 H   0  0  0  0  0  0  0  0  0  0  0  0
  152.7844  138.0969  155.0822 H   0  0  0  0  0  0  0  0  0  0  0  0
  152.4628  138.4008  153.3760 H   0  0  0  0  0  0  0  0  0  0  0  0
  152.6325  136.7561  153.9658 H   0  0  0  0  0  0  0  0  0  0  0  0
  150.1107  139.4988  153.5995 H   0  0  0  0  0  0  0  0  0  0  0  0
  148.2391  138.6366  155.8250 H   0  0  0  0  0  0  0  0  0  0  0  0
  147.9435  139.8292  154.6312 H   0  0  0  0  0  0  0  0  0  0  0  0
  148.5107  137.4724  153.2213 H   0  0  0  0  0  0  0  0  0  0  0  0
  147.2605  136.1461  152.5333 H   0  0  0  0  0  0  0  0  0  0  0  0
  143.7801  137.0697  153.5858 H   0  0  0  0  0  0  0  0  0  0  0  0
  141.8607  135.6374  152.9500 H   0  0  0  0  0  0  0  0  0  0  0  0
  144.3174  132.7545  151.3025 H   0  0  0  0  0  0  0  0  0  0  0  0
  149.4118  139.4246  157.1962 H   0  0  0  0  0  0  0  0  0  0  0  0
  150.9335  138.5678  157.0926 H   0  0  0  0  0  0  0  0  0  0  0  0
  150.9932  140.1217  158.9649 H   0  0  0  0  0  0  0  0  0  0  0  0
  152.2063  140.5370  157.7748 H   0  0  0  0  0  0  0  0  0  0  0  0
  150.7351  143.7499  158.7340 H   0  0  0  0  0  0  0  0  0  0  0  0
  152.2512  142.8490  158.6320 H   0  0  0  0  0  0  0  0  0  0  0  0
  151.0316  142.4031  159.8297 H   0  0  0  0  0  0  0  0  0  0  0  0
  150.2820  143.3057  156.3802 H   0  0  0  0  0  0  0  0  0  0  0  0
  151.7852  142.4212  156.2460 H   0  0  0  0  0  0  0  0  0  0  0  0
  150.2340  141.7805  154.4895 H   0  0  0  0  0  0  0  0  0  0  0  0
  148.9860  141.3345  155.6358 H   0  0  0  0  0  0  0  0  0  0  0  0
  1  2  1  0  0  0  0
  1 24  1  0  0  0  0
  1 25  1  0  0  0  0
  1 26  1  0  0  0  0
  2  3  1  0  0  0  0
  2  4  1  0  0  0  0
  2 27  1  0  0  0  0
  3 28  1  0  0  0  0
  3 29  1  0  0  0  0
  3 30  1  0  0  0  0
  4  5  1  0  0  0  0
  4 17  1  0  0  0  0
  4 31  1  0  0  0  0
  5  6  1  0  0  0  0
  5 32  1  0  0  0  0
  5 33  1  0  0  0  0
  6  7  1  0  0  0  0
  6 34  1  0  0  0  0
  7  8  2  0  0  0  0
  7  9  1  0  0  0  0
  9 10  1  0  0  0  0
  9 35  1  0  0  0  0
 10 15  1  0  0  0  0
 10 11  2  0  0  0  0
 11 12  1  0  0  0  0
 11 36  1  0  0  0  0
 12 13  2  0  0  0  0
 12 37  1  0  0  0  0
 13 14  1  0  0  0  0
 14 15  2  0  0  0  0
 14 38  1  0  0  0  0
 15 16  1  0  0  0  0
 17 23  1  0  0  0  0
 17 18  1  0  0  0  0
 18 19  1  0  0  0  0
 18 39  1  0  0  0  0
 18 40  1  0  0  0  0
 19 20  1  0  0  0  0
 19 41  1  0  0  0  0
 19 42  1  0  0  0  0
 20 21  1  0  0  0  0
 20 22  1  0  0  0  0
 21 43  1  0  0  0  0
 21 44  1  0  0  0  0
 21 45  1  0  0  0  0
 22 23  1  0  0  0  0
 22 46  1  0  0  0  0
 22 47  1  0  0  0  0
 23 48  1  0  0  0  0
 23 49  1  0  0  0  0
M  END
> <s_m_source_file>
AV-unprocessed.smi

> <i_m_source_file_index>
2336

> <i_lp_mmshare_version>
43012

> <i_f3d_flags>
0

> <s_epik_input>
W0NIMl0xW0NIMl1OKFtDSDNdKVtDSDJdW0NIMl1OMVtDQEhdKFtDSF0oW0NIM10pW0NIM10pW0NIMl1bTkhdQyg9TylbTkhdYzJbY0hdW2NIXW5bY0hdYzJG

> <s_epik_cmdline>
J2VwaWtfcHl0aG9uJywgJy1waCcsICc3LjAnLCAnLXRuJywgJzgnLCAnLW1hJywgJzIwMCcsICctbWV0YWxfYmluZGluZycsICctaW1hZScsICc8aW5maWxlLm1hZT4nLCAnLW9tYWUnLCAnPG91dGZpbGUubWFlPic=

> <r_epik_Ionization_Penalty>
2.58102

> <r_epik_Ionization_Penalty_Charging>
0

> <r_epik_Ionization_Penalty_Neutral>
2.58102

> <r_epik_State_Penalty>
2.00874

> <r_epik_Charging_Adjusted_Penalty>
2.00874

> <i_epik_Tot_Q>
0

> <i_epik_Tot_abs_Q>
0

> <r_epik_Metal_State_Penalty>
2.00867

> <b_epik_Metal_Only>
0

> <s_lp_Force_Field>
OPLS_2005

> <r_lp_Energy>
52.4608

> <b_lp_Chiralities_Consistent>
1

> <s_lp_Variant>
AV-unprocessed.smi:2336-6

> <Gold.Version>
5.8.1

> <Gold.Id.Protein>
6NUR|6NUR_protein|mol2

> <Gold.PLP.Fitness>
36.2355

> <Gold.PLP.PLP>
-30.6845

> <Gold.PLP.part.hbond>
-2.0000

> <Gold.PLP.part.metal>
0.0000

> <Gold.PLP.part.buried>
-4.4298

> <Gold.PLP.part.nonpolar>
-25.7489

> <Gold.PLP.part.repulsive>
0.3526

> <Gold.PLP.ligand.clash>
0.0000

> <Gold.PLP.ligand.torsion>
0.3864

> <Gold.PLP.Chemscore.Hbond>
2.0000

> <Gold.PLP.Chemscore.CHOScore>
0.0000

> <Gold.PLP.Chemscore.Metal>
0.0000

> <Gold.Chemscore.Hbonds>
donor molecule, donor type, donor heavy atom, donor atom, acceptor molecule, acceptor atom, score
      L1  H     6    34       P1  7948  1.00
      L1  H     9    35       P1  7948  1.00

> <Gold.PLP.Chemscore.Internal.Correction>
0.3240

> <Gold.Rescore>
     Score         DG    S(hbond)    S(metal)    S(lipo)     H(rot)  DE(clash)    DE(int)     intcor
     16.22     -17.69       1.97        0.00      83.77       1.63       0.36       1.10       ----

> <Gold.Chemscore.Fitness>
16.2243

> <Gold.Chemscore.DG>
-17.6932

> <Gold.Chemscore.ZeroCoef>
-5.4800

> <Gold.Chemscore.Hbond>
1.9698

> <Gold.Chemscore.Metal>
0.0000

> <Gold.Chemscore.Lipo>
83.7706

> <Gold.Chemscore.Internal_Hbond>
0.0000

> <Gold.Chemscore.DEClash>
0.3644

> <Gold.Chemscore.DEInternal>
1.1044

> <Gold.Chemscore.Rot>
1.6277

> <Gold.Chemscore.Internal.Correction>
   9.000000E+99

> <Gold.Chemscore.Hbonds>
donor molecule, donor type, donor heavy atom, donor atom, acceptor molecule, acceptor atom, score
      L1  H     6    34       P1  7948  0.97
      L1  H     9    35       P1  7948  1.00

> <Gold.Chemscore.Hbond.Weighted>
-6.5790

> <Gold.Chemscore.Metal.Weighted>
-0.0000

> <Gold.Chemscore.Lipo.Weighted>
-9.8012

> <Gold.Chemscore.Internal_Hbond.Weighted>
0.0000

> <Gold.Chemscore.DEClash.Weighted>
0.3644

> <Gold.Chemscore.DEInternal.Weighted>
1.1044

> <Gold.Chemscore.Rot.Weighted>
4.1670

> <Gold.Chemscore.Internal.Correction.Weighted>
   9.000000E+99

> <Gold.Protein.RotatedTorsions>
[ 6907 6896 6895 6894 ] final   36.47 input  -60.11 | X-H torsion
[ 7974 7965 7964 7962 ] final  125.74 input  175.53 | X-H torsion
[ 8008 7997 7996 7995 ] final -109.58 input   59.86 | X-H torsion
[ 10167 10162 10161 10158 ] final -101.56 input  -65.29 | X-H torsion
[ 10718 10713 10712 10709 ] final  164.37 input   66.30 | X-H torsion
[ 10763 10752 10751 10750 ] final -134.70 input  -60.55 | X-H torsion
[ 11005 11000 10999 10996 ] final  152.52 input  -57.11 | X-H torsion

> <Gold.Protein.ActiveResidues>
 VAL166  LYS551  ARG553  GLY616  TRP617  ASP618  TYR619  PRO620  LYS621  CYS622 
 ASP623  PHE694  ASN695  SER759  ASP760  ASP761  ALA762  ILE779  LEU786  VAL792 
 PHE793  MET794  SER795  GLU796  ALA797  LYS798  CYS799  TRP800  GLU811  SER814 

> <Gold.Protein.RotatedAtoms>
  152.1301  134.9141  160.0558 H   0  0  0  0  0  0  0  0  0  0  0  0  # atno 6907 bound_to 6896
  152.0248  133.3908  159.4281 H   0  0  0  0  0  0  0  0  0  0  0  0  # atno 6908 bound_to 6896
  150.6855  134.3507  159.4951 H   0  0  0  0  0  0  0  0  0  0  0  0  # atno 6909 bound_to 6896
  145.0695  139.3741  143.4965 H   0  0  0  0  0  0  0  0  0  0  0  0  # atno 7974 bound_to 7965
  154.9615  140.0399  157.2192 H   0  0  0  0  0  0  0  0  0  0  0  0  # atno 8008 bound_to 7997
  154.7885  140.2831  155.5988 H   0  0  0  0  0  0  0  0  0  0  0  0  # atno 8009 bound_to 7997
  156.2946  140.2578  156.2726 H   0  0  0  0  0  0  0  0  0  0  0  0  # atno 8010 bound_to 7997
  140.2400  143.3545  152.0810 H   0  0  0  0  0  0  0  0  0  0  0  0  # atno 10167 bound_to 10162
  157.0953  131.0428  151.2520 H   0  0  0  0  0  0  0  0  0  0  0  0  # atno 10718 bound_to 10713
  154.8715  135.3726  154.4778 H   0  0  0  0  0  0  0  0  0  0  0  0  # atno 10763 bound_to 10752
  153.5434  135.7026  153.5631 H   0  0  0  0  0  0  0  0  0  0  0  0  # atno 10764 bound_to 10752
  153.3782  135.4003  155.1802 H   0  0  0  0  0  0  0  0  0  0  0  0  # atno 10765 bound_to 10752
  140.1315  134.8798  157.2210 H   0  0  0  0  0  0  0  0  0  0  0  0  # atno 11005 bound_to 11000
  146.3528  140.0433  142.8641 LP  0  0  0  0  0  0  0  0  0  0  0  0  # atno 17320 bound_to 7965
  145.1310  140.9517  143.4545 LP  0  0  0  0  0  0  0  0  0  0  0  0  # atno 17321 bound_to 7965
  139.5080  144.6843  151.5928 LP  0  0  0  0  0  0  0  0  0  0  0  0  # atno 17342 bound_to 10162
  140.6121  143.9417  150.6461 LP  0  0  0  0  0  0  0  0  0  0  0  0  # atno 17343 bound_to 10162
  157.4687  130.7696  149.7303 LP  0  0  0  0  0  0  0  0  0  0  0  0  # atno 17370 bound_to 10713
  155.9887  130.3957  150.3104 LP  0  0  0  0  0  0  0  0  0  0  0  0  # atno 17371 bound_to 10713
  140.2836  134.3322  155.7336 LP  0  0  0  0  0  0  0  0  0  0  0  0  # atno 17394 bound_to 11000
  141.2171  133.7493  156.9399 LP  0  0  0  0  0  0  0  0  0  0  0  0  # atno 17395 bound_to 11000

$$$$
