AV-unprocessed.smi:2151|AV-procd|sdf|8761|dock4
  -GOLD-   2272011543D 1   1.00000     0.00000
 Structure written by MMmdl.
 39 40  0  0  0  0  0  0  0  0  1 V2000
  146.8576  140.6602  153.3802 C   0  0  0  0  0  0  0  0  0  0  0  0
  147.1349  141.2379  154.7769 C   0  0  1  0  0  0  0  0  0  0  0  0
  148.5689  141.4927  154.8984 N   0  0  0  0  0  0  0  0  0  0  0  0
  149.2936  141.3610  156.0203 C   0  0  0  0  0  0  0  0  0  0  0  0
  148.8158  140.9897  157.0935 O   0  0  0  0  0  0  0  0  0  0  0  0
  150.7803  141.7255  155.9002 C   0  0  0  0  0  0  0  0  0  0  0  0
  151.4790  141.7691  157.1958 N   0  0  0  0  0  0  0  0  0  0  0  0
  151.2864  142.9191  157.9863 C   0  0  0  0  0  0  0  0  0  0  0  0
  151.8656  143.0866  159.1905 C   0  0  0  0  0  0  0  0  0  0  0  0
  151.5840  144.3098  160.0496 C   0  0  0  0  0  0  0  0  0  0  0  0
  151.9947  145.4257  159.4465 F   0  0  0  0  0  0  0  0  0  0  0  0
  150.2745  144.4150  160.2712 F   0  0  0  0  0  0  0  0  0  0  0  0
  152.1984  144.2210  161.2299 F   0  0  0  0  0  0  0  0  0  0  0  0
  152.6940  141.9953  159.6648 C   0  0  0  0  0  0  0  0  0  0  0  0
  152.8764  140.8821  158.9279 C   0  0  0  0  0  0  0  0  0  0  0  0
  152.2494  140.7206  157.6140 C   0  0  0  0  0  0  0  0  0  0  0  0
  152.4059  139.7065  156.9335 O   0  0  0  0  0  0  0  0  0  0  0  0
  146.3454  142.5376  155.0419 C   0  0  1  0  0  0  0  0  0  0  0  0
  146.0621  143.3768  153.7955 C   0  0  0  0  0  0  0  0  0  0  0  0
  144.8729  144.1961  154.2418 C   0  0  0  0  0  0  0  0  0  0  0  0
  144.0936  143.1913  155.0856 C   0  0  0  0  0  0  0  0  0  0  0  0
  145.0497  142.2489  155.5641 O   0  0  0  0  0  0  0  0  0  0  0  0
  145.8081  140.3905  153.2624 H   0  0  0  0  0  0  0  0  0  0  0  0
  147.4446  139.7574  153.2067 H   0  0  0  0  0  0  0  0  0  0  0  0
  147.1080  141.3762  152.5967 H   0  0  0  0  0  0  0  0  0  0  0  0
  146.8326  140.4872  155.5094 H   0  0  0  0  0  0  0  0  0  0  0  0
  149.0441  141.8085  154.0655 H   0  0  0  0  0  0  0  0  0  0  0  0
  151.2666  141.0185  155.2253 H   0  0  0  0  0  0  0  0  0  0  0  0
  150.8565  142.6928  155.4009 H   0  0  0  0  0  0  0  0  0  0  0  0
  150.6220  143.6534  157.5540 H   0  0  0  0  0  0  0  0  0  0  0  0
  153.1792  142.0718  160.6267 H   0  0  0  0  0  0  0  0  0  0  0  0
  153.5011  140.0892  159.3127 H   0  0  0  0  0  0  0  0  0  0  0  0
  146.8683  143.1538  155.7756 H   0  0  0  0  0  0  0  0  0  0  0  0
  146.9102  143.9908  153.4915 H   0  0  0  0  0  0  0  0  0  0  0  0
  145.7817  142.7380  152.9567 H   0  0  0  0  0  0  0  0  0  0  0  0
  145.2063  145.0287  154.8629 H   0  0  0  0  0  0  0  0  0  0  0  0
  144.2913  144.5995  153.4125 H   0  0  0  0  0  0  0  0  0  0  0  0
  143.5634  143.6699  155.9091 H   0  0  0  0  0  0  0  0  0  0  0  0
  143.3621  142.6608  154.4752 H   0  0  0  0  0  0  0  0  0  0  0  0
  1  2  1  0  0  0  0
  1 23  1  0  0  0  0
  1 24  1  0  0  0  0
  1 25  1  0  0  0  0
  2  3  1  0  0  0  0
  2 18  1  0  0  0  0
  2 26  1  0  0  0  0
  3  4  1  0  0  0  0
  3 27  1  0  0  0  0
  4  5  2  0  0  0  0
  4  6  1  0  0  0  0
  6  7  1  0  0  0  0
  6 28  1  0  0  0  0
  6 29  1  0  0  0  0
  7 16  1  0  0  0  0
  7  8  1  0  0  0  0
  8  9  2  0  0  0  0
  8 30  1  0  0  0  0
  9 10  1  0  0  0  0
  9 14  1  0  0  0  0
 10 11  1  0  0  0  0
 10 12  1  0  0  0  0
 10 13  1  0  0  0  0
 14 15  2  0  0  0  0
 14 31  1  0  0  0  0
 15 16  1  0  0  0  0
 15 32  1  0  0  0  0
 16 17  2  0  0  0  0
 18 22  1  0  0  0  0
 18 19  1  0  0  0  0
 18 33  1  0  0  0  0
 19 20  1  0  0  0  0
 19 34  1  0  0  0  0
 19 35  1  0  0  0  0
 20 21  1  0  0  0  0
 20 36  1  0  0  0  0
 20 37  1  0  0  0  0
 21 22  1  0  0  0  0
 21 38  1  0  0  0  0
 21 39  1  0  0  0  0
M  END
> <s_m_source_file>
AV-unprocessed.smi

> <i_m_source_file_index>
2151

> <i_lp_mmshare_version>
43012

> <i_f3d_flags>
0

> <s_epik_input>
TzFbQ0gyXVtDSDJdW0NIMl1bQ0BIXTFbQ0BIXShbQ0gzXSlbTkhdQyg9TylbQ0gyXW4yW2NIXWMoQyhGKShGKUYpW2NIXVtjSF1jMj1P

> <s_epik_cmdline>
J2VwaWtfcHl0aG9uJywgJy1waCcsICc3LjAnLCAnLXRuJywgJzgnLCAnLW1hJywgJzIwMCcsICctbWV0YWxfYmluZGluZycsICctaW1hZScsICc8aW5maWxlLm1hZT4nLCAnLW9tYWUnLCAnPG91dGZpbGUubWFlPic=

> <r_lp_tautomer_probability>
1

> <r_epik_Ionization_Penalty>
4.20109e-08

> <r_epik_Ionization_Penalty_Charging>
1.89977e-08

> <r_epik_Ionization_Penalty_Neutral>
2.30132e-08

> <r_epik_State_Penalty>
-0

> <r_epik_Charging_Adjusted_Penalty>
1.89977e-08

> <i_epik_Tot_Q>
0

> <i_epik_Tot_abs_Q>
0

> <r_epik_Metal_State_Penalty>
-0

> <b_epik_Metal_Only>
0

> <s_lp_Force_Field>
OPLS_2005

> <r_lp_Energy>
30.384

> <b_lp_Chiralities_Consistent>
1

> <s_lp_Variant>
AV-unprocessed.smi:2151-4

> <Gold.Version>
5.8.1

> <Gold.Id.Protein>
6NUR|6NUR_protein|mol2

> <Gold.PLP.Fitness>
47.9931

> <Gold.PLP.PLP>
-45.9561

> <Gold.PLP.part.hbond>
-1.1052

> <Gold.PLP.part.metal>
0.0000

> <Gold.PLP.part.buried>
-6.6797

> <Gold.PLP.part.nonpolar>
-38.1485

> <Gold.PLP.part.repulsive>
0.3349

> <Gold.PLP.ligand.clash>
0.0000

> <Gold.PLP.ligand.torsion>
1.4392

> <Gold.PLP.Chemscore.Hbond>
0.9913

> <Gold.PLP.Chemscore.CHOScore>
0.6269

> <Gold.PLP.Chemscore.Metal>
0.0000

> <Gold.Chemscore.Hbonds>
donor molecule, donor type, donor heavy atom, donor atom, acceptor molecule, acceptor atom, score
      P1  H  7997  8008       L1    17  0.73
      L1  C     8    30       P1  8028  0.42

> <Gold.PLP.Chemscore.Internal.Correction>
0.0610

> <Gold.Rescore>
     Score         DG    S(hbond)    S(metal)    S(lipo)     H(rot)  DE(clash)    DE(int)     intcor
     12.86     -14.40       0.83        0.00      92.53       1.82       0.12       1.42       ----

> <Gold.Chemscore.Fitness>
12.8598

> <Gold.Chemscore.DG>
-14.4029

> <Gold.Chemscore.ZeroCoef>
-5.4800

> <Gold.Chemscore.Hbond>
0.8273

> <Gold.Chemscore.Metal>
0.0000

> <Gold.Chemscore.Lipo>
92.5313

> <Gold.Chemscore.Internal_Hbond>
0.0000

> <Gold.Chemscore.DEClash>
0.1209

> <Gold.Chemscore.DEInternal>
1.4221

> <Gold.Chemscore.Rot>
1.8228

> <Gold.Chemscore.Internal.Correction>
   9.000000E+99

> <Gold.Chemscore.Hbonds>
donor molecule, donor type, donor heavy atom, donor atom, acceptor molecule, acceptor atom, score
      P1  H  7997  8008       L1    17  0.09

> <Gold.Chemscore.Hbond.Weighted>
-2.7632

> <Gold.Chemscore.Metal.Weighted>
-0.0000

> <Gold.Chemscore.Lipo.Weighted>
-10.8262

> <Gold.Chemscore.Internal_Hbond.Weighted>
0.0000

> <Gold.Chemscore.DEClash.Weighted>
0.1209

> <Gold.Chemscore.DEInternal.Weighted>
1.4221

> <Gold.Chemscore.Rot.Weighted>
4.6665

> <Gold.Chemscore.Internal.Correction.Weighted>
   9.000000E+99

> <Gold.Protein.RotatedTorsions>
[ 6907 6896 6895 6894 ] final  -81.52 input  -60.11 | X-H torsion
[ 7974 7965 7964 7962 ] final   87.55 input  175.53 | X-H torsion
[ 8008 7997 7996 7995 ] final  -45.95 input   59.86 | X-H torsion
[ 10167 10162 10161 10158 ] final  -68.95 input  -65.29 | X-H torsion
[ 10718 10713 10712 10709 ] final   -4.88 input   66.30 | X-H torsion
[ 10763 10752 10751 10750 ] final   54.00 input  -60.55 | X-H torsion
[ 11005 11000 10999 10996 ] final   71.04 input  -57.11 | X-H torsion

> <Gold.Protein.ActiveResidues>
 VAL166  LYS551  ARG553  GLY616  TRP617  ASP618  TYR619  PRO620  LYS621  CYS622 
 ASP623  PHE694  ASN695  SER759  ASP760  ASP761  ALA762  ILE779  LEU786  VAL792 
 PHE793  MET794  SER795  GLU796  ALA797  LYS798  CYS799  TRP800  GLU811  SER814 

> <Gold.Protein.RotatedAtoms>
  150.6911  134.3805  159.5031 H   0  0  0  0  0  0  0  0  0  0  0  0  # atno 6907 bound_to 6896
  152.1608  134.8911  160.0551 H   0  0  0  0  0  0  0  0  0  0  0  0  # atno 6908 bound_to 6896
  151.9974  133.3778  159.4205 H   0  0  0  0  0  0  0  0  0  0  0  0  # atno 6909 bound_to 6896
  145.5575  139.2301  143.2478 H   0  0  0  0  0  0  0  0  0  0  0  0  # atno 7974 bound_to 7965
  154.4004  140.1384  156.3932 H   0  0  0  0  0  0  0  0  0  0  0  0  # atno 8008 bound_to 7997
  155.7895  140.3479  155.5321 H   0  0  0  0  0  0  0  0  0  0  0  0  # atno 8009 bound_to 7997
  155.8594  140.0954  157.1614 H   0  0  0  0  0  0  0  0  0  0  0  0  # atno 8010 bound_to 7997
  140.5468  143.2313  151.6986 H   0  0  0  0  0  0  0  0  0  0  0  0  # atno 10167 bound_to 10162
  156.7548  130.5251  149.5796 H   0  0  0  0  0  0  0  0  0  0  0  0  # atno 10718 bound_to 10713
  152.9800  135.5760  154.4832 H   0  0  0  0  0  0  0  0  0  0  0  0  # atno 10763 bound_to 10752
  154.4378  135.2775  155.1870 H   0  0  0  0  0  0  0  0  0  0  0  0  # atno 10764 bound_to 10752
  154.3551  135.6200  153.5716 H   0  0  0  0  0  0  0  0  0  0  0  0  # atno 10765 bound_to 10752
  139.9565  134.7135  156.0742 H   0  0  0  0  0  0  0  0  0  0  0  0  # atno 11005 bound_to 11000
  146.1874  140.6399  142.9161 LP  0  0  0  0  0  0  0  0  0  0  0  0  # atno 17320 bound_to 7965
  144.7499  140.5164  143.6809 LP  0  0  0  0  0  0  0  0  0  0  0  0  # atno 17321 bound_to 7965
  139.5011  144.3881  152.0308 LP  0  0  0  0  0  0  0  0  0  0  0  0  # atno 17342 bound_to 10162
  140.2995  144.3663  150.6064 LP  0  0  0  0  0  0  0  0  0  0  0  0  # atno 17343 bound_to 10162
  156.1377  130.6223  151.0424 LP  0  0  0  0  0  0  0  0  0  0  0  0  # atno 17370 bound_to 10713
  157.6761  131.0850  150.7491 LP  0  0  0  0  0  0  0  0  0  0  0  0  # atno 17371 bound_to 10713
  141.1237  133.6605  156.3280 LP  0  0  0  0  0  0  0  0  0  0  0  0  # atno 17394 bound_to 11000
  140.5598  134.5945  157.5430 LP  0  0  0  0  0  0  0  0  0  0  0  0  # atno 17395 bound_to 11000

$$$$
