AV-unprocessed.smi:2476|AV-procd|sdf|9757|dock2
  -GOLD-   2272013393D 1   1.00000     0.00000
 Structure written by MMmdl.
 34 35  0  0  0  0  0  0  0  0  1 V2000
  146.1036  138.7999  152.4761 C   0  0  0  0  0  0  0  0  0  0  0  0
  146.6405  139.7638  153.5287 C   0  0  0  0  0  0  0  0  0  0  0  0
  145.9690  140.0239  154.5266 O   0  0  0  0  0  0  0  0  0  0  0  0
  147.8528  140.2874  153.2933 N   0  0  0  0  0  0  0  0  0  0  0  0
  148.5508  141.2176  154.1742 C   0  0  0  0  0  0  0  0  0  0  0  0
  149.1733  140.5009  155.3847 C   0  0  2  0  0  0  0  0  0  0  0  0
  150.1062  141.4320  156.1826 C   0  0  0  0  0  0  0  0  0  0  0  0
  150.7491  140.6958  157.2682 N   0  0  0  0  0  0  0  0  0  0  0  0
  151.4536  141.4414  158.2350 C   0  0  0  0  0  0  0  0  0  0  0  0
  151.8264  142.7076  157.9208 N   0  0  0  0  0  0  0  0  0  0  0  0
  152.5103  143.4307  158.8330 C   0  0  0  0  0  0  0  0  0  0  0  0
  152.8599  142.9373  160.1040 C   0  0  0  0  0  0  0  0  0  0  0  0
  152.4715  141.6274  160.4390 C   0  0  0  0  0  0  0  0  0  0  0  0
  151.7566  140.8661  159.4941 C   0  0  0  0  0  0  0  0  0  0  0  0
  151.3542  139.6108  159.8086 F   0  0  0  0  0  0  0  0  0  0  0  0
  151.4370  139.4933  156.8102 C   0  0  0  0  0  0  0  0  0  0  0  0
  150.4806  138.6200  155.9811 C   0  0  0  0  0  0  0  0  0  0  0  0
  149.9329  139.3887  154.9144 O   0  0  0  0  0  0  0  0  0  0  0  0
  146.8961  138.1476  152.1073 H   0  0  0  0  0  0  0  0  0  0  0  0
  145.6904  139.3537  151.6327 H   0  0  0  0  0  0  0  0  0  0  0  0
  145.3155  138.1724  152.8939 H   0  0  0  0  0  0  0  0  0  0  0  0
  148.3332  140.0134  152.4483 H   0  0  0  0  0  0  0  0  0  0  0  0
  149.3273  141.7204  153.5972 H   0  0  0  0  0  0  0  0  0  0  0  0
  147.8614  141.9951  154.5072 H   0  0  0  0  0  0  0  0  0  0  0  0
  148.3769  140.1439  156.0404 H   0  0  0  0  0  0  0  0  0  0  0  0
  150.8695  141.8493  155.5240 H   0  0  0  0  0  0  0  0  0  0  0  0
  149.5340  142.2668  156.5899 H   0  0  0  0  0  0  0  0  0  0  0  0
  152.7870  144.4324  158.5399 H   0  0  0  0  0  0  0  0  0  0  0  0
  153.4079  143.5494  160.8049 H   0  0  0  0  0  0  0  0  0  0  0  0
  152.7139  141.2139  161.4069 H   0  0  0  0  0  0  0  0  0  0  0  0
  152.2936  139.7873  156.2022 H   0  0  0  0  0  0  0  0  0  0  0  0
  151.8272  138.9136  157.6461 H   0  0  0  0  0  0  0  0  0  0  0  0
  151.0162  137.7668  155.5654 H   0  0  0  0  0  0  0  0  0  0  0  0
  149.6792  138.2202  156.6043 H   0  0  0  0  0  0  0  0  0  0  0  0
  1  2  1  0  0  0  0
  1 19  1  0  0  0  0
  1 20  1  0  0  0  0
  1 21  1  0  0  0  0
  2  3  2  0  0  0  0
  2  4  1  0  0  0  0
  4  5  1  0  0  0  0
  4 22  1  0  0  0  0
  5  6  1  0  0  0  0
  5 23  1  0  0  0  0
  5 24  1  0  0  0  0
  6 18  1  0  0  0  0
  6  7  1  0  0  0  0
  6 25  1  0  0  0  0
  7  8  1  0  0  0  0
  7 26  1  0  0  0  0
  7 27  1  0  0  0  0
  8  9  1  0  0  0  0
  8 16  1  0  0  0  0
  9 14  1  0  0  0  0
  9 10  2  0  0  0  0
 10 11  1  0  0  0  0
 11 12  2  0  0  0  0
 11 28  1  0  0  0  0
 12 13  1  0  0  0  0
 12 29  1  0  0  0  0
 13 14  2  0  0  0  0
 13 30  1  0  0  0  0
 14 15  1  0  0  0  0
 16 17  1  0  0  0  0
 16 31  1  0  0  0  0
 16 32  1  0  0  0  0
 17 18  1  0  0  0  0
 17 33  1  0  0  0  0
 17 34  1  0  0  0  0
M  END
> <s_m_source_file>
AV-unprocessed.smi

> <i_m_source_file_index>
2476

> <i_lp_mmshare_version>
43012

> <i_f3d_flags>
0

> <s_epik_input>
W0NIM11DKD1PKVtOSF1bQ0gyXVtDQEBIXTFbQ0gyXU4oW0NIMl1bQ0gyXU8xKWMybltjSF1bY0hdW2NIXWMyRg==

> <s_epik_cmdline>
J2VwaWtfcHl0aG9uJywgJy1waCcsICc3LjAnLCAnLXRuJywgJzgnLCAnLW1hJywgJzIwMCcsICctbWV0YWxfYmluZGluZycsICctaW1hZScsICc8aW5maWxlLm1hZT4nLCAnLW9tYWUnLCAnPG91dGZpbGUubWFlPic=

> <r_lp_tautomer_probability>
1

> <r_epik_Ionization_Penalty>
1.69306e-05

> <r_epik_Ionization_Penalty_Charging>
0

> <r_epik_Ionization_Penalty_Neutral>
1.69306e-05

> <r_epik_State_Penalty>
-0

> <r_epik_Charging_Adjusted_Penalty>
0

> <i_epik_Tot_Q>
0

> <i_epik_Tot_abs_Q>
0

> <r_epik_Metal_State_Penalty>
-0

> <b_epik_Metal_Only>
0

> <s_lp_Force_Field>
OPLS_2005

> <r_lp_Energy>
18.0017

> <b_lp_Chiralities_Consistent>
1

> <s_lp_Variant>
AV-unprocessed.smi:2476-1

> <Gold.Version>
5.8.1

> <Gold.Id.Protein>
6NUR|6NUR_protein|mol2

> <Gold.PLP.Fitness>
45.5831

> <Gold.PLP.PLP>
-40.2028

> <Gold.PLP.part.hbond>
-1.7748

> <Gold.PLP.part.metal>
0.0000

> <Gold.PLP.part.buried>
-4.1313

> <Gold.PLP.part.nonpolar>
-34.8020

> <Gold.PLP.part.repulsive>
0.4493

> <Gold.PLP.ligand.clash>
0.0000

> <Gold.PLP.ligand.torsion>
0.4267

> <Gold.PLP.Chemscore.Hbond>
1.9920

> <Gold.PLP.Chemscore.CHOScore>
0.0000

> <Gold.PLP.Chemscore.Metal>
0.0000

> <Gold.Chemscore.Hbonds>
donor molecule, donor type, donor heavy atom, donor atom, acceptor molecule, acceptor atom, score
      L1  H     4    22       P1  7957  1.00

> <Gold.PLP.Chemscore.Internal.Correction>
0.2577

> <Gold.Rescore>
     Score         DG    S(hbond)    S(metal)    S(lipo)     H(rot)  DE(clash)    DE(int)     intcor
     15.52     -17.09       1.77        0.00      83.98       1.61       0.13       1.43       ----

> <Gold.Chemscore.Fitness>
15.5223

> <Gold.Chemscore.DG>
-17.0871

> <Gold.Chemscore.ZeroCoef>
-5.4800

> <Gold.Chemscore.Hbond>
1.7656

> <Gold.Chemscore.Metal>
0.0000

> <Gold.Chemscore.Lipo>
83.9830

> <Gold.Chemscore.Internal_Hbond>
0.0000

> <Gold.Chemscore.DEClash>
0.1334

> <Gold.Chemscore.DEInternal>
1.4314

> <Gold.Chemscore.Rot>
1.6078

> <Gold.Chemscore.Internal.Correction>
   9.000000E+99

> <Gold.Chemscore.Hbonds>
donor molecule, donor type, donor heavy atom, donor atom, acceptor molecule, acceptor atom, score
      L1  H     4    22       P1  7957  0.99

> <Gold.Chemscore.Hbond.Weighted>
-5.8970

> <Gold.Chemscore.Metal.Weighted>
-0.0000

> <Gold.Chemscore.Lipo.Weighted>
-9.8260

> <Gold.Chemscore.Internal_Hbond.Weighted>
0.0000

> <Gold.Chemscore.DEClash.Weighted>
0.1334

> <Gold.Chemscore.DEInternal.Weighted>
1.4314

> <Gold.Chemscore.Rot.Weighted>
4.1159

> <Gold.Chemscore.Internal.Correction.Weighted>
   9.000000E+99

> <Gold.Protein.RotatedTorsions>
[ 6907 6896 6895 6894 ] final   58.01 input  -60.11 | X-H torsion
[ 7974 7965 7964 7962 ] final   25.95 input  175.53 | X-H torsion
[ 8008 7997 7996 7995 ] final  -98.88 input   59.86 | X-H torsion
[ 10167 10162 10161 10158 ] final -178.42 input  -65.29 | X-H torsion
[ 10718 10713 10712 10709 ] final -159.16 input   66.30 | X-H torsion
[ 10763 10752 10751 10750 ] final -120.34 input  -60.55 | X-H torsion
[ 11005 11000 10999 10996 ] final -119.21 input  -57.11 | X-H torsion

> <Gold.Protein.ActiveResidues>
 VAL166  LYS551  ARG553  GLY616  TRP617  ASP618  TYR619  PRO620  LYS621  CYS622 
 ASP623  PHE694  ASN695  SER759  ASP760  ASP761  ALA762  ILE779  LEU786  VAL792 
 PHE793  MET794  SER795  GLU796  ALA797  LYS798  CYS799  TRP800  GLU811  SER814 

> <Gold.Protein.RotatedAtoms>
  152.3785  134.6627  160.0151 H   0  0  0  0  0  0  0  0  0  0  0  0  # atno 6907 bound_to 6896
  151.6897  133.3305  159.3248 H   0  0  0  0  0  0  0  0  0  0  0  0  # atno 6908 bound_to 6896
  150.7728  134.6645  159.6402 H   0  0  0  0  0  0  0  0  0  0  0  0  # atno 6909 bound_to 6896
  146.1862  139.7395  142.8865 H   0  0  0  0  0  0  0  0  0  0  0  0  # atno 7974 bound_to 7965
  154.8072  140.0452  157.1316 H   0  0  0  0  0  0  0  0  0  0  0  0  # atno 8008 bound_to 7997
  154.9411  140.3052  155.5100 H   0  0  0  0  0  0  0  0  0  0  0  0  # atno 8009 bound_to 7997
  156.2968  140.2305  156.4480 H   0  0  0  0  0  0  0  0  0  0  0  0  # atno 8010 bound_to 7997
  139.5433  144.2303  152.0939 H   0  0  0  0  0  0  0  0  0  0  0  0  # atno 10167 bound_to 10162
  156.5643  130.8660  151.2819 H   0  0  0  0  0  0  0  0  0  0  0  0  # atno 10718 bound_to 10713
  154.8641  135.4206  154.2443 H   0  0  0  0  0  0  0  0  0  0  0  0  # atno 10763 bound_to 10752
  153.3402  135.6993  153.6879 H   0  0  0  0  0  0  0  0  0  0  0  0  # atno 10764 bound_to 10752
  153.5860  135.3564  155.2866 H   0  0  0  0  0  0  0  0  0  0  0  0  # atno 10765 bound_to 10752
  141.0232  134.0093  157.3253 H   0  0  0  0  0  0  0  0  0  0  0  0  # atno 11005 bound_to 11000
  145.3930  141.0375  143.3113 LP  0  0  0  0  0  0  0  0  0  0  0  0  # atno 17320 bound_to 7965
  144.8402  139.5484  143.6904 LP  0  0  0  0  0  0  0  0  0  0  0  0  # atno 17321 bound_to 7965
  140.1785  144.4867  150.6541 LP  0  0  0  0  0  0  0  0  0  0  0  0  # atno 17342 bound_to 10162
  140.6672  143.2272  151.5714 LP  0  0  0  0  0  0  0  0  0  0  0  0  # atno 17343 bound_to 10162
  157.7362  130.9774  150.2123 LP  0  0  0  0  0  0  0  0  0  0  0  0  # atno 17370 bound_to 10713
  156.2771  130.3729  149.7972 LP  0  0  0  0  0  0  0  0  0  0  0  0  # atno 17371 bound_to 10713
  139.9159  135.0196  156.7879 LP  0  0  0  0  0  0  0  0  0  0  0  0  # atno 17394 bound_to 11000
  140.6537  133.9708  155.7768 LP  0  0  0  0  0  0  0  0  0  0  0  0  # atno 17395 bound_to 11000

$$$$
