#       Name:                AV-unprocessed.smi:1815
#       Creating user name   scv26
#       Creation time:       Fri Mar 27 09:02:24 2020


#       File generated by GOLD software.
#

@<TRIPOS>MOLECULE
AV-unprocessed.smi:1815
    45    46     1
SMALL
NO_CHARGES


@<TRIPOS>ATOM
      1 ****        -1.8208  -2.1583   2.6811 C.3            1 S1                 0.0000
      2 ****        -1.7587  -1.0439   1.6310 C.3            1 S1                 0.0000
      3 ****        -1.8876  -1.5961   0.1946 C.3            1 S1                 0.0000
      4 ****        -1.9516  -0.5035  -0.8100 N.4            1 S1                 1.0000
      5 ****        -0.6453   0.1353  -1.1176 C.3            1 S1                 0.0000
      6 ****         0.2530  -0.7577  -1.9939 C.3            1 S1                 0.0000
      7 ****         1.5212  -0.1022  -2.2887 N.am           1 S1                 0.0000
      8 ****         2.5495   0.0218  -1.4372 C.2            1 S1                 0.0000
      9 ****         2.4660  -0.4504  -0.3006 O.2            1 S1                 0.0000
     10 ****         3.6051   0.6901  -1.9528 N.pl3          1 S1                -1.0000
     11 ****         4.7011   0.8937  -1.2038 C.2            1 S1                 0.0000
     12 ****         5.7989   0.1347  -1.2956 N.2            1 S1                 0.0000
     13 ****         6.8197   0.5280  -0.4283 C.2            1 S1                 0.0000
     14 ****         6.4943   1.6171   0.3357 C.2            1 S1                 0.0000
     15 ****         4.8863   2.1845  -0.0133 S.3            1 S1                 0.0000
     16 ****        -3.0124   0.4670  -0.4464 C.3            1 S1                 0.0000
     17 ****        -2.8338   0.9754   0.9990 C.3            1 S1                 0.0000
     18 ****        -3.9681   1.9148   1.4231 C.3            1 S1                 0.0000
     19 ****        -2.8305  -0.1408   1.8829 O.3            1 S1                 0.0000
     20 ****        -1.0108  -2.8745   2.5410 H              1 S1                 0.0000
     21 ****        -2.7635  -2.7032   2.6252 H              1 S1                 0.0000
     22 ****        -1.7316  -1.7500   3.6879 H              1 S1                 0.0000
     23 ****        -0.8109  -0.5183   1.7527 H              1 S1                 0.0000
     24 ****        -1.0745  -2.2866  -0.0252 H              1 S1                 0.0000
     25 ****        -2.8067  -2.1782   0.1139 H              1 S1                 0.0000
     26 ****        -0.8216   1.0648  -1.6609 H              1 S1                 0.0000
     27 ****        -0.1349   0.4176  -0.1972 H              1 S1                 0.0000
     28 ****         0.4529  -1.7199  -1.5224 H              1 S1                 0.0000
     29 ****        -0.2457  -0.9734  -2.9389 H              1 S1                 0.0000
     30 ****         1.6319   0.2939  -3.2110 H              1 S1                 0.0000
     31 ****         7.7472  -0.0249  -0.4225 H              1 S1                 0.0000
     32 ****         7.0982   2.1183   1.0768 H              1 S1                 0.0000
     33 ****        -3.0295   1.2975  -1.1534 H              1 S1                 0.0000
     34 ****        -3.9776  -0.0328  -0.5401 H              1 S1                 0.0000
     35 ****        -1.8896   1.5140   1.0944 H              1 S1                 0.0000
     36 ****        -4.0132   2.7917   0.7769 H              1 S1                 0.0000
     37 ****        -3.8227   2.2637   2.4458 H              1 S1                 0.0000
     38 ****        -4.9356   1.4139   1.3767 H              1 S1                 0.0000
     39 ****        -2.2477  -0.9250  -1.6788 H              1 S1                 0.0000
     40 ****         1.6327  -0.9244  -0.0161 LP             1 S1                 0.0000
     41 ****         3.2316  -0.3591   0.3362 LP             1 S1                 0.0000
     42 ****         3.5700   1.0329  -2.8916 LP             1 S1                 0.0000
     43 ****         5.8803  -0.6388  -1.9241 LP             1 S1                 0.0000
     44 ****        -2.7506   0.1955   2.8213 LP             1 S1                 0.0000
     45 ****        -3.6943  -0.6335   1.7779 LP             1 S1                 0.0000
@<TRIPOS>BOND
    1    1    2 1     
    2    1   20 1     
    3    1   21 1     
    4    1   22 1     
    5    2   19 1     
    6    2    3 1     
    7    2   23 1     
    8    3    4 1     
    9    3   24 1     
   10    3   25 1     
   11    4    5 1     
   12    4   16 1     
   13    4   39 1     
   14    5    6 1     
   15    5   26 1     
   16    5   27 1     
   17    6    7 1     
   18    6   28 1     
   19    6   29 1     
   20    7    8 am    
   21    7   30 1     
   22    8    9 2     
   23    8   10 1     
   24   10   11 1     
   25   11   15 1     
   26   11   12 2     
   27   12   13 1     
   28   13   14 2     
   29   13   31 1     
   30   14   15 1     
   31   14   32 1     
   32   16   17 1     
   33   16   33 1     
   34   16   34 1     
   35   17   18 1     
   36   17   19 1     
   37   17   35 1     
   38   18   36 1     
   39   18   37 1     
   40   18   38 1     
   41    9   40 1     
   42    9   41 1     
   43   10   42 1     
   44   12   43 1     
   45   19   44 1     
   46   19   45 1     
@<TRIPOS>SUBSTRUCTURE
      1 S1             1
@<TRIPOS>SET
LONE_PAIRS      STATIC     ATOMS    <user>   **** ""
6 40 41 42 43 44 45
DONOR_HYDROGENS      STATIC     ATOMS    <user>   **** ""
2 39 30
ATOM$BLUE        STATIC     ATOMS    COLORGROUP SYSTEM
6 40 41 42 43 44 45
ATOM$RED        STATIC     ATOMS    COLORGROUP SYSTEM
2 39 30
