AV-unprocessed.smi:196|AV-procd|sdf|1529|dock5
  -GOLD-   2262019383D 1   1.00000     0.00000
 Structure written by MMmdl.
 47 50  0  0  0  0  0  0  0  0  1 V2000
  146.6501  138.5371  151.6536 C   0  0  0  0  0  0  0  0  0  0  0  0
  146.4863  139.1801  153.0405 C   0  0  1  0  0  0  0  0  0  0  0  0
  145.5886  138.4244  153.8400 O   0  0  0  0  0  0  0  0  0  0  0  0
  145.7828  138.8364  155.1807 C   0  0  0  0  0  0  0  0  0  0  0  0
  147.3011  138.8950  155.2990 C   0  0  0  0  0  0  0  0  0  0  0  0
  147.7654  139.3331  153.9062 C   0  0  1  0  0  0  0  0  0  0  0  0
  148.7919  138.4494  153.4850 O   0  0  0  0  0  0  0  0  0  0  0  0
  148.3361  140.7732  153.9069 C   0  0  0  0  0  0  0  0  0  0  0  0
  148.9818  141.1396  155.1586 N   0  0  0  0  0  0  0  0  0  0  0  0
  148.5724  142.1114  156.0433 C   0  0  0  0  0  0  0  0  0  0  0  0
  149.3120  142.2398  157.1101 N   0  0  0  0  0  0  0  0  0  0  0  0
  150.3203  141.2973  156.9437 C   0  0  0  0  0  0  0  0  0  0  0  0
  151.4445  140.8960  157.7222 C   0  0  0  0  0  0  0  0  0  0  0  0
  151.7595  141.4540  158.9227 N   0  0  0  0  0  0  0  0  0  0  0  0
  151.0505  142.6577  159.3445 C   0  0  0  0  0  0  0  0  0  0  0  0
  152.0870  143.5175  160.0665 C   0  0  2  0  0  0  0  0  0  0  0  0
  152.6787  144.3296  159.1889 F   0  0  0  0  0  0  0  0  0  0  0  0
  153.0963  142.4935  160.5743 C   0  0  0  0  0  0  0  0  0  0  0  0
  153.1223  141.4223  159.4718 C   0  0  1  0  0  0  0  0  0  0  0  0
  153.5633  140.0585  160.0391 C   0  0  0  0  0  0  0  0  0  0  0  0
  153.7776  139.9450  161.3542 N   0  0  0  0  0  0  0  0  0  0  0  0
  153.7062  139.1026  159.2802 O   0  0  0  0  0  0  0  0  0  0  0  0
  152.2141  139.8903  157.2277 N   0  0  0  0  0  0  0  0  0  0  0  0
  151.9217  139.3255  156.0532 C   0  0  0  0  0  0  0  0  0  0  0  0
  150.9150  139.6020  155.2234 N   0  0  0  0  0  0  0  0  0  0  0  0
  150.1276  140.5997  155.7170 C   0  0  0  0  0  0  0  0  0  0  0  0
  151.6613  144.1387  160.8550 H   0  0  0  0  0  0  0  0  0  0  0  0
  153.8301  141.7327  158.7013 H   0  0  0  0  0  0  0  0  0  0  0  0
  147.3527  139.1001  151.0389 H   0  0  0  0  0  0  0  0  0  0  0  0
  145.6968  138.5126  151.1260 H   0  0  0  0  0  0  0  0  0  0  0  0
  147.0106  137.5108  151.7265 H   0  0  0  0  0  0  0  0  0  0  0  0
  146.0184  140.1568  152.9137 H   0  0  0  0  0  0  0  0  0  0  0  0
  145.3389  139.8217  155.3322 H   0  0  0  0  0  0  0  0  0  0  0  0
  145.3309  138.1402  155.8875 H   0  0  0  0  0  0  0  0  0  0  0  0
  147.6261  139.5632  156.0971 H   0  0  0  0  0  0  0  0  0  0  0  0
  147.6717  137.8972  155.5406 H   0  0  0  0  0  0  0  0  0  0  0  0
  148.5483  138.0831  152.6488 H   0  0  0  0  0  0  0  0  0  0  0  0
  149.0618  140.8882  153.1007 H   0  0  0  0  0  0  0  0  0  0  0  0
  147.5444  141.4967  153.7071 H   0  0  0  0  0  0  0  0  0  0  0  0
  147.6944  142.7186  155.8776 H   0  0  0  0  0  0  0  0  0  0  0  0
  150.5970  143.2035  158.5155 H   0  0  0  0  0  0  0  0  0  0  0  0
  150.2552  142.3645  160.0306 H   0  0  0  0  0  0  0  0  0  0  0  0
  154.0782  142.9296  160.7617 H   0  0  0  0  0  0  0  0  0  0  0  0
  152.7359  142.0729  161.5153 H   0  0  0  0  0  0  0  0  0  0  0  0
  154.0712  139.0597  161.7409 H   0  0  0  0  0  0  0  0  0  0  0  0
  153.6493  140.7465  161.9543 H   0  0  0  0  0  0  0  0  0  0  0  0
  152.5890  138.5385  155.7342 H   0  0  0  0  0  0  0  0  0  0  0  0
  1  2  1  0  0  0  0
  1 29  1  0  0  0  0
  1 30  1  0  0  0  0
  1 31  1  0  0  0  0
  2  6  1  0  0  0  0
  2  3  1  0  0  0  0
  2 32  1  0  0  0  0
  3  4  1  0  0  0  0
  4  5  1  0  0  0  0
  4 33  1  0  0  0  0
  4 34  1  0  0  0  0
  5  6  1  0  0  0  0
  5 35  1  0  0  0  0
  5 36  1  0  0  0  0
  6  7  1  0  0  0  0
  6  8  1  0  0  0  0
  7 37  1  0  0  0  0
  8  9  1  0  0  0  0
  8 38  1  0  0  0  0
  8 39  1  0  0  0  0
  9 26  1  0  0  0  0
  9 10  1  0  0  0  0
 10 11  2  0  0  0  0
 10 40  1  0  0  0  0
 11 12  1  0  0  0  0
 12 26  2  0  0  0  0
 12 13  1  0  0  0  0
 13 14  1  0  0  0  0
 13 23  2  0  0  0  0
 14 19  1  0  0  0  0
 14 15  1  0  0  0  0
 15 16  1  0  0  0  0
 15 41  1  0  0  0  0
 15 42  1  0  0  0  0
 16 27  1  0  0  0  0
 16 17  1  0  0  0  0
 16 18  1  0  0  0  0
 18 19  1  0  0  0  0
 18 43  1  0  0  0  0
 18 44  1  0  0  0  0
 19 28  1  0  0  0  0
 19 20  1  0  0  0  0
 20 21  1  0  0  0  0
 20 22  2  0  0  0  0
 21 45  1  0  0  0  0
 21 46  1  0  0  0  0
 23 24  1  0  0  0  0
 24 25  2  0  0  0  0
 24 47  1  0  0  0  0
 25 26  1  0  0  0  0
M  END
> <s_m_source_file>
AV-unprocessed.smi

> <i_m_source_file_index>
196

> <i_lp_mmshare_version>
43012

> <i_f3d_flags>
0

> <s_epik_input>
W0NIMl0xW0NIMl1PW0NAQEhdKFtDSDNdKVtDQEBdMShbT0hdKVtDSDJdbihbY0hdbjIpYyhjMjMpbltjSF1uYzNONFtDSDJdW0NASF0oRilbQ0gyXVtDQEhdNEMoPU8pW05IMl0=

> <s_epik_cmdline>
J2VwaWtfcHl0aG9uJywgJy1waCcsICc3LjAnLCAnLXRuJywgJzgnLCAnLW1hJywgJzIwMCcsICctbWV0YWxfYmluZGluZycsICctaW1hZScsICc8aW5maWxlLm1hZT4nLCAnLW9tYWUnLCAnPG91dGZpbGUubWFlPic=

> <r_lp_tautomer_probability>
1

> <r_epik_Ionization_Penalty>
0.000857933

> <r_epik_Ionization_Penalty_Charging>
0

> <r_epik_Ionization_Penalty_Neutral>
0.000857933

> <r_epik_State_Penalty>
0.000462053

> <r_epik_Charging_Adjusted_Penalty>
0.000462053

> <i_epik_Tot_Q>
0

> <i_epik_Tot_abs_Q>
0

> <r_epik_Metal_State_Penalty>
-0

> <b_epik_Metal_Only>
0

> <s_lp_Force_Field>
OPLS_2005

> <r_lp_Energy>
42.3272

> <b_lp_Chiralities_Consistent>
1

> <s_lp_Variant>
AV-unprocessed.smi:196-2

> <Gold.Version>
5.8.1

> <Gold.Id.Protein>
6NUR|6NUR_protein|mol2

> <Gold.PLP.Fitness>
51.8068

> <Gold.PLP.PLP>
-45.2091

> <Gold.PLP.part.hbond>
-5.0000

> <Gold.PLP.part.metal>
0.0000

> <Gold.PLP.part.buried>
1.1829

> <Gold.PLP.part.nonpolar>
-41.1766

> <Gold.PLP.part.repulsive>
0.8322

> <Gold.PLP.ligand.clash>
0.0000

> <Gold.PLP.ligand.torsion>
0.7761

> <Gold.PLP.Chemscore.Hbond>
2.4960

> <Gold.PLP.Chemscore.CHOScore>
0.1305

> <Gold.PLP.Chemscore.Metal>
0.0000

> <Gold.Chemscore.Hbonds>
donor molecule, donor type, donor heavy atom, donor atom, acceptor molecule, acceptor atom, score
      L1  H     7    37       P1  7948  0.61
      P1  H  7989  7998       L1    25  0.29
      P1  H  7997  8010       L1    23  0.01
      L1  C    10    40       P1  8028  0.32

> <Gold.PLP.Chemscore.Internal.Correction>
0.2704

> <Gold.Rescore>
     Score         DG    S(hbond)    S(metal)    S(lipo)     H(rot)  DE(clash)    DE(int)     intcor
      9.49     -13.51       1.84        0.00      73.08       2.60       0.26       3.76       ----

> <Gold.Chemscore.Fitness>
9.4909

> <Gold.Chemscore.DG>
-13.5140

> <Gold.Chemscore.ZeroCoef>
-5.4800

> <Gold.Chemscore.Hbond>
1.8358

> <Gold.Chemscore.Metal>
0.0000

> <Gold.Chemscore.Lipo>
73.0782

> <Gold.Chemscore.Internal_Hbond>
0.0000

> <Gold.Chemscore.DEClash>
0.2625

> <Gold.Chemscore.DEInternal>
3.7607

> <Gold.Chemscore.Rot>
2.5968

> <Gold.Chemscore.Internal.Correction>
   9.000000E+99

> <Gold.Chemscore.Hbonds>
donor molecule, donor type, donor heavy atom, donor atom, acceptor molecule, acceptor atom, score
      L1  H     7    37       P1  7948  0.56
      P1  H  7989  7998       L1    25  0.02
      P1  H  7997  8010       L1    23  0.02

> <Gold.Chemscore.Hbond.Weighted>
-6.1316

> <Gold.Chemscore.Metal.Weighted>
-0.0000

> <Gold.Chemscore.Lipo.Weighted>
-8.5501

> <Gold.Chemscore.Internal_Hbond.Weighted>
0.0000

> <Gold.Chemscore.DEClash.Weighted>
0.2625

> <Gold.Chemscore.DEInternal.Weighted>
3.7607

> <Gold.Chemscore.Rot.Weighted>
6.6477

> <Gold.Chemscore.Internal.Correction.Weighted>
   9.000000E+99

> <Gold.Protein.RotatedTorsions>
[ 6907 6896 6895 6894 ] final  -54.67 input  -60.11 | X-H torsion
[ 7974 7965 7964 7962 ] final  111.71 input  175.53 | X-H torsion
[ 8008 7997 7996 7995 ] final   30.30 input   59.86 | X-H torsion
[ 10167 10162 10161 10158 ] final -123.57 input  -65.29 | X-H torsion
[ 10718 10713 10712 10709 ] final  -15.49 input   66.30 | X-H torsion
[ 10763 10752 10751 10750 ] final   16.32 input  -60.55 | X-H torsion
[ 11005 11000 10999 10996 ] final -114.49 input  -57.11 | X-H torsion

> <Gold.Protein.ActiveResidues>
 VAL166  LYS551  ARG553  GLY616  TRP617  ASP618  TYR619  PRO620  LYS621  CYS622 
 ASP623  PHE694  ASN695  SER759  ASP760  ASP761  ALA762  ILE779  LEU786  VAL792 
 PHE793  MET794  SER795  GLU796  ALA797  LYS798  CYS799  TRP800  GLU811  SER814 

> <Gold.Protein.RotatedAtoms>
  150.8318  134.7574  159.6859 H   0  0  0  0  0  0  0  0  0  0  0  0  # atno 6907 bound_to 6896
  152.4421  134.5566  159.9892 H   0  0  0  0  0  0  0  0  0  0  0  0  # atno 6908 bound_to 6896
  151.5726  133.3350  159.3028 H   0  0  0  0  0  0  0  0  0  0  0  0  # atno 6909 bound_to 6896
  145.2387  139.2788  143.4129 H   0  0  0  0  0  0  0  0  0  0  0  0  # atno 7974 bound_to 7965
  155.0882  140.3217  155.4581 H   0  0  0  0  0  0  0  0  0  0  0  0  # atno 8008 bound_to 7997
  156.2749  140.2083  156.5955 H   0  0  0  0  0  0  0  0  0  0  0  0  # atno 8009 bound_to 7997
  154.6925  140.0515  157.0364 H   0  0  0  0  0  0  0  0  0  0  0  0  # atno 8010 bound_to 7997
  140.0021  143.5530  152.2299 H   0  0  0  0  0  0  0  0  0  0  0  0  # atno 10167 bound_to 10162
  156.6010  130.4824  149.6239 H   0  0  0  0  0  0  0  0  0  0  0  0  # atno 10718 bound_to 10713
  153.1442  135.6766  153.8980 H   0  0  0  0  0  0  0  0  0  0  0  0  # atno 10763 bound_to 10752
  153.8427  135.3103  155.3428 H   0  0  0  0  0  0  0  0  0  0  0  0  # atno 10764 bound_to 10752
  154.7812  135.4887  153.9933 H   0  0  0  0  0  0  0  0  0  0  0  0  # atno 10765 bound_to 10752
  141.0548  133.9629  157.2772 H   0  0  0  0  0  0  0  0  0  0  0  0  # atno 11005 bound_to 11000
  146.3334  140.2744  142.8607 LP  0  0  0  0  0  0  0  0  0  0  0  0  # atno 17320 bound_to 7965
  144.9609  140.8274  143.5514 LP  0  0  0  0  0  0  0  0  0  0  0  0  # atno 17321 bound_to 7965
  139.6264  144.7638  151.2629 LP  0  0  0  0  0  0  0  0  0  0  0  0  # atno 17342 bound_to 10162
  140.7415  143.6556  150.8210 LP  0  0  0  0  0  0  0  0  0  0  0  0  # atno 17343 bound_to 10162
  156.2469  130.6884  151.1608 LP  0  0  0  0  0  0  0  0  0  0  0  0  # atno 17370 bound_to 10713
  157.7279  131.0635  150.5843 LP  0  0  0  0  0  0  0  0  0  0  0  0  # atno 17371 bound_to 10713
  139.9381  135.0194  156.8621 LP  0  0  0  0  0  0  0  0  0  0  0  0  # atno 17394 bound_to 11000
  140.5984  134.0195  155.7527 LP  0  0  0  0  0  0  0  0  0  0  0  0  # atno 17395 bound_to 11000

$$$$
