AV-unprocessed.smi:1120|AV-procd|sdf|4823|dock6
  -GOLD-   22720 3383D 1   1.00000     0.00000
 Structure written by MMmdl.
 47 48  0  0  0  0  0  0  0  0  2 V2000
  148.5700  141.1141  154.6233 C   0  0  0  0  0  0  0  0  0  0  0  0
  149.8815  140.3235  154.5216 C   0  0  2  0  0  0  0  0  0  0  0  0
  149.6298  138.8236  154.2450 C   0  0  0  0  0  0  0  0  0  0  0  0
  150.9369  137.9910  154.1828 C   0  0  0  0  0  0  0  0  0  0  0  0
  151.8414  138.1318  155.4322 C   0  0  2  0  0  0  0  0  0  0  0  0
  151.2287  137.4527  156.5666 N   0  5  0  0  0  0  0  0  0  0  0  0
  150.6883  135.9308  156.4106 S   0  0  0  0  0  0  0  0  0  0  0  0
  151.0065  135.3670  155.0888 O   0  0  0  0  0  0  0  0  0  0  0  0
  150.9893  135.0912  157.5825 O   0  0  0  0  0  0  0  0  0  0  0  0
  148.8586  136.2105  156.4014 C   0  0  0  0  0  0  0  0  0  0  0  0
  148.1068  134.9856  155.8772 C   0  0  0  0  0  0  0  0  0  0  0  0
  147.5054  134.2503  156.6603 O   0  0  0  0  0  0  0  0  0  0  0  0
  148.1283  134.7898  154.5496 N   0  0  0  0  0  0  0  0  0  0  0  0
  147.4676  133.6943  153.8514 C   0  0  0  0  0  0  0  0  0  0  0  0
  146.0208  134.0553  153.4760 C   0  0  0  0  0  0  0  0  0  0  0  0
  145.5146  133.2481  152.2956 C   0  0  0  0  0  0  0  0  0  0  0  0
  146.4009  132.4669  151.5238 C   0  0  0  0  0  0  0  0  0  0  0  0
  145.8808  131.7403  150.4352 C   0  0  0  0  0  0  0  0  0  0  0  0
  144.5025  131.8242  150.1602 C   0  0  0  0  0  0  0  0  0  0  0  0
  143.7020  132.6345  150.9896 C   0  0  0  0  0  0  0  0  0  0  0  0
  144.1901  133.3342  152.0364 N   0  0  0  0  0  0  0  0  0  0  0  0
  152.0501  139.6372  155.7398 C   0  0  0  0  0  0  0  0  0  0  0  0
  150.7382  140.4617  155.8006 C   0  0  0  0  0  0  0  0  0  0  0  0
  147.9523  140.7521  155.4456 H   0  0  0  0  0  0  0  0  0  0  0  0
  147.9874  141.0265  153.7060 H   0  0  0  0  0  0  0  0  0  0  0  0
  148.7628  142.1736  154.7922 H   0  0  0  0  0  0  0  0  0  0  0  0
  150.4527  140.7306  153.6859 H   0  0  0  0  0  0  0  0  0  0  0  0
  148.9643  138.4164  155.0093 H   0  0  0  0  0  0  0  0  0  0  0  0
  149.0945  138.7142  153.3013 H   0  0  0  0  0  0  0  0  0  0  0  0
  150.6984  136.9408  154.0087 H   0  0  0  0  0  0  0  0  0  0  0  0
  151.5047  138.3120  153.3087 H   0  0  0  0  0  0  0  0  0  0  0  0
  152.8094  137.6894  155.1941 H   0  0  0  0  0  0  0  0  0  0  0  0
  148.5362  136.4684  157.4103 H   0  0  0  0  0  0  0  0  0  0  0  0
  148.6528  137.0674  155.7601 H   0  0  0  0  0  0  0  0  0  0  0  0
  148.6583  135.4371  153.9842 H   0  0  0  0  0  0  0  0  0  0  0  0
  148.0436  133.4759  152.9520 H   0  0  0  0  0  0  0  0  0  0  0  0
  147.4909  132.7907  154.4627 H   0  0  0  0  0  0  0  0  0  0  0  0
  145.3589  133.8931  154.3278 H   0  0  0  0  0  0  0  0  0  0  0  0
  145.9515  135.1167  153.2336 H   0  0  0  0  0  0  0  0  0  0  0  0
  147.4547  132.4262  151.7579 H   0  0  0  0  0  0  0  0  0  0  0  0
  146.5276  131.1300  149.8223 H   0  0  0  0  0  0  0  0  0  0  0  0
  144.0688  131.2811  149.3335 H   0  0  0  0  0  0  0  0  0  0  0  0
  142.6410  132.7221  150.8081 H   0  0  0  0  0  0  0  0  0  0  0  0
  152.6078  139.7650  156.6675 H   0  0  0  0  0  0  0  0  0  0  0  0
  152.6829  140.0616  154.9598 H   0  0  0  0  0  0  0  0  0  0  0  0
  150.9871  141.5116  155.9585 H   0  0  0  0  0  0  0  0  0  0  0  0
  150.1504  140.1639  156.6716 H   0  0  0  0  0  0  0  0  0  0  0  0
  1  2  1  0  0  0  0
  1 24  1  0  0  0  0
  1 25  1  0  0  0  0
  1 26  1  0  0  0  0
  2 23  1  0  0  0  0
  2  3  1  0  0  0  0
  2 27  1  0  0  0  0
  3  4  1  0  0  0  0
  3 28  1  0  0  0  0
  3 29  1  0  0  0  0
  4  5  1  0  0  0  0
  4 30  1  0  0  0  0
  4 31  1  0  0  0  0
  5  6  1  0  0  0  0
  5 22  1  0  0  0  0
  5 32  1  0  0  0  0
  6  7  1  0  0  0  0
  7  8  2  0  0  0  0
  7  9  2  0  0  0  0
  7 10  1  0  0  0  0
 10 11  1  0  0  0  0
 10 33  1  0  0  0  0
 10 34  1  0  0  0  0
 11 12  2  0  0  0  0
 11 13  1  0  0  0  0
 13 14  1  0  0  0  0
 13 35  1  0  0  0  0
 14 15  1  0  0  0  0
 14 36  1  0  0  0  0
 14 37  1  0  0  0  0
 15 16  1  0  0  0  0
 15 38  1  0  0  0  0
 15 39  1  0  0  0  0
 16 21  1  0  0  0  0
 16 17  2  0  0  0  0
 17 18  1  0  0  0  0
 17 40  1  0  0  0  0
 18 19  2  0  0  0  0
 18 41  1  0  0  0  0
 19 20  1  0  0  0  0
 19 42  1  0  0  0  0
 20 21  2  0  0  0  0
 20 43  1  0  0  0  0
 22 23  1  0  0  0  0
 22 44  1  0  0  0  0
 22 45  1  0  0  0  0
 23 46  1  0  0  0  0
 23 47  1  0  0  0  0
M  CHG  1   6  -1
M  END
> <s_m_source_file>
AV-unprocessed.smi

> <i_m_source_file_index>
1120

> <i_lp_mmshare_version>
43012

> <i_f3d_flags>
0

> <s_epik_input>
W0NIM11bQ0BASF0xW0NIMl1bQ0gyXVtDQEhdKFtDSDJdW0NIMl0xKVtOSF1TKD1PKSg9TylbQ0gyXUMoPU8pW05IXVtDSDJdW0NIMl1jMltjSF1bY0hdW2NIXVtjSF1uMg==

> <s_epik_cmdline>
J2VwaWtfcHl0aG9uJywgJy1waCcsICc3LjAnLCAnLXRuJywgJzgnLCAnLW1hJywgJzIwMCcsICctbWV0YWxfYmluZGluZycsICctaW1hZScsICc8aW5maWxlLm1hZT4nLCAnLW9tYWUnLCAnPG91dGZpbGUubWFlPic=

> <r_epik_Ionization_Penalty>
5.68623

> <r_epik_Ionization_Penalty_Charging>
5.66033

> <r_epik_Ionization_Penalty_Neutral>
0.0259005

> <r_epik_State_Penalty>
5.67764

> <r_epik_Charging_Adjusted_Penalty>
11.338

> <i_epik_Tot_Q>
-1

> <i_epik_Tot_abs_Q>
1

> <r_epik_Metal_State_Penalty>
1.68319

> <b_epik_Metal_Only>
1

> <s_lp_Force_Field>
OPLS_2005

> <r_lp_Energy>
10.049

> <b_lp_Chiralities_Consistent>
1

> <s_lp_Variant>
AV-unprocessed.smi:1120-6

> <Gold.Version>
5.8.1

> <Gold.Id.Protein>
6NUR|6NUR_protein|mol2

> <Gold.PLP.Fitness>
45.5179

> <Gold.PLP.PLP>
-38.6326

> <Gold.PLP.part.hbond>
-3.0000

> <Gold.PLP.part.metal>
0.0000

> <Gold.PLP.part.buried>
-2.5933

> <Gold.PLP.part.nonpolar>
-34.2650

> <Gold.PLP.part.repulsive>
0.2865

> <Gold.PLP.ligand.clash>
0.0000

> <Gold.PLP.ligand.torsion>
1.5251

> <Gold.PLP.Chemscore.Hbond>
1.9691

> <Gold.PLP.Chemscore.CHOScore>
1.0000

> <Gold.PLP.Chemscore.Metal>
0.0000

> <Gold.Chemscore.Hbonds>
donor molecule, donor type, donor heavy atom, donor atom, acceptor molecule, acceptor atom, score
      L1  H    13    35       P1  7948  0.36
      P1  H  6896  6907       L1     9  0.26
      P1  H 10752 10765       L1     8  0.86
      L1  C    20    43       P1 10186  0.66

> <Gold.PLP.Chemscore.Internal.Correction>
1.0280

> <Gold.Rescore>
     Score         DG    S(hbond)    S(metal)    S(lipo)     H(rot)  DE(clash)    DE(int)     intcor
     15.64     -18.42       1.77        0.00     100.64       1.86       0.22       2.56       ----

> <Gold.Chemscore.Fitness>
15.6393

> <Gold.Chemscore.DG>
-18.4178

> <Gold.Chemscore.ZeroCoef>
-5.4800

> <Gold.Chemscore.Hbond>
1.7740

> <Gold.Chemscore.Metal>
0.0000

> <Gold.Chemscore.Lipo>
100.6406

> <Gold.Chemscore.Internal_Hbond>
0.0000

> <Gold.Chemscore.DEClash>
0.2181

> <Gold.Chemscore.DEInternal>
2.5604

> <Gold.Chemscore.Rot>
1.8602

> <Gold.Chemscore.Internal.Correction>
   9.000000E+99

> <Gold.Chemscore.Hbonds>
donor molecule, donor type, donor heavy atom, donor atom, acceptor molecule, acceptor atom, score
      L1  H    13    35       P1  7948  0.34
      P1  H  6896  6907       L1     9  0.25
      P1  H 10752 10765       L1     8  0.74

> <Gold.Chemscore.Hbond.Weighted>
-5.9250

> <Gold.Chemscore.Metal.Weighted>
-0.0000

> <Gold.Chemscore.Lipo.Weighted>
-11.7749

> <Gold.Chemscore.Internal_Hbond.Weighted>
0.0000

> <Gold.Chemscore.DEClash.Weighted>
0.2181

> <Gold.Chemscore.DEInternal.Weighted>
2.5604

> <Gold.Chemscore.Rot.Weighted>
4.7622

> <Gold.Chemscore.Internal.Correction.Weighted>
   9.000000E+99

> <Gold.Protein.RotatedTorsions>
[ 6907 6896 6895 6894 ] final  -98.37 input  -60.11 | X-H torsion
[ 7974 7965 7964 7962 ] final -160.47 input  175.53 | X-H torsion
[ 8008 7997 7996 7995 ] final  103.54 input   59.86 | X-H torsion
[ 10167 10162 10161 10158 ] final  -42.88 input  -65.29 | X-H torsion
[ 10718 10713 10712 10709 ] final  -83.36 input   66.30 | X-H torsion
[ 10763 10752 10751 10750 ] final  168.46 input  -60.55 | X-H torsion
[ 11005 11000 10999 10996 ] final   36.39 input  -57.11 | X-H torsion

> <Gold.Protein.ActiveResidues>
 VAL166  LYS551  ARG553  GLY616  TRP617  ASP618  TYR619  PRO620  LYS621  CYS622 
 ASP623  PHE694  ASN695  SER759  ASP760  ASP761  ALA762  ILE779  LEU786  VAL792 
 PHE793  MET794  SER795  GLU796  ALA797  LYS798  CYS799  TRP800  GLU811  SER814 

> <Gold.Protein.RotatedAtoms>
  150.7044  134.1205  159.4032 H   0  0  0  0  0  0  0  0  0  0  0  0  # atno 6907 bound_to 6896
  151.9192  135.0303  160.0530 H   0  0  0  0  0  0  0  0  0  0  0  0  # atno 6908 bound_to 6896
  152.2271  133.4993  159.5231 H   0  0  0  0  0  0  0  0  0  0  0  0  # atno 6909 bound_to 6896
  144.7426  140.3537  143.6110 H   0  0  0  0  0  0  0  0  0  0  0  0  # atno 7974 bound_to 7965
  156.1493  140.3163  155.8622 H   0  0  0  0  0  0  0  0  0  0  0  0  # atno 8008 bound_to 7997
  155.4002  140.0499  157.3054 H   0  0  0  0  0  0  0  0  0  0  0  0  # atno 8009 bound_to 7997
  154.5044  140.2141  155.9292 H   0  0  0  0  0  0  0  0  0  0  0  0  # atno 8010 bound_to 7997
  140.6953  143.3013  151.3273 H   0  0  0  0  0  0  0  0  0  0  0  0  # atno 10167 bound_to 10162
  156.0019  130.4663  150.4245 H   0  0  0  0  0  0  0  0  0  0  0  0  # atno 10718 bound_to 10713
  154.3688  135.2753  155.2278 H   0  0  0  0  0  0  0  0  0  0  0  0  # atno 10763 bound_to 10752
  154.4434  135.5948  153.6148 H   0  0  0  0  0  0  0  0  0  0  0  0  # atno 10764 bound_to 10752
  152.9839  135.6024  154.3917 H   0  0  0  0  0  0  0  0  0  0  0  0  # atno 10765 bound_to 10752
  140.2330  134.3505  155.7956 H   0  0  0  0  0  0  0  0  0  0  0  0  # atno 11005 bound_to 11000
  145.7250  139.1720  143.2463 LP  0  0  0  0  0  0  0  0  0  0  0  0  # atno 17320 bound_to 7965
  146.1249  140.7261  142.9440 LP  0  0  0  0  0  0  0  0  0  0  0  0  # atno 17321 bound_to 7965
  139.6402  144.0554  152.2548 LP  0  0  0  0  0  0  0  0  0  0  0  0  # atno 17342 bound_to 10162
  140.0057  144.6261  150.7691 LP  0  0  0  0  0  0  0  0  0  0  0  0  # atno 17343 bound_to 10162
  157.2299  131.0501  151.2498 LP  0  0  0  0  0  0  0  0  0  0  0  0  # atno 17370 bound_to 10713
  157.3721  130.7186  149.6572 LP  0  0  0  0  0  0  0  0  0  0  0  0  # atno 17371 bound_to 10713
  141.2216  133.7256  156.8763 LP  0  0  0  0  0  0  0  0  0  0  0  0  # atno 17394 bound_to 11000
  140.1731  134.9086  157.2857 LP  0  0  0  0  0  0  0  0  0  0  0  0  # atno 17395 bound_to 11000

$$$$
