AV-unprocessed.smi:3030|AV-procd|sdf|11538|dock2
  -GOLD-   2272016483D 1   1.00000     0.00000
 Structure written by MMmdl.
 52 53  0  0  0  0  0  0  0  0  1 V2000
  153.5072  130.8634  156.1872 C   0  0  0  0  0  0  0  0  0  0  0  0
  152.3342  131.6290  156.8093 C   0  0  0  0  0  0  0  0  0  0  0  0
  151.3086  131.9386  155.8236 N   0  0  0  0  0  0  0  0  0  0  0  0
  150.6889  130.9350  155.0863 C   0  0  0  0  0  0  0  0  0  0  0  0
  149.7785  131.1615  154.1198 C   0  0  0  0  0  0  0  0  0  0  0  0
  149.3970  132.5512  153.7964 C   0  0  0  0  0  0  0  0  0  0  0  0
  148.5679  132.7941  152.9194 O   0  0  0  0  0  0  0  0  0  0  0  0
  150.0634  133.6248  154.5807 C   0  0  0  0  0  0  0  0  0  0  0  0
  149.6864  134.9423  154.2721 N   0  0  0  0  0  0  0  0  0  0  0  0
  149.6360  136.0264  155.0673 C   0  0  0  0  0  0  0  0  0  0  0  0
  149.9497  136.0668  156.2566 O   0  0  0  0  0  0  0  0  0  0  0  0
  149.1950  137.0929  154.3857 N   0  0  0  0  0  0  0  0  0  0  0  0
  149.0067  138.4354  154.9323 C   0  0  1  0  0  0  0  0  0  0  0  0
  150.3458  138.9367  155.5107 C   0  0  0  0  0  0  0  0  0  0  0  0
  150.2351  140.3659  156.0694 C   0  0  1  0  0  0  0  0  0  0  0  0
  151.5748  140.8497  156.6429 C   0  0  0  0  0  0  0  0  0  0  0  0
  149.7096  141.3184  154.9826 C   0  0  0  0  0  0  0  0  0  0  0  0
  148.3661  140.8368  154.4149 C   0  0  0  0  0  0  0  0  0  0  0  0
  148.4601  139.4013  153.8453 C   0  0  2  0  0  0  0  0  0  0  0  0
  147.1382  138.9159  153.1771 C   0  0  0  0  0  0  0  0  0  0  0  0
  146.7109  139.8117  152.0016 C   0  0  0  0  0  0  0  0  0  0  0  0
  145.9710  138.7178  154.1619 C   0  0  0  0  0  0  0  0  0  0  0  0
  150.9617  133.2559  155.5295 C   0  0  0  0  0  0  0  0  0  0  0  0
  154.2656  130.6407  156.9377 H   0  0  0  0  0  0  0  0  0  0  0  0
  153.9817  131.4449  155.3962 H   0  0  0  0  0  0  0  0  0  0  0  0
  153.1763  129.9177  155.7568 H   0  0  0  0  0  0  0  0  0  0  0  0
  151.8965  131.0426  157.6181 H   0  0  0  0  0  0  0  0  0  0  0  0
  152.6941  132.5531  157.2630 H   0  0  0  0  0  0  0  0  0  0  0  0
  150.9921  129.9333  155.3546 H   0  0  0  0  0  0  0  0  0  0  0  0
  149.3206  130.3491  153.5748 H   0  0  0  0  0  0  0  0  0  0  0  0
  149.4245  135.0844  153.3073 H   0  0  0  0  0  0  0  0  0  0  0  0
  148.9633  136.9674  153.4112 H   0  0  0  0  0  0  0  0  0  0  0  0
  148.2850  138.3973  155.7497 H   0  0  0  0  0  0  0  0  0  0  0  0
  150.6797  138.2623  156.3008 H   0  0  0  0  0  0  0  0  0  0  0  0
  151.1144  138.9061  154.7368 H   0  0  0  0  0  0  0  0  0  0  0  0
  149.5126  140.3540  156.8869 H   0  0  0  0  0  0  0  0  0  0  0  0
  152.3474  140.8815  155.8740 H   0  0  0  0  0  0  0  0  0  0  0  0
  151.9231  140.1888  157.4370 H   0  0  0  0  0  0  0  0  0  0  0  0
  151.4832  141.8509  157.0649 H   0  0  0  0  0  0  0  0  0  0  0  0
  149.5930  142.3225  155.3918 H   0  0  0  0  0  0  0  0  0  0  0  0
  150.4387  141.3980  154.1748 H   0  0  0  0  0  0  0  0  0  0  0  0
  147.6137  140.8806  155.2027 H   0  0  0  0  0  0  0  0  0  0  0  0
  148.0461  141.5361  153.6435 H   0  0  0  0  0  0  0  0  0  0  0  0
  149.2103  139.4293  153.0529 H   0  0  0  0  0  0  0  0  0  0  0  0
  147.3347  137.9403  152.7321 H   0  0  0  0  0  0  0  0  0  0  0  0
  146.3823  140.7952  152.3372 H   0  0  0  0  0  0  0  0  0  0  0  0
  145.8811  139.3634  151.4544 H   0  0  0  0  0  0  0  0  0  0  0  0
  147.5283  139.9535  151.2942 H   0  0  0  0  0  0  0  0  0  0  0  0
  145.6729  139.6546  154.6321 H   0  0  0  0  0  0  0  0  0  0  0  0
  146.2225  138.0097  154.9510 H   0  0  0  0  0  0  0  0  0  0  0  0
  145.0953  138.3215  153.6474 H   0  0  0  0  0  0  0  0  0  0  0  0
  151.4799  133.9635  156.1563 H   0  0  0  0  0  0  0  0  0  0  0  0
  1  2  1  0  0  0  0
  1 24  1  0  0  0  0
  1 25  1  0  0  0  0
  1 26  1  0  0  0  0
  2  3  1  0  0  0  0
  2 27  1  0  0  0  0
  2 28  1  0  0  0  0
  3 23  1  0  0  0  0
  3  4  1  0  0  0  0
  4  5  2  0  0  0  0
  4 29  1  0  0  0  0
  5  6  1  0  0  0  0
  5 30  1  0  0  0  0
  6  7  2  0  0  0  0
  6  8  1  0  0  0  0
  8  9  1  0  0  0  0
  8 23  2  0  0  0  0
  9 10  1  0  0  0  0
  9 31  1  0  0  0  0
 10 11  2  0  0  0  0
 10 12  1  0  0  0  0
 12 13  1  0  0  0  0
 12 32  1  0  0  0  0
 13 19  1  0  0  0  0
 13 14  1  0  0  0  0
 13 33  1  0  0  0  0
 14 15  1  0  0  0  0
 14 34  1  0  0  0  0
 14 35  1  0  0  0  0
 15 16  1  0  0  0  0
 15 17  1  0  0  0  0
 15 36  1  0  0  0  0
 16 37  1  0  0  0  0
 16 38  1  0  0  0  0
 16 39  1  0  0  0  0
 17 18  1  0  0  0  0
 17 40  1  0  0  0  0
 17 41  1  0  0  0  0
 18 19  1  0  0  0  0
 18 42  1  0  0  0  0
 18 43  1  0  0  0  0
 19 20  1  0  0  0  0
 19 44  1  0  0  0  0
 20 21  1  0  0  0  0
 20 22  1  0  0  0  0
 20 45  1  0  0  0  0
 21 46  1  0  0  0  0
 21 47  1  0  0  0  0
 21 48  1  0  0  0  0
 22 49  1  0  0  0  0
 22 50  1  0  0  0  0
 22 51  1  0  0  0  0
 23 52  1  0  0  0  0
M  END
> <s_m_source_file>
AV-unprocessed.smi

> <i_m_source_file_index>
3030

> <i_lp_mmshare_version>
43012

> <i_f3d_flags>
0

> <s_epik_input>
W0NIM11bQ0gyXW4xW2NIXVtjSF1jKD1PKWMoW2NIXTEpW05IXUMoPU8pW05IXVtDQEBIXTJbQ0gyXVtDQEBIXShbQ0gzXSlbQ0gyXVtDSDJdW0NASF0yW0NIXShbQ0gzXSlbQ0gzXQ==

> <s_epik_cmdline>
J2VwaWtfcHl0aG9uJywgJy1waCcsICc3LjAnLCAnLXRuJywgJzgnLCAnLW1hJywgJzIwMCcsICctbWV0YWxfYmluZGluZycsICctaW1hZScsICc8aW5maWxlLm1hZT4nLCAnLW9tYWUnLCAnPG91dGZpbGUubWFlPic=

> <r_lp_tautomer_probability>
1

> <r_epik_Ionization_Penalty>
0.00147933

> <r_epik_Ionization_Penalty_Charging>
0.00145753

> <r_epik_Ionization_Penalty_Neutral>
2.17987e-05

> <r_epik_State_Penalty>
0.00097457

> <r_epik_Charging_Adjusted_Penalty>
0.0024321

> <i_epik_Tot_Q>
0

> <i_epik_Tot_abs_Q>
0

> <r_epik_Metal_State_Penalty>
-0

> <b_epik_Metal_Only>
0

> <s_lp_Force_Field>
OPLS_2005

> <r_lp_Energy>
9.50568

> <b_lp_Chiralities_Consistent>
1

> <s_lp_Variant>
AV-unprocessed.smi:3030-6

> <Gold.Version>
5.8.1

> <Gold.Id.Protein>
6NUR|6NUR_protein|mol2

> <Gold.PLP.Fitness>
40.8300

> <Gold.PLP.PLP>
-35.8010

> <Gold.PLP.part.hbond>
-2.0000

> <Gold.PLP.part.metal>
0.0000

> <Gold.PLP.part.buried>
0.6638

> <Gold.PLP.part.nonpolar>
-34.6435

> <Gold.PLP.part.repulsive>
0.2375

> <Gold.PLP.ligand.clash>
0.0000

> <Gold.PLP.ligand.torsion>
0.2201

> <Gold.PLP.Chemscore.Hbond>
1.8000

> <Gold.PLP.Chemscore.CHOScore>
0.0000

> <Gold.PLP.Chemscore.Metal>
0.0000

> <Gold.Chemscore.Hbonds>
donor molecule, donor type, donor heavy atom, donor atom, acceptor molecule, acceptor atom, score
      L1  H     9    31       P1  7948  0.55
      L1  H    12    32       P1  7948  1.00

> <Gold.PLP.Chemscore.Internal.Correction>
0.0691

> <Gold.Rescore>
     Score         DG    S(hbond)    S(metal)    S(lipo)     H(rot)  DE(clash)    DE(int)     intcor
     15.40     -16.15       1.04        0.00      89.41       1.27       0.42       0.33       ----

> <Gold.Chemscore.Fitness>
15.4049

> <Gold.Chemscore.DG>
-16.1520

> <Gold.Chemscore.ZeroCoef>
-5.4800

> <Gold.Chemscore.Hbond>
1.0355

> <Gold.Chemscore.Metal>
0.0000

> <Gold.Chemscore.Lipo>
89.4100

> <Gold.Chemscore.Internal_Hbond>
0.0000

> <Gold.Chemscore.DEClash>
0.4153

> <Gold.Chemscore.DEInternal>
0.3318

> <Gold.Chemscore.Rot>
1.2685

> <Gold.Chemscore.Internal.Correction>
   9.000000E+99

> <Gold.Chemscore.Hbonds>
donor molecule, donor type, donor heavy atom, donor atom, acceptor molecule, acceptor atom, score
      L1  H     9    31       P1  7948  0.03
      L1  H    12    32       P1  7948  0.99

> <Gold.Chemscore.Hbond.Weighted>
-3.4585

> <Gold.Chemscore.Metal.Weighted>
-0.0000

> <Gold.Chemscore.Lipo.Weighted>
-10.4610

> <Gold.Chemscore.Internal_Hbond.Weighted>
0.0000

> <Gold.Chemscore.DEClash.Weighted>
0.4153

> <Gold.Chemscore.DEInternal.Weighted>
0.3318

> <Gold.Chemscore.Rot.Weighted>
3.2474

> <Gold.Chemscore.Internal.Correction.Weighted>
   9.000000E+99

> <Gold.Protein.RotatedTorsions>
[ 6907 6896 6895 6894 ] final -137.81 input  -60.11 | X-H torsion
[ 7974 7965 7964 7962 ] final  -69.22 input  175.53 | X-H torsion
[ 8008 7997 7996 7995 ] final -179.55 input   59.86 | X-H torsion
[ 10167 10162 10161 10158 ] final  104.33 input  -65.29 | X-H torsion
[ 10718 10713 10712 10709 ] final   66.35 input   66.30 | X-H torsion
[ 10763 10752 10751 10750 ] final  -69.56 input  -60.55 | X-H torsion
[ 11005 11000 10999 10996 ] final  -34.50 input  -57.11 | X-H torsion

> <Gold.Protein.ActiveResidues>
 VAL166  LYS551  ARG553  GLY616  TRP617  ASP618  TYR619  PRO620  LYS621  CYS622 
 ASP623  PHE694  ASN695  SER759  ASP760  ASP761  ALA762  ILE779  LEU786  VAL792 
 PHE793  MET794  SER795  GLU796  ALA797  LYS798  CYS799  TRP800  GLU811  SER814 

> <Gold.Protein.RotatedAtoms>
  151.0271  133.5824  159.2664 H   0  0  0  0  0  0  0  0  0  0  0  0  # atno 6907 bound_to 6896
  151.2919  135.0743  159.9217 H   0  0  0  0  0  0  0  0  0  0  0  0  # atno 6908 bound_to 6896
  152.5336  133.9967  159.7930 H   0  0  0  0  0  0  0  0  0  0  0  0  # atno 6909 bound_to 6896
  145.7065  140.9096  143.0703 H   0  0  0  0  0  0  0  0  0  0  0  0  # atno 7974 bound_to 7965
  156.0318  140.1283  157.0250 H   0  0  0  0  0  0  0  0  0  0  0  0  # atno 8008 bound_to 7997
  154.4353  140.1048  156.6181 H   0  0  0  0  0  0  0  0  0  0  0  0  # atno 8009 bound_to 7997
  155.5796  140.3468  155.4539 H   0  0  0  0  0  0  0  0  0  0  0  0  # atno 8010 bound_to 7997
  139.7186  144.7063  151.0909 H   0  0  0  0  0  0  0  0  0  0  0  0  # atno 10167 bound_to 10162
  157.6163  130.9263  150.0097 H   0  0  0  0  0  0  0  0  0  0  0  0  # atno 10718 bound_to 10713
  154.4051  135.6022  153.5920 H   0  0  0  0  0  0  0  0  0  0  0  0  # atno 10763 bound_to 10752
  152.9789  135.5916  154.4137 H   0  0  0  0  0  0  0  0  0  0  0  0  # atno 10764 bound_to 10752
  154.3941  135.2842  155.2115 H   0  0  0  0  0  0  0  0  0  0  0  0  # atno 10765 bound_to 10752
  140.9721  133.7103  156.1542 H   0  0  0  0  0  0  0  0  0  0  0  0  # atno 11005 bound_to 11000
  144.6954  139.9017  143.7459 LP  0  0  0  0  0  0  0  0  0  0  0  0  # atno 17320 bound_to 7965
  146.0751  139.3739  143.0499 LP  0  0  0  0  0  0  0  0  0  0  0  0  # atno 17321 bound_to 7965
  140.7749  143.5196  150.9553 LP  0  0  0  0  0  0  0  0  0  0  0  0  # atno 17342 bound_to 10162
  139.8882  143.6986  152.3148 LP  0  0  0  0  0  0  0  0  0  0  0  0  # atno 17343 bound_to 10162
  156.1287  130.3644  149.9767 LP  0  0  0  0  0  0  0  0  0  0  0  0  # atno 17370 bound_to 10713
  156.7832  130.9229  151.3646 LP  0  0  0  0  0  0  0  0  0  0  0  0  # atno 17371 bound_to 10713
  140.7313  134.4252  157.5565 LP  0  0  0  0  0  0  0  0  0  0  0  0  # atno 17394 bound_to 11000
  139.8916  134.8775  156.2310 LP  0  0  0  0  0  0  0  0  0  0  0  0  # atno 17395 bound_to 11000

$$$$
