#       Name:                AV-unprocessed.smi:2445
#       Creating user name   scv26
#       Creation time:       Fri Mar 27 13:26:52 2020


#       File generated by GOLD software.
#

@<TRIPOS>MOLECULE
AV-unprocessed.smi:2445
    45    46     1
SMALL
NO_CHARGES


@<TRIPOS>ATOM
      1 ****        -3.6703  -3.2434   5.1163 C.3            1 S1                 0.0000
      2 ****        -2.8337  -2.1921   4.4697 C.2            1 S1                 0.0000
      3 ****        -2.1297  -1.1846   5.0812 C.2            1 S1                 0.0000
      4 ****        -1.4412  -0.3570   4.1917 N.2            1 S1                 0.0000
      5 ****        -1.6119  -0.7208   2.9174 C.2            1 S1                 0.0000
      6 ****        -0.9868  -0.0102   1.7581 C.3            1 S1                 0.0000
      7 ****        -1.5093   1.4312   1.6289 C.3            1 S1                 0.0000
      8 ****         0.5528  -0.1271   1.7860 C.3            1 S1                 0.0000
      9 ****         1.1883   0.4968   0.6298 N.am           1 S1                 0.0000
     10 ****         1.2413  -0.0360  -0.5983 C.2            1 S1                 0.0000
     11 ****         0.7687  -1.1334  -0.8951 O.2            1 S1                 0.0000
     12 ****         1.8602   0.7768  -1.4649 N.am           1 S1                 0.0000
     13 ****         2.0452   0.5011  -2.8861 C.3            1 S1                 0.0000
     14 ****         3.2781   1.1900  -3.4335 C.3            1 S1                 0.0000
     15 ****         2.9568   1.2984  -4.9214 C.3            1 S1                 0.0000
     16 ****         1.5365   1.3438  -5.0219 O.3            1 S1                 0.0000
     17 ****         0.9420   1.1295  -3.7459 C.3            1 S1                 0.0000
     18 ****        -0.3219   0.2729  -3.8882 C.3            1 S1                 0.0000
     19 ****        -2.6497  -2.1311   2.7364 S.3            1 S1                 0.0000
     20 ****        -3.6755  -3.1301   6.2008 H              1 S1                 0.0000
     21 ****        -3.2893  -4.2379   4.8835 H              1 S1                 0.0000
     22 ****        -4.7013  -3.1854   4.7670 H              1 S1                 0.0000
     23 ****        -2.0628  -0.9834   6.1402 H              1 S1                 0.0000
     24 ****        -1.3283  -0.5377   0.8665 H              1 S1                 0.0000
     25 ****        -2.5980   1.4470   1.5712 H              1 S1                 0.0000
     26 ****        -1.1303   1.9171   0.7297 H              1 S1                 0.0000
     27 ****        -1.2125   2.0377   2.4850 H              1 S1                 0.0000
     28 ****         0.9467   0.3529   2.6823 H              1 S1                 0.0000
     29 ****         0.8511  -1.1755   1.8429 H              1 S1                 0.0000
     30 ****         1.6052   1.4047   0.7748 H              1 S1                 0.0000
     31 ****         2.2136   1.6583  -1.1225 H              1 S1                 0.0000
     32 ****         2.1209  -0.5705  -3.0826 H              1 S1                 0.0000
     33 ****         3.3790   2.1898  -3.0078 H              1 S1                 0.0000
     34 ****         4.1998   0.6420  -3.2367 H              1 S1                 0.0000
     35 ****         3.4161   2.1740  -5.3805 H              1 S1                 0.0000
     36 ****         3.3109   0.4141  -5.4525 H              1 S1                 0.0000
     37 ****         0.6779   2.1105  -3.3467 H              1 S1                 0.0000
     38 ****        -0.8046   0.1191  -2.9231 H              1 S1                 0.0000
     39 ****        -0.0900  -0.7063  -4.3073 H              1 S1                 0.0000
     40 ****        -1.0453   0.7548  -4.5461 H              1 S1                 0.0000
     41 ****        -0.8823   0.4217   4.4769 LP             1 S1                 0.0000
     42 ****         0.3106  -1.6854  -0.1984 LP             1 S1                 0.0000
     43 ****         0.8430  -1.4727  -1.8328 LP             1 S1                 0.0000
     44 ****         1.2279   0.6322  -5.6530 LP             1 S1                 0.0000
     45 ****         1.2591   2.2399  -5.3684 LP             1 S1                 0.0000
@<TRIPOS>BOND
    1    1    2 1     
    2    1   20 1     
    3    1   21 1     
    4    1   22 1     
    5    2   19 1     
    6    2    3 2     
    7    3    4 1     
    8    3   23 1     
    9    4    5 2     
   10    5    6 1     
   11    5   19 1     
   12    6    7 1     
   13    6    8 1     
   14    6   24 1     
   15    7   25 1     
   16    7   26 1     
   17    7   27 1     
   18    8    9 1     
   19    8   28 1     
   20    8   29 1     
   21    9   10 am    
   22    9   30 1     
   23   10   11 2     
   24   10   12 am    
   25   12   13 1     
   26   12   31 1     
   27   13   17 1     
   28   13   14 1     
   29   13   32 1     
   30   14   15 1     
   31   14   33 1     
   32   14   34 1     
   33   15   16 1     
   34   15   35 1     
   35   15   36 1     
   36   16   17 1     
   37   17   18 1     
   38   17   37 1     
   39   18   38 1     
   40   18   39 1     
   41   18   40 1     
   42    4   41 1     
   43   11   42 1     
   44   11   43 1     
   45   16   44 1     
   46   16   45 1     
@<TRIPOS>SUBSTRUCTURE
      1 S1             1
@<TRIPOS>SET
LONE_PAIRS      STATIC     ATOMS    <user>   **** ""
5 41 42 43 44 45
DONOR_HYDROGENS      STATIC     ATOMS    <user>   **** ""
2 30 31
ATOM$BLUE        STATIC     ATOMS    COLORGROUP SYSTEM
5 41 42 43 44 45
ATOM$RED        STATIC     ATOMS    COLORGROUP SYSTEM
2 30 31
