#       Name:                AV-unprocessed.smi:1692
#       Creating user name   scv26
#       Creation time:       Fri Mar 27 07:54:33 2020


#       File generated by GOLD software.
#

@<TRIPOS>MOLECULE
AV-unprocessed.smi:1692
    51    52     1
SMALL
NO_CHARGES


@<TRIPOS>ATOM
      1 ****        -3.3281   3.0569  -1.6869 C.3            1 S1                 0.0000
      2 ****        -3.0738   2.6688  -0.2266 C.3            1 S1                 0.0000
      3 ****        -2.3458   1.3162  -0.1019 C.3            1 S1                 0.0000
      4 ****        -2.1792   0.9107   1.2919 N.3            1 S1                 0.0000
      5 ****        -1.5101  -0.3828   1.4249 C.3            1 S1                 0.0000
      6 ****        -0.0341  -0.3985   0.9920 C.3            1 S1                 0.0000
      7 ****         0.6486  -1.7394   1.3058 C.3            1 S1                 0.0000
      8 ****         2.0569  -1.7274   0.9265 N.am           1 S1                 0.0000
      9 ****         2.5219  -1.9303  -0.3151 C.2            1 S1                 0.0000
     10 ****         1.7947  -2.1523  -1.2839 O.2            1 S1                 0.0000
     11 ****         3.8643  -1.8570  -0.3498 N.am           1 S1                 0.0000
     12 ****         4.7247  -2.0158  -1.4689 C.ar           1 S1                 0.0000
     13 ****         6.1038  -1.8874  -1.1867 C.ar           1 S1                 0.0000
     14 ****         7.0407  -2.0300  -2.2285 C.ar           1 S1                 0.0000
     15 ****         6.5741  -2.2977  -3.5277 C.ar           1 S1                 0.0000
     16 ****         5.1853  -2.4099  -3.7234 C.ar           1 S1                 0.0000
     17 ****         4.2856  -2.2736  -2.7264 N.ar           1 S1                 0.0000
     18 ****        -3.4874   0.8901   1.9370 C.3            1 S1                 0.0000
     19 ****        -4.2127   2.2441   1.8193 C.3            1 S1                 0.0000
     20 ****        -5.6184   2.2039   2.4282 C.3            1 S1                 0.0000
     21 ****        -4.3299   2.5879   0.4415 O.3            1 S1                 0.0000
     22 ****        -2.3913   3.1439  -2.2379 H              1 S1                 0.0000
     23 ****        -3.8419   4.0163  -1.7508 H              1 S1                 0.0000
     24 ****        -3.9463   2.3132  -2.1905 H              1 S1                 0.0000
     25 ****        -2.4743   3.4501   0.2437 H              1 S1                 0.0000
     26 ****        -2.9041   0.5511  -0.6440 H              1 S1                 0.0000
     27 ****        -1.3750   1.3989  -0.5895 H              1 S1                 0.0000
     28 ****        -1.5484  -0.6878   2.4715 H              1 S1                 0.0000
     29 ****        -2.0622  -1.1441   0.8714 H              1 S1                 0.0000
     30 ****         0.0451  -0.2003  -0.0770 H              1 S1                 0.0000
     31 ****         0.4994   0.4066   1.4987 H              1 S1                 0.0000
     32 ****         0.5905  -1.9443   2.3749 H              1 S1                 0.0000
     33 ****         0.1316  -2.5595   0.8044 H              1 S1                 0.0000
     34 ****         2.7243  -1.5515   1.6632 H              1 S1                 0.0000
     35 ****         4.3253  -1.6669   0.5276 H              1 S1                 0.0000
     36 ****         6.4457  -1.6822  -0.1826 H              1 S1                 0.0000
     37 ****         8.0987  -1.9364  -2.0329 H              1 S1                 0.0000
     38 ****         7.2619  -2.4140  -4.3522 H              1 S1                 0.0000
     39 ****         4.7856  -2.6148  -4.7053 H              1 S1                 0.0000
     40 ****        -4.1051   0.1082   1.4918 H              1 S1                 0.0000
     41 ****        -3.3735   0.6344   2.9911 H              1 S1                 0.0000
     42 ****        -3.6325   3.0157   2.3286 H              1 S1                 0.0000
     43 ****        -5.5784   1.9638   3.4909 H              1 S1                 0.0000
     44 ****        -6.2400   1.4538   1.9383 H              1 S1                 0.0000
     45 ****        -6.1155   3.1685   2.3240 H              1 S1                 0.0000
     46 ****        -1.5857   1.5770   1.7433 LP             1 S1                 0.0000
     47 ****         0.8023  -2.1885  -1.1663 LP             1 S1                 0.0000
     48 ****         2.1966  -2.2964  -2.1881 LP             1 S1                 0.0000
     49 ****         3.3070  -2.3616  -2.9125 LP             1 S1                 0.0000
     50 ****        -4.8873   1.8931  -0.0130 LP             1 S1                 0.0000
     51 ****        -4.7838   3.4764   0.3733 LP             1 S1                 0.0000
@<TRIPOS>BOND
    1    1    2 1     
    2    1   22 1     
    3    1   23 1     
    4    1   24 1     
    5    2   21 1     
    6    2    3 1     
    7    2   25 1     
    8    3    4 1     
    9    3   26 1     
   10    3   27 1     
   11    4    5 1     
   12    4   18 1     
   13    5    6 1     
   14    5   28 1     
   15    5   29 1     
   16    6    7 1     
   17    6   30 1     
   18    6   31 1     
   19    7    8 1     
   20    7   32 1     
   21    7   33 1     
   22    8    9 am    
   23    8   34 1     
   24    9   10 2     
   25    9   11 am    
   26   11   12 1     
   27   11   35 1     
   28   12   17 ar    
   29   12   13 ar    
   30   13   14 ar    
   31   13   36 1     
   32   14   15 ar    
   33   14   37 1     
   34   15   16 ar    
   35   15   38 1     
   36   16   17 ar    
   37   16   39 1     
   38   18   19 1     
   39   18   40 1     
   40   18   41 1     
   41   19   20 1     
   42   19   21 1     
   43   19   42 1     
   44   20   43 1     
   45   20   44 1     
   46   20   45 1     
   47    4   46 1     
   48   10   47 1     
   49   10   48 1     
   50   17   49 1     
   51   21   50 1     
   52   21   51 1     
@<TRIPOS>SUBSTRUCTURE
      1 S1             1
@<TRIPOS>SET
LONE_PAIRS      STATIC     ATOMS    <user>   **** ""
6 46 47 48 49 50 51
DONOR_HYDROGENS      STATIC     ATOMS    <user>   **** ""
2 34 35
ATOM$BLUE        STATIC     ATOMS    COLORGROUP SYSTEM
6 46 47 48 49 50 51
ATOM$RED        STATIC     ATOMS    COLORGROUP SYSTEM
2 34 35
