AV-unprocessed.smi:910|AV-procd|sdf|4135|dock7
  -GOLD-   22720 2 43D 1   1.00000     0.00000
 Structure written by MMmdl.
 45 46  0  0  0  0  0  0  0  0  2 V2000
  146.6878  132.8630  162.3559 C   0  0  0  0  0  0  0  0  0  0  0  0
  146.6697  134.3155  161.9959 C   0  0  0  0  0  0  0  0  0  0  0  0
  147.7024  134.9182  161.2934 N   0  0  0  0  0  0  0  0  0  0  0  0
  147.3469  136.1960  161.1481 C   0  0  0  0  0  0  0  0  0  0  0  0
  148.0550  137.1519  160.5250 N   0  5  0  0  0  0  0  0  0  0  0  0
  149.0399  136.8052  159.6658 C   0  0  0  0  0  0  0  0  0  0  0  0
  149.3199  135.6613  159.2988 O   0  0  0  0  0  0  0  0  0  0  0  0
  149.7445  137.8470  159.2009 N   0  0  0  0  0  0  0  0  0  0  0  0
  150.8501  137.7740  158.2511 C   0  0  0  0  0  0  0  0  0  0  0  0
  152.1227  138.4165  158.8196 C   0  0  0  0  0  0  0  0  0  0  0  0
  152.3584  139.6456  158.1486 O   0  0  0  0  0  0  0  0  0  0  0  0
  151.9710  140.7961  158.8878 C   0  0  1  0  0  0  0  0  0  0  0  0
  153.0787  141.1325  159.9085 C   0  0  0  0  0  0  0  0  0  0  0  0
  152.7841  142.4448  160.6495 C   0  0  0  0  0  0  0  0  0  0  0  0
  152.5825  143.6016  159.6607 C   0  0  0  0  0  0  0  0  0  0  0  0
  151.4764  143.2744  158.6460 C   0  0  0  0  0  0  0  0  0  0  0  0
  151.7606  141.9594  157.8926 C   0  0  2  0  0  0  0  0  0  0  0  0
  150.6350  141.6544  156.8909 C   0  0  0  0  0  0  0  0  0  0  0  0
  146.1422  136.4617  161.7292 O   0  0  0  0  0  0  0  0  0  0  0  0
  145.7237  135.2705  162.2554 C   0  0  0  0  0  0  0  0  0  0  0  0
  144.4093  135.2456  162.9580 C   0  0  0  0  0  0  0  0  0  0  0  0
  146.6611  132.7272  163.4370 H   0  0  0  0  0  0  0  0  0  0  0  0
  147.5854  132.3687  161.9830 H   0  0  0  0  0  0  0  0  0  0  0  0
  145.8264  132.3445  161.9347 H   0  0  0  0  0  0  0  0  0  0  0  0
  149.4814  138.7665  159.5239 H   0  0  0  0  0  0  0  0  0  0  0  0
  151.0353  136.7273  158.0095 H   0  0  0  0  0  0  0  0  0  0  0  0
  150.5679  138.2615  157.3166 H   0  0  0  0  0  0  0  0  0  0  0  0
  151.9940  138.6104  159.8852 H   0  0  0  0  0  0  0  0  0  0  0  0
  152.9686  137.7362  158.7172 H   0  0  0  0  0  0  0  0  0  0  0  0
  151.0302  140.6137  159.4113 H   0  0  0  0  0  0  0  0  0  0  0  0
  153.1915  140.3263  160.6330 H   0  0  0  0  0  0  0  0  0  0  0  0
  154.0364  141.2150  159.3926 H   0  0  0  0  0  0  0  0  0  0  0  0
  151.8903  142.3258  161.2631 H   0  0  0  0  0  0  0  0  0  0  0  0
  153.6010  142.6776  161.3330 H   0  0  0  0  0  0  0  0  0  0  0  0
  152.3327  144.5144  160.2020 H   0  0  0  0  0  0  0  0  0  0  0  0
  153.5165  143.8000  159.1333 H   0  0  0  0  0  0  0  0  0  0  0  0
  150.5196  143.2018  159.1653 H   0  0  0  0  0  0  0  0  0  0  0  0
  151.3797  144.0969  157.9367 H   0  0  0  0  0  0  0  0  0  0  0  0
  152.6832  142.0918  157.3252 H   0  0  0  0  0  0  0  0  0  0  0  0
  149.6848  141.4907  157.4003 H   0  0  0  0  0  0  0  0  0  0  0  0
  150.8558  140.7618  156.3052 H   0  0  0  0  0  0  0  0  0  0  0  0
  150.4997  142.4785  156.1904 H   0  0  0  0  0  0  0  0  0  0  0  0
  144.2494  134.2885  163.4549 H   0  0  0  0  0  0  0  0  0  0  0  0
  143.5930  135.4011  162.2529 H   0  0  0  0  0  0  0  0  0  0  0  0
  144.3598  136.0307  163.7125 H   0  0  0  0  0  0  0  0  0  0  0  0
  1 22  1  0  0  0  0
  1 23  1  0  0  0  0
  1 24  1  0  0  0  0
  1  2  1  0  0  0  0
  2  3  1  0  0  0  0
  2 20  2  0  0  0  0
  3  4  2  0  0  0  0
  4 19  1  0  0  0  0
  4  5  1  0  0  0  0
  5  6  1  0  0  0  0
  6  8  1  0  0  0  0
  6  7  2  0  0  0  0
  8  9  1  0  0  0  0
  8 25  1  0  0  0  0
  9 10  1  0  0  0  0
  9 26  1  0  0  0  0
  9 27  1  0  0  0  0
 10 11  1  0  0  0  0
 10 28  1  0  0  0  0
 10 29  1  0  0  0  0
 11 12  1  0  0  0  0
 12 17  1  0  0  0  0
 12 13  1  0  0  0  0
 12 30  1  0  0  0  0
 13 14  1  0  0  0  0
 13 31  1  0  0  0  0
 13 32  1  0  0  0  0
 14 15  1  0  0  0  0
 14 33  1  0  0  0  0
 14 34  1  0  0  0  0
 15 16  1  0  0  0  0
 15 35  1  0  0  0  0
 15 36  1  0  0  0  0
 16 17  1  0  0  0  0
 16 37  1  0  0  0  0
 16 38  1  0  0  0  0
 17 18  1  0  0  0  0
 17 39  1  0  0  0  0
 18 40  1  0  0  0  0
 18 41  1  0  0  0  0
 18 42  1  0  0  0  0
 19 20  1  0  0  0  0
 20 21  1  0  0  0  0
 21 43  1  0  0  0  0
 21 44  1  0  0  0  0
 21 45  1  0  0  0  0
M  CHG  1   5  -1
M  END
> <s_m_source_file>
AV-unprocessed.smi

> <i_m_source_file_index>
910

> <i_lp_mmshare_version>
43012

> <i_f3d_flags>
0

> <s_epik_input>
W0NIM11jMW5jKG9jMVtDSDNdKVtOSF1DKD1PKVtOSF1bQ0gyXVtDSDJdT1tDQEBIXTJbQ0gyXVtDSDJdW0NIMl1bQ0gyXVtDQEhdMltDSDNd

> <s_epik_cmdline>
J2VwaWtfcHl0aG9uJywgJy1waCcsICc3LjAnLCAnLXRuJywgJzgnLCAnLW1hJywgJzIwMCcsICctbWV0YWxfYmluZGluZycsICctaW1hZScsICc8aW5maWxlLm1hZT4nLCAnLW9tYWUnLCAnPG91dGZpbGUubWFlPic=

> <r_lp_tautomer_probability>
0.107061

> <r_epik_Ionization_Penalty>
10.1763

> <r_epik_Ionization_Penalty_Charging>
7.13067

> <r_epik_Ionization_Penalty_Neutral>
3.04564

> <r_epik_State_Penalty>
5.57927

> <r_epik_Charging_Adjusted_Penalty>
12.7099

> <i_epik_Tot_Q>
-1

> <i_epik_Tot_abs_Q>
1

> <r_epik_Metal_State_Penalty>
1.52303

> <b_epik_Metal_Only>
1

> <s_lp_Force_Field>
OPLS_2005

> <r_lp_Energy>
4.71828

> <b_lp_Chiralities_Consistent>
1

> <s_lp_Variant>
AV-unprocessed.smi:910-20

> <Gold.Version>
5.8.1

> <Gold.Id.Protein>
6NUR|6NUR_protein|mol2

> <Gold.PLP.Fitness>
49.0712

> <Gold.PLP.PLP>
-38.8847

> <Gold.PLP.part.hbond>
-3.0000

> <Gold.PLP.part.metal>
0.0000

> <Gold.PLP.part.buried>
-6.1909

> <Gold.PLP.part.nonpolar>
-30.8592

> <Gold.PLP.part.repulsive>
0.6932

> <Gold.PLP.ligand.clash>
0.0000

> <Gold.PLP.ligand.torsion>
0.9267

> <Gold.PLP.Chemscore.Hbond>
3.9948

> <Gold.PLP.Chemscore.CHOScore>
0.0000

> <Gold.PLP.Chemscore.Metal>
0.0000

> <Gold.Chemscore.Hbonds>
donor molecule, donor type, donor heavy atom, donor atom, acceptor molecule, acceptor atom, score
      P1  H  6896  6909       L1     7  1.00
      P1  H  6931  6943       L1     5  1.57
      P1  H  6934  6947       L1     5  1.25

> <Gold.PLP.Chemscore.Internal.Correction>
0.0554

> <Gold.Rescore>
     Score         DG    S(hbond)    S(metal)    S(lipo)     H(rot)  DE(clash)    DE(int)     intcor
     16.48     -19.20       1.72        0.00     103.54       1.62       0.21       2.50       ----

> <Gold.Chemscore.Fitness>
16.4826

> <Gold.Chemscore.DG>
-19.1963

> <Gold.Chemscore.ZeroCoef>
-5.4800

> <Gold.Chemscore.Hbond>
1.7191

> <Gold.Chemscore.Metal>
0.0000

> <Gold.Chemscore.Lipo>
103.5372

> <Gold.Chemscore.Internal_Hbond>
0.0000

> <Gold.Chemscore.DEClash>
0.2149

> <Gold.Chemscore.DEInternal>
2.4987

> <Gold.Chemscore.Rot>
1.6169

> <Gold.Chemscore.Internal.Correction>
   9.000000E+99

> <Gold.Chemscore.Hbonds>
donor molecule, donor type, donor heavy atom, donor atom, acceptor molecule, acceptor atom, score
      P1  H  6896  6909       L1     7  0.94
      P1  H  6931  6943       L1     5  0.19
      P1  H  6934  6947       L1     5  0.45

> <Gold.Chemscore.Hbond.Weighted>
-5.7417

> <Gold.Chemscore.Metal.Weighted>
-0.0000

> <Gold.Chemscore.Lipo.Weighted>
-12.1139

> <Gold.Chemscore.Internal_Hbond.Weighted>
0.0000

> <Gold.Chemscore.DEClash.Weighted>
0.2149

> <Gold.Chemscore.DEInternal.Weighted>
2.4987

> <Gold.Chemscore.Rot.Weighted>
4.1393

> <Gold.Chemscore.Internal.Correction.Weighted>
   9.000000E+99

> <Gold.Protein.RotatedTorsions>
[ 6907 6896 6895 6894 ] final   39.54 input  -60.11 | X-H torsion
[ 7974 7965 7964 7962 ] final -156.72 input  175.53 | X-H torsion
[ 8008 7997 7996 7995 ] final  146.45 input   59.86 | X-H torsion
[ 10167 10162 10161 10158 ] final  -98.89 input  -65.29 | X-H torsion
[ 10718 10713 10712 10709 ] final  141.10 input   66.30 | X-H torsion
[ 10763 10752 10751 10750 ] final  136.90 input  -60.55 | X-H torsion
[ 11005 11000 10999 10996 ] final   28.47 input  -57.11 | X-H torsion

> <Gold.Protein.ActiveResidues>
 VAL166  LYS551  ARG553  GLY616  TRP617  ASP618  TYR619  PRO620  LYS621  CYS622 
 ASP623  PHE694  ASN695  SER759  ASP760  ASP761  ALA762  ILE779  LEU786  VAL792 
 PHE793  MET794  SER795  GLU796  ALA797  LYS798  CYS799  TRP800  GLU811  SER814 

> <Gold.Protein.RotatedAtoms>
  152.1708  134.8835  160.0534 H   0  0  0  0  0  0  0  0  0  0  0  0  # atno 6907 bound_to 6896
  151.9796  133.3748  159.4110 H   0  0  0  0  0  0  0  0  0  0  0  0  # atno 6908 bound_to 6896
  150.6901  134.3976  159.5148 H   0  0  0  0  0  0  0  0  0  0  0  0  # atno 6909 bound_to 6896
  144.7580  140.4071  143.5997 H   0  0  0  0  0  0  0  0  0  0  0  0  # atno 7974 bound_to 7965
  156.2855  140.2182  156.5379 H   0  0  0  0  0  0  0  0  0  0  0  0  # atno 8008 bound_to 7997
  154.7394  140.0489  157.0820 H   0  0  0  0  0  0  0  0  0  0  0  0  # atno 8009 bound_to 7997
  155.0250  140.3128  155.4782 H   0  0  0  0  0  0  0  0  0  0  0  0  # atno 8010 bound_to 7997
  140.2682  143.3362  152.0560 H   0  0  0  0  0  0  0  0  0  0  0  0  # atno 10167 bound_to 10162
  157.3958  131.1010  151.0601 H   0  0  0  0  0  0  0  0  0  0  0  0  # atno 10718 bound_to 10713
  153.8642  135.3064  155.3439 H   0  0  0  0  0  0  0  0  0  0  0  0  # atno 10763 bound_to 10752
  154.7835  135.4822  153.9899 H   0  0  0  0  0  0  0  0  0  0  0  0  # atno 10764 bound_to 10752
  153.1444  135.6830  153.9072 H   0  0  0  0  0  0  0  0  0  0  0  0  # atno 10765 bound_to 10752
  140.3153  134.2604  155.7727 H   0  0  0  0  0  0  0  0  0  0  0  0  # atno 11005 bound_to 11000
  145.6713  139.1599  143.2753 LP  0  0  0  0  0  0  0  0  0  0  0  0  # atno 17320 bound_to 7965
  146.1613  140.6784  142.9276 LP  0  0  0  0  0  0  0  0  0  0  0  0  # atno 17321 bound_to 7965
  139.4996  144.6674  151.6324 LP  0  0  0  0  0  0  0  0  0  0  0  0  # atno 17342 bound_to 10162
  140.5911  143.9778  150.6325 LP  0  0  0  0  0  0  0  0  0  0  0  0  # atno 17343 bound_to 10162
  157.1618  130.6229  149.5613 LP  0  0  0  0  0  0  0  0  0  0  0  0  # atno 17370 bound_to 10713
  155.9810  130.4814  150.6803 LP  0  0  0  0  0  0  0  0  0  0  0  0  # atno 17371 bound_to 10713
  141.2099  133.7735  156.9966 LP  0  0  0  0  0  0  0  0  0  0  0  0  # atno 17394 bound_to 11000
  140.0989  134.9547  157.1893 LP  0  0  0  0  0  0  0  0  0  0  0  0  # atno 17395 bound_to 11000

$$$$
