#       Name:                AV-unprocessed.smi:1646
#       Creating user name   scv26
#       Creation time:       Fri Mar 27 07:32:28 2020


#       File generated by GOLD software.
#

@<TRIPOS>MOLECULE
AV-unprocessed.smi:1646
    32    33     1
SMALL
NO_CHARGES


@<TRIPOS>ATOM
      1 ****         0.0565   2.1674  -0.5436 O.2            1 S1                 0.0000
      2 ****         0.5824   1.0554  -0.4955 C.2            1 S1                 0.0000
      3 ****         2.1048   0.9271  -0.5456 C.3            1 S1                 0.0000
      4 ****         2.6788   1.0535   0.7814 N.pl3          1 S1                 0.0000
      5 ****         3.0177   2.2105   1.4569 C.2            1 S1                 0.0000
      6 ****         3.5038   1.7988   2.6598 C.2            1 S1                 0.0000
      7 ****         4.1441   2.9056   4.0685 Br             1 S1                 0.0000
      8 ****         3.4338   0.3825   2.6572 C.2            1 S1                 0.0000
      9 ****         2.9328  -0.0622   1.5136 N.2            1 S1                 0.0000
     10 ****        -0.1110  -0.0888  -0.3936 N.am           1 S1                 0.0000
     11 ****        -1.5654  -0.1868  -0.3049 C.3            1 S1                 0.0000
     12 ****        -1.9871  -1.5631   0.2459 C.3            1 S1                 0.0000
     13 ****        -3.0618  -2.0920  -0.7060 C.3            1 S1                 0.0000
     14 ****        -2.7207  -1.4604  -2.0516 C.3            1 S1                 0.0000
     15 ****        -2.2298  -0.0586  -1.6905 C.3            1 S1                 0.0000
     16 ****         2.3967  -0.0305  -0.9805 H              1 S1                 0.0000
     17 ****         2.5197   1.7082  -1.1840 H              1 S1                 0.0000
     18 ****         2.8832   3.1953   1.0341 H              1 S1                 0.0000
     19 ****         3.7209  -0.3196   3.4261 H              1 S1                 0.0000
     20 ****         0.4071  -0.9550  -0.3590 H              1 S1                 0.0000
     21 ****        -1.9416   0.5985   0.3536 H              1 S1                 0.0000
     22 ****        -1.1427  -2.2544   0.2460 H              1 S1                 0.0000
     23 ****        -2.3497  -1.5013   1.2724 H              1 S1                 0.0000
     24 ****        -3.0867  -3.1813  -0.7469 H              1 S1                 0.0000
     25 ****        -4.0439  -1.7481  -0.3789 H              1 S1                 0.0000
     26 ****        -1.9156  -2.0214  -2.5281 H              1 S1                 0.0000
     27 ****        -3.5688  -1.4454  -2.7365 H              1 S1                 0.0000
     28 ****        -3.0870   0.6117  -1.6136 H              1 S1                 0.0000
     29 ****        -1.5712   0.3541  -2.4561 H              1 S1                 0.0000
     30 ****         0.6253   2.9868  -0.6155 LP             1 S1                 0.0000
     31 ****        -0.9394   2.2513  -0.5108 LP             1 S1                 0.0000
     32 ****         2.7758  -1.0132   1.2473 LP             1 S1                 0.0000
@<TRIPOS>BOND
    1    1    2 2     
    2    2    3 1     
    3    2   10 am    
    4    3    4 1     
    5    3   16 1     
    6    3   17 1     
    7    4    9 1     
    8    4    5 1     
    9    5    6 2     
   10    5   18 1     
   11    6    7 1     
   12    6    8 1     
   13    8    9 2     
   14    8   19 1     
   15   10   11 1     
   16   10   20 1     
   17   11   15 1     
   18   11   12 1     
   19   11   21 1     
   20   12   13 1     
   21   12   22 1     
   22   12   23 1     
   23   13   14 1     
   24   13   24 1     
   25   13   25 1     
   26   14   15 1     
   27   14   26 1     
   28   14   27 1     
   29   15   28 1     
   30   15   29 1     
   31    1   30 1     
   32    1   31 1     
   33    9   32 1     
@<TRIPOS>SUBSTRUCTURE
      1 S1             1
@<TRIPOS>SET
LONE_PAIRS      STATIC     ATOMS    <user>   **** ""
3 30 31 32
DONOR_HYDROGENS      STATIC     ATOMS    <user>   **** ""
1 20
ATOM$BLUE        STATIC     ATOMS    COLORGROUP SYSTEM
3 30 31 32
ATOM$RED        STATIC     ATOMS    COLORGROUP SYSTEM
1 20
