#       Name:                AV-unprocessed.smi:583
#       Creating user name   scv26
#       Creation time:       Thu Mar 26 23:50:14 2020


#       File generated by GOLD software.
#

@<TRIPOS>MOLECULE
AV-unprocessed.smi:583
    39    40     1
SMALL
NO_CHARGES


@<TRIPOS>ATOM
      1 ****        -0.5700   2.3282   2.1813 O.2            1 S1                 0.0000
      2 ****        -0.0647   1.7265   1.2346 C.2            1 S1                 0.0000
      3 ****         1.3840   2.0531   0.8321 C.3            1 S1                 0.0000
      4 ****         1.8772   1.3388  -0.3597 N.am           1 S1                 0.0000
      5 ****         2.5830   0.1393  -0.1400 C.2            1 S1                 0.0000
      6 ****         3.0746  -0.6158  -1.1412 C.2            1 S1                 0.0000
      7 ****         3.8758  -1.8799  -0.8711 C.3            1 S1                 0.0000
      8 ****         3.0554  -2.9270  -0.7968 F              1 S1                 0.0000
      9 ****         4.7553  -2.1087  -1.8467 F              1 S1                 0.0000
     10 ****         4.5413  -1.7915   0.2816 F              1 S1                 0.0000
     11 ****         2.8740  -0.1136  -2.4863 C.2            1 S1                 0.0000
     12 ****         2.2050   1.0336  -2.7137 C.2            1 S1                 0.0000
     13 ****         1.6511   1.8287  -1.6157 C.2            1 S1                 0.0000
     14 ****         1.0194   2.8668  -1.8121 O.2            1 S1                 0.0000
     15 ****        -0.7264   0.7894   0.5343 N.am           1 S1                 0.0000
     16 ****        -2.1004   0.3665   0.7806 C.3            1 S1                 0.0000
     17 ****        -2.2078  -0.5863   1.9888 C.3            1 S1                 0.0000
     18 ****        -3.5783  -1.2730   1.9530 C.3            1 S1                 0.0000
     19 ****        -4.0357  -1.4055   0.1831 S.o2           1 S1                 0.0000
     20 ****        -3.8321  -2.7875  -0.2770 O.2            1 S1                 0.0000
     21 ****        -5.3180  -0.7172  -0.0301 O.2            1 S1                 0.0000
     22 ****        -2.6694  -0.3592  -0.4460 C.3            1 S1                 0.0000
     23 ****         1.4664   3.1320   0.6889 H              1 S1                 0.0000
     24 ****         2.0257   1.8378   1.6876 H              1 S1                 0.0000
     25 ****         2.6956  -0.1307   0.9003 H              1 S1                 0.0000
     26 ****         3.2628  -0.6686  -3.3275 H              1 S1                 0.0000
     27 ****         2.0722   1.3761  -3.7295 H              1 S1                 0.0000
     28 ****        -0.2412   0.3399  -0.2286 H              1 S1                 0.0000
     29 ****        -2.7237   1.2420   0.9722 H              1 S1                 0.0000
     30 ****        -1.4328  -1.3505   1.9123 H              1 S1                 0.0000
     31 ****        -2.0487  -0.0666   2.9343 H              1 S1                 0.0000
     32 ****        -3.5729  -2.2594   2.4169 H              1 S1                 0.0000
     33 ****        -4.3304  -0.6589   2.4488 H              1 S1                 0.0000
     34 ****        -3.0388   0.3219  -1.2128 H              1 S1                 0.0000
     35 ****        -1.9277  -1.0205  -0.8954 H              1 S1                 0.0000
     36 ****        -0.0403   3.0172   2.6759 LP             1 S1                 0.0000
     37 ****        -1.5104   2.1282   2.4562 LP             1 S1                 0.0000
     38 ****         0.6517   3.3824  -1.0382 LP             1 S1                 0.0000
     39 ****         0.8739   3.1945  -2.7456 LP             1 S1                 0.0000
@<TRIPOS>BOND
    1    1    2 2     
    2    2    3 1     
    3    2   15 am    
    4    3    4 1     
    5    3   23 1     
    6    3   24 1     
    7    4   13 am    
    8    4    5 1     
    9    5    6 2     
   10    5   25 1     
   11    6    7 1     
   12    6   11 1     
   13    7    8 1     
   14    7    9 1     
   15    7   10 1     
   16   11   12 2     
   17   11   26 1     
   18   12   13 1     
   19   12   27 1     
   20   13   14 2     
   21   15   16 1     
   22   15   28 1     
   23   16   22 1     
   24   16   17 1     
   25   16   29 1     
   26   17   18 1     
   27   17   30 1     
   28   17   31 1     
   29   18   19 1     
   30   18   32 1     
   31   18   33 1     
   32   19   20 2     
   33   19   21 2     
   34   19   22 1     
   35   22   34 1     
   36   22   35 1     
   37    1   36 1     
   38    1   37 1     
   39   14   38 1     
   40   14   39 1     
@<TRIPOS>SUBSTRUCTURE
      1 S1             1
@<TRIPOS>SET
LONE_PAIRS      STATIC     ATOMS    <user>   **** ""
6 36 37 38 39 20 21
DONOR_HYDROGENS      STATIC     ATOMS    <user>   **** ""
1 28
ATOM$BLUE        STATIC     ATOMS    COLORGROUP SYSTEM
6 36 37 38 39 20 21
ATOM$RED        STATIC     ATOMS    COLORGROUP SYSTEM
1 28
