AV-unprocessed.smi:3048|AV-procd|sdf|11628|dock3
  -GOLD-   2272017 13D 1   1.00000     0.00000
 Structure written by MMmdl.
 37 38  0  0  0  0  0  0  0  0  1 V2000
  146.8696  141.3926  153.8265 C   0  0  0  0  0  0  0  0  0  0  0  0
  148.2228  141.0019  154.3468 C   0  0  0  0  0  0  0  0  0  0  0  0
  148.9277  139.7849  154.1230 C   0  0  0  0  0  0  0  0  0  0  0  0
  150.1029  139.7516  154.7298 N   0  0  0  0  0  0  0  0  0  0  0  0
  150.1896  140.9416  155.3609 N   0  0  0  0  0  0  0  0  0  0  0  0
  151.3671  141.2576  156.1488 C   0  0  0  0  0  0  0  0  0  0  0  0
  151.7336  140.1327  157.1302 C   0  0  0  0  0  0  0  0  0  0  0  0
  152.6894  140.5891  158.1355 N   0  0  0  0  0  0  0  0  0  0  0  0
  152.0681  140.9585  159.4028 C   0  0  0  0  0  0  0  0  0  0  0  0
  152.5400  142.3445  159.8677 C   0  0  1  0  0  0  0  0  0  0  0  0
  152.1177  143.4502  158.8808 C   0  0  0  0  0  0  0  0  0  0  0  0
  152.5208  144.8310  159.4118 C   0  0  0  0  0  0  0  0  0  0  0  0
  151.9768  145.0183  160.8320 C   0  0  0  0  0  0  0  0  0  0  0  0
  152.3903  143.8353  161.7213 C   0  0  0  0  0  0  0  0  0  0  0  0
  151.9479  142.6139  161.1373 O   0  0  0  0  0  0  0  0  0  0  0  0
  149.0698  141.7166  155.1455 C   0  0  0  0  0  0  0  0  0  0  0  0
  146.6474  140.9093  152.8749 H   0  0  0  0  0  0  0  0  0  0  0  0
  146.7935  142.4682  153.6655 H   0  0  0  0  0  0  0  0  0  0  0  0
  146.0777  141.1139  154.5220 H   0  0  0  0  0  0  0  0  0  0  0  0
  148.6206  138.9283  153.5411 H   0  0  0  0  0  0  0  0  0  0  0  0
  152.1982  141.4391  155.4658 H   0  0  0  0  0  0  0  0  0  0  0  0
  151.1936  142.1924  156.6839 H   0  0  0  0  0  0  0  0  0  0  0  0
  150.8294  139.7583  157.6117 H   0  0  0  0  0  0  0  0  0  0  0  0
  152.1578  139.2960  156.5743 H   0  0  0  0  0  0  0  0  0  0  0  0
  153.2152  141.3778  157.7721 H   0  0  0  0  0  0  0  0  0  0  0  0
  150.9848  140.9773  159.2756 H   0  0  0  0  0  0  0  0  0  0  0  0
  152.2794  140.2112  160.1686 H   0  0  0  0  0  0  0  0  0  0  0  0
  153.6280  142.3437  159.9614 H   0  0  0  0  0  0  0  0  0  0  0  0
  152.5738  143.2809  157.9049 H   0  0  0  0  0  0  0  0  0  0  0  0
  151.0376  143.4175  158.7314 H   0  0  0  0  0  0  0  0  0  0  0  0
  153.6080  144.9176  159.4206 H   0  0  0  0  0  0  0  0  0  0  0  0
  152.1478  145.6168  158.7540 H   0  0  0  0  0  0  0  0  0  0  0  0
  152.3385  145.9558  161.2553 H   0  0  0  0  0  0  0  0  0  0  0  0
  150.8886  145.0869  160.8021 H   0  0  0  0  0  0  0  0  0  0  0  0
  153.4720  143.8126  161.8628 H   0  0  0  0  0  0  0  0  0  0  0  0
  151.9429  143.9354  162.7103 H   0  0  0  0  0  0  0  0  0  0  0  0
  148.9682  142.7012  155.5782 H   0  0  0  0  0  0  0  0  0  0  0  0
  1  2  1  0  0  0  0
  1 17  1  0  0  0  0
  1 18  1  0  0  0  0
  1 19  1  0  0  0  0
  2 16  2  0  0  0  0
  2  3  1  0  0  0  0
  3  4  2  0  0  0  0
  3 20  1  0  0  0  0
  4  5  1  0  0  0  0
  5  6  1  0  0  0  0
  5 16  1  0  0  0  0
  6  7  1  0  0  0  0
  6 21  1  0  0  0  0
  6 22  1  0  0  0  0
  7  8  1  0  0  0  0
  7 23  1  0  0  0  0
  7 24  1  0  0  0  0
  8  9  1  0  0  0  0
  8 25  1  0  0  0  0
  9 10  1  0  0  0  0
  9 26  1  0  0  0  0
  9 27  1  0  0  0  0
 10 15  1  0  0  0  0
 10 11  1  0  0  0  0
 10 28  1  0  0  0  0
 11 12  1  0  0  0  0
 11 29  1  0  0  0  0
 11 30  1  0  0  0  0
 12 13  1  0  0  0  0
 12 31  1  0  0  0  0
 12 32  1  0  0  0  0
 13 14  1  0  0  0  0
 13 33  1  0  0  0  0
 13 34  1  0  0  0  0
 14 15  1  0  0  0  0
 14 35  1  0  0  0  0
 14 36  1  0  0  0  0
 16 37  1  0  0  0  0
M  END
> <s_m_source_file>
AV-unprocessed.smi

> <i_m_source_file_index>
3048

> <i_lp_mmshare_version>
43012

> <i_f3d_flags>
0

> <s_epik_input>
W0NIM11jMVtjSF1ubihbY0hdMSlbQ0gyXVtDSDJdW05IXVtDSDJdW0NAQEhdMltDSDJdW0NIMl1bQ0gyXVtDSDJdTzI=

> <s_epik_cmdline>
J2VwaWtfcHl0aG9uJywgJy1waCcsICc3LjAnLCAnLXRuJywgJzgnLCAnLW1hJywgJzIwMCcsICctbWV0YWxfYmluZGluZycsICctaW1hZScsICc8aW5maWxlLm1hZT4nLCAnLW9tYWUnLCAnPG91dGZpbGUubWFlPic=

> <r_lp_tautomer_probability>
1

> <r_epik_Ionization_Penalty>
2.52229

> <r_epik_Ionization_Penalty_Charging>
0

> <r_epik_Ionization_Penalty_Neutral>
2.52229

> <r_epik_State_Penalty>
2.68614

> <r_epik_Charging_Adjusted_Penalty>
2.68614

> <i_epik_Tot_Q>
0

> <i_epik_Tot_abs_Q>
0

> <r_epik_Metal_State_Penalty>
2.68365

> <b_epik_Metal_Only>
0

> <s_lp_Force_Field>
OPLS_2005

> <r_lp_Energy>
12.9812

> <b_lp_Chiralities_Consistent>
1

> <s_lp_Variant>
AV-unprocessed.smi:3048-4

> <Gold.Version>
5.8.1

> <Gold.Id.Protein>
6NUR|6NUR_protein|mol2

> <Gold.PLP.Fitness>
44.1779

> <Gold.PLP.PLP>
-40.4672

> <Gold.PLP.part.hbond>
-1.7889

> <Gold.PLP.part.metal>
0.0000

> <Gold.PLP.part.buried>
-2.3991

> <Gold.PLP.part.nonpolar>
-35.5554

> <Gold.PLP.part.repulsive>
0.1867

> <Gold.PLP.ligand.clash>
0.0000

> <Gold.PLP.ligand.torsion>
0.7732

> <Gold.PLP.Chemscore.Hbond>
0.0499

> <Gold.PLP.Chemscore.CHOScore>
1.6807

> <Gold.PLP.Chemscore.Metal>
0.0000

> <Gold.Chemscore.Hbonds>
donor molecule, donor type, donor heavy atom, donor atom, acceptor molecule, acceptor atom, score
      P1  H  6933  6945       L1    15  0.10
      L1  C     3    20       P1  7957  0.08
      L1  C    16    37       P1  8028  0.97

> <Gold.PLP.Chemscore.Internal.Correction>
0.0651

> <Gold.Rescore>
     Score         DG    S(hbond)    S(metal)    S(lipo)     H(rot)  DE(clash)    DE(int)     intcor
     13.62     -14.55       0.19        0.00     105.84       1.54       0.04       0.89       ----

> <Gold.Chemscore.Fitness>
13.6186

> <Gold.Chemscore.DG>
-14.5457

> <Gold.Chemscore.ZeroCoef>
-5.4800

> <Gold.Chemscore.Hbond>
0.1878

> <Gold.Chemscore.Metal>
0.0000

> <Gold.Chemscore.Lipo>
105.8429

> <Gold.Chemscore.Internal_Hbond>
0.0000

> <Gold.Chemscore.DEClash>
0.0363

> <Gold.Chemscore.DEInternal>
0.8909

> <Gold.Chemscore.Rot>
1.5411

> <Gold.Chemscore.Internal.Correction>
   9.000000E+99

> <Gold.Chemscore.Hbonds>
donor molecule, donor type, donor heavy atom, donor atom, acceptor molecule, acceptor atom, score
      P1  H  6933  6945       L1    15  0.09

> <Gold.Chemscore.Hbond.Weighted>
-0.6273

> <Gold.Chemscore.Metal.Weighted>
-0.0000

> <Gold.Chemscore.Lipo.Weighted>
-12.3836

> <Gold.Chemscore.Internal_Hbond.Weighted>
0.0000

> <Gold.Chemscore.DEClash.Weighted>
0.0363

> <Gold.Chemscore.DEInternal.Weighted>
0.8909

> <Gold.Chemscore.Rot.Weighted>
3.9452

> <Gold.Chemscore.Internal.Correction.Weighted>
   9.000000E+99

> <Gold.Protein.RotatedTorsions>
[ 6907 6896 6895 6894 ] final  -47.14 input  -60.11 | X-H torsion
[ 7974 7965 7964 7962 ] final  137.61 input  175.53 | X-H torsion
[ 8008 7997 7996 7995 ] final  -13.70 input   59.86 | X-H torsion
[ 10167 10162 10161 10158 ] final   56.65 input  -65.29 | X-H torsion
[ 10718 10713 10712 10709 ] final   51.87 input   66.30 | X-H torsion
[ 10763 10752 10751 10750 ] final  154.48 input  -60.55 | X-H torsion
[ 11005 11000 10999 10996 ] final -178.85 input  -57.11 | X-H torsion

> <Gold.Protein.ActiveResidues>
 VAL166  LYS551  ARG553  GLY616  TRP617  ASP618  TYR619  PRO620  LYS621  CYS622 
 ASP623  PHE694  ASN695  SER759  ASP760  ASP761  ALA762  ILE779  LEU786  VAL792 
 PHE793  MET794  SER795  GLU796  ALA797  LYS798  CYS799  TRP800  GLU811  SER814 

> <Gold.Protein.RotatedAtoms>
  150.9039  134.8452  159.7378 H   0  0  0  0  0  0  0  0  0  0  0  0  # atno 6907 bound_to 6896
  152.4907  134.4461  159.9569 H   0  0  0  0  0  0  0  0  0  0  0  0  # atno 6908 bound_to 6896
  151.4510  133.3578  159.2830 H   0  0  0  0  0  0  0  0  0  0  0  0  # atno 6909 bound_to 6896
  144.9451  139.4885  143.5553 H   0  0  0  0  0  0  0  0  0  0  0  0  # atno 7974 bound_to 7965
  154.5271  140.2242  155.8871 H   0  0  0  0  0  0  0  0  0  0  0  0  # atno 8008 bound_to 7997
  156.1724  140.3119  155.8962 H   0  0  0  0  0  0  0  0  0  0  0  0  # atno 8009 bound_to 7997
  155.3530  140.0457  157.3037 H   0  0  0  0  0  0  0  0  0  0  0  0  # atno 8010 bound_to 7997
  140.2065  144.3934  150.6507 H   0  0  0  0  0  0  0  0  0  0  0  0  # atno 10167 bound_to 10162
  157.5022  130.8445  149.8330 H   0  0  0  0  0  0  0  0  0  0  0  0  # atno 10718 bound_to 10713
  154.1530  135.2814  155.3130 H   0  0  0  0  0  0  0  0  0  0  0  0  # atno 10763 bound_to 10752
  154.6203  135.5469  153.7571 H   0  0  0  0  0  0  0  0  0  0  0  0  # atno 10764 bound_to 10752
  153.0215  135.6437  154.1674 H   0  0  0  0  0  0  0  0  0  0  0  0  # atno 10765 bound_to 10752
  140.4252  134.6569  157.4684 H   0  0  0  0  0  0  0  0  0  0  0  0  # atno 11005 bound_to 11000
  146.3300  139.8497  142.8875 LP  0  0  0  0  0  0  0  0  0  0  0  0  # atno 17320 bound_to 7965
  145.2931  141.0173  143.3652 LP  0  0  0  0  0  0  0  0  0  0  0  0  # atno 17321 bound_to 7965
  140.6354  143.2194  151.6407 LP  0  0  0  0  0  0  0  0  0  0  0  0  # atno 17342 bound_to 10162
  139.5196  144.3247  152.0880 LP  0  0  0  0  0  0  0  0  0  0  0  0  # atno 17343 bound_to 10162
  156.0236  130.3787  150.1889 LP  0  0  0  0  0  0  0  0  0  0  0  0  # atno 17370 bound_to 10713
  157.0079  130.9942  151.3374 LP  0  0  0  0  0  0  0  0  0  0  0  0  # atno 17371 bound_to 10713
  140.0172  134.6601  155.9292 LP  0  0  0  0  0  0  0  0  0  0  0  0  # atno 17394 bound_to 11000
  141.1768  133.6541  156.4860 LP  0  0  0  0  0  0  0  0  0  0  0  0  # atno 17395 bound_to 11000

$$$$
