AV-unprocessed.smi:3126|AV-procd|sdf|11911|dock3
  -GOLD-   2272017293D 1   1.00000     0.00000
 Structure written by MMmdl.
 42 43  0  0  0  0  0  0  0  0  2 V2000
  153.3003  140.0517  160.0694 C   0  0  0  0  0  0  0  0  0  0  0  0
  153.5079  141.5144  160.4864 C   0  0  0  0  0  0  0  0  0  0  0  0
  152.3546  142.4553  160.0813 C   0  0  1  0  0  0  0  0  0  0  0  0
  152.8152  143.9263  160.1070 C   0  0  0  0  0  0  0  0  0  0  0  0
  151.6795  144.8834  159.7159 C   0  0  0  0  0  0  0  0  0  0  0  0
  151.1063  144.5266  158.3372 C   0  0  0  0  0  0  0  0  0  0  0  0
  150.6243  143.0656  158.2914 C   0  0  1  0  0  0  0  0  0  0  0  0
  150.1027  142.7561  156.9411 N   0  3  0  0  0  0  0  0  0  0  0  0
  149.2940  141.5232  156.8424 C   0  0  0  0  0  0  0  0  0  0  0  0
  149.3086  140.9707  155.4114 C   0  0  0  0  0  0  0  0  0  0  0  0
  150.4585  140.0090  155.1860 C   0  0  0  0  0  0  0  0  0  0  0  0
  150.3054  138.8779  154.3576 C   0  0  0  0  0  0  0  0  0  0  0  0
  151.4053  138.0182  154.1733 C   0  0  0  0  0  0  0  0  0  0  0  0
  152.6149  138.3267  154.8273 C   0  0  0  0  0  0  0  0  0  0  0  0
  152.7728  139.4072  155.6220 N   0  0  0  0  0  0  0  0  0  0  0  0
  151.7133  140.2260  155.7942 C   0  0  0  0  0  0  0  0  0  0  0  0
  151.7678  142.1084  158.6949 C   0  0  0  0  0  0  0  0  0  0  0  0
  154.1122  139.4275  160.4430 H   0  0  0  0  0  0  0  0  0  0  0  0
  153.2754  139.9374  158.9862 H   0  0  0  0  0  0  0  0  0  0  0  0
  152.3679  139.6556  160.4726 H   0  0  0  0  0  0  0  0  0  0  0  0
  153.6231  141.5391  161.5707 H   0  0  0  0  0  0  0  0  0  0  0  0
  154.4496  141.8817  160.0769 H   0  0  0  0  0  0  0  0  0  0  0  0
  151.5610  142.3472  160.8224 H   0  0  0  0  0  0  0  0  0  0  0  0
  153.1795  144.1865  161.1015 H   0  0  0  0  0  0  0  0  0  0  0  0
  153.6566  144.0621  159.4260 H   0  0  0  0  0  0  0  0  0  0  0  0
  150.8882  144.8404  160.4657 H   0  0  0  0  0  0  0  0  0  0  0  0
  152.0451  145.9105  159.7116 H   0  0  0  0  0  0  0  0  0  0  0  0
  150.2824  145.2008  158.0998 H   0  0  0  0  0  0  0  0  0  0  0  0
  151.8697  144.6908  157.5750 H   0  0  0  0  0  0  0  0  0  0  0  0
  149.8046  142.9605  159.0042 H   0  0  0  0  0  0  0  0  0  0  0  0
  149.5106  143.5249  156.6610 H   0  0  0  0  0  0  0  0  0  0  0  0
  149.6820  140.7696  157.5279 H   0  0  0  0  0  0  0  0  0  0  0  0
  148.2686  141.7394  157.1453 H   0  0  0  0  0  0  0  0  0  0  0  0
  148.3699  140.4572  155.1975 H   0  0  0  0  0  0  0  0  0  0  0  0
  149.3841  141.7881  154.6929 H   0  0  0  0  0  0  0  0  0  0  0  0
  149.3640  138.6722  153.8693 H   0  0  0  0  0  0  0  0  0  0  0  0
  151.3250  137.1432  153.5452 H   0  0  0  0  0  0  0  0  0  0  0  0
  153.4790  137.6902  154.7068 H   0  0  0  0  0  0  0  0  0  0  0  0
  151.8733  141.0821  156.4332 H   0  0  0  0  0  0  0  0  0  0  0  0
  152.5584  142.1442  157.9436 H   0  0  0  0  0  0  0  0  0  0  0  0
  151.3999  141.0836  158.7062 H   0  0  0  0  0  0  0  0  0  0  0  0
  150.8781  142.6990  156.2964 H   0  0  0  0  0  0  0  0  0  0  0  0
  1  2  1  0  0  0  0
  1 18  1  0  0  0  0
  1 19  1  0  0  0  0
  1 20  1  0  0  0  0
  2  3  1  0  0  0  0
  2 21  1  0  0  0  0
  2 22  1  0  0  0  0
  3 17  1  0  0  0  0
  3  4  1  0  0  0  0
  3 23  1  0  0  0  0
  4  5  1  0  0  0  0
  4 24  1  0  0  0  0
  4 25  1  0  0  0  0
  5  6  1  0  0  0  0
  5 26  1  0  0  0  0
  5 27  1  0  0  0  0
  6  7  1  0  0  0  0
  6 28  1  0  0  0  0
  6 29  1  0  0  0  0
  7  8  1  0  0  0  0
  7 17  1  0  0  0  0
  7 30  1  0  0  0  0
  8  9  1  0  0  0  0
  8 31  1  0  0  0  0
  8 42  1  0  0  0  0
  9 10  1  0  0  0  0
  9 32  1  0  0  0  0
  9 33  1  0  0  0  0
 10 11  1  0  0  0  0
 10 34  1  0  0  0  0
 10 35  1  0  0  0  0
 11 16  1  0  0  0  0
 11 12  2  0  0  0  0
 12 13  1  0  0  0  0
 12 36  1  0  0  0  0
 13 14  2  0  0  0  0
 13 37  1  0  0  0  0
 14 15  1  0  0  0  0
 14 38  1  0  0  0  0
 15 16  2  0  0  0  0
 16 39  1  0  0  0  0
 17 40  1  0  0  0  0
 17 41  1  0  0  0  0
M  CHG  1   8   1
M  END
> <s_m_source_file>
AV-unprocessed.smi

> <i_m_source_file_index>
3126

> <i_lp_mmshare_version>
43012

> <i_f3d_flags>
0

> <s_epik_input>
W0NIM11bQ0gyXVtDQEBIXTFbQ0gyXVtDSDJdW0NIMl1bQ0BIXShbQ0gyXTEpW05IXVtDSDJdW0NIMl1jMltjSF1bY0hdW2NIXW5bY0hdMg==

> <s_epik_cmdline>
J2VwaWtfcHl0aG9uJywgJy1waCcsICc3LjAnLCAnLXRuJywgJzgnLCAnLW1hJywgJzIwMCcsICctbWV0YWxfYmluZGluZycsICctaW1hZScsICc8aW5maWxlLm1hZT4nLCAnLW9tYWUnLCAnPG91dGZpbGUubWFlPic=

> <r_lp_tautomer_probability>
1

> <r_epik_Ionization_Penalty>
0.000947364

> <r_epik_Ionization_Penalty_Charging>
0.000286103

> <r_epik_Ionization_Penalty_Neutral>
0.000661261

> <r_epik_State_Penalty>
-0

> <r_epik_Charging_Adjusted_Penalty>
0.000286103

> <i_epik_Tot_Q>
1

> <i_epik_Tot_abs_Q>
1

> <r_epik_Metal_State_Penalty>
-0

> <b_epik_Metal_Only>
0

> <s_lp_Force_Field>
OPLS_2005

> <r_lp_Energy>
13.7456

> <b_lp_Chiralities_Consistent>
1

> <s_lp_Variant>
AV-unprocessed.smi:3126-2

> <Gold.Version>
5.8.1

> <Gold.Id.Protein>
6NUR|6NUR_protein|mol2

> <Gold.PLP.Fitness>
51.4859

> <Gold.PLP.PLP>
-44.3484

> <Gold.PLP.part.hbond>
-2.0000

> <Gold.PLP.part.metal>
0.0000

> <Gold.PLP.part.buried>
-4.7174

> <Gold.PLP.part.nonpolar>
-37.4792

> <Gold.PLP.part.repulsive>
0.0208

> <Gold.PLP.ligand.clash>
0.0000

> <Gold.PLP.ligand.torsion>
0.9361

> <Gold.PLP.Chemscore.Hbond>
3.0000

> <Gold.PLP.Chemscore.CHOScore>
0.0000

> <Gold.PLP.Chemscore.Metal>
0.0000

> <Gold.Chemscore.Hbonds>
donor molecule, donor type, donor heavy atom, donor atom, acceptor molecule, acceptor atom, score
      L1  H     8    31       P1  8028  2.00
      P1  H  7997  8010       L1    15  1.00

> <Gold.PLP.Chemscore.Internal.Correction>
0.0097

> <Gold.Rescore>
     Score         DG    S(hbond)    S(metal)    S(lipo)     H(rot)  DE(clash)    DE(int)     intcor
     23.06     -23.81       1.92        0.00     131.56       1.35       0.12       0.63       ----

> <Gold.Chemscore.Fitness>
23.0626

> <Gold.Chemscore.DG>
-23.8128

> <Gold.Chemscore.ZeroCoef>
-5.4800

> <Gold.Chemscore.Hbond>
1.9156

> <Gold.Chemscore.Metal>
0.0000

> <Gold.Chemscore.Lipo>
131.5590

> <Gold.Chemscore.Internal_Hbond>
0.0000

> <Gold.Chemscore.DEClash>
0.1187

> <Gold.Chemscore.DEInternal>
0.6315

> <Gold.Chemscore.Rot>
1.3507

> <Gold.Chemscore.Internal.Correction>
   9.000000E+99

> <Gold.Chemscore.Hbonds>
donor molecule, donor type, donor heavy atom, donor atom, acceptor molecule, acceptor atom, score
      L1  H     8    31       P1  8028  0.99
      P1  H  7997  8010       L1    15  0.85

> <Gold.Chemscore.Hbond.Weighted>
-6.3983

> <Gold.Chemscore.Metal.Weighted>
-0.0000

> <Gold.Chemscore.Lipo.Weighted>
-15.3924

> <Gold.Chemscore.Internal_Hbond.Weighted>
0.0000

> <Gold.Chemscore.DEClash.Weighted>
0.1187

> <Gold.Chemscore.DEInternal.Weighted>
0.6315

> <Gold.Chemscore.Rot.Weighted>
3.4579

> <Gold.Chemscore.Internal.Correction.Weighted>
   9.000000E+99

> <Gold.Protein.RotatedTorsions>
[ 6907 6896 6895 6894 ] final   59.27 input  -60.11 | X-H torsion
[ 7974 7965 7964 7962 ] final  110.03 input  175.53 | X-H torsion
[ 8008 7997 7996 7995 ] final   85.73 input   59.86 | X-H torsion
[ 10167 10162 10161 10158 ] final  119.61 input  -65.29 | X-H torsion
[ 10718 10713 10712 10709 ] final -169.25 input   66.30 | X-H torsion
[ 10763 10752 10751 10750 ] final  -40.82 input  -60.55 | X-H torsion
[ 11005 11000 10999 10996 ] final  168.70 input  -57.11 | X-H torsion

> <Gold.Protein.ActiveResidues>
 VAL166  LYS551  ARG553  GLY616  TRP617  ASP618  TYR619  PRO620  LYS621  CYS622 
 ASP623  PHE694  ASN695  SER759  ASP760  ASP761  ALA762  ILE779  LEU786  VAL792 
 PHE793  MET794  SER795  GLU796  ALA797  LYS798  CYS799  TRP800  GLU811  SER814 

> <Gold.Protein.RotatedAtoms>
  152.3899  134.6457  160.0111 H   0  0  0  0  0  0  0  0  0  0  0  0  # atno 6907 bound_to 6896
  151.6694  133.3309  159.3201 H   0  0  0  0  0  0  0  0  0  0  0  0  # atno 6908 bound_to 6896
  150.7817  134.6812  159.6489 H   0  0  0  0  0  0  0  0  0  0  0  0  # atno 6909 bound_to 6896
  145.2602  139.2705  143.4021 H   0  0  0  0  0  0  0  0  0  0  0  0  # atno 7974 bound_to 7965
  155.9538  140.3399  155.6430 H   0  0  0  0  0  0  0  0  0  0  0  0  # atno 8008 bound_to 7997
  155.6886  140.0746  157.2475 H   0  0  0  0  0  0  0  0  0  0  0  0  # atno 8009 bound_to 7997
  154.4127  140.1661  156.2049 H   0  0  0  0  0  0  0  0  0  0  0  0  # atno 8010 bound_to 7997
  139.6035  144.7063  151.3007 H   0  0  0  0  0  0  0  0  0  0  0  0  # atno 10167 bound_to 10162
  156.7088  130.9225  151.3087 H   0  0  0  0  0  0  0  0  0  0  0  0  # atno 10718 bound_to 10713
  153.9522  135.6749  153.4744 H   0  0  0  0  0  0  0  0  0  0  0  0  # atno 10763 bound_to 10752
  153.0878  135.4890  154.8629 H   0  0  0  0  0  0  0  0  0  0  0  0  # atno 10764 bound_to 10752
  154.7319  135.3140  154.8836 H   0  0  0  0  0  0  0  0  0  0  0  0  # atno 10765 bound_to 10752
  140.2900  134.7681  157.3830 H   0  0  0  0  0  0  0  0  0  0  0  0  # atno 11005 bound_to 11000
  146.3277  140.3017  142.8621 LP  0  0  0  0  0  0  0  0  0  0  0  0  # atno 17320 bound_to 7965
  144.9425  140.8093  143.5622 LP  0  0  0  0  0  0  0  0  0  0  0  0  # atno 17321 bound_to 7965
  140.7267  143.6982  150.7866 LP  0  0  0  0  0  0  0  0  0  0  0  0  # atno 17342 bound_to 10162
  140.0563  143.5199  152.2649 LP  0  0  0  0  0  0  0  0  0  0  0  0  # atno 17343 bound_to 10162
  157.6944  130.9267  150.0603 LP  0  0  0  0  0  0  0  0  0  0  0  0  # atno 17370 bound_to 10713
  156.1676  130.3645  149.9211 LP  0  0  0  0  0  0  0  0  0  0  0  0  # atno 17371 bound_to 10713
  140.1204  134.5227  155.8189 LP  0  0  0  0  0  0  0  0  0  0  0  0  # atno 17394 bound_to 11000
  141.2148  133.6754  156.6855 LP  0  0  0  0  0  0  0  0  0  0  0  0  # atno 17395 bound_to 11000

$$$$
