AV-unprocessed.smi:1046|AV-procd|sdf|4555|dock7
  -GOLD-   22720 2593D 1   1.00000     0.00000
 Structure written by MMmdl.
 54 56  0  0  0  0  0  0  0  0  3 V2000
  153.2727  140.8529  159.2337 C   0  0  0  0  0  0  0  0  0  0  0  0
  152.1795  141.0758  158.2037 C   0  0  0  0  0  0  0  0  0  0  0  0
  152.0600  140.1736  157.1228 C   0  0  0  0  0  0  0  0  0  0  0  0
  151.0609  140.3483  156.1406 C   0  0  0  0  0  0  0  0  0  0  0  0
  150.7671  139.5999  155.0138 N   0  0  0  0  0  0  0  0  0  0  0  0
  149.7374  140.2705  154.5064 C   0  0  0  0  0  0  0  0  0  0  0  0
  149.3170  141.3577  155.1820 N   0  0  0  0  0  0  0  0  0  0  0  0
  148.2135  142.2336  154.8332 C   0  0  0  0  0  0  0  0  0  0  0  0
  146.9721  141.4576  154.3497 C   0  0  1  0  0  0  0  0  0  0  0  0
  145.8627  142.3298  154.4184 O   0  0  0  0  0  0  0  0  0  0  0  0
  147.1018  140.9310  152.9028 C   0  0  0  0  0  0  0  0  0  0  0  0
  146.4626  139.6032  152.7147 N   0  3  2  0  0  0  0  0  0  0  0  0
  146.7350  138.6506  153.8214 C   0  0  0  0  0  0  0  0  0  0  0  0
  145.9825  137.3250  153.6095 C   0  0  0  0  0  0  0  0  0  0  0  0
  146.3164  136.7197  152.2968 N   0  3  1  0  0  0  0  0  0  0  0  0
  145.6770  135.3917  152.1086 C   0  0  0  0  0  0  0  0  0  0  0  0
  146.1678  134.3468  153.1257 C   0  0  0  0  0  0  0  0  0  0  0  0
  147.5681  134.1954  153.0252 O   0  0  0  0  0  0  0  0  0  0  0  0
  146.0471  137.6720  151.1894 C   0  0  0  0  0  0  0  0  0  0  0  0
  146.7982  138.9985  151.4023 C   0  0  0  0  0  0  0  0  0  0  0  0
  150.1745  141.4570  156.2725 C   0  0  0  0  0  0  0  0  0  0  0  0
  150.2827  142.3612  157.3438 C   0  0  0  0  0  0  0  0  0  0  0  0
  151.2882  142.1732  158.3151 C   0  0  0  0  0  0  0  0  0  0  0  0
  151.4004  143.1577  159.4657 C   0  0  0  0  0  0  0  0  0  0  0  0
  153.8906  139.9914  158.9790 H   0  0  0  0  0  0  0  0  0  0  0  0
  152.8392  140.6746  160.2180 H   0  0  0  0  0  0  0  0  0  0  0  0
  153.9251  141.7244  159.2943 H   0  0  0  0  0  0  0  0  0  0  0  0
  152.7398  139.3386  157.0373 H   0  0  0  0  0  0  0  0  0  0  0  0
  149.2541  139.9463  153.5962 H   0  0  0  0  0  0  0  0  0  0  0  0
  147.9691  142.8370  155.7085 H   0  0  0  0  0  0  0  0  0  0  0  0
  148.5526  142.9261  154.0610 H   0  0  0  0  0  0  0  0  0  0  0  0
  146.7933  140.6342  155.0397 H   0  0  0  0  0  0  0  0  0  0  0  0
  145.0768  141.8122  154.5140 H   0  0  0  0  0  0  0  0  0  0  0  0
  146.6416  141.6585  152.2323 H   0  0  0  0  0  0  0  0  0  0  0  0
  148.1475  140.8602  152.6008 H   0  0  0  0  0  0  0  0  0  0  0  0
  147.8081  138.4633  153.8857 H   0  0  0  0  0  0  0  0  0  0  0  0
  146.4330  139.0777  154.7769 H   0  0  0  0  0  0  0  0  0  0  0  0
  146.2427  136.6328  154.4114 H   0  0  0  0  0  0  0  0  0  0  0  0
  144.9056  137.4911  153.6706 H   0  0  0  0  0  0  0  0  0  0  0  0
  144.5948  135.4864  152.2132 H   0  0  0  0  0  0  0  0  0  0  0  0
  145.8544  135.0423  151.0905 H   0  0  0  0  0  0  0  0  0  0  0  0
  145.9326  134.6795  154.1370 H   0  0  0  0  0  0  0  0  0  0  0  0
  145.6817  133.3808  152.9932 H   0  0  0  0  0  0  0  0  0  0  0  0
  147.9521  135.0424  152.8508 H   0  0  0  0  0  0  0  0  0  0  0  0
  146.3519  137.2424  150.2358 H   0  0  0  0  0  0  0  0  0  0  0  0
  144.9740  137.8593  151.1226 H   0  0  0  0  0  0  0  0  0  0  0  0
  146.5385  139.6904  150.6001 H   0  0  0  0  0  0  0  0  0  0  0  0
  147.8754  138.8335  151.3432 H   0  0  0  0  0  0  0  0  0  0  0  0
  149.6011  143.1957  157.4153 H   0  0  0  0  0  0  0  0  0  0  0  0
  150.6156  143.9133  159.4212 H   0  0  0  0  0  0  0  0  0  0  0  0
  152.3615  143.6716  159.4353 H   0  0  0  0  0  0  0  0  0  0  0  0
  151.3137  142.6416  160.4221 H   0  0  0  0  0  0  0  0  0  0  0  0
  145.4664  139.7732  152.7034 H   0  0  0  0  0  0  0  0  0  0  0  0
  147.3124  136.5488  152.3083 H   0  0  0  0  0  0  0  0  0  0  0  0
  1  2  1  0  0  0  0
  1 25  1  0  0  0  0
  1 26  1  0  0  0  0
  1 27  1  0  0  0  0
  2 23  1  0  0  0  0
  2  3  2  0  0  0  0
  3  4  1  0  0  0  0
  3 28  1  0  0  0  0
  4 21  2  0  0  0  0
  4  5  1  0  0  0  0
  5  6  2  0  0  0  0
  6  7  1  0  0  0  0
  6 29  1  0  0  0  0
  7  8  1  0  0  0  0
  7 21  1  0  0  0  0
  8  9  1  0  0  0  0
  8 30  1  0  0  0  0
  8 31  1  0  0  0  0
  9 10  1  0  0  0  0
  9 11  1  0  0  0  0
  9 32  1  0  0  0  0
 10 33  1  0  0  0  0
 11 12  1  0  0  0  0
 11 34  1  0  0  0  0
 11 35  1  0  0  0  0
 12 20  1  0  0  0  0
 12 13  1  0  0  0  0
 12 53  1  0  0  0  0
 13 14  1  0  0  0  0
 13 36  1  0  0  0  0
 13 37  1  0  0  0  0
 14 15  1  0  0  0  0
 14 38  1  0  0  0  0
 14 39  1  0  0  0  0
 15 16  1  0  0  0  0
 15 19  1  0  0  0  0
 15 54  1  0  0  0  0
 16 17  1  0  0  0  0
 16 40  1  0  0  0  0
 16 41  1  0  0  0  0
 17 18  1  0  0  0  0
 17 42  1  0  0  0  0
 17 43  1  0  0  0  0
 18 44  1  0  0  0  0
 19 20  1  0  0  0  0
 19 45  1  0  0  0  0
 19 46  1  0  0  0  0
 20 47  1  0  0  0  0
 20 48  1  0  0  0  0
 21 22  1  0  0  0  0
 22 23  2  0  0  0  0
 22 49  1  0  0  0  0
 23 24  1  0  0  0  0
 24 50  1  0  0  0  0
 24 51  1  0  0  0  0
 24 52  1  0  0  0  0
M  CHG  1  12   1
M  CHG  1  15   1
M  END
> <s_m_source_file>
AV-unprocessed.smi

> <i_m_source_file_index>
1046

> <i_lp_mmshare_version>
43012

> <i_f3d_flags>
0

> <s_epik_input>
W0NIM11jKFtjSF0xKWMoW0NIM10pW2NIXWMoYzEyKW4oW2NIXW4yKVtDSDJdW0NASF0oW09IXSlbQ0gyXU4zW0NIMl1bQ0gyXU4oW0NIMl1bQ0gyXTMpW0NIMl1bQ0gyXVtPSF0=

> <s_epik_cmdline>
J2VwaWtfcHl0aG9uJywgJy1waCcsICc3LjAnLCAnLXRuJywgJzgnLCAnLW1hJywgJzIwMCcsICctbWV0YWxfYmluZGluZycsICctaW1hZScsICc8aW5maWxlLm1hZT4nLCAnLW9tYWUnLCAnPG91dGZpbGUubWFlPic=

> <r_epik_Ionization_Penalty>
3.17398

> <r_epik_Ionization_Penalty_Charging>
3.09061

> <r_epik_Ionization_Penalty_Neutral>
0.0833726

> <r_epik_State_Penalty>
2.17606

> <r_epik_Charging_Adjusted_Penalty>
5.26667

> <i_epik_Tot_Q>
2

> <i_epik_Tot_abs_Q>
2

> <r_epik_Metal_State_Penalty>
2.08587

> <b_epik_Metal_Only>
0

> <s_lp_Force_Field>
OPLS_2005

> <r_lp_Energy>
27.7872

> <b_lp_Chiralities_Consistent>
1

> <s_lp_Variant>
AV-unprocessed.smi:1046-8

> <Gold.Version>
5.8.1

> <Gold.Id.Protein>
6NUR|6NUR_protein|mol2

> <Gold.PLP.Fitness>
55.4579

> <Gold.PLP.PLP>
-39.3389

> <Gold.PLP.part.hbond>
-3.6684

> <Gold.PLP.part.metal>
0.0000

> <Gold.PLP.part.buried>
5.2161

> <Gold.PLP.part.nonpolar>
-39.8663

> <Gold.PLP.part.repulsive>
0.1096

> <Gold.PLP.ligand.clash>
0.0000

> <Gold.PLP.ligand.torsion>
1.0008

> <Gold.PLP.Chemscore.Hbond>
5.0000

> <Gold.PLP.Chemscore.CHOScore>
1.0000

> <Gold.PLP.Chemscore.Metal>
0.0000

> <Gold.Chemscore.Hbonds>
donor molecule, donor type, donor heavy atom, donor atom, acceptor molecule, acceptor atom, score
      L1  H    12    53       P1 10175  2.00
      L1  H    15    54       P1  7948  2.00
      L1  H    18    44       P1  7948  1.00
      L1  C     6    29       P1  7957  1.00

> <Gold.PLP.Chemscore.Internal.Correction>
0.1207

> <Gold.Rescore>
     Score         DG    S(hbond)    S(metal)    S(lipo)     H(rot)  DE(clash)    DE(int)     intcor
     16.39     -20.73       2.96        0.00     117.61       3.28       3.34       1.01       ----

> <Gold.Chemscore.Fitness>
16.3917

> <Gold.Chemscore.DG>
-20.7337

> <Gold.Chemscore.ZeroCoef>
-5.4800

> <Gold.Chemscore.Hbond>
2.9633

> <Gold.Chemscore.Metal>
0.0000

> <Gold.Chemscore.Lipo>
117.6090

> <Gold.Chemscore.Internal_Hbond>
0.0000

> <Gold.Chemscore.DEClash>
3.3363

> <Gold.Chemscore.DEInternal>
1.0057

> <Gold.Chemscore.Rot>
3.2828

> <Gold.Chemscore.Internal.Correction>
   9.000000E+99

> <Gold.Chemscore.Hbonds>
donor molecule, donor type, donor heavy atom, donor atom, acceptor molecule, acceptor atom, score
      L1  H    12    53       P1 10175  0.99
      L1  H    15    54       P1  7948  1.00
      L1  H    18    44       P1  7948  0.93

> <Gold.Chemscore.Hbond.Weighted>
-9.8974

> <Gold.Chemscore.Metal.Weighted>
-0.0000

> <Gold.Chemscore.Lipo.Weighted>
-13.7603

> <Gold.Chemscore.Internal_Hbond.Weighted>
0.0000

> <Gold.Chemscore.DEClash.Weighted>
3.3363

> <Gold.Chemscore.DEInternal.Weighted>
1.0057

> <Gold.Chemscore.Rot.Weighted>
8.4039

> <Gold.Chemscore.Internal.Correction.Weighted>
   9.000000E+99

> <Gold.Protein.RotatedTorsions>
[ 6907 6896 6895 6894 ] final   53.98 input  -60.11 | X-H torsion
[ 7974 7965 7964 7962 ] final -164.40 input  175.53 | X-H torsion
[ 8008 7997 7996 7995 ] final  -22.80 input   59.86 | X-H torsion
[ 10167 10162 10161 10158 ] final   40.09 input  -65.29 | X-H torsion
[ 10718 10713 10712 10709 ] final -171.11 input   66.30 | X-H torsion
[ 10763 10752 10751 10750 ] final  -14.33 input  -60.55 | X-H torsion
[ 11005 11000 10999 10996 ] final  -36.46 input  -57.11 | X-H torsion

> <Gold.Protein.ActiveResidues>
 VAL166  LYS551  ARG553  GLY616  TRP617  ASP618  TYR619  PRO620  LYS621  CYS622 
 ASP623  PHE694  ASN695  SER759  ASP760  ASP761  ALA762  ILE779  LEU786  VAL792 
 PHE793  MET794  SER795  GLU796  ALA797  LYS798  CYS799  TRP800  GLU811  SER814 

> <Gold.Protein.RotatedAtoms>
  152.3392  134.7157  160.0268 H   0  0  0  0  0  0  0  0  0  0  0  0  # atno 6907 bound_to 6896
  151.7548  133.3324  159.3409 H   0  0  0  0  0  0  0  0  0  0  0  0  # atno 6908 bound_to 6896
  150.7469  134.6092  159.6122 H   0  0  0  0  0  0  0  0  0  0  0  0  # atno 6909 bound_to 6896
  144.7298  140.2966  143.6211 H   0  0  0  0  0  0  0  0  0  0  0  0  # atno 7974 bound_to 7965
  154.4622  140.1998  156.0213 H   0  0  0  0  0  0  0  0  0  0  0  0  # atno 8008 bound_to 7997
  156.0862  140.3264  155.7728 H   0  0  0  0  0  0  0  0  0  0  0  0  # atno 8009 bound_to 7997
  155.5031  140.0555  157.2926 H   0  0  0  0  0  0  0  0  0  0  0  0  # atno 8010 bound_to 7997
  140.3776  144.2022  150.6131 H   0  0  0  0  0  0  0  0  0  0  0  0  # atno 10167 bound_to 10162
  156.7361  130.9324  151.3107 H   0  0  0  0  0  0  0  0  0  0  0  0  # atno 10718 bound_to 10713
  153.5266  135.7015  153.5704 H   0  0  0  0  0  0  0  0  0  0  0  0  # atno 10763 bound_to 10752
  153.3730  135.3940  155.1802 H   0  0  0  0  0  0  0  0  0  0  0  0  # atno 10764 bound_to 10752
  154.8689  135.3816  154.4760 H   0  0  0  0  0  0  0  0  0  0  0  0  # atno 10765 bound_to 10752
  140.9876  133.7022  156.1793 H   0  0  0  0  0  0  0  0  0  0  0  0  # atno 11005 bound_to 11000
  145.7802  139.1888  143.2162 LP  0  0  0  0  0  0  0  0  0  0  0  0  # atno 17320 bound_to 7965
  146.0840  140.7732  142.9627 LP  0  0  0  0  0  0  0  0  0  0  0  0  # atno 17321 bound_to 7965
  140.4970  143.2329  151.8735 LP  0  0  0  0  0  0  0  0  0  0  0  0  # atno 17342 bound_to 10162
  139.4798  144.5102  151.8943 LP  0  0  0  0  0  0  0  0  0  0  0  0  # atno 17343 bound_to 10162
  157.6838  130.9166  150.0335 LP  0  0  0  0  0  0  0  0  0  0  0  0  # atno 17370 bound_to 10713
  156.1496  130.3642  149.9458 LP  0  0  0  0  0  0  0  0  0  0  0  0  # atno 17371 bound_to 10713
  140.7090  134.4482  157.5582 LP  0  0  0  0  0  0  0  0  0  0  0  0  # atno 17394 bound_to 11000
  139.8977  134.8629  156.2031 LP  0  0  0  0  0  0  0  0  0  0  0  0  # atno 17395 bound_to 11000

$$$$
