AV-unprocessed.smi:2276|AV-procd|sdf|9175|dock4
  -GOLD-   2272012393D 1   1.00000     0.00000
 Structure written by MMmdl.
 53 54  0  0  0  0  0  0  0  0  2 V2000
  151.7991  145.6512  159.3652 C   0  0  0  0  0  0  0  0  0  0  0  0
  151.8435  144.1677  159.0645 C   0  0  0  0  0  0  0  0  0  0  0  0
  150.8977  143.5751  158.2063 C   0  0  0  0  0  0  0  0  0  0  0  0
  150.9922  142.1900  157.9676 C   0  0  0  0  0  0  0  0  0  0  0  0
  150.0111  141.4874  157.0529 C   0  0  0  0  0  0  0  0  0  0  0  0
  151.9434  141.4099  158.5242 N   0  0  0  0  0  0  0  0  0  0  0  0
  152.8599  141.9698  159.3520 C   0  0  0  0  0  0  0  0  0  0  0  0
  153.8992  141.2387  159.9861 N   0  0  0  0  0  0  0  0  0  0  0  0
  154.3957  140.0362  159.6460 C   0  0  0  0  0  0  0  0  0  0  0  0
  154.0192  139.3520  158.6941 O   0  0  0  0  0  0  0  0  0  0  0  0
  155.3660  139.6545  160.4894 N   0  0  0  0  0  0  0  0  0  0  0  0
  156.1085  138.3998  160.4040 C   0  0  0  0  0  0  0  0  0  0  0  0
  157.5183  138.5691  159.7927 C   0  0  1  0  0  0  0  0  0  0  0  0
  158.0669  137.2015  159.3517 C   0  0  0  0  0  0  0  0  0  0  0  0
  157.5256  139.5793  158.6212 C   0  0  0  0  0  0  0  0  0  0  0  0
  158.8723  140.1468  158.3579 N   0  3  0  0  0  0  0  0  0  0  0  0
  159.6532  140.4183  159.5912 C   0  0  0  0  0  0  0  0  0  0  0  0
  161.0664  140.9270  159.2367 C   0  0  0  0  0  0  0  0  0  0  0  0
  161.0291  142.1230  158.3934 N   0  0  0  0  0  0  0  0  0  0  0  0
  160.5913  143.3160  159.1097 C   0  0  0  0  0  0  0  0  0  0  0  0
  160.2461  141.8581  157.1853 C   0  0  0  0  0  0  0  0  0  0  0  0
  158.8213  141.3631  157.5119 C   0  0  0  0  0  0  0  0  0  0  0  0
  152.8360  143.3519  159.6444 C   0  0  0  0  0  0  0  0  0  0  0  0
  151.1130  146.1706  158.6954 H   0  0  0  0  0  0  0  0  0  0  0  0
  152.7888  146.0927  159.2464 H   0  0  0  0  0  0  0  0  0  0  0  0
  151.4686  145.8177  160.3906 H   0  0  0  0  0  0  0  0  0  0  0  0
  150.1213  144.1663  157.7427 H   0  0  0  0  0  0  0  0  0  0  0  0
  149.2607  142.1797  156.6705 H   0  0  0  0  0  0  0  0  0  0  0  0
  149.4961  140.6899  157.5892 H   0  0  0  0  0  0  0  0  0  0  0  0
  150.5340  141.0485  156.2028 H   0  0  0  0  0  0  0  0  0  0  0  0
  154.3101  141.6836  160.7933 H   0  0  0  0  0  0  0  0  0  0  0  0
  155.6176  140.2818  161.2394 H   0  0  0  0  0  0  0  0  0  0  0  0
  156.1776  137.9600  161.4004 H   0  0  0  0  0  0  0  0  0  0  0  0
  155.5231  137.7034  159.8027 H   0  0  0  0  0  0  0  0  0  0  0  0
  158.1713  138.9355  160.5840 H   0  0  0  0  0  0  0  0  0  0  0  0
  157.4661  136.7722  158.5492 H   0  0  0  0  0  0  0  0  0  0  0  0
  158.0663  136.4933  160.1810 H   0  0  0  0  0  0  0  0  0  0  0  0
  159.0939  137.2781  158.9943 H   0  0  0  0  0  0  0  0  0  0  0  0
  157.1615  139.0677  157.7290 H   0  0  0  0  0  0  0  0  0  0  0  0
  156.8323  140.4022  158.7985 H   0  0  0  0  0  0  0  0  0  0  0  0
  159.1255  141.1367  160.2196 H   0  0  0  0  0  0  0  0  0  0  0  0
  159.7499  139.5079  160.1815 H   0  0  0  0  0  0  0  0  0  0  0  0
  161.6346  141.1359  160.1440 H   0  0  0  0  0  0  0  0  0  0  0  0
  161.6111  140.1453  158.7054 H   0  0  0  0  0  0  0  0  0  0  0  0
  160.6478  144.1883  158.4577 H   0  0  0  0  0  0  0  0  0  0  0  0
  161.2412  143.5018  159.9653 H   0  0  0  0  0  0  0  0  0  0  0  0
  159.5685  143.2346  159.4755 H   0  0  0  0  0  0  0  0  0  0  0  0
  160.2054  142.7580  156.5702 H   0  0  0  0  0  0  0  0  0  0  0  0
  160.7665  141.1036  156.5934 H   0  0  0  0  0  0  0  0  0  0  0  0
  158.3062  141.1330  156.5785 H   0  0  0  0  0  0  0  0  0  0  0  0
  158.2362  142.1394  158.0064 H   0  0  0  0  0  0  0  0  0  0  0  0
  153.5713  143.7867  160.3063 H   0  0  0  0  0  0  0  0  0  0  0  0
  159.3821  139.4548  157.8274 H   0  0  0  0  0  0  0  0  0  0  0  0
  1  2  1  0  0  0  0
  1 24  1  0  0  0  0
  1 25  1  0  0  0  0
  1 26  1  0  0  0  0
  2 23  1  0  0  0  0
  2  3  2  0  0  0  0
  3  4  1  0  0  0  0
  3 27  1  0  0  0  0
  4  5  1  0  0  0  0
  4  6  2  0  0  0  0
  5 28  1  0  0  0  0
  5 29  1  0  0  0  0
  5 30  1  0  0  0  0
  6  7  1  0  0  0  0
  7  8  1  0  0  0  0
  7 23  2  0  0  0  0
  8  9  1  0  0  0  0
  8 31  1  0  0  0  0
  9 10  2  0  0  0  0
  9 11  1  0  0  0  0
 11 12  1  0  0  0  0
 11 32  1  0  0  0  0
 12 13  1  0  0  0  0
 12 33  1  0  0  0  0
 12 34  1  0  0  0  0
 13 14  1  0  0  0  0
 13 15  1  0  0  0  0
 13 35  1  0  0  0  0
 14 36  1  0  0  0  0
 14 37  1  0  0  0  0
 14 38  1  0  0  0  0
 15 16  1  0  0  0  0
 15 39  1  0  0  0  0
 15 40  1  0  0  0  0
 16 22  1  0  0  0  0
 16 17  1  0  0  0  0
 16 53  1  0  0  0  0
 17 18  1  0  0  0  0
 17 41  1  0  0  0  0
 17 42  1  0  0  0  0
 18 19  1  0  0  0  0
 18 43  1  0  0  0  0
 18 44  1  0  0  0  0
 19 20  1  0  0  0  0
 19 21  1  0  0  0  0
 20 45  1  0  0  0  0
 20 46  1  0  0  0  0
 20 47  1  0  0  0  0
 21 22  1  0  0  0  0
 21 48  1  0  0  0  0
 21 49  1  0  0  0  0
 22 50  1  0  0  0  0
 22 51  1  0  0  0  0
 23 52  1  0  0  0  0
M  CHG  1  16   1
M  END
> <s_m_source_file>
AV-unprocessed.smi

> <i_m_source_file_index>
2276

> <i_lp_mmshare_version>
43012

> <i_f3d_flags>
0

> <s_epik_input>
W0NIM11jMVtjSF1jKFtDSDNdKW5jKFtjSF0xKVtOSF1DKD1PKVtOSF1bQ0gyXVtDQEhdKFtDSDNdKVtDSDJdTjJbQ0gyXVtDSDJdTihbQ0gzXSlbQ0gyXVtDSDJdMg==

> <s_epik_cmdline>
J2VwaWtfcHl0aG9uJywgJy1waCcsICc3LjAnLCAnLXRuJywgJzgnLCAnLW1hJywgJzIwMCcsICctbWV0YWxfYmluZGluZycsICctaW1hZScsICc8aW5maWxlLm1hZT4nLCAnLW9tYWUnLCAnPG91dGZpbGUubWFlPic=

> <r_epik_Ionization_Penalty>
0.0485334

> <r_epik_Ionization_Penalty_Charging>
0.0462531

> <r_epik_Ionization_Penalty_Neutral>
0.00228028

> <r_epik_State_Penalty>
0.692588

> <r_epik_Charging_Adjusted_Penalty>
0.738841

> <i_epik_Tot_Q>
1

> <i_epik_Tot_abs_Q>
1

> <r_epik_Metal_State_Penalty>
0.692605

> <b_epik_Metal_Only>
0

> <s_lp_Force_Field>
OPLS_2005

> <r_lp_Energy>
21.6891

> <b_lp_Chiralities_Consistent>
1

> <s_lp_Variant>
AV-unprocessed.smi:2276-4

> <Gold.Version>
5.8.1

> <Gold.Id.Protein>
6NUR|6NUR_protein|mol2

> <Gold.PLP.Fitness>
42.5999

> <Gold.PLP.PLP>
-40.9426

> <Gold.PLP.part.hbond>
-2.0000

> <Gold.PLP.part.metal>
0.0000

> <Gold.PLP.part.buried>
-5.3510

> <Gold.PLP.part.nonpolar>
-34.5396

> <Gold.PLP.part.repulsive>
0.1139

> <Gold.PLP.ligand.clash>
0.0000

> <Gold.PLP.ligand.torsion>
0.7356

> <Gold.PLP.Chemscore.Hbond>
1.0000

> <Gold.PLP.Chemscore.CHOScore>
0.0000

> <Gold.PLP.Chemscore.Metal>
0.0000

> <Gold.Chemscore.Hbonds>
donor molecule, donor type, donor heavy atom, donor atom, acceptor molecule, acceptor atom, score
      P1  H  7997  8010       L1    10  1.00

> <Gold.PLP.Chemscore.Internal.Correction>
0.1285

> <Gold.Rescore>
     Score         DG    S(hbond)    S(metal)    S(lipo)     H(rot)  DE(clash)    DE(int)     intcor
     14.78     -16.74       0.96        0.00     104.43       1.63       0.07       1.89       ----

> <Gold.Chemscore.Fitness>
14.7795

> <Gold.Chemscore.DG>
-16.7391

> <Gold.Chemscore.ZeroCoef>
-5.4800

> <Gold.Chemscore.Hbond>
0.9607

> <Gold.Chemscore.Metal>
0.0000

> <Gold.Chemscore.Lipo>
104.4322

> <Gold.Chemscore.Internal_Hbond>
0.0000

> <Gold.Chemscore.DEClash>
0.0733

> <Gold.Chemscore.DEInternal>
1.8862

> <Gold.Chemscore.Rot>
1.6282

> <Gold.Chemscore.Internal.Correction>
   9.000000E+99

> <Gold.Chemscore.Hbonds>
donor molecule, donor type, donor heavy atom, donor atom, acceptor molecule, acceptor atom, score
      P1  H  7997  8010       L1    10  0.40

> <Gold.Chemscore.Hbond.Weighted>
-3.2087

> <Gold.Chemscore.Metal.Weighted>
-0.0000

> <Gold.Chemscore.Lipo.Weighted>
-12.2186

> <Gold.Chemscore.Internal_Hbond.Weighted>
0.0000

> <Gold.Chemscore.DEClash.Weighted>
0.0733

> <Gold.Chemscore.DEInternal.Weighted>
1.8862

> <Gold.Chemscore.Rot.Weighted>
4.1682

> <Gold.Chemscore.Internal.Correction.Weighted>
   9.000000E+99

> <Gold.Protein.RotatedTorsions>
[ 6907 6896 6895 6894 ] final   46.79 input  -60.11 | X-H torsion
[ 7974 7965 7964 7962 ] final  116.61 input  175.53 | X-H torsion
[ 8008 7997 7996 7995 ] final    6.85 input   59.86 | X-H torsion
[ 10167 10162 10161 10158 ] final -139.03 input  -65.29 | X-H torsion
[ 10718 10713 10712 10709 ] final  172.29 input   66.30 | X-H torsion
[ 10763 10752 10751 10750 ] final  -51.65 input  -60.55 | X-H torsion
[ 11005 11000 10999 10996 ] final  143.00 input  -57.11 | X-H torsion

> <Gold.Protein.ActiveResidues>
 VAL166  LYS551  ARG553  GLY616  TRP617  ASP618  TYR619  PRO620  LYS621  CYS622 
 ASP623  PHE694  ASN695  SER759  ASP760  ASP761  ALA762  ILE779  LEU786  VAL792 
 PHE793  MET794  SER795  GLU796  ALA797  LYS798  CYS799  TRP800  GLU811  SER814 

> <Gold.Protein.RotatedAtoms>
  152.2605  134.8039  160.0431 H   0  0  0  0  0  0  0  0  0  0  0  0  # atno 6907 bound_to 6896
  151.8687  133.3466  159.3736 H   0  0  0  0  0  0  0  0  0  0  0  0  # atno 6908 bound_to 6896
  150.7115  134.5061  159.5629 H   0  0  0  0  0  0  0  0  0  0  0  0  # atno 6909 bound_to 6896
  145.1775  139.3067  143.4435 H   0  0  0  0  0  0  0  0  0  0  0  0  # atno 7974 bound_to 7965
  154.7463  140.2758  155.6330 H   0  0  0  0  0  0  0  0  0  0  0  0  # atno 8008 bound_to 7997
  156.2885  140.2687  156.2131 H   0  0  0  0  0  0  0  0  0  0  0  0  # atno 8009 bound_to 7997
  155.0193  140.0371  157.2421 H   0  0  0  0  0  0  0  0  0  0  0  0  # atno 8010 bound_to 7997
  139.8419  143.7310  152.2663 H   0  0  0  0  0  0  0  0  0  0  0  0  # atno 10167 bound_to 10162
  156.9812  131.0119  151.2881 H   0  0  0  0  0  0  0  0  0  0  0  0  # atno 10718 bound_to 10713
  154.1300  135.6521  153.4920 H   0  0  0  0  0  0  0  0  0  0  0  0  # atno 10763 bound_to 10752
  153.0198  135.5290  154.7011 H   0  0  0  0  0  0  0  0  0  0  0  0  # atno 10764 bound_to 10752
  154.6243  135.2968  155.0261 H   0  0  0  0  0  0  0  0  0  0  0  0  # atno 10765 bound_to 10752
  140.0520  134.9251  157.1033 H   0  0  0  0  0  0  0  0  0  0  0  0  # atno 11005 bound_to 11000
  146.3458  140.1943  142.8589 LP  0  0  0  0  0  0  0  0  0  0  0  0  # atno 17320 bound_to 7965
  145.0169  140.8761  143.5190 LP  0  0  0  0  0  0  0  0  0  0  0  0  # atno 17321 bound_to 7965
  139.7550  144.7523  151.0449 LP  0  0  0  0  0  0  0  0  0  0  0  0  # atno 17342 bound_to 10162
  140.7797  143.4816  151.0011 LP  0  0  0  0  0  0  0  0  0  0  0  0  # atno 17343 bound_to 10162
  157.5525  130.8192  149.8163 LP  0  0  0  0  0  0  0  0  0  0  0  0  # atno 17370 bound_to 10713
  156.0244  130.3784  150.1867 LP  0  0  0  0  0  0  0  0  0  0  0  0  # atno 17371 bound_to 10713
  140.3903  134.2192  155.7166 LP  0  0  0  0  0  0  0  0  0  0  0  0  # atno 17394 bound_to 11000
  141.1934  133.8150  157.0798 LP  0  0  0  0  0  0  0  0  0  0  0  0  # atno 17395 bound_to 11000

$$$$
