#       Name:                AV-unprocessed.smi:1762
#       Creating user name   scv26
#       Creation time:       Fri Mar 27 08:34:42 2020


#       File generated by GOLD software.
#

@<TRIPOS>MOLECULE
AV-unprocessed.smi:1762
    58    59     1
SMALL
NO_CHARGES


@<TRIPOS>ATOM
      1 ****        -1.3804   0.0247   4.7924 C.3            1 S1                 0.0000
      2 ****        -1.7324  -0.8196   3.5625 C.3            1 S1                 0.0000
      3 ****        -1.3104  -0.1366   2.2492 C.3            1 S1                 0.0000
      4 ****        -1.7107  -0.9508   1.0654 N.4            1 S1                 1.0000
      5 ****        -1.2288  -0.3703  -0.2357 C.3            1 S1                 0.0000
      6 ****         0.3142  -0.3488  -0.2957 C.2            1 S1                 0.0000
      7 ****         0.9639  -1.3007   0.1390 O.2            1 S1                 0.0000
      8 ****         0.8819   0.7401  -0.8360 N.am           1 S1                 0.0000
      9 ****         2.3167   0.9411  -0.9908 C.3            1 S1                 0.0000
     10 ****         2.6002   1.9485  -2.1136 C.3            1 S1                 0.0000
     11 ****         4.0846   2.2054  -2.2946 C.ar           1 S1                 0.0000
     12 ****         4.6842   3.3697  -1.7688 C.ar           1 S1                 0.0000
     13 ****         6.0675   3.5554  -1.9571 C.ar           1 S1                 0.0000
     14 ****         6.7941   2.5746  -2.6590 C.ar           1 S1                 0.0000
     15 ****         6.1022   1.4471  -3.1443 C.ar           1 S1                 0.0000
     16 ****         4.7761   1.2597  -2.9699 N.ar           1 S1                 0.0000
     17 ****        -1.8207  -1.0629  -1.5103 C.3            1 S1                 0.0000
     18 ****        -1.4976  -2.5683  -1.6138 C.3            1 S1                 0.0000
     19 ****        -1.4416  -0.3502  -2.8237 C.3            1 S1                 0.0000
     20 ****        -3.1740  -1.2194   1.1389 C.3            1 S1                 0.0000
     21 ****        -3.5557  -1.8597   2.4874 C.3            1 S1                 0.0000
     22 ****        -5.0679  -2.0742   2.6160 C.3            1 S1                 0.0000
     23 ****        -3.1402  -1.0102   3.5478 O.3            1 S1                 0.0000
     24 ****        -0.3055   0.1962   4.8574 H              1 S1                 0.0000
     25 ****        -1.6921  -0.4751   5.7099 H              1 S1                 0.0000
     26 ****        -1.8732   0.9968   4.7590 H              1 S1                 0.0000
     27 ****        -1.2345  -1.7868   3.6521 H              1 S1                 0.0000
     28 ****        -1.7675   0.8519   2.1787 H              1 S1                 0.0000
     29 ****        -0.2323   0.0190   2.2780 H              1 S1                 0.0000
     30 ****        -1.5730   0.6659  -0.2502 H              1 S1                 0.0000
     31 ****         0.2788   1.4766  -1.1730 H              1 S1                 0.0000
     32 ****         2.7251   1.3030  -0.0462 H              1 S1                 0.0000
     33 ****         2.8114  -0.0059  -1.2142 H              1 S1                 0.0000
     34 ****         2.1881   1.5827  -3.0555 H              1 S1                 0.0000
     35 ****         2.0959   2.8928  -1.9040 H              1 S1                 0.0000
     36 ****         4.1010   4.1041  -1.2328 H              1 S1                 0.0000
     37 ****         6.5621   4.4334  -1.5690 H              1 S1                 0.0000
     38 ****         7.8564   2.6835  -2.8216 H              1 S1                 0.0000
     39 ****         6.6282   0.6749  -3.6860 H              1 S1                 0.0000
     40 ****        -2.9043  -0.9634  -1.4702 H              1 S1                 0.0000
     41 ****        -0.4349  -2.7420  -1.7845 H              1 S1                 0.0000
     42 ****        -2.0362  -3.0231  -2.4457 H              1 S1                 0.0000
     43 ****        -1.7784  -3.1114  -0.7118 H              1 S1                 0.0000
     44 ****        -0.3841  -0.4631  -3.0635 H              1 S1                 0.0000
     45 ****        -1.6623   0.7163  -2.7718 H              1 S1                 0.0000
     46 ****        -2.0058  -0.7582  -3.6628 H              1 S1                 0.0000
     47 ****        -3.7223  -0.2877   0.9900 H              1 S1                 0.0000
     48 ****        -3.4899  -1.9097   0.3595 H              1 S1                 0.0000
     49 ****        -3.0606  -2.8275   2.5865 H              1 S1                 0.0000
     50 ****        -5.4406  -2.7291   1.8281 H              1 S1                 0.0000
     51 ****        -5.6082  -1.1292   2.5493 H              1 S1                 0.0000
     52 ****        -5.3167  -2.5331   3.5731 H              1 S1                 0.0000
     53 ****        -1.2508  -1.8457   1.1579 H              1 S1                 0.0000
     54 ****         0.4923  -2.0901   0.5320 LP             1 S1                 0.0000
     55 ****         1.9630  -1.2841   0.0988 LP             1 S1                 0.0000
     56 ****         4.3193   0.4460  -3.3294 LP             1 S1                 0.0000
     57 ****        -3.5845  -0.1207   3.4408 LP             1 S1                 0.0000
     58 ****        -3.4188  -1.4197   4.4165 LP             1 S1                 0.0000
@<TRIPOS>BOND
    1    1    2 1     
    2    1   24 1     
    3    1   25 1     
    4    1   26 1     
    5    2   23 1     
    6    2    3 1     
    7    2   27 1     
    8    3    4 1     
    9    3   28 1     
   10    3   29 1     
   11    4    5 1     
   12    4   20 1     
   13    4   53 1     
   14    5    6 1     
   15    5   17 1     
   16    5   30 1     
   17    6    7 2     
   18    6    8 am    
   19    8    9 1     
   20    8   31 1     
   21    9   10 1     
   22    9   32 1     
   23    9   33 1     
   24   10   11 1     
   25   10   34 1     
   26   10   35 1     
   27   11   16 ar    
   28   11   12 ar    
   29   12   13 ar    
   30   12   36 1     
   31   13   14 ar    
   32   13   37 1     
   33   14   15 ar    
   34   14   38 1     
   35   15   16 ar    
   36   15   39 1     
   37   17   18 1     
   38   17   19 1     
   39   17   40 1     
   40   18   41 1     
   41   18   42 1     
   42   18   43 1     
   43   19   44 1     
   44   19   45 1     
   45   19   46 1     
   46   20   21 1     
   47   20   47 1     
   48   20   48 1     
   49   21   22 1     
   50   21   23 1     
   51   21   49 1     
   52   22   50 1     
   53   22   51 1     
   54   22   52 1     
   55    7   54 1     
   56    7   55 1     
   57   16   56 1     
   58   23   57 1     
   59   23   58 1     
@<TRIPOS>SUBSTRUCTURE
      1 S1             1
@<TRIPOS>SET
LONE_PAIRS      STATIC     ATOMS    <user>   **** ""
5 54 55 56 57 58
DONOR_HYDROGENS      STATIC     ATOMS    <user>   **** ""
2 53 31
ATOM$BLUE        STATIC     ATOMS    COLORGROUP SYSTEM
5 54 55 56 57 58
ATOM$RED        STATIC     ATOMS    COLORGROUP SYSTEM
2 53 31
