AV-unprocessed.smi:2313|AV-procd|sdf|9264|dock3
  -GOLD-   2272012483D 1   1.00000     0.00000
 Structure written by MMmdl.
 37 38  0  0  0  0  0  0  0  0  1 V2000
  151.4866  141.6322  157.4603 C   0  0  0  0  0  0  0  0  0  0  0  0
  150.9009  140.2837  157.8357 C   0  0  0  0  0  0  0  0  0  0  0  0
  149.4979  140.0115  157.6021 C   0  0  0  0  0  0  0  0  0  0  0  0
  148.9979  138.8114  157.9327 C   0  0  0  0  0  0  0  0  0  0  0  0
  149.7962  137.8053  158.5042 N   0  0  0  0  0  0  0  0  0  0  0  0
  149.1364  136.5303  158.8317 C   0  0  0  0  0  0  0  0  0  0  0  0
  147.9845  136.6880  159.8340 C   0  0  0  0  0  0  0  0  0  0  0  0
  147.2212  137.6512  159.7623 O   0  0  0  0  0  0  0  0  0  0  0  0
  147.8651  135.7067  160.7446 N   0  0  0  0  0  0  0  0  0  0  0  0
  146.8751  135.5752  161.8221 C   0  0  1  0  0  0  0  0  0  0  0  0
  147.1783  136.7069  162.8176 C   0  0  0  0  0  0  0  0  0  0  0  0
  145.4975  135.7722  161.3285 C   0  0  0  0  0  0  0  0  0  0  0  0
  144.4166  135.9267  160.9446 N   0  0  0  0  0  0  0  0  0  0  0  0
  146.9085  134.2441  162.5765 C   0  0  0  0  0  0  0  0  0  0  0  0
  147.4508  132.9769  161.9546 C   0  0  0  0  0  0  0  0  0  0  0  0
  145.9804  133.0834  162.2930 C   0  0  0  0  0  0  0  0  0  0  0  0
  151.1251  137.9947  158.7623 C   0  0  0  0  0  0  0  0  0  0  0  0
  151.8168  137.1113  159.2730 O   0  0  0  0  0  0  0  0  0  0  0  0
  151.6650  139.3122  158.3901 C   0  0  0  0  0  0  0  0  0  0  0  0
  153.0557  139.5058  158.6486 C   0  0  0  0  0  0  0  0  0  0  0  0
  154.1863  139.6688  158.8364 N   0  0  0  0  0  0  0  0  0  0  0  0
  150.7199  142.2987  157.0644 H   0  0  0  0  0  0  0  0  0  0  0  0
  152.2577  141.5133  156.6986 H   0  0  0  0  0  0  0  0  0  0  0  0
  151.9329  142.1117  158.3321 H   0  0  0  0  0  0  0  0  0  0  0  0
  148.8555  140.7649  157.1698 H   0  0  0  0  0  0  0  0  0  0  0  0
  147.9592  138.5504  157.7902 H   0  0  0  0  0  0  0  0  0  0  0  0
  148.7374  136.0638  157.9302 H   0  0  0  0  0  0  0  0  0  0  0  0
  149.8668  135.8184  159.2212 H   0  0  0  0  0  0  0  0  0  0  0  0
  148.5477  134.9647  160.6951 H   0  0  0  0  0  0  0  0  0  0  0  0
  146.4654  136.7101  163.6431 H   0  0  0  0  0  0  0  0  0  0  0  0
  147.1221  137.6842  162.3361 H   0  0  0  0  0  0  0  0  0  0  0  0
  148.1761  136.6049  163.2459 H   0  0  0  0  0  0  0  0  0  0  0  0
  147.1456  134.3751  163.6311 H   0  0  0  0  0  0  0  0  0  0  0  0
  147.7239  132.9938  160.9016 H   0  0  0  0  0  0  0  0  0  0  0  0
  148.0664  132.3362  162.5824 H   0  0  0  0  0  0  0  0  0  0  0  0
  145.6215  132.5129  163.1471 H   0  0  0  0  0  0  0  0  0  0  0  0
  145.2848  133.1492  161.4613 H   0  0  0  0  0  0  0  0  0  0  0  0
  1  2  1  0  0  0  0
  1 22  1  0  0  0  0
  1 23  1  0  0  0  0
  1 24  1  0  0  0  0
  2 19  2  0  0  0  0
  2  3  1  0  0  0  0
  3  4  2  0  0  0  0
  3 25  1  0  0  0  0
  4  5  1  0  0  0  0
  4 26  1  0  0  0  0
  5  6  1  0  0  0  0
  5 17  1  0  0  0  0
  6  7  1  0  0  0  0
  6 27  1  0  0  0  0
  6 28  1  0  0  0  0
  7  8  2  0  0  0  0
  7  9  1  0  0  0  0
  9 10  1  0  0  0  0
  9 29  1  0  0  0  0
 10 11  1  0  0  0  0
 10 12  1  0  0  0  0
 10 14  1  0  0  0  0
 11 30  1  0  0  0  0
 11 31  1  0  0  0  0
 11 32  1  0  0  0  0
 12 13  3  0  0  0  0
 14 16  1  0  0  0  0
 14 15  1  0  0  0  0
 14 33  1  0  0  0  0
 15 16  1  0  0  0  0
 15 34  1  0  0  0  0
 15 35  1  0  0  0  0
 16 36  1  0  0  0  0
 16 37  1  0  0  0  0
 17 18  2  0  0  0  0
 17 19  1  0  0  0  0
 19 20  1  0  0  0  0
 20 21  3  0  0  0  0
M  END
> <s_m_source_file>
AV-unprocessed.smi

> <i_m_source_file_index>
2313

> <i_lp_mmshare_version>
43012

> <i_f3d_flags>
0

> <s_epik_input>
W0NIM11jMVtjSF1bY0hdbihjKD1PKWMxQyNOKVtDSDJdQyg9TylbTkhdW0NAQF0oW0NIM10pKEMjTilbQ0hdMltDSDJdW0NIMl0y

> <s_epik_cmdline>
J2VwaWtfcHl0aG9uJywgJy1waCcsICc3LjAnLCAnLXRuJywgJzgnLCAnLW1hJywgJzIwMCcsICctbWV0YWxfYmluZGluZycsICctaW1hZScsICc8aW5maWxlLm1hZT4nLCAnLW9tYWUnLCAnPG91dGZpbGUubWFlPic=

> <r_lp_tautomer_probability>
1

> <r_epik_Ionization_Penalty>
4.65501e-07

> <r_epik_Ionization_Penalty_Charging>
2.39086e-10

> <r_epik_Ionization_Penalty_Neutral>
4.65262e-07

> <r_epik_State_Penalty>
-0

> <r_epik_Charging_Adjusted_Penalty>
2.39086e-10

> <i_epik_Tot_Q>
0

> <i_epik_Tot_abs_Q>
0

> <r_epik_Metal_State_Penalty>
-0

> <b_epik_Metal_Only>
0

> <s_lp_Force_Field>
OPLS_2005

> <r_lp_Energy>
24.9024

> <b_lp_Chiralities_Consistent>
1

> <s_lp_Variant>
AV-unprocessed.smi:2313-1

> <Gold.Version>
5.8.1

> <Gold.Id.Protein>
6NUR|6NUR_protein|mol2

> <Gold.PLP.Fitness>
41.6420

> <Gold.PLP.PLP>
-35.4578

> <Gold.PLP.part.hbond>
-3.0000

> <Gold.PLP.part.metal>
0.0000

> <Gold.PLP.part.buried>
-5.7493

> <Gold.PLP.part.nonpolar>
-26.6865

> <Gold.PLP.part.repulsive>
0.1360

> <Gold.PLP.ligand.clash>
0.0000

> <Gold.PLP.ligand.torsion>
1.9150

> <Gold.PLP.Chemscore.Hbond>
2.8393

> <Gold.PLP.Chemscore.CHOScore>
0.0000

> <Gold.PLP.Chemscore.Metal>
0.0000

> <Gold.Chemscore.Hbonds>
donor molecule, donor type, donor heavy atom, donor atom, acceptor molecule, acceptor atom, score
      P1  H  6896  6907       L1    18  0.81
      P1  H  6934  6947       L1     8  0.86
      P1  H  7997  8010       L1    21  1.00

> <Gold.PLP.Chemscore.Internal.Correction>
1.4964

> <Gold.Rescore>
     Score         DG    S(hbond)    S(metal)    S(lipo)     H(rot)  DE(clash)    DE(int)     intcor
     14.26     -18.13       2.87        0.00      65.40       1.80       0.01       3.87       ----

> <Gold.Chemscore.Fitness>
14.2566

> <Gold.Chemscore.DG>
-18.1342

> <Gold.Chemscore.ZeroCoef>
-5.4800

> <Gold.Chemscore.Hbond>
2.8741

> <Gold.Chemscore.Metal>
0.0000

> <Gold.Chemscore.Lipo>
65.3957

> <Gold.Chemscore.Internal_Hbond>
0.0000

> <Gold.Chemscore.DEClash>
0.0126

> <Gold.Chemscore.DEInternal>
3.8650

> <Gold.Chemscore.Rot>
1.7955

> <Gold.Chemscore.Internal.Correction>
   9.000000E+99

> <Gold.Chemscore.Hbonds>
donor molecule, donor type, donor heavy atom, donor atom, acceptor molecule, acceptor atom, score
      P1  H  6896  6907       L1    18  0.77
      P1  H  6934  6947       L1     8  0.86
      P1  H  7997  8010       L1    21  0.55

> <Gold.Chemscore.Hbond.Weighted>
-9.5994

> <Gold.Chemscore.Metal.Weighted>
-0.0000

> <Gold.Chemscore.Lipo.Weighted>
-7.6513

> <Gold.Chemscore.Internal_Hbond.Weighted>
0.0000

> <Gold.Chemscore.DEClash.Weighted>
0.0126

> <Gold.Chemscore.DEInternal.Weighted>
3.8650

> <Gold.Chemscore.Rot.Weighted>
4.5965

> <Gold.Chemscore.Internal.Correction.Weighted>
   9.000000E+99

> <Gold.Protein.RotatedTorsions>
[ 6907 6896 6895 6894 ] final  -12.56 input  -60.11 | X-H torsion
[ 7974 7965 7964 7962 ] final   91.01 input  175.53 | X-H torsion
[ 8008 7997 7996 7995 ] final   13.97 input   59.86 | X-H torsion
[ 10167 10162 10161 10158 ] final   12.06 input  -65.29 | X-H torsion
[ 10718 10713 10712 10709 ] final -175.07 input   66.30 | X-H torsion
[ 10763 10752 10751 10750 ] final  124.81 input  -60.55 | X-H torsion
[ 11005 11000 10999 10996 ] final   56.93 input  -57.11 | X-H torsion

> <Gold.Protein.ActiveResidues>
 VAL166  LYS551  ARG553  GLY616  TRP617  ASP618  TYR619  PRO620  LYS621  CYS622 
 ASP623  PHE694  ASN695  SER759  ASP760  ASP761  ALA762  ILE779  LEU786  VAL792 
 PHE793  MET794  SER795  GLU796  ALA797  LYS798  CYS799  TRP800  GLU811  SER814 

> <Gold.Protein.RotatedAtoms>
  151.3687  135.0918  159.9457 H   0  0  0  0  0  0  0  0  0  0  0  0  # atno 6907 bound_to 6896
  152.5142  133.9186  159.7534 H   0  0  0  0  0  0  0  0  0  0  0  0  # atno 6908 bound_to 6896
  150.9596  133.6405  159.2786 H   0  0  0  0  0  0  0  0  0  0  0  0  # atno 6909 bound_to 6896
  145.5114  139.2277  143.2722 H   0  0  0  0  0  0  0  0  0  0  0  0  # atno 7974 bound_to 7965
  154.8420  140.2916  155.5653 H   0  0  0  0  0  0  0  0  0  0  0  0  # atno 8008 bound_to 7997
  156.3012  140.2512  156.3295 H   0  0  0  0  0  0  0  0  0  0  0  0  # atno 8009 bound_to 7997
  154.9115  140.0388  157.1938 H   0  0  0  0  0  0  0  0  0  0  0  0  # atno 8010 bound_to 7997
  140.6092  143.8443  150.7047 H   0  0  0  0  0  0  0  0  0  0  0  0  # atno 10167 bound_to 10162
  156.7945  130.9530  151.3120 H   0  0  0  0  0  0  0  0  0  0  0  0  # atno 10718 bound_to 10713
  153.6673  135.3336  155.3143 H   0  0  0  0  0  0  0  0  0  0  0  0  # atno 10763 bound_to 10752
  154.8500  135.4378  154.1742 H   0  0  0  0  0  0  0  0  0  0  0  0  # atno 10764 bound_to 10752
  153.2724  135.7001  153.7543 H   0  0  0  0  0  0  0  0  0  0  0  0  # atno 10765 bound_to 10752
  140.0491  134.5762  155.9285 H   0  0  0  0  0  0  0  0  0  0  0  0  # atno 11005 bound_to 11000
  146.2164  140.5921  142.9036 LP  0  0  0  0  0  0  0  0  0  0  0  0  # atno 17320 bound_to 7965
  144.7725  140.5669  143.6660 LP  0  0  0  0  0  0  0  0  0  0  0  0  # atno 17321 bound_to 7965
  140.2007  143.3961  152.1793 LP  0  0  0  0  0  0  0  0  0  0  0  0  # atno 17342 bound_to 10162
  139.5348  144.7198  151.4930 LP  0  0  0  0  0  0  0  0  0  0  0  0  # atno 17343 bound_to 10162
  157.6584  130.8945  149.9778 LP  0  0  0  0  0  0  0  0  0  0  0  0  # atno 17370 bound_to 10713
  156.1139  130.3648  150.0002 LP  0  0  0  0  0  0  0  0  0  0  0  0  # atno 17371 bound_to 10713
  141.1922  133.6574  156.5490 LP  0  0  0  0  0  0  0  0  0  0  0  0  # atno 17394 bound_to 11000
  140.3945  134.7411  157.4742 LP  0  0  0  0  0  0  0  0  0  0  0  0  # atno 17395 bound_to 11000

$$$$
