AV-unprocessed.smi:2253|AV-procd|sdf|9117|dock9
  -GOLD-   2272012323D 1   1.00000     0.00000
 Structure written by MMmdl.
 52 54  0  0  0  0  0  0  0  0  3 V2000
  147.6611  132.6783  156.1828 C   0  0  0  0  0  0  0  0  0  0  0  0
  148.2287  133.8344  155.4556 N   0  3  2  0  0  0  0  0  0  0  0  0
  149.6967  133.9400  155.6174 C   0  0  0  0  0  0  0  0  0  0  0  0
  150.2723  135.0727  154.7501 C   0  0  0  0  0  0  0  0  0  0  0  0
  149.6140  136.4447  155.0483 C   0  0  1  0  0  0  0  0  0  0  0  0
  150.1060  137.5404  154.1435 N   0  3  2  0  0  0  0  0  0  0  0  0
  151.5797  137.7710  154.1363 C   0  0  0  0  0  0  0  0  0  0  0  0
  152.0605  138.4334  155.4412 C   0  0  0  0  0  0  0  0  0  0  0  0
  151.3420  139.7751  155.6653 C   0  0  2  0  0  0  0  0  0  0  0  0
  151.7437  140.3495  156.9464 N   0  0  0  0  0  0  0  0  0  0  0  0
  151.4615  141.5966  157.3522 C   0  0  0  0  0  0  0  0  0  0  0  0
  150.7948  142.3854  156.6836 O   0  0  0  0  0  0  0  0  0  0  0  0
  151.9976  141.8456  158.5598 N   0  0  0  0  0  0  0  0  0  0  0  0
  151.9678  143.0341  159.3438 C   0  0  0  0  0  0  0  0  0  0  0  0
  151.4316  144.2746  158.9176 C   0  0  0  0  0  0  0  0  0  0  0  0
  151.4760  145.3701  159.8034 C   0  0  0  0  0  0  0  0  0  0  0  0
  152.0044  145.3050  161.0435 N   0  0  0  0  0  0  0  0  0  0  0  0
  152.5154  144.1230  161.4465 C   0  0  0  0  0  0  0  0  0  0  0  0
  152.5215  142.9671  160.6403 C   0  0  0  0  0  0  0  0  0  0  0  0
  153.0534  141.8119  161.1084 F   0  0  0  0  0  0  0  0  0  0  0  0
  149.8144  139.5780  155.5964 C   0  0  0  0  0  0  0  0  0  0  0  0
  149.4041  138.8481  154.3014 C   0  0  0  0  0  0  0  0  0  0  0  0
  148.0787  136.2655  154.9375 C   0  0  0  0  0  0  0  0  0  0  0  0
  147.5553  135.1067  155.8029 C   0  0  0  0  0  0  0  0  0  0  0  0
  147.8106  132.7792  157.2587 H   0  0  0  0  0  0  0  0  0  0  0  0
  148.1315  131.7497  155.8575 H   0  0  0  0  0  0  0  0  0  0  0  0
  146.5908  132.5916  155.9929 H   0  0  0  0  0  0  0  0  0  0  0  0
  149.9382  134.1109  156.6679 H   0  0  0  0  0  0  0  0  0  0  0  0
  150.1626  132.9948  155.3356 H   0  0  0  0  0  0  0  0  0  0  0  0
  151.3439  135.1057  154.9440 H   0  0  0  0  0  0  0  0  0  0  0  0
  150.1486  134.8219  153.6955 H   0  0  0  0  0  0  0  0  0  0  0  0
  149.8566  136.7061  156.0784 H   0  0  0  0  0  0  0  0  0  0  0  0
  152.1400  136.8626  153.9236 H   0  0  0  0  0  0  0  0  0  0  0  0
  151.8124  138.4329  153.3008 H   0  0  0  0  0  0  0  0  0  0  0  0
  151.8888  137.7644  156.2855 H   0  0  0  0  0  0  0  0  0  0  0  0
  153.1381  138.5954  155.3938 H   0  0  0  0  0  0  0  0  0  0  0  0
  151.6440  140.4546  154.8655 H   0  0  0  0  0  0  0  0  0  0  0  0
  152.2964  139.7657  157.5576 H   0  0  0  0  0  0  0  0  0  0  0  0
  152.5069  141.0810  158.9782 H   0  0  0  0  0  0  0  0  0  0  0  0
  150.9928  144.4193  157.9438 H   0  0  0  0  0  0  0  0  0  0  0  0
  151.0756  146.3279  159.5053 H   0  0  0  0  0  0  0  0  0  0  0  0
  152.9335  144.0979  162.4420 H   0  0  0  0  0  0  0  0  0  0  0  0
  149.4664  139.0223  156.4675 H   0  0  0  0  0  0  0  0  0  0  0  0
  149.3127  140.5453  155.6383 H   0  0  0  0  0  0  0  0  0  0  0  0
  149.6661  139.4752  153.4479 H   0  0  0  0  0  0  0  0  0  0  0  0
  148.3228  138.7460  154.2479 H   0  0  0  0  0  0  0  0  0  0  0  0
  147.5511  137.1634  155.2537 H   0  0  0  0  0  0  0  0  0  0  0  0
  147.8016  136.0940  153.8962 H   0  0  0  0  0  0  0  0  0  0  0  0
  146.4796  135.0011  155.6555 H   0  0  0  0  0  0  0  0  0  0  0  0
  147.7098  135.3270  156.8606 H   0  0  0  0  0  0  0  0  0  0  0  0
  149.8853  137.2232  153.2100 H   0  0  0  0  0  0  0  0  0  0  0  0
  148.0526  133.6677  154.4748 H   0  0  0  0  0  0  0  0  0  0  0  0
  1  2  1  0  0  0  0
  1 25  1  0  0  0  0
  1 26  1  0  0  0  0
  1 27  1  0  0  0  0
  2 24  1  0  0  0  0
  2  3  1  0  0  0  0
  2 52  1  0  0  0  0
  3  4  1  0  0  0  0
  3 28  1  0  0  0  0
  3 29  1  0  0  0  0
  4  5  1  0  0  0  0
  4 30  1  0  0  0  0
  4 31  1  0  0  0  0
  5  6  1  0  0  0  0
  5 23  1  0  0  0  0
  5 32  1  0  0  0  0
  6 22  1  0  0  0  0
  6  7  1  0  0  0  0
  6 51  1  0  0  0  0
  7  8  1  0  0  0  0
  7 33  1  0  0  0  0
  7 34  1  0  0  0  0
  8  9  1  0  0  0  0
  8 35  1  0  0  0  0
  8 36  1  0  0  0  0
  9 10  1  0  0  0  0
  9 21  1  0  0  0  0
  9 37  1  0  0  0  0
 10 11  1  0  0  0  0
 10 38  1  0  0  0  0
 11 12  2  0  0  0  0
 11 13  1  0  0  0  0
 13 14  1  0  0  0  0
 13 39  1  0  0  0  0
 14 19  1  0  0  0  0
 14 15  2  0  0  0  0
 15 16  1  0  0  0  0
 15 40  1  0  0  0  0
 16 17  2  0  0  0  0
 16 41  1  0  0  0  0
 17 18  1  0  0  0  0
 18 19  2  0  0  0  0
 18 42  1  0  0  0  0
 19 20  1  0  0  0  0
 21 22  1  0  0  0  0
 21 43  1  0  0  0  0
 21 44  1  0  0  0  0
 22 45  1  0  0  0  0
 22 46  1  0  0  0  0
 23 24  1  0  0  0  0
 23 47  1  0  0  0  0
 23 48  1  0  0  0  0
 24 49  1  0  0  0  0
 24 50  1  0  0  0  0
M  CHG  1   2   1
M  CHG  1   6   1
M  END
> <s_m_source_file>
AV-unprocessed.smi

> <i_m_source_file_index>
2253

> <i_lp_mmshare_version>
43012

> <i_f3d_flags>
0

> <s_epik_input>
W0NIM11OMVtDSDJdW0NIMl1bQ0hdKFtDSDJdW0NIMl0xKU4yW0NIMl1bQ0gyXVtDSF0oW0NIMl1bQ0gyXTIpW05IXUMoPU8pW05IXWMzW2NIXVtjSF1uW2NIXWMzRg==

> <s_epik_cmdline>
J2VwaWtfcHl0aG9uJywgJy1waCcsICc3LjAnLCAnLXRuJywgJzgnLCAnLW1hJywgJzIwMCcsICctbWV0YWxfYmluZGluZycsICctaW1hZScsICc8aW5maWxlLm1hZT4nLCAnLW9tYWUnLCAnPG91dGZpbGUubWFlPic=

> <r_epik_Ionization_Penalty>
0.183544

> <r_epik_Ionization_Penalty_Charging>
0.180787

> <r_epik_Ionization_Penalty_Neutral>
0.00275649

> <r_epik_State_Penalty>
0.153592

> <r_epik_Charging_Adjusted_Penalty>
0.334379

> <i_epik_Tot_Q>
2

> <i_epik_Tot_abs_Q>
2

> <r_epik_Metal_State_Penalty>
0.153693

> <b_epik_Metal_Only>
0

> <s_lp_Force_Field>
OPLS_2005

> <r_lp_Energy>
48.1083

> <b_lp_Chiralities_Consistent>
1

> <s_lp_Variant>
AV-unprocessed.smi:2253-3

> <Gold.Version>
5.8.1

> <Gold.Id.Protein>
6NUR|6NUR_protein|mol2

> <Gold.PLP.Fitness>
46.4479

> <Gold.PLP.PLP>
-40.6376

> <Gold.PLP.part.hbond>
-1.3484

> <Gold.PLP.part.metal>
0.0000

> <Gold.PLP.part.buried>
-5.7332

> <Gold.PLP.part.nonpolar>
-35.2969

> <Gold.PLP.part.repulsive>
2.2807

> <Gold.PLP.ligand.clash>
0.0000

> <Gold.PLP.ligand.torsion>
0.1188

> <Gold.PLP.Chemscore.Hbond>
2.0000

> <Gold.PLP.Chemscore.CHOScore>
0.0000

> <Gold.PLP.Chemscore.Metal>
0.0000

> <Gold.Chemscore.Hbonds>
donor molecule, donor type, donor heavy atom, donor atom, acceptor molecule, acceptor atom, score
      L1  H     6    51       P1  7948  2.00

> <Gold.PLP.Chemscore.Internal.Correction>
0.0479

> <Gold.Rescore>
     Score         DG    S(hbond)    S(metal)    S(lipo)     H(rot)  DE(clash)    DE(int)     intcor
     16.17     -17.38       0.88        0.00     104.06       1.26       0.01       1.20       ----

> <Gold.Chemscore.Fitness>
16.1723

> <Gold.Chemscore.DG>
-17.3803

> <Gold.Chemscore.ZeroCoef>
-5.4800

> <Gold.Chemscore.Hbond>
0.8804

> <Gold.Chemscore.Metal>
0.0000

> <Gold.Chemscore.Lipo>
104.0593

> <Gold.Chemscore.Internal_Hbond>
0.0000

> <Gold.Chemscore.DEClash>
0.0096

> <Gold.Chemscore.DEInternal>
1.1984

> <Gold.Chemscore.Rot>
1.2559

> <Gold.Chemscore.Internal.Correction>
   9.000000E+99

> <Gold.Chemscore.Hbonds>
donor molecule, donor type, donor heavy atom, donor atom, acceptor molecule, acceptor atom, score
      L1  H     6    51       P1  7948  0.34

> <Gold.Chemscore.Hbond.Weighted>
-2.9405

> <Gold.Chemscore.Metal.Weighted>
-0.0000

> <Gold.Chemscore.Lipo.Weighted>
-12.1749

> <Gold.Chemscore.Internal_Hbond.Weighted>
0.0000

> <Gold.Chemscore.DEClash.Weighted>
0.0096

> <Gold.Chemscore.DEInternal.Weighted>
1.1984

> <Gold.Chemscore.Rot.Weighted>
3.2151

> <Gold.Chemscore.Internal.Correction.Weighted>
   9.000000E+99

> <Gold.Protein.RotatedTorsions>
[ 6907 6896 6895 6894 ] final   -4.19 input  -60.11 | X-H torsion
[ 7974 7965 7964 7962 ] final -171.79 input  175.53 | X-H torsion
[ 8008 7997 7996 7995 ] final   36.37 input   59.86 | X-H torsion
[ 10167 10162 10161 10158 ] final  115.34 input  -65.29 | X-H torsion
[ 10718 10713 10712 10709 ] final   92.12 input   66.30 | X-H torsion
[ 10763 10752 10751 10750 ] final -149.49 input  -60.55 | X-H torsion
[ 11005 11000 10999 10996 ] final  158.40 input  -57.11 | X-H torsion

> <Gold.Protein.ActiveResidues>
 VAL166  LYS551  ARG553  GLY616  TRP617  ASP618  TYR619  PRO620  LYS621  CYS622 
 ASP623  PHE694  ASN695  SER759  ASP760  ASP761  ALA762  ILE779  LEU786  VAL792 
 PHE793  MET794  SER795  GLU796  ALA797  LYS798  CYS799  TRP800  GLU811  SER814 

> <Gold.Protein.RotatedAtoms>
  151.5017  135.1062  159.9830 H   0  0  0  0  0  0  0  0  0  0  0  0  # atno 6907 bound_to 6896
  152.4699  133.8002  159.6959 H   0  0  0  0  0  0  0  0  0  0  0  0  # atno 6908 bound_to 6896
  150.8702  133.7453  159.2989 H   0  0  0  0  0  0  0  0  0  0  0  0  # atno 6909 bound_to 6896
  144.7153  140.1870  143.6352 H   0  0  0  0  0  0  0  0  0  0  0  0  # atno 7974 bound_to 7965
  155.1863  140.3304  155.4366 H   0  0  0  0  0  0  0  0  0  0  0  0  # atno 8008 bound_to 7997
  156.2458  140.1918  156.6908 H   0  0  0  0  0  0  0  0  0  0  0  0  # atno 8009 bound_to 7997
  154.6237  140.0592  156.9632 H   0  0  0  0  0  0  0  0  0  0  0  0  # atno 8010 bound_to 7997
  139.6324  144.7116  151.2404 H   0  0  0  0  0  0  0  0  0  0  0  0  # atno 10167 bound_to 10162
  157.6959  131.0432  150.3834 H   0  0  0  0  0  0  0  0  0  0  0  0  # atno 10718 bound_to 10713
  154.8174  135.3308  154.7136 H   0  0  0  0  0  0  0  0  0  0  0  0  # atno 10763 bound_to 10752
  153.7774  135.6921  153.4899 H   0  0  0  0  0  0  0  0  0  0  0  0  # atno 10764 bound_to 10752
  153.2003  135.4518  155.0206 H   0  0  0  0  0  0  0  0  0  0  0  0  # atno 10765 bound_to 10752
  140.1862  134.8440  157.2859 H   0  0  0  0  0  0  0  0  0  0  0  0  # atno 11005 bound_to 11000
  145.8804  139.2320  143.1609 LP  0  0  0  0  0  0  0  0  0  0  0  0  # atno 17320 bound_to 7965
  146.0000  140.8528  143.0023 LP  0  0  0  0  0  0  0  0  0  0  0  0  # atno 17321 bound_to 7965
  140.7446  143.6456  150.8295 LP  0  0  0  0  0  0  0  0  0  0  0  0  # atno 17342 bound_to 10162
  140.0083  143.5670  152.2849 LP  0  0  0  0  0  0  0  0  0  0  0  0  # atno 17343 bound_to 10162
  156.4245  130.3959  149.6802 LP  0  0  0  0  0  0  0  0  0  0  0  0  # atno 17370 bound_to 10713
  156.4041  130.7689  151.2699 LP  0  0  0  0  0  0  0  0  0  0  0  0  # atno 17371 bound_to 10713
  140.2211  134.4022  155.7565 LP  0  0  0  0  0  0  0  0  0  0  0  0  # atno 17394 bound_to 11000
  141.2225  133.7167  156.8492 LP  0  0  0  0  0  0  0  0  0  0  0  0  # atno 17395 bound_to 11000

$$$$
