AV-unprocessed.smi:81|AV-procd|sdf|788|dock4
  -GOLD-   2262017163D 1   1.00000     0.00000
 Structure written by MMmdl.
 64 67  0  0  0  0  0  0  0  0  2 V2000
  146.5834  134.1179  162.1382 C   0  0  0  0  0  0  0  0  0  0  0  0
  147.4919  135.2882  161.7263 C   0  0  0  0  0  0  0  0  0  0  0  0
  147.5159  136.3619  162.8230 C   0  0  0  0  0  0  0  0  0  0  0  0
  147.0584  135.9061  160.3775 C   0  0  0  0  0  0  0  0  0  0  0  0
  148.0809  135.8294  159.3299 N   0  0  0  0  0  0  0  0  0  0  0  0
  148.3943  137.0181  158.7565 C   0  0  0  0  0  0  0  0  0  0  0  0
  147.4307  137.7520  158.1397 N   0  0  0  0  0  0  0  0  0  0  0  0
  147.7371  138.9312  157.5903 C   0  0  0  0  0  0  0  0  0  0  0  0
  148.9186  139.5507  157.5497 N   0  0  0  0  0  0  0  0  0  0  0  0
  149.8839  138.8213  158.1793 C   0  0  0  0  0  0  0  0  0  0  0  0
  149.7086  137.5543  158.8009 C   0  0  0  0  0  0  0  0  0  0  0  0
  150.9117  137.1142  159.3376 N   0  0  0  0  0  0  0  0  0  0  0  0
  151.7527  138.0700  159.0508 C   0  0  0  0  0  0  0  0  0  0  0  0
  151.2183  139.1371  158.3638 N   0  0  0  0  0  0  0  0  0  0  0  0
  151.9215  140.3342  157.9315 C   0  0  0  0  0  0  0  0  0  0  0  0
  151.7690  141.5216  158.9118 C   0  0  1  0  0  0  0  0  0  0  0  0
  150.3920  141.6886  159.2093 O   0  0  0  0  0  0  0  0  0  0  0  0
  152.5281  141.3503  160.2193 C   0  0  0  0  0  0  0  0  0  0  0  0
  152.7114  142.7890  160.6862 C   0  0  0  0  0  0  0  0  0  0  0  0
  152.9024  143.5403  159.4940 O   0  0  0  0  0  0  0  0  0  0  0  0
  152.3749  142.8348  158.3710 C   0  0  2  0  0  0  0  0  0  0  0  0
  151.4428  143.7339  157.5431 C   0  0  0  0  0  0  0  0  0  0  0  0
  148.0086  134.6710  158.4277 C   0  0  2  0  0  0  0  0  0  0  0  0
  146.9427  134.8084  157.3201 C   0  0  0  0  0  0  0  0  0  0  0  0
  146.9853  133.6036  156.3664 C   0  0  0  0  0  0  0  0  0  0  0  0
  146.8010  132.3321  157.1090 N   0  3  1  0  0  0  0  0  0  0  0  0
  146.7090  131.1624  156.2091 C   0  0  0  0  0  0  0  0  0  0  0  0
  147.8267  132.1516  158.1664 C   0  0  0  0  0  0  0  0  0  0  0  0
  147.8118  133.3256  159.1596 C   0  0  0  0  0  0  0  0  0  0  0  0
  145.5475  134.4402  162.2472 H   0  0  0  0  0  0  0  0  0  0  0  0
  146.9009  133.6913  163.0901 H   0  0  0  0  0  0  0  0  0  0  0  0
  146.6054  133.3156  161.4007 H   0  0  0  0  0  0  0  0  0  0  0  0
  148.5103  134.9081  161.6367 H   0  0  0  0  0  0  0  0  0  0  0  0
  146.5262  136.7928  162.9781 H   0  0  0  0  0  0  0  0  0  0  0  0
  148.1959  137.1737  162.5626 H   0  0  0  0  0  0  0  0  0  0  0  0
  147.8512  135.9456  163.7733 H   0  0  0  0  0  0  0  0  0  0  0  0
  146.1562  135.4025  160.0281 H   0  0  0  0  0  0  0  0  0  0  0  0
  146.7787  136.9497  160.5271 H   0  0  0  0  0  0  0  0  0  0  0  0
  146.9186  139.4553  157.1193 H   0  0  0  0  0  0  0  0  0  0  0  0
  152.7921  138.0261  159.3421 H   0  0  0  0  0  0  0  0  0  0  0  0
  152.9747  140.0771  157.8106 H   0  0  0  0  0  0  0  0  0  0  0  0
  151.5598  140.6121  156.9407 H   0  0  0  0  0  0  0  0  0  0  0  0
  150.2753  142.5290  159.6254 H   0  0  0  0  0  0  0  0  0  0  0  0
  152.0128  140.7248  160.9499 H   0  0  0  0  0  0  0  0  0  0  0  0
  153.5070  140.9076  160.0303 H   0  0  0  0  0  0  0  0  0  0  0  0
  151.8114  143.1464  161.1881 H   0  0  0  0  0  0  0  0  0  0  0  0
  153.5508  142.9045  161.3720 H   0  0  0  0  0  0  0  0  0  0  0  0
  153.2410  142.5879  157.7554 H   0  0  0  0  0  0  0  0  0  0  0  0
  151.0315  143.1927  156.6909 H   0  0  0  0  0  0  0  0  0  0  0  0
  151.9843  144.5977  157.1572 H   0  0  0  0  0  0  0  0  0  0  0  0
  150.6105  144.1098  158.1387 H   0  0  0  0  0  0  0  0  0  0  0  0
  148.9763  134.6296  157.9257 H   0  0  0  0  0  0  0  0  0  0  0  0
  145.9435  134.8796  157.7520 H   0  0  0  0  0  0  0  0  0  0  0  0
  147.1072  135.7258  156.7541 H   0  0  0  0  0  0  0  0  0  0  0  0
  146.2003  133.7070  155.6163 H   0  0  0  0  0  0  0  0  0  0  0  0
  147.9356  133.5815  155.8303 H   0  0  0  0  0  0  0  0  0  0  0  0
  147.6419  131.0131  155.6636 H   0  0  0  0  0  0  0  0  0  0  0  0
  145.9055  131.2961  155.4841 H   0  0  0  0  0  0  0  0  0  0  0  0
  146.4957  130.2561  156.7767 H   0  0  0  0  0  0  0  0  0  0  0  0
  147.6383  131.2207  158.7027 H   0  0  0  0  0  0  0  0  0  0  0  0
  148.8128  132.0600  157.7084 H   0  0  0  0  0  0  0  0  0  0  0  0
  148.5947  133.1762  159.9034 H   0  0  0  0  0  0  0  0  0  0  0  0
  146.8647  133.3199  159.6994 H   0  0  0  0  0  0  0  0  0  0  0  0
  145.9102  132.4007  157.5804 H   0  0  0  0  0  0  0  0  0  0  0  0
  1  2  1  0  0  0  0
  1 30  1  0  0  0  0
  1 31  1  0  0  0  0
  1 32  1  0  0  0  0
  2  3  1  0  0  0  0
  2  4  1  0  0  0  0
  2 33  1  0  0  0  0
  3 34  1  0  0  0  0
  3 35  1  0  0  0  0
  3 36  1  0  0  0  0
  4  5  1  0  0  0  0
  4 37  1  0  0  0  0
  4 38  1  0  0  0  0
  5  6  1  0  0  0  0
  5 23  1  0  0  0  0
  6 11  1  0  0  0  0
  6  7  2  0  0  0  0
  7  8  1  0  0  0  0
  8  9  2  0  0  0  0
  8 39  1  0  0  0  0
  9 10  1  0  0  0  0
 10 14  1  0  0  0  0
 10 11  2  0  0  0  0
 11 12  1  0  0  0  0
 12 13  2  0  0  0  0
 13 14  1  0  0  0  0
 13 40  1  0  0  0  0
 14 15  1  0  0  0  0
 15 16  1  0  0  0  0
 15 41  1  0  0  0  0
 15 42  1  0  0  0  0
 16 21  1  0  0  0  0
 16 17  1  0  0  0  0
 16 18  1  0  0  0  0
 17 43  1  0  0  0  0
 18 19  1  0  0  0  0
 18 44  1  0  0  0  0
 18 45  1  0  0  0  0
 19 20  1  0  0  0  0
 19 46  1  0  0  0  0
 19 47  1  0  0  0  0
 20 21  1  0  0  0  0
 21 22  1  0  0  0  0
 21 48  1  0  0  0  0
 22 49  1  0  0  0  0
 22 50  1  0  0  0  0
 22 51  1  0  0  0  0
 23 29  1  0  0  0  0
 23 24  1  0  0  0  0
 23 52  1  0  0  0  0
 24 25  1  0  0  0  0
 24 53  1  0  0  0  0
 24 54  1  0  0  0  0
 25 26  1  0  0  0  0
 25 55  1  0  0  0  0
 25 56  1  0  0  0  0
 26 27  1  0  0  0  0
 26 28  1  0  0  0  0
 26 64  1  0  0  0  0
 27 57  1  0  0  0  0
 27 58  1  0  0  0  0
 27 59  1  0  0  0  0
 28 29  1  0  0  0  0
 28 60  1  0  0  0  0
 28 61  1  0  0  0  0
 29 62  1  0  0  0  0
 29 63  1  0  0  0  0
M  CHG  1  26   1
M  END
> <s_m_source_file>
AV-unprocessed.smi

> <i_m_source_file_index>
81

> <i_lp_mmshare_version>
43012

> <i_f3d_flags>
0

> <s_epik_input>
W0NIMl0xW0NIMl1OKFtDSDNdKVtDSDJdW0NIMl1bQ0hdMU4oW0NIMl1bQ0hdKFtDSDNdKVtDSDNdKWMobltjSF1uMiljKGMyMyluW2NIXW4zW0NIMl1bQ0BAXTQoW09IXSlbQ0gyXVtDSDJdT1tDQEhdNFtDSDNd

> <s_epik_cmdline>
J2VwaWtfcHl0aG9uJywgJy1waCcsICc3LjAnLCAnLXRuJywgJzgnLCAnLW1hJywgJzIwMCcsICctbWV0YWxfYmluZGluZycsICctaW1hZScsICc8aW5maWxlLm1hZT4nLCAnLW9tYWUnLCAnPG91dGZpbGUubWFlPic=

> <r_lp_tautomer_probability>
1

> <r_epik_Ionization_Penalty>
0.00272708

> <r_epik_Ionization_Penalty_Charging>
0.00158983

> <r_epik_Ionization_Penalty_Neutral>
0.00113725

> <r_epik_State_Penalty>
-0

> <r_epik_Charging_Adjusted_Penalty>
0.00158983

> <i_epik_Tot_Q>
1

> <i_epik_Tot_abs_Q>
1

> <r_epik_Metal_State_Penalty>
-0

> <b_epik_Metal_Only>
0

> <s_lp_Force_Field>
OPLS_2005

> <r_lp_Energy>
45.229

> <b_lp_Chiralities_Consistent>
1

> <s_lp_Variant>
AV-unprocessed.smi:81-3

> <Gold.Version>
5.8.1

> <Gold.Id.Protein>
6NUR|6NUR_protein|mol2

> <Gold.PLP.Fitness>
42.7368

> <Gold.PLP.PLP>
-43.4841

> <Gold.PLP.part.hbond>
-1.9078

> <Gold.PLP.part.metal>
0.0000

> <Gold.PLP.part.buried>
-7.2554

> <Gold.PLP.part.nonpolar>
-35.5964

> <Gold.PLP.part.repulsive>
0.0000

> <Gold.PLP.ligand.clash>
0.0000

> <Gold.PLP.ligand.torsion>
2.1851

> <Gold.PLP.Chemscore.Hbond>
0.9425

> <Gold.PLP.Chemscore.CHOScore>
0.0000

> <Gold.PLP.Chemscore.Metal>
0.0000

> <Gold.Chemscore.Hbonds>
donor molecule, donor type, donor heavy atom, donor atom, acceptor molecule, acceptor atom, score
      P1  H  6896  6909       L1    12  0.84

> <Gold.PLP.Chemscore.Internal.Correction>
0.7954

> <Gold.Rescore>
     Score         DG    S(hbond)    S(metal)    S(lipo)     H(rot)  DE(clash)    DE(int)     intcor
     12.50     -14.40       0.98        0.00     104.72       2.58       0.00       1.89       ----

> <Gold.Chemscore.Fitness>
12.5019

> <Gold.Chemscore.DG>
-14.3987

> <Gold.Chemscore.ZeroCoef>
-5.4800

> <Gold.Chemscore.Hbond>
0.9774

> <Gold.Chemscore.Metal>
0.0000

> <Gold.Chemscore.Lipo>
104.7216

> <Gold.Chemscore.Internal_Hbond>
0.0000

> <Gold.Chemscore.DEClash>
0.0036

> <Gold.Chemscore.DEInternal>
1.8932

> <Gold.Chemscore.Rot>
2.5774

> <Gold.Chemscore.Internal.Correction>
   9.000000E+99

> <Gold.Chemscore.Hbonds>
donor molecule, donor type, donor heavy atom, donor atom, acceptor molecule, acceptor atom, score
      P1  H  6896  6909       L1    12  0.82

> <Gold.Chemscore.Hbond.Weighted>
-3.2646

> <Gold.Chemscore.Metal.Weighted>
-0.0000

> <Gold.Chemscore.Lipo.Weighted>
-12.2524

> <Gold.Chemscore.Internal_Hbond.Weighted>
0.0000

> <Gold.Chemscore.DEClash.Weighted>
0.0036

> <Gold.Chemscore.DEInternal.Weighted>
1.8932

> <Gold.Chemscore.Rot.Weighted>
6.5982

> <Gold.Chemscore.Internal.Correction.Weighted>
   9.000000E+99

> <Gold.Protein.RotatedTorsions>
[ 6907 6896 6895 6894 ] final  107.97 input  -60.11 | X-H torsion
[ 7974 7965 7964 7962 ] final -153.62 input  175.53 | X-H torsion
[ 8008 7997 7996 7995 ] final   -5.09 input   59.86 | X-H torsion
[ 10167 10162 10161 10158 ] final  -36.85 input  -65.29 | X-H torsion
[ 10718 10713 10712 10709 ] final -104.16 input   66.30 | X-H torsion
[ 10763 10752 10751 10750 ] final -110.72 input  -60.55 | X-H torsion
[ 11005 11000 10999 10996 ] final -112.41 input  -57.11 | X-H torsion

> <Gold.Protein.ActiveResidues>
 VAL166  LYS551  ARG553  GLY616  TRP617  ASP618  TYR619  PRO620  LYS621  CYS622 
 ASP623  PHE694  ASN695  SER759  ASP760  ASP761  ALA762  ILE779  LEU786  VAL792 
 PHE793  MET794  SER795  GLU796  ALA797  LYS798  CYS799  TRP800  GLU811  SER814 

> <Gold.Protein.RotatedAtoms>
  152.5132  133.9157  159.7509 H   0  0  0  0  0  0  0  0  0  0  0  0  # atno 6907 bound_to 6896
  150.9540  133.6509  159.2773 H   0  0  0  0  0  0  0  0  0  0  0  0  # atno 6908 bound_to 6896
  151.3777  135.0939  159.9539 H   0  0  0  0  0  0  0  0  0  0  0  0  # atno 6909 bound_to 6896
  144.7731  140.4501  143.5893 H   0  0  0  0  0  0  0  0  0  0  0  0  # atno 7974 bound_to 7965
  154.6075  140.2467  155.7712 H   0  0  0  0  0  0  0  0  0  0  0  0  # atno 8008 bound_to 7997
  156.2350  140.2953  156.0239 H   0  0  0  0  0  0  0  0  0  0  0  0  # atno 8009 bound_to 7997
  155.2107  140.0397  157.2923 H   0  0  0  0  0  0  0  0  0  0  0  0  # atno 8010 bound_to 7997
  140.7132  143.3381  151.2419 H   0  0  0  0  0  0  0  0  0  0  0  0  # atno 10167 bound_to 10162
  156.0293  130.5502  150.7356 H   0  0  0  0  0  0  0  0  0  0  0  0  # atno 10718 bound_to 10713
  154.8263  135.4554  154.0929 H   0  0  0  0  0  0  0  0  0  0  0  0  # atno 10763 bound_to 10752
  153.2240  135.6897  153.7973 H   0  0  0  0  0  0  0  0  0  0  0  0  # atno 10764 bound_to 10752
  153.7380  135.3317  155.3275 H   0  0  0  0  0  0  0  0  0  0  0  0  # atno 10765 bound_to 10752
  141.0676  133.9433  157.2548 H   0  0  0  0  0  0  0  0  0  0  0  0  # atno 11005 bound_to 11000
  145.6265  139.1530  143.2993 LP  0  0  0  0  0  0  0  0  0  0  0  0  # atno 17320 bound_to 7965
  146.1892  140.6371  142.9153 LP  0  0  0  0  0  0  0  0  0  0  0  0  # atno 17321 bound_to 7965
  139.6881  143.9739  152.2845 LP  0  0  0  0  0  0  0  0  0  0  0  0  # atno 17342 bound_to 10162
  139.9391  144.6693  150.8284 LP  0  0  0  0  0  0  0  0  0  0  0  0  # atno 17343 bound_to 10162
  157.4938  131.0913  151.0396 LP  0  0  0  0  0  0  0  0  0  0  0  0  # atno 17370 bound_to 10713
  157.0795  130.5897  149.5418 LP  0  0  0  0  0  0  0  0  0  0  0  0  # atno 17371 bound_to 10713
  139.9492  135.0178  156.8943 LP  0  0  0  0  0  0  0  0  0  0  0  0  # atno 17394 bound_to 11000
  140.5740  134.0416  155.7440 LP  0  0  0  0  0  0  0  0  0  0  0  0  # atno 17395 bound_to 11000

$$$$
