#       Name:                AV-unprocessed.smi:460
#       Creating user name   scv26
#       Creation time:       Thu Mar 26 23:03:08 2020


#       File generated by GOLD software.
#

@<TRIPOS>MOLECULE
AV-unprocessed.smi:460
    53    55     1
SMALL
NO_CHARGES


@<TRIPOS>ATOM
      1 ****        -0.6144   2.5921  -4.6940 C.3            1 S1                 0.0000
      2 ****         0.5881   2.6417  -3.7381 C.3            1 S1                 0.0000
      3 ****         0.2313   2.5864  -2.2369 C.3            1 S1                 0.0000
      4 ****        -0.4271   3.7883  -1.8855 O.3            1 S1                 0.0000
      5 ****        -0.5578   1.3617  -1.8517 C.2            1 S1                 0.0000
      6 ****        -1.8935   1.3439  -1.8425 N.2            1 S1                 0.0000
      7 ****        -2.1825   0.0532  -1.4480 C.ar           1 S1                 0.0000
      8 ****        -3.4249  -0.5858  -1.2349 C.ar           1 S1                 0.0000
      9 ****        -3.4729  -1.9327  -0.8193 C.ar           1 S1                 0.0000
     10 ****        -2.2820  -2.6590  -0.6146 C.ar           1 S1                 0.0000
     11 ****        -1.0344  -2.0419  -0.8261 C.ar           1 S1                 0.0000
     12 ****        -0.9916  -0.6959  -1.2367 C.ar           1 S1                 0.0000
     13 ****         0.0444   0.1922  -1.5132 N.pl3          1 S1                 0.0000
     14 ****         1.4689  -0.1043  -1.4290 C.3            1 S1                 0.0000
     15 ****         2.0206   0.1277  -0.0145 C.3            1 S1                 0.0000
     16 ****         1.2852  -0.6796   0.8936 O.3            1 S1                 0.0000
     17 ****         1.5377  -0.5700   2.2432 C.ar           1 S1                 0.0000
     18 ****         2.5876   0.2115   2.7862 C.ar           1 S1                 0.0000
     19 ****         2.7845   0.2698   4.1780 C.ar           1 S1                 0.0000
     20 ****         1.9369  -0.4492   5.0384 C.ar           1 S1                 0.0000
     21 ****         0.8912  -1.2269   4.5083 C.ar           1 S1                 0.0000
     22 ****         0.6842  -1.2934   3.1072 C.ar           1 S1                 0.0000
     23 ****        -0.3201  -2.0313   2.5146 O.3            1 S1                 0.0000
     24 ****        -1.2303  -2.7270   3.3524 C.3            1 S1                 0.0000
     25 ****        -0.2861   2.6810  -5.7297 H              1 S1                 0.0000
     26 ****        -1.3119   3.4067  -4.4978 H              1 S1                 0.0000
     27 ****        -1.1598   1.6525  -4.6043 H              1 S1                 0.0000
     28 ****         1.2487   1.8090  -3.9798 H              1 S1                 0.0000
     29 ****         1.1660   3.5450  -3.9375 H              1 S1                 0.0000
     30 ****         1.1570   2.5931  -1.6620 H              1 S1                 0.0000
     31 ****        -0.6015   3.7725  -0.9570 H              1 S1                 0.0000
     32 ****        -4.3425  -0.0372  -1.3877 H              1 S1                 0.0000
     33 ****        -4.4277  -2.4105  -0.6555 H              1 S1                 0.0000
     34 ****        -2.3260  -3.6891  -0.2928 H              1 S1                 0.0000
     35 ****        -0.1206  -2.5939  -0.6639 H              1 S1                 0.0000
     36 ****         1.6209  -1.1444  -1.7191 H              1 S1                 0.0000
     37 ****         2.0157   0.4935  -2.1569 H              1 S1                 0.0000
     38 ****         3.0786  -0.1356   0.0154 H              1 S1                 0.0000
     39 ****         1.9250   1.1816   0.2511 H              1 S1                 0.0000
     40 ****         3.2582   0.7731   2.1538 H              1 S1                 0.0000
     41 ****         3.5876   0.8661   4.5852 H              1 S1                 0.0000
     42 ****         2.0889  -0.4052   6.1070 H              1 S1                 0.0000
     43 ****         0.2611  -1.7659   5.1990 H              1 S1                 0.0000
     44 ****        -1.9695  -3.2352   2.7332 H              1 S1                 0.0000
     45 ****        -1.7668  -2.0440   4.0123 H              1 S1                 0.0000
     46 ****        -0.7225  -3.4854   3.9497 H              1 S1                 0.0000
     47 ****        -1.2877   3.8618  -2.3895 LP             1 S1                 0.0000
     48 ****         0.1562   4.5699  -2.1063 LP             1 S1                 0.0000
     49 ****        -2.5280   2.0838  -2.0664 LP             1 S1                 0.0000
     50 ****         1.4538  -1.6323   0.6408 LP             1 S1                 0.0000
     51 ****         0.3178  -0.4651   0.7586 LP             1 S1                 0.0000
     52 ****         0.1194  -2.7107   1.9270 LP             1 S1                 0.0000
     53 ****        -0.8572  -1.4021   1.9527 LP             1 S1                 0.0000
@<TRIPOS>BOND
    1    1    2 1     
    2    1   25 1     
    3    1   26 1     
    4    1   27 1     
    5    2    3 1     
    6    2   28 1     
    7    2   29 1     
    8    3    4 1     
    9    3    5 1     
   10    3   30 1     
   11    4   31 1     
   12    5   13 1     
   13    5    6 2     
   14    6    7 1     
   15    7   12 ar    
   16    7    8 ar    
   17    8    9 ar    
   18    8   32 1     
   19    9   10 ar    
   20    9   33 1     
   21   10   11 ar    
   22   10   34 1     
   23   11   12 ar    
   24   11   35 1     
   25   12   13 1     
   26   13   14 1     
   27   14   15 1     
   28   14   36 1     
   29   14   37 1     
   30   15   16 1     
   31   15   38 1     
   32   15   39 1     
   33   16   17 1     
   34   17   22 ar    
   35   17   18 ar    
   36   18   19 ar    
   37   18   40 1     
   38   19   20 ar    
   39   19   41 1     
   40   20   21 ar    
   41   20   42 1     
   42   21   22 ar    
   43   21   43 1     
   44   22   23 1     
   45   23   24 1     
   46   24   44 1     
   47   24   45 1     
   48   24   46 1     
   49    4   47 1     
   50    4   48 1     
   51    6   49 1     
   52   16   50 1     
   53   16   51 1     
   54   23   52 1     
   55   23   53 1     
@<TRIPOS>SUBSTRUCTURE
      1 S1             1
@<TRIPOS>SET
LONE_PAIRS      STATIC     ATOMS    <user>   **** ""
7 47 48 49 50 51 52 53
DONOR_HYDROGENS      STATIC     ATOMS    <user>   **** ""
1 31
ATOM$BLUE        STATIC     ATOMS    COLORGROUP SYSTEM
7 47 48 49 50 51 52 53
ATOM$RED        STATIC     ATOMS    COLORGROUP SYSTEM
1 31
