AV-unprocessed.smi:261|AV-procd|sdf|1986|dock10
  -GOLD-   2262021163D 1   1.00000     0.00000
 Structure written by MMmdl.
 51 54  0  0  0  0  0  0  0  0  1 V2000
  147.7603  133.0084  152.7384 C   0  0  0  0  0  0  0  0  0  0  0  0
  148.3647  132.5182  153.9248 O   0  0  0  0  0  0  0  0  0  0  0  0
  149.7248  132.9045  154.0817 C   0  0  2  0  0  0  0  0  0  0  0  0
  150.3513  132.3126  155.3516 C   0  0  0  0  0  0  0  0  0  0  0  0
  149.9432  133.2716  156.4814 C   0  0  2  0  0  0  0  0  0  0  0  0
  148.6259  132.8313  157.1564 C   0  0  0  0  0  0  0  0  0  0  0  0
  147.5685  133.6490  157.1080 N   0  0  0  0  0  0  0  0  0  0  0  0
  148.5715  131.7473  157.7328 O   0  0  0  0  0  0  0  0  0  0  0  0
  149.8693  134.5634  155.7975 N   0  0  0  0  0  0  0  0  0  0  0  0
  149.9400  135.7826  156.4012 C   0  0  0  0  0  0  0  0  0  0  0  0
  149.2215  135.9661  157.5411 N   0  0  0  0  0  0  0  0  0  0  0  0
  149.2509  137.1330  158.1892 C   0  0  0  0  0  0  0  0  0  0  0  0
  149.9252  138.2398  157.8801 N   0  0  0  0  0  0  0  0  0  0  0  0
  150.6508  138.0709  156.7387 C   0  0  0  0  0  0  0  0  0  0  0  0
  150.7159  136.8907  155.9411 C   0  0  0  0  0  0  0  0  0  0  0  0
  151.5635  137.1150  154.8606 N   0  0  0  0  0  0  0  0  0  0  0  0
  151.9813  138.3403  155.0169 C   0  0  0  0  0  0  0  0  0  0  0  0
  151.4878  138.9863  156.1252 N   0  0  0  0  0  0  0  0  0  0  0  0
  151.7930  140.3409  156.5540 C   0  0  0  0  0  0  0  0  0  0  0  0
  150.7344  140.9538  157.4987 C   0  0  2  0  0  0  0  0  0  0  0  0
  149.5021  141.1268  156.8255 O   0  0  0  0  0  0  0  0  0  0  0  0
  151.1585  142.2661  158.1989 C   0  0  2  0  0  0  0  0  0  0  0  0
  151.4216  143.4621  157.2845 C   0  0  0  0  0  0  0  0  0  0  0  0
  152.2843  144.3703  158.1484 C   0  0  0  0  0  0  0  0  0  0  0  0
  152.7923  143.4594  159.2725 C   0  0  0  0  0  0  0  0  0  0  0  0
  152.3754  142.1484  158.9189 O   0  0  0  0  0  0  0  0  0  0  0  0
  149.7647  134.4130  154.3491 C   0  0  0  0  0  0  0  0  0  0  0  0
  150.2939  132.6560  153.1843 H   0  0  0  0  0  0  0  0  0  0  0  0
  150.7349  133.2727  157.2302 H   0  0  0  0  0  0  0  0  0  0  0  0
  146.7205  132.6841  152.7014 H   0  0  0  0  0  0  0  0  0  0  0  0
  148.2562  132.6332  151.8434 H   0  0  0  0  0  0  0  0  0  0  0  0
  147.7707  134.0989  152.7129 H   0  0  0  0  0  0  0  0  0  0  0  0
  150.0739  131.2744  155.5354 H   0  0  0  0  0  0  0  0  0  0  0  0
  151.4374  132.3311  155.2498 H   0  0  0  0  0  0  0  0  0  0  0  0
  146.7016  133.3767  157.5486 H   0  0  0  0  0  0  0  0  0  0  0  0
  147.6433  134.5375  156.6344 H   0  0  0  0  0  0  0  0  0  0  0  0
  148.6492  137.1861  159.0844 H   0  0  0  0  0  0  0  0  0  0  0  0
  152.6719  138.8056  154.3289 H   0  0  0  0  0  0  0  0  0  0  0  0
  152.7717  140.3357  157.0354 H   0  0  0  0  0  0  0  0  0  0  0  0
  151.8958  140.9662  155.6665 H   0  0  0  0  0  0  0  0  0  0  0  0
  150.5432  140.2181  158.2805 H   0  0  0  0  0  0  0  0  0  0  0  0
  149.3329  140.3560  156.3059 H   0  0  0  0  0  0  0  0  0  0  0  0
  150.3805  142.5416  158.9141 H   0  0  0  0  0  0  0  0  0  0  0  0
  151.9868  143.1616  156.4017 H   0  0  0  0  0  0  0  0  0  0  0  0
  150.5033  143.9435  156.9474 H   0  0  0  0  0  0  0  0  0  0  0  0
  153.1041  144.7981  157.5704 H   0  0  0  0  0  0  0  0  0  0  0  0
  151.7002  145.1934  158.5612 H   0  0  0  0  0  0  0  0  0  0  0  0
  153.8753  143.5029  159.3892 H   0  0  0  0  0  0  0  0  0  0  0  0
  152.3369  143.7337  160.2251 H   0  0  0  0  0  0  0  0  0  0  0  0
  150.6500  134.8513  153.8858 H   0  0  0  0  0  0  0  0  0  0  0  0
  148.8862  134.9202  153.9472 H   0  0  0  0  0  0  0  0  0  0  0  0
  1  2  1  0  0  0  0
  1 30  1  0  0  0  0
  1 31  1  0  0  0  0
  1 32  1  0  0  0  0
  2  3  1  0  0  0  0
  3 28  1  0  0  0  0
  3 27  1  0  0  0  0
  3  4  1  0  0  0  0
  4  5  1  0  0  0  0
  4 33  1  0  0  0  0
  4 34  1  0  0  0  0
  5 29  1  0  0  0  0
  5  6  1  0  0  0  0
  5  9  1  0  0  0  0
  6  7  1  0  0  0  0
  6  8  2  0  0  0  0
  7 35  1  0  0  0  0
  7 36  1  0  0  0  0
  9 10  1  0  0  0  0
  9 27  1  0  0  0  0
 10 15  1  0  0  0  0
 10 11  2  0  0  0  0
 11 12  1  0  0  0  0
 12 13  2  0  0  0  0
 12 37  1  0  0  0  0
 13 14  1  0  0  0  0
 14 18  1  0  0  0  0
 14 15  2  0  0  0  0
 15 16  1  0  0  0  0
 16 17  2  0  0  0  0
 17 18  1  0  0  0  0
 17 38  1  0  0  0  0
 18 19  1  0  0  0  0
 19 20  1  0  0  0  0
 19 39  1  0  0  0  0
 19 40  1  0  0  0  0
 20 21  1  0  0  0  0
 20 22  1  0  0  0  0
 20 41  1  0  0  0  0
 21 42  1  0  0  0  0
 22 26  1  0  0  0  0
 22 23  1  0  0  0  0
 22 43  1  0  0  0  0
 23 24  1  0  0  0  0
 23 44  1  0  0  0  0
 23 45  1  0  0  0  0
 24 25  1  0  0  0  0
 24 46  1  0  0  0  0
 24 47  1  0  0  0  0
 25 26  1  0  0  0  0
 25 48  1  0  0  0  0
 25 49  1  0  0  0  0
 27 50  1  0  0  0  0
 27 51  1  0  0  0  0
M  END
> <s_m_source_file>
AV-unprocessed.smi

> <i_m_source_file_index>
261

> <i_lp_mmshare_version>
43012

> <i_f3d_flags>
0

> <s_epik_input>
W0NIM11PW0NASF0xW0NIMl1bQ0BASF0oQyg9TylbTkgyXSlOKFtDSDJdMSljKG5bY0hdbjIpYyhjMjMpbltjSF1uM1tDSDJdW0NASF0oW09IXSlbQ0BASF00W0NIMl1bQ0gyXVtDSDJdTzQ=

> <s_epik_cmdline>
J2VwaWtfcHl0aG9uJywgJy1waCcsICc3LjAnLCAnLXRuJywgJzgnLCAnLW1hJywgJzIwMCcsICctbWV0YWxfYmluZGluZycsICctaW1hZScsICc8aW5maWxlLm1hZT4nLCAnLW9tYWUnLCAnPG91dGZpbGUubWFlPic=

> <r_lp_tautomer_probability>
1

> <r_epik_Ionization_Penalty>
0.000713824

> <r_epik_Ionization_Penalty_Charging>
0

> <r_epik_Ionization_Penalty_Neutral>
0.000713824

> <r_epik_State_Penalty>
0.000402132

> <r_epik_Charging_Adjusted_Penalty>
0.000402132

> <i_epik_Tot_Q>
0

> <i_epik_Tot_abs_Q>
0

> <r_epik_Metal_State_Penalty>
-0

> <b_epik_Metal_Only>
0

> <s_lp_Force_Field>
OPLS_2005

> <r_lp_Energy>
46.7805

> <b_lp_Chiralities_Consistent>
1

> <s_lp_Variant>
AV-unprocessed.smi:261-4

> <Gold.Version>
5.8.1

> <Gold.Id.Protein>
6NUR|6NUR_protein|mol2

> <Gold.PLP.Fitness>
43.7812

> <Gold.PLP.PLP>
-40.6905

> <Gold.PLP.part.hbond>
-2.0000

> <Gold.PLP.part.metal>
0.0000

> <Gold.PLP.part.buried>
-7.1227

> <Gold.PLP.part.nonpolar>
-32.9759

> <Gold.PLP.part.repulsive>
0.2106

> <Gold.PLP.ligand.clash>
0.0000

> <Gold.PLP.ligand.torsion>
1.0905

> <Gold.PLP.Chemscore.Hbond>
1.7287

> <Gold.PLP.Chemscore.CHOScore>
0.0000

> <Gold.PLP.Chemscore.Metal>
0.0000

> <Gold.Chemscore.Hbonds>
donor molecule, donor type, donor heavy atom, donor atom, acceptor molecule, acceptor atom, score
      P1  H 10752 10765       L1    16  0.93

> <Gold.PLP.Chemscore.Internal.Correction>
0.0858

> <Gold.Rescore>
     Score         DG    S(hbond)    S(metal)    S(lipo)     H(rot)  DE(clash)    DE(int)     intcor
      8.25     -11.84       1.21        0.00      89.39       3.18       0.03       3.56       ----

> <Gold.Chemscore.Fitness>
8.2545

> <Gold.Chemscore.DG>
-11.8408

> <Gold.Chemscore.ZeroCoef>
-5.4800

> <Gold.Chemscore.Hbond>
1.2128

> <Gold.Chemscore.Metal>
0.0000

> <Gold.Chemscore.Lipo>
89.3891

> <Gold.Chemscore.Internal_Hbond>
0.0000

> <Gold.Chemscore.DEClash>
0.0260

> <Gold.Chemscore.DEInternal>
3.5603

> <Gold.Chemscore.Rot>
3.1831

> <Gold.Chemscore.Internal.Correction>
   9.000000E+99

> <Gold.Chemscore.Hbonds>
donor molecule, donor type, donor heavy atom, donor atom, acceptor molecule, acceptor atom, score
      P1  H 10752 10765       L1    16  0.75

> <Gold.Chemscore.Hbond.Weighted>
-4.0509

> <Gold.Chemscore.Metal.Weighted>
-0.0000

> <Gold.Chemscore.Lipo.Weighted>
-10.4585

> <Gold.Chemscore.Internal_Hbond.Weighted>
0.0000

> <Gold.Chemscore.DEClash.Weighted>
0.0260

> <Gold.Chemscore.DEInternal.Weighted>
3.5603

> <Gold.Chemscore.Rot.Weighted>
8.1486

> <Gold.Chemscore.Internal.Correction.Weighted>
   9.000000E+99

> <Gold.Protein.RotatedTorsions>
[ 6907 6896 6895 6894 ] final  -74.22 input  -60.11 | X-H torsion
[ 7974 7965 7964 7962 ] final   12.41 input  175.53 | X-H torsion
[ 8008 7997 7996 7995 ] final  152.38 input   59.86 | X-H torsion
[ 10167 10162 10161 10158 ] final -116.16 input  -65.29 | X-H torsion
[ 10718 10713 10712 10709 ] final -169.63 input   66.30 | X-H torsion
[ 10763 10752 10751 10750 ] final  178.78 input  -60.55 | X-H torsion
[ 11005 11000 10999 10996 ] final  -47.39 input  -57.11 | X-H torsion

> <Gold.Protein.ActiveResidues>
 VAL166  LYS551  ARG553  GLY616  TRP617  ASP618  TYR619  PRO620  LYS621  CYS622 
 ASP623  PHE694  ASN695  SER759  ASP760  ASP761  ALA762  ILE779  LEU786  VAL792 
 PHE793  MET794  SER795  GLU796  ALA797  LYS798  CYS799  TRP800  GLU811  SER814 

> <Gold.Protein.RotatedAtoms>
  150.7101  134.4901  159.5511 H   0  0  0  0  0  0  0  0  0  0  0  0  # atno 6907 bound_to 6896
  152.2520  134.8120  160.0453 H   0  0  0  0  0  0  0  0  0  0  0  0  # atno 6908 bound_to 6896
  151.8864  133.3471  159.3820 H   0  0  0  0  0  0  0  0  0  0  0  0  # atno 6909 bound_to 6896
  146.2352  139.9341  142.8492 H   0  0  0  0  0  0  0  0  0  0  0  0  # atno 7974 bound_to 7965
  156.2631  140.2022  156.6325 H   0  0  0  0  0  0  0  0  0  0  0  0  # atno 8008 bound_to 7997
  154.6672  140.0554  157.0151 H   0  0  0  0  0  0  0  0  0  0  0  0  # atno 8009 bound_to 7997
  155.1190  140.3223  155.4505 H   0  0  0  0  0  0  0  0  0  0  0  0  # atno 8010 bound_to 7997
  140.0822  143.4777  152.1919 H   0  0  0  0  0  0  0  0  0  0  0  0  # atno 10167 bound_to 10162
  156.7144  130.9246  151.3092 H   0  0  0  0  0  0  0  0  0  0  0  0  # atno 10718 bound_to 10713
  154.5122  135.2789  155.1333 H   0  0  0  0  0  0  0  0  0  0  0  0  # atno 10763 bound_to 10752
  154.2924  135.6264  153.5394 H   0  0  0  0  0  0  0  0  0  0  0  0  # atno 10764 bound_to 10752
  152.9921  135.5677  154.5590 H   0  0  0  0  0  0  0  0  0  0  0  0  # atno 10765 bound_to 10752
  141.0637  133.6700  156.3290 H   0  0  0  0  0  0  0  0  0  0  0  0  # atno 11005 bound_to 11000
  145.2016  140.9857  143.4152 LP  0  0  0  0  0  0  0  0  0  0  0  0  # atno 17320 bound_to 7965
  144.9769  139.3823  143.6281 LP  0  0  0  0  0  0  0  0  0  0  0  0  # atno 17321 bound_to 7965
  139.5773  144.7493  151.3732 LP  0  0  0  0  0  0  0  0  0  0  0  0  # atno 17342 bound_to 10162
  140.7072  143.7484  150.7502 LP  0  0  0  0  0  0  0  0  0  0  0  0  # atno 17343 bound_to 10162
  157.6923  130.9246  150.0548 LP  0  0  0  0  0  0  0  0  0  0  0  0  # atno 17370 bound_to 10713
  156.1638  130.3644  149.9261 LP  0  0  0  0  0  0  0  0  0  0  0  0  # atno 17371 bound_to 10713
  140.5816  134.5740  157.5480 LP  0  0  0  0  0  0  0  0  0  0  0  0  # atno 17394 bound_to 11000
  139.9457  134.7707  156.0569 LP  0  0  0  0  0  0  0  0  0  0  0  0  # atno 17395 bound_to 11000

$$$$
