AV-unprocessed.smi:1093|AV-procd|sdf|4743|dock5
  -GOLD-   22720 3273D 1   1.00000     0.00000
 Structure written by MMmdl.
 47 48  0  0  0  0  0  0  0  0  2 V2000
  144.8206  133.5052  150.8574 C   0  0  0  0  0  0  0  0  0  0  0  0
  145.6937  134.7499  151.0732 C   0  0  0  0  0  0  0  0  0  0  0  0
  146.7420  134.5321  152.1009 N   0  3  2  0  0  0  0  0  0  0  0  0
  147.4854  133.2617  151.8946 C   0  0  0  0  0  0  0  0  0  0  0  0
  148.6625  133.1387  152.8784 C   0  0  0  0  0  0  0  0  0  0  0  0
  148.1971  133.2972  154.3363 C   0  0  0  0  0  0  0  0  0  0  0  0
  147.3864  134.5930  154.5179 C   0  0  1  0  0  0  0  0  0  0  0  0
  148.2686  135.7537  154.3869 N   0  0  0  0  0  0  0  0  0  0  0  0
  148.6125  136.5851  155.3809 C   0  0  0  0  0  0  0  0  0  0  0  0
  148.2194  136.4534  156.5392 O   0  0  0  0  0  0  0  0  0  0  0  0
  149.4367  137.5514  154.9421 N   0  0  0  0  0  0  0  0  0  0  0  0
  149.9601  138.6638  155.6555 C   0  0  0  0  0  0  0  0  0  0  0  0
  150.4595  139.8405  155.0511 C   0  0  0  0  0  0  0  0  0  0  0  0
  150.9760  140.8635  155.8692 C   0  0  0  0  0  0  0  0  0  0  0  0
  150.9900  140.6897  157.2755 C   0  0  0  0  0  0  0  0  0  0  0  0
  151.5003  141.6873  158.1374 N   0  0  0  0  0  0  0  0  0  0  0  0
  152.0759  141.3106  159.4247 C   0  0  0  0  0  0  0  0  0  0  0  0
  151.4614  143.0894  157.7409 C   0  0  0  0  0  0  0  0  0  0  0  0
  150.5184  139.5547  157.8471 N   0  0  0  0  0  0  0  0  0  0  0  0
  150.0247  138.5769  157.0598 C   0  0  0  0  0  0  0  0  0  0  0  0
  146.2300  134.6303  153.4935 C   0  0  0  0  0  0  0  0  0  0  0  0
  144.0057  133.7246  150.1672 H   0  0  0  0  0  0  0  0  0  0  0  0
  144.3764  133.1683  151.7945 H   0  0  0  0  0  0  0  0  0  0  0  0
  145.3846  132.6742  150.4355 H   0  0  0  0  0  0  0  0  0  0  0  0
  146.1475  135.0724  150.1351 H   0  0  0  0  0  0  0  0  0  0  0  0
  145.0387  135.5609  151.3939 H   0  0  0  0  0  0  0  0  0  0  0  0
  146.8042  132.4176  152.0141 H   0  0  0  0  0  0  0  0  0  0  0  0
  147.8683  133.2178  150.8743 H   0  0  0  0  0  0  0  0  0  0  0  0
  149.1544  132.1742  152.7493 H   0  0  0  0  0  0  0  0  0  0  0  0
  149.4121  133.8959  152.6454 H   0  0  0  0  0  0  0  0  0  0  0  0
  147.5768  132.4425  154.6098 H   0  0  0  0  0  0  0  0  0  0  0  0
  149.0534  133.2815  155.0117 H   0  0  0  0  0  0  0  0  0  0  0  0
  146.9689  134.5990  155.5265 H   0  0  0  0  0  0  0  0  0  0  0  0
  148.6546  135.9292  153.4705 H   0  0  0  0  0  0  0  0  0  0  0  0
  149.7480  137.4706  153.9851 H   0  0  0  0  0  0  0  0  0  0  0  0
  150.4734  139.9769  153.9814 H   0  0  0  0  0  0  0  0  0  0  0  0
  151.3555  141.7583  155.3995 H   0  0  0  0  0  0  0  0  0  0  0  0
  152.9208  140.6357  159.2838 H   0  0  0  0  0  0  0  0  0  0  0  0
  151.3318  140.8100  160.0450 H   0  0  0  0  0  0  0  0  0  0  0  0
  152.4343  142.1826  159.9719 H   0  0  0  0  0  0  0  0  0  0  0  0
  152.0360  143.2455  156.8273 H   0  0  0  0  0  0  0  0  0  0  0  0
  151.8838  143.7325  158.5130 H   0  0  0  0  0  0  0  0  0  0  0  0
  150.4339  143.4107  157.5675 H   0  0  0  0  0  0  0  0  0  0  0  0
  149.6685  137.6949  157.5717 H   0  0  0  0  0  0  0  0  0  0  0  0
  145.6513  135.5435  153.6246 H   0  0  0  0  0  0  0  0  0  0  0  0
  145.5393  133.8068  153.6827 H   0  0  0  0  0  0  0  0  0  0  0  0
  147.4145  135.2761  151.9820 H   0  0  0  0  0  0  0  0  0  0  0  0
  1  2  1  0  0  0  0
  1 22  1  0  0  0  0
  1 23  1  0  0  0  0
  1 24  1  0  0  0  0
  2  3  1  0  0  0  0
  2 25  1  0  0  0  0
  2 26  1  0  0  0  0
  3 21  1  0  0  0  0
  3  4  1  0  0  0  0
  3 47  1  0  0  0  0
  4  5  1  0  0  0  0
  4 27  1  0  0  0  0
  4 28  1  0  0  0  0
  5  6  1  0  0  0  0
  5 29  1  0  0  0  0
  5 30  1  0  0  0  0
  6  7  1  0  0  0  0
  6 31  1  0  0  0  0
  6 32  1  0  0  0  0
  7  8  1  0  0  0  0
  7 21  1  0  0  0  0
  7 33  1  0  0  0  0
  8  9  1  0  0  0  0
  8 34  1  0  0  0  0
  9 10  2  0  0  0  0
  9 11  1  0  0  0  0
 11 12  1  0  0  0  0
 11 35  1  0  0  0  0
 12 20  1  0  0  0  0
 12 13  2  0  0  0  0
 13 14  1  0  0  0  0
 13 36  1  0  0  0  0
 14 15  2  0  0  0  0
 14 37  1  0  0  0  0
 15 16  1  0  0  0  0
 15 19  1  0  0  0  0
 16 17  1  0  0  0  0
 16 18  1  0  0  0  0
 17 38  1  0  0  0  0
 17 39  1  0  0  0  0
 17 40  1  0  0  0  0
 18 41  1  0  0  0  0
 18 42  1  0  0  0  0
 18 43  1  0  0  0  0
 19 20  2  0  0  0  0
 20 44  1  0  0  0  0
 21 45  1  0  0  0  0
 21 46  1  0  0  0  0
M  CHG  1   3   1
M  END
> <s_m_source_file>
AV-unprocessed.smi

> <i_m_source_file_index>
1093

> <i_lp_mmshare_version>
43012

> <i_f3d_flags>
0

> <s_epik_input>
W0NIM11bQ0gyXU4xW0NIMl1bQ0gyXVtDSDJdW0NASF0oW0NIMl0xKVtOSF1DKD1PKVtOSF1jMltjSF1bY0hdYyhOKFtDSDNdKVtDSDNdKW5bY0hdMg==

> <s_epik_cmdline>
J2VwaWtfcHl0aG9uJywgJy1waCcsICc3LjAnLCAnLXRuJywgJzgnLCAnLW1hJywgJzIwMCcsICctbWV0YWxfYmluZGluZycsICctaW1hZScsICc8aW5maWxlLm1hZT4nLCAnLW9tYWUnLCAnPG91dGZpbGUubWFlPic=

> <r_lp_tautomer_probability>
1

> <r_epik_Ionization_Penalty>
0.489418

> <r_epik_Ionization_Penalty_Charging>
0.00268196

> <r_epik_Ionization_Penalty_Neutral>
0.486736

> <r_epik_State_Penalty>
0.491157

> <r_epik_Charging_Adjusted_Penalty>
0.493839

> <i_epik_Tot_Q>
1

> <i_epik_Tot_abs_Q>
1

> <r_epik_Metal_State_Penalty>
0.266953

> <b_epik_Metal_Only>
0

> <s_lp_Force_Field>
OPLS_2005

> <r_lp_Energy>
27.714

> <b_lp_Chiralities_Consistent>
1

> <s_lp_Variant>
AV-unprocessed.smi:1093-6

> <Gold.Version>
5.8.1

> <Gold.Id.Protein>
6NUR|6NUR_protein|mol2

> <Gold.PLP.Fitness>
38.5063

> <Gold.PLP.PLP>
-30.7201

> <Gold.PLP.part.hbond>
-2.0000

> <Gold.PLP.part.metal>
0.0000

> <Gold.PLP.part.buried>
-3.0708

> <Gold.PLP.part.nonpolar>
-24.9319

> <Gold.PLP.part.repulsive>
0.0323

> <Gold.PLP.ligand.clash>
0.0000

> <Gold.PLP.ligand.torsion>
0.6168

> <Gold.PLP.Chemscore.Hbond>
3.0000

> <Gold.PLP.Chemscore.CHOScore>
0.0000

> <Gold.PLP.Chemscore.Metal>
0.0000

> <Gold.Chemscore.Hbonds>
donor molecule, donor type, donor heavy atom, donor atom, acceptor molecule, acceptor atom, score
      L1  H     3    47       P1  7948  2.00
      L1  H     8    34       P1  7948  1.00

> <Gold.PLP.Chemscore.Internal.Correction>
0.0200

> <Gold.Rescore>
     Score         DG    S(hbond)    S(metal)    S(lipo)     H(rot)  DE(clash)    DE(int)     intcor
     15.80     -17.76       1.98        0.00      74.21       1.18       0.05       1.91       ----

> <Gold.Chemscore.Fitness>
15.8021

> <Gold.Chemscore.DG>
-17.7603

> <Gold.Chemscore.ZeroCoef>
-5.4800

> <Gold.Chemscore.Hbond>
1.9849

> <Gold.Chemscore.Metal>
0.0000

> <Gold.Chemscore.Lipo>
74.2078

> <Gold.Chemscore.Internal_Hbond>
0.0000

> <Gold.Chemscore.DEClash>
0.0485

> <Gold.Chemscore.DEInternal>
1.9097

> <Gold.Chemscore.Rot>
1.1842

> <Gold.Chemscore.Internal.Correction>
   9.000000E+99

> <Gold.Chemscore.Hbonds>
donor molecule, donor type, donor heavy atom, donor atom, acceptor molecule, acceptor atom, score
      L1  H     3    47       P1  7948  0.99
      L1  H     8    34       P1  7948  1.00

> <Gold.Chemscore.Hbond.Weighted>
-6.6297

> <Gold.Chemscore.Metal.Weighted>
-0.0000

> <Gold.Chemscore.Lipo.Weighted>
-8.6823

> <Gold.Chemscore.Internal_Hbond.Weighted>
0.0000

> <Gold.Chemscore.DEClash.Weighted>
0.0485

> <Gold.Chemscore.DEInternal.Weighted>
1.9097

> <Gold.Chemscore.Rot.Weighted>
3.0317

> <Gold.Chemscore.Internal.Correction.Weighted>
   9.000000E+99

> <Gold.Protein.RotatedTorsions>
[ 6907 6896 6895 6894 ] final   49.89 input  -60.11 | X-H torsion
[ 7974 7965 7964 7962 ] final   68.33 input  175.53 | X-H torsion
[ 8008 7997 7996 7995 ] final  -46.31 input   59.86 | X-H torsion
[ 10167 10162 10161 10158 ] final   63.74 input  -65.29 | X-H torsion
[ 10718 10713 10712 10709 ] final  148.02 input   66.30 | X-H torsion
[ 10763 10752 10751 10750 ] final   90.63 input  -60.55 | X-H torsion
[ 11005 11000 10999 10996 ] final  -90.75 input  -57.11 | X-H torsion

> <Gold.Protein.ActiveResidues>
 VAL166  LYS551  ARG553  GLY616  TRP617  ASP618  TYR619  PRO620  LYS621  CYS622 
 ASP623  PHE694  ASN695  SER759  ASP760  ASP761  ALA762  ILE779  LEU786  VAL792 
 PHE793  MET794  SER795  GLU796  ALA797  LYS798  CYS799  TRP800  GLU811  SER814 

> <Gold.Protein.RotatedAtoms>
  152.2957  134.7669  160.0368 H   0  0  0  0  0  0  0  0  0  0  0  0  # atno 6907 bound_to 6896
  151.8200  133.3388  159.3589 H   0  0  0  0  0  0  0  0  0  0  0  0  # atno 6908 bound_to 6896
  150.7250  134.5512  159.5840 H   0  0  0  0  0  0  0  0  0  0  0  0  # atno 6909 bound_to 6896
  145.8039  139.2996  143.1139 H   0  0  0  0  0  0  0  0  0  0  0  0  # atno 7974 bound_to 7965
  154.4006  140.1375  156.3990 H   0  0  0  0  0  0  0  0  0  0  0  0  # atno 8008 bound_to 7997
  155.7842  140.3480  155.5293 H   0  0  0  0  0  0  0  0  0  0  0  0  # atno 8009 bound_to 7997
  155.8643  140.0961  157.1583 H   0  0  0  0  0  0  0  0  0  0  0  0  # atno 8010 bound_to 7997
  140.1297  144.4654  150.6872 H   0  0  0  0  0  0  0  0  0  0  0  0  # atno 10167 bound_to 10162
  157.3138  131.0892  151.1295 H   0  0  0  0  0  0  0  0  0  0  0  0  # atno 10718 bound_to 10713
  153.1997  135.4427  155.0251 H   0  0  0  0  0  0  0  0  0  0  0  0  # atno 10763 bound_to 10752
  154.8139  135.3306  154.7232 H   0  0  0  0  0  0  0  0  0  0  0  0  # atno 10764 bound_to 10752
  153.7678  135.6987  153.4968 H   0  0  0  0  0  0  0  0  0  0  0  0  # atno 10765 bound_to 10752
  141.1559  133.7712  156.9782 H   0  0  0  0  0  0  0  0  0  0  0  0  # atno 11005 bound_to 11000
  145.9849  140.8651  143.0095 LP  0  0  0  0  0  0  0  0  0  0  0  0  # atno 17320 bound_to 7965
  144.6765  140.2133  143.7374 LP  0  0  0  0  0  0  0  0  0  0  0  0  # atno 17321 bound_to 7965
  140.6824  143.2333  151.5350 LP  0  0  0  0  0  0  0  0  0  0  0  0  # atno 17342 bound_to 10162
  139.5526  144.2357  152.1556 LP  0  0  0  0  0  0  0  0  0  0  0  0  # atno 17343 bound_to 10162
  157.2607  130.6657  149.5973 LP  0  0  0  0  0  0  0  0  0  0  0  0  # atno 17370 bound_to 10713
  155.9680  130.4509  150.5717 LP  0  0  0  0  0  0  0  0  0  0  0  0  # atno 17371 bound_to 10713
  140.1083  134.9492  157.2027 LP  0  0  0  0  0  0  0  0  0  0  0  0  # atno 17394 bound_to 11000
  140.3227  134.2898  155.7243 LP  0  0  0  0  0  0  0  0  0  0  0  0  # atno 17395 bound_to 11000

$$$$
