AV-unprocessed.smi:2451|AV-procd|sdf|9684|dock10
  -GOLD-   2272013323D 1   1.00000     0.00000
 Structure written by MMmdl.
 37 38  0  0  0  0  0  0  0  0  2 V2000
  152.8791  143.8421  162.6667 C   0  0  0  0  0  0  0  0  0  0  0  0
  152.2300  143.6321  161.2862 C   0  0  1  0  0  0  0  0  0  0  0  0
  152.0002  145.0120  160.6193 C   0  0  0  0  0  0  0  0  0  0  0  0
  151.3656  144.8438  159.2254 C   0  0  0  0  0  0  0  0  0  0  0  0
  152.1794  143.8944  158.3124 C   0  0  0  0  0  0  0  0  0  0  0  0
  152.4421  142.5019  158.9343 C   0  0  2  0  0  0  0  0  0  0  0  0
  151.1947  141.7469  158.9853 N   0  5  0  0  0  0  0  0  0  0  0  0
  151.0762  140.3355  158.1977 S   0  0  0  0  0  0  0  0  0  0  0  0
  152.3834  139.6898  157.9942 O   0  0  0  0  0  0  0  0  0  0  0  0
  149.9871  139.4889  158.7126 O   0  0  0  0  0  0  0  0  0  0  0  0
  150.5281  140.9221  156.5383 C   0  0  0  0  0  0  0  0  0  0  0  0
  150.4050  139.7603  155.5932 C   0  0  0  0  0  0  0  0  0  0  0  0
  151.3837  138.7817  155.2637 C   0  0  0  0  0  0  0  0  0  0  0  0
  150.7388  137.9725  154.3736 C   0  0  0  0  0  0  0  0  0  0  0  0
  149.4680  138.4036  154.1734 O   0  0  0  0  0  0  0  0  0  0  0  0
  149.2626  139.5431  154.9595 N   0  0  0  0  0  0  0  0  0  0  0  0
  153.0546  142.6670  160.3643 C   0  0  2  0  0  0  0  0  0  0  0  0
  153.3755  141.3062  161.0331 C   0  0  0  0  0  0  0  0  0  0  0  0
  153.9033  144.2039  162.5726 H   0  0  0  0  0  0  0  0  0  0  0  0
  152.8971  142.9216  163.2495 H   0  0  0  0  0  0  0  0  0  0  0  0
  152.3222  144.5731  163.2536 H   0  0  0  0  0  0  0  0  0  0  0  0
  151.2493  143.1879  161.4703 H   0  0  0  0  0  0  0  0  0  0  0  0
  151.3590  145.6357  161.2430 H   0  0  0  0  0  0  0  0  0  0  0  0
  152.9507  145.5386  160.5231 H   0  0  0  0  0  0  0  0  0  0  0  0
  150.3420  144.4800  159.3341 H   0  0  0  0  0  0  0  0  0  0  0  0
  151.2813  145.8198  158.7471 H   0  0  0  0  0  0  0  0  0  0  0  0
  151.6792  143.7872  157.3489 H   0  0  0  0  0  0  0  0  0  0  0  0
  153.1393  144.3645  158.0959 H   0  0  0  0  0  0  0  0  0  0  0  0
  153.1809  141.9978  158.3096 H   0  0  0  0  0  0  0  0  0  0  0  0
  149.5707  141.4288  156.6563 H   0  0  0  0  0  0  0  0  0  0  0  0
  151.2504  141.6557  156.1797 H   0  0  0  0  0  0  0  0  0  0  0  0
  152.3992  138.6943  155.6200 H   0  0  0  0  0  0  0  0  0  0  0  0
  151.0336  137.0913  153.8233 H   0  0  0  0  0  0  0  0  0  0  0  0
  154.0212  143.1499  160.2127 H   0  0  0  0  0  0  0  0  0  0  0  0
  152.4711  140.7796  161.3425 H   0  0  0  0  0  0  0  0  0  0  0  0
  153.9924  141.4375  161.9211 H   0  0  0  0  0  0  0  0  0  0  0  0
  153.9390  140.6402  160.3761 H   0  0  0  0  0  0  0  0  0  0  0  0
  1  2  1  0  0  0  0
  1 19  1  0  0  0  0
  1 20  1  0  0  0  0
  1 21  1  0  0  0  0
  2 17  1  0  0  0  0
  2  3  1  0  0  0  0
  2 22  1  0  0  0  0
  3  4  1  0  0  0  0
  3 23  1  0  0  0  0
  3 24  1  0  0  0  0
  4  5  1  0  0  0  0
  4 25  1  0  0  0  0
  4 26  1  0  0  0  0
  5  6  1  0  0  0  0
  5 27  1  0  0  0  0
  5 28  1  0  0  0  0
  6  7  1  0  0  0  0
  6 17  1  0  0  0  0
  6 29  1  0  0  0  0
  7  8  1  0  0  0  0
  8  9  2  0  0  0  0
  8 10  2  0  0  0  0
  8 11  1  0  0  0  0
 11 12  1  0  0  0  0
 11 30  1  0  0  0  0
 11 31  1  0  0  0  0
 12 16  2  0  0  0  0
 12 13  1  0  0  0  0
 13 14  2  0  0  0  0
 13 32  1  0  0  0  0
 14 15  1  0  0  0  0
 14 33  1  0  0  0  0
 15 16  1  0  0  0  0
 17 18  1  0  0  0  0
 17 34  1  0  0  0  0
 18 35  1  0  0  0  0
 18 36  1  0  0  0  0
 18 37  1  0  0  0  0
M  CHG  1   7  -1
M  END
> <s_m_source_file>
AV-unprocessed.smi

> <i_m_source_file_index>
2451

> <i_lp_mmshare_version>
43012

> <i_f3d_flags>
0

> <s_epik_input>
W0NIM11bQ0BASF0xW0NIMl1bQ0gyXVtDSDJdW0NASF0oW0NASF0xW0NIM10pW05IXVMoPU8pKD1PKVtDSDJdYzJbY0hdW2NIXW9uMg==

> <s_epik_cmdline>
J2VwaWtfcHl0aG9uJywgJy1waCcsICc3LjAnLCAnLXRuJywgJzgnLCAnLW1hJywgJzIwMCcsICctbWV0YWxfYmluZGluZycsICctaW1hZScsICc8aW5maWxlLm1hZT4nLCAnLW9tYWUnLCAnPG91dGZpbGUubWFlPic=

> <r_lp_tautomer_probability>
1

> <r_epik_Ionization_Penalty>
5.22693

> <r_epik_Ionization_Penalty_Charging>
5.22693

> <r_epik_Ionization_Penalty_Neutral>
2.67702e-10

> <r_epik_State_Penalty>
5.22685

> <r_epik_Charging_Adjusted_Penalty>
10.4538

> <i_epik_Tot_Q>
-1

> <i_epik_Tot_abs_Q>
1

> <r_epik_Metal_State_Penalty>
1.28716

> <b_epik_Metal_Only>
1

> <s_lp_Force_Field>
OPLS_2005

> <r_lp_Energy>
15.3657

> <b_lp_Chiralities_Consistent>
1

> <s_lp_Variant>
AV-unprocessed.smi:2451-16

> <Gold.Version>
5.8.1

> <Gold.Id.Protein>
6NUR|6NUR_protein|mol2

> <Gold.PLP.Fitness>
51.5098

> <Gold.PLP.PLP>
-45.5825

> <Gold.PLP.part.hbond>
-1.0000

> <Gold.PLP.part.metal>
0.0000

> <Gold.PLP.part.buried>
-5.2425

> <Gold.PLP.part.nonpolar>
-40.2574

> <Gold.PLP.part.repulsive>
0.4196

> <Gold.PLP.ligand.clash>
0.0000

> <Gold.PLP.ligand.torsion>
0.5298

> <Gold.PLP.Chemscore.Hbond>
1.0000

> <Gold.PLP.Chemscore.CHOScore>
1.0000

> <Gold.PLP.Chemscore.Metal>
0.0000

> <Gold.Chemscore.Hbonds>
donor molecule, donor type, donor heavy atom, donor atom, acceptor molecule, acceptor atom, score
      L1  C    14    33       P1  7949  0.87

> <Gold.PLP.Chemscore.Internal.Correction>
0.9868

> <Gold.Rescore>
     Score         DG    S(hbond)    S(metal)    S(lipo)     H(rot)  DE(clash)    DE(int)     intcor
     19.04     -19.70       0.99        0.00     123.88       1.40       0.16       0.50       ----

> <Gold.Chemscore.Fitness>
19.0385

> <Gold.Chemscore.DG>
-19.6955

> <Gold.Chemscore.ZeroCoef>
-5.4800

> <Gold.Chemscore.Hbond>
0.9886

> <Gold.Chemscore.Metal>
0.0000

> <Gold.Chemscore.Lipo>
123.8805

> <Gold.Chemscore.Internal_Hbond>
0.0000

> <Gold.Chemscore.DEClash>
0.1582

> <Gold.Chemscore.DEInternal>
0.4989

> <Gold.Chemscore.Rot>
1.3986

> <Gold.Chemscore.Internal.Correction>
   9.000000E+99

> <Gold.Chemscore.Hbonds>
donor molecule, donor type, donor heavy atom, donor atom, acceptor molecule, acceptor atom, score
      P1  H  7997  8009       L1     9  0.06

> <Gold.Chemscore.Hbond.Weighted>
-3.3019

> <Gold.Chemscore.Metal.Weighted>
-0.0000

> <Gold.Chemscore.Lipo.Weighted>
-14.4940

> <Gold.Chemscore.Internal_Hbond.Weighted>
0.0000

> <Gold.Chemscore.DEClash.Weighted>
0.1582

> <Gold.Chemscore.DEInternal.Weighted>
0.4989

> <Gold.Chemscore.Rot.Weighted>
3.5804

> <Gold.Chemscore.Internal.Correction.Weighted>
   9.000000E+99

> <Gold.Protein.RotatedTorsions>
[ 6907 6896 6895 6894 ] final  109.36 input  -60.11 | X-H torsion
[ 7974 7965 7964 7962 ] final  -11.04 input  175.53 | X-H torsion
[ 8008 7997 7996 7995 ] final  179.75 input   59.86 | X-H torsion
[ 10167 10162 10161 10158 ] final   38.58 input  -65.29 | X-H torsion
[ 10718 10713 10712 10709 ] final  135.28 input   66.30 | X-H torsion
[ 10763 10752 10751 10750 ] final    2.04 input  -60.55 | X-H torsion
[ 11005 11000 10999 10996 ] final  135.10 input  -57.11 | X-H torsion

> <Gold.Protein.ActiveResidues>
 VAL166  LYS551  ARG553  GLY616  TRP617  ASP618  TYR619  PRO620  LYS621  CYS622 
 ASP623  PHE694  ASN695  SER759  ASP760  ASP761  ALA762  ILE779  LEU786  VAL792 
 PHE793  MET794  SER795  GLU796  ALA797  LYS798  CYS799  TRP800  GLU811  SER814 

> <Gold.Protein.RotatedAtoms>
  152.5071  133.8955  159.7414 H   0  0  0  0  0  0  0  0  0  0  0  0  # atno 6907 bound_to 6896
  150.9384  133.6677  159.2803 H   0  0  0  0  0  0  0  0  0  0  0  0  # atno 6908 bound_to 6896
  151.3997  135.0974  159.9604 H   0  0  0  0  0  0  0  0  0  0  0  0  # atno 6909 bound_to 6896
  146.2201  140.2853  142.8365 H   0  0  0  0  0  0  0  0  0  0  0  0  # atno 7974 bound_to 7965
  156.0398  140.1301  157.0168 H   0  0  0  0  0  0  0  0  0  0  0  0  # atno 8008 bound_to 7997
  154.4386  140.1032  156.6291 H   0  0  0  0  0  0  0  0  0  0  0  0  # atno 8009 bound_to 7997
  155.5683  140.3466  155.4511 H   0  0  0  0  0  0  0  0  0  0  0  0  # atno 8010 bound_to 7997
  140.3923  144.1836  150.6131 H   0  0  0  0  0  0  0  0  0  0  0  0  # atno 10167 bound_to 10162
  157.4586  131.1072  150.9947 H   0  0  0  0  0  0  0  0  0  0  0  0  # atno 10718 bound_to 10713
  153.3005  135.6955  153.7207 H   0  0  0  0  0  0  0  0  0  0  0  0  # atno 10763 bound_to 10752
  153.6123  135.3442  155.2984 H   0  0  0  0  0  0  0  0  0  0  0  0  # atno 10764 bound_to 10752
  154.8549  135.4366  154.2115 H   0  0  0  0  0  0  0  0  0  0  0  0  # atno 10765 bound_to 10752
  139.9957  134.9498  156.9959 H   0  0  0  0  0  0  0  0  0  0  0  0  # atno 11005 bound_to 11000
  144.9167  140.7820  143.5774 LP  0  0  0  0  0  0  0  0  0  0  0  0  # atno 17320 bound_to 7965
  145.2787  139.1926  143.4802 LP  0  0  0  0  0  0  0  0  0  0  0  0  # atno 17321 bound_to 7965
  140.4827  143.2374  151.8933 LP  0  0  0  0  0  0  0  0  0  0  0  0  # atno 17342 bound_to 10162
  139.4788  144.5252  151.8745 LP  0  0  0  0  0  0  0  0  0  0  0  0  # atno 17343 bound_to 10162
  157.0752  130.5880  149.5410 LP  0  0  0  0  0  0  0  0  0  0  0  0  # atno 17370 bound_to 10713
  156.0018  130.5099  150.7691 LP  0  0  0  0  0  0  0  0  0  0  0  0  # atno 17371 bound_to 10713
  140.4822  134.1278  155.7219 LP  0  0  0  0  0  0  0  0  0  0  0  0  # atno 17394 bound_to 11000
  141.1602  133.8806  157.1867 LP  0  0  0  0  0  0  0  0  0  0  0  0  # atno 17395 bound_to 11000

$$$$
