AV-unprocessed.smi:2709|AV-procd|sdf|10461|dock1
  -GOLD-   2272014503D 1   1.00000     0.00000
 Structure written by MMmdl.
 40 42  0  0  0  0  0  0  0  0  1 V2000
  143.2439  137.2028  152.8642 C   0  0  0  0  0  0  0  0  0  0  0  0
  144.5304  136.6246  153.0245 O   0  0  0  0  0  0  0  0  0  0  0  0
  144.4986  135.2706  153.4680 C   0  0  1  0  0  0  0  0  0  0  0  0
  143.7639  134.4647  152.3913 C   0  0  0  0  0  0  0  0  0  0  0  0
  144.8583  134.0092  151.4328 C   0  0  0  0  0  0  0  0  0  0  0  0
  146.0333  133.6800  152.3511 C   0  0  0  0  0  0  0  0  0  0  0  0
  145.9139  134.6397  153.5502 C   0  0  1  0  0  0  0  0  0  0  0  0
  146.9816  135.6386  153.5028 N   0  0  0  0  0  0  0  0  0  0  0  0
  147.2533  136.5454  154.4510 C   0  0  0  0  0  0  0  0  0  0  0  0
  146.6288  136.6360  155.5068 O   0  0  0  0  0  0  0  0  0  0  0  0
  148.2894  137.3202  154.0878 N   0  0  0  0  0  0  0  0  0  0  0  0
  148.8888  138.4016  154.7888 C   0  0  0  0  0  0  0  0  0  0  0  0
  148.5797  138.8007  156.1132 C   0  0  0  0  0  0  0  0  0  0  0  0
  149.1946  139.8508  156.6996 N   0  0  0  0  0  0  0  0  0  0  0  0
  150.1000  140.5087  155.9706 C   0  0  0  0  0  0  0  0  0  0  0  0
  150.8041  141.6487  156.6386 C   0  0  0  0  0  0  0  0  0  0  0  0
  151.7165  141.4135  157.8254 C   0  0  0  0  0  0  0  0  0  0  0  0
  150.3950  142.1014  158.0253 C   0  0  0  0  0  0  0  0  0  0  0  0
  150.4772  140.2212  154.7222 N   0  0  0  0  0  0  0  0  0  0  0  0
  149.8685  139.1726  154.1286 C   0  0  0  0  0  0  0  0  0  0  0  0
  143.3468  138.2480  152.5732 H   0  0  0  0  0  0  0  0  0  0  0  0
  142.6664  137.1656  153.7882 H   0  0  0  0  0  0  0  0  0  0  0  0
  142.6810  136.6914  152.0825 H   0  0  0  0  0  0  0  0  0  0  0  0
  143.9642  135.1851  154.4164 H   0  0  0  0  0  0  0  0  0  0  0  0
  143.2987  133.5892  152.8465 H   0  0  0  0  0  0  0  0  0  0  0  0
  142.9764  135.0335  151.8958 H   0  0  0  0  0  0  0  0  0  0  0  0
  144.5550  133.1619  150.8174 H   0  0  0  0  0  0  0  0  0  0  0  0
  145.1283  134.8290  150.7657 H   0  0  0  0  0  0  0  0  0  0  0  0
  145.9361  132.6518  152.7023 H   0  0  0  0  0  0  0  0  0  0  0  0
  146.9899  133.7493  151.8311 H   0  0  0  0  0  0  0  0  0  0  0  0
  145.9807  134.0477  154.4646 H   0  0  0  0  0  0  0  0  0  0  0  0
  147.5467  135.6473  152.6662 H   0  0  0  0  0  0  0  0  0  0  0  0
  148.7180  137.0932  153.2023 H   0  0  0  0  0  0  0  0  0  0  0  0
  147.8404  138.3053  156.7216 H   0  0  0  0  0  0  0  0  0  0  0  0
  151.0927  142.4124  155.9188 H   0  0  0  0  0  0  0  0  0  0  0  0
  151.8131  140.3958  158.1989 H   0  0  0  0  0  0  0  0  0  0  0  0
  152.6162  142.0218  157.8926 H   0  0  0  0  0  0  0  0  0  0  0  0
  150.4102  143.1699  158.2297 H   0  0  0  0  0  0  0  0  0  0  0  0
  149.6123  141.5409  158.5328 H   0  0  0  0  0  0  0  0  0  0  0  0
  150.1704  138.9465  153.1164 H   0  0  0  0  0  0  0  0  0  0  0  0
  1  2  1  0  0  0  0
  1 21  1  0  0  0  0
  1 22  1  0  0  0  0
  1 23  1  0  0  0  0
  2  3  1  0  0  0  0
  3  7  1  0  0  0  0
  3  4  1  0  0  0  0
  3 24  1  0  0  0  0
  4  5  1  0  0  0  0
  4 25  1  0  0  0  0
  4 26  1  0  0  0  0
  5  6  1  0  0  0  0
  5 27  1  0  0  0  0
  5 28  1  0  0  0  0
  6  7  1  0  0  0  0
  6 29  1  0  0  0  0
  6 30  1  0  0  0  0
  7  8  1  0  0  0  0
  7 31  1  0  0  0  0
  8  9  1  0  0  0  0
  8 32  1  0  0  0  0
  9 10  2  0  0  0  0
  9 11  1  0  0  0  0
 11 12  1  0  0  0  0
 11 33  1  0  0  0  0
 12 20  1  0  0  0  0
 12 13  2  0  0  0  0
 13 14  1  0  0  0  0
 13 34  1  0  0  0  0
 14 15  2  0  0  0  0
 15 16  1  0  0  0  0
 15 19  1  0  0  0  0
 16 18  1  0  0  0  0
 16 17  1  0  0  0  0
 16 35  1  0  0  0  0
 17 18  1  0  0  0  0
 17 36  1  0  0  0  0
 17 37  1  0  0  0  0
 18 38  1  0  0  0  0
 18 39  1  0  0  0  0
 19 20  2  0  0  0  0
 20 40  1  0  0  0  0
M  END
> <s_m_source_file>
AV-unprocessed.smi

> <i_m_source_file_index>
2709

> <i_lp_mmshare_version>
43012

> <i_f3d_flags>
0

> <s_epik_input>
W0NIM11PW0NAQEhdMVtDSDJdW0NIMl1bQ0gyXVtDQEhdMVtOSF1DKD1PKVtOSF1jMltjSF1uYyhuW2NIXTIpW0NIXTNbQ0gyXVtDSDJdMw==

> <s_epik_cmdline>
J2VwaWtfcHl0aG9uJywgJy1waCcsICc3LjAnLCAnLXRuJywgJzgnLCAnLW1hJywgJzIwMCcsICctbWV0YWxfYmluZGluZycsICctaW1hZScsICc8aW5maWxlLm1hZT4nLCAnLW9tYWUnLCAnPG91dGZpbGUubWFlPic=

> <r_lp_tautomer_probability>
1

> <r_epik_Ionization_Penalty>
2.49969e-05

> <r_epik_Ionization_Penalty_Charging>
0

> <r_epik_Ionization_Penalty_Neutral>
2.49969e-05

> <r_epik_State_Penalty>
-0

> <r_epik_Charging_Adjusted_Penalty>
0

> <i_epik_Tot_Q>
0

> <i_epik_Tot_abs_Q>
0

> <r_epik_Metal_State_Penalty>
-0

> <b_epik_Metal_Only>
0

> <s_lp_Force_Field>
OPLS_2005

> <r_lp_Energy>
20.4457

> <b_lp_Chiralities_Consistent>
1

> <s_lp_Variant>
AV-unprocessed.smi:2709-2

> <Gold.Version>
5.8.1

> <Gold.Id.Protein>
6NUR|6NUR_protein|mol2

> <Gold.PLP.Fitness>
35.9822

> <Gold.PLP.PLP>
-24.1517

> <Gold.PLP.part.hbond>
-3.0000

> <Gold.PLP.part.metal>
0.0000

> <Gold.PLP.part.buried>
-2.8492

> <Gold.PLP.part.nonpolar>
-18.6621

> <Gold.PLP.part.repulsive>
0.2455

> <Gold.PLP.ligand.clash>
0.0000

> <Gold.PLP.ligand.torsion>
0.1287

> <Gold.PLP.Chemscore.Hbond>
2.9920

> <Gold.PLP.Chemscore.CHOScore>
0.9957

> <Gold.PLP.Chemscore.Metal>
0.0000

> <Gold.Chemscore.Hbonds>
donor molecule, donor type, donor heavy atom, donor atom, acceptor molecule, acceptor atom, score
      L1  H     8    32       P1  7948  0.98
      L1  H    11    33       P1  7948  1.00
      P1  H  7989  7998       L1    19  1.00
      L1  C    20    40       P1  7957  1.00

> <Gold.PLP.Chemscore.Internal.Correction>
0.1246

> <Gold.Rescore>
     Score         DG    S(hbond)    S(metal)    S(lipo)     H(rot)  DE(clash)    DE(int)     intcor
     16.32     -17.62       2.81        0.00      54.34       1.41       0.02       1.28       ----

> <Gold.Chemscore.Fitness>
16.3158

> <Gold.Chemscore.DG>
-17.6189

> <Gold.Chemscore.ZeroCoef>
-5.4800

> <Gold.Chemscore.Hbond>
2.8127

> <Gold.Chemscore.Metal>
0.0000

> <Gold.Chemscore.Lipo>
54.3395

> <Gold.Chemscore.Internal_Hbond>
0.0000

> <Gold.Chemscore.DEClash>
0.0202

> <Gold.Chemscore.DEInternal>
1.2828

> <Gold.Chemscore.Rot>
1.4114

> <Gold.Chemscore.Internal.Correction>
   9.000000E+99

> <Gold.Chemscore.Hbonds>
donor molecule, donor type, donor heavy atom, donor atom, acceptor molecule, acceptor atom, score
      L1  H     8    32       P1  7948  0.93
      L1  H    11    33       P1  7948  0.98
      P1  H  7989  7998       L1    19  0.55

> <Gold.Chemscore.Hbond.Weighted>
-9.3944

> <Gold.Chemscore.Metal.Weighted>
-0.0000

> <Gold.Chemscore.Lipo.Weighted>
-6.3577

> <Gold.Chemscore.Internal_Hbond.Weighted>
0.0000

> <Gold.Chemscore.DEClash.Weighted>
0.0202

> <Gold.Chemscore.DEInternal.Weighted>
1.2828

> <Gold.Chemscore.Rot.Weighted>
3.6133

> <Gold.Chemscore.Internal.Correction.Weighted>
   9.000000E+99

> <Gold.Protein.RotatedTorsions>
[ 6907 6896 6895 6894 ] final  130.81 input  -60.11 | X-H torsion
[ 7974 7965 7964 7962 ] final -100.11 input  175.53 | X-H torsion
[ 8008 7997 7996 7995 ] final   71.97 input   59.86 | X-H torsion
[ 10167 10162 10161 10158 ] final   74.02 input  -65.29 | X-H torsion
[ 10718 10713 10712 10709 ] final   -4.26 input   66.30 | X-H torsion
[ 10763 10752 10751 10750 ] final -154.18 input  -60.55 | X-H torsion
[ 11005 11000 10999 10996 ] final   34.81 input  -57.11 | X-H torsion

> <Gold.Protein.ActiveResidues>
 VAL166  LYS551  ARG553  GLY616  TRP617  ASP618  TYR619  PRO620  LYS621  CYS622 
 ASP623  PHE694  ASN695  SER759  ASP760  ASP761  ALA762  ILE779  LEU786  VAL792 
 PHE793  MET794  SER795  GLU796  ALA797  LYS798  CYS799  TRP800  GLU811  SER814 

> <Gold.Protein.RotatedAtoms>
  152.3489  133.6155  159.5929 H   0  0  0  0  0  0  0  0  0  0  0  0  # atno 6907 bound_to 6896
  150.7525  133.9606  159.3523 H   0  0  0  0  0  0  0  0  0  0  0  0  # atno 6908 bound_to 6896
  151.7460  135.0844  160.0374 H   0  0  0  0  0  0  0  0  0  0  0  0  # atno 6909 bound_to 6896
  145.2988  140.9372  143.2835 H   0  0  0  0  0  0  0  0  0  0  0  0  # atno 7974 bound_to 7965
  155.7618  140.3486  155.5202 H   0  0  0  0  0  0  0  0  0  0  0  0  # atno 8008 bound_to 7997
  155.8907  140.1017  157.1442 H   0  0  0  0  0  0  0  0  0  0  0  0  # atno 8009 bound_to 7997
  154.4033  140.1305  156.4299 H   0  0  0  0  0  0  0  0  0  0  0  0  # atno 8010 bound_to 7997
  140.0182  144.5561  150.7603 H   0  0  0  0  0  0  0  0  0  0  0  0  # atno 10167 bound_to 10162
  156.7639  130.5278  149.5780 H   0  0  0  0  0  0  0  0  0  0  0  0  # atno 10718 bound_to 10713
  154.7877  135.3196  154.7849 H   0  0  0  0  0  0  0  0  0  0  0  0  # atno 10763 bound_to 10752
  153.8545  135.6859  153.4793 H   0  0  0  0  0  0  0  0  0  0  0  0  # atno 10764 bound_to 10752
  153.1534  135.4690  154.9609 H   0  0  0  0  0  0  0  0  0  0  0  0  # atno 10765 bound_to 10752
  140.2490  134.3325  155.7897 H   0  0  0  0  0  0  0  0  0  0  0  0  # atno 11005 bound_to 11000
  144.9111  139.4528  143.6586 LP  0  0  0  0  0  0  0  0  0  0  0  0  # atno 17320 bound_to 7965
  146.3159  139.7919  142.8984 LP  0  0  0  0  0  0  0  0  0  0  0  0  # atno 17321 bound_to 7965
  140.7353  143.2739  151.3801 LP  0  0  0  0  0  0  0  0  0  0  0  0  # atno 17342 bound_to 10162
  139.6158  144.1006  152.2344 LP  0  0  0  0  0  0  0  0  0  0  0  0  # atno 17343 bound_to 10162
  156.1321  130.6185  151.0348 LP  0  0  0  0  0  0  0  0  0  0  0  0  # atno 17370 bound_to 10713
  157.6722  131.0859  150.7585 LP  0  0  0  0  0  0  0  0  0  0  0  0  # atno 17371 bound_to 10713
  141.2203  133.7342  156.9007 LP  0  0  0  0  0  0  0  0  0  0  0  0  # atno 17394 bound_to 11000
  140.1577  134.9187  157.2674 LP  0  0  0  0  0  0  0  0  0  0  0  0  # atno 17395 bound_to 11000

$$$$
