AV-unprocessed.smi:1724|AV-procd|sdf|6949|dock10
  -GOLD-   22720 8163D 1   1.00000     0.00000
 Structure written by MMmdl.
 38 39  0  0  0  0  0  0  0  0  1 V2000
  150.8767  140.7702  155.5132 O   0  0  0  0  0  0  0  0  0  0  0  0
  150.7963  139.7852  156.2465 C   0  0  0  0  0  0  0  0  0  0  0  0
  150.2779  138.6134  155.8503 N   0  0  0  0  0  0  0  0  0  0  0  0
  149.7257  138.3315  154.5277 C   0  0  0  0  0  0  0  0  0  0  0  0
  148.3326  138.9625  154.3240 C   0  0  2  0  0  0  0  0  0  0  0  0
  148.3281  140.4918  154.5116 C   0  0  0  0  0  0  0  0  0  0  0  0
  146.9008  141.0381  154.3930 C   0  0  0  0  0  0  0  0  0  0  0  0
  145.9562  140.2858  155.3417 C   0  0  0  0  0  0  0  0  0  0  0  0
  146.0081  138.8914  155.0636 O   0  0  0  0  0  0  0  0  0  0  0  0
  147.2987  138.3295  155.2782 C   0  0  0  0  0  0  0  0  0  0  0  0
  151.2213  139.7139  157.5215 N   0  0  0  0  0  0  0  0  0  0  0  0
  151.8069  140.7073  158.3254 C   0  0  0  0  0  0  0  0  0  0  0  0
  151.2145  141.8807  158.6708 C   0  0  0  0  0  0  0  0  0  0  0  0
  151.8765  142.8603  159.5163 C   0  0  0  0  0  0  0  0  0  0  0  0
  151.2392  144.2056  159.8276 C   0  0  0  0  0  0  0  0  0  0  0  0
  149.9799  144.2562  159.3911 F   0  0  0  0  0  0  0  0  0  0  0  0
  151.2373  144.4435  161.1393 F   0  0  0  0  0  0  0  0  0  0  0  0
  151.9245  145.1798  159.2305 F   0  0  0  0  0  0  0  0  0  0  0  0
  153.1160  142.5492  159.9380 C   0  0  0  0  0  0  0  0  0  0  0  0
  153.7232  141.3360  159.6069 N   0  0  0  0  0  0  0  0  0  0  0  0
  153.1538  140.3887  158.8284 C   0  0  0  0  0  0  0  0  0  0  0  0
  153.7563  139.3445  158.5812 O   0  0  0  0  0  0  0  0  0  0  0  0
  154.6482  141.1697  159.9765 H   0  0  0  0  0  0  0  0  0  0  0  0
  150.2601  137.8555  156.5171 H   0  0  0  0  0  0  0  0  0  0  0  0
  150.4210  138.7406  153.7941 H   0  0  0  0  0  0  0  0  0  0  0  0
  149.6871  137.2574  154.3382 H   0  0  0  0  0  0  0  0  0  0  0  0
  148.0128  138.7477  153.3030 H   0  0  0  0  0  0  0  0  0  0  0  0
  148.7373  140.7454  155.4903 H   0  0  0  0  0  0  0  0  0  0  0  0
  148.9641  140.9770  153.7712 H   0  0  0  0  0  0  0  0  0  0  0  0
  146.8863  142.1057  154.6140 H   0  0  0  0  0  0  0  0  0  0  0  0
  146.5499  140.9261  153.3664 H   0  0  0  0  0  0  0  0  0  0  0  0
  146.2208  140.4707  156.3840 H   0  0  0  0  0  0  0  0  0  0  0  0
  144.9323  140.6347  155.2064 H   0  0  0  0  0  0  0  0  0  0  0  0
  147.2364  137.2549  155.1055 H   0  0  0  0  0  0  0  0  0  0  0  0
  147.5937  138.4648  156.3200 H   0  0  0  0  0  0  0  0  0  0  0  0
  151.1415  138.8114  157.9676 H   0  0  0  0  0  0  0  0  0  0  0  0
  150.2163  142.1183  158.3423 H   0  0  0  0  0  0  0  0  0  0  0  0
  153.7315  143.1954  160.5464 H   0  0  0  0  0  0  0  0  0  0  0  0
  1  2  2  0  0  0  0
  2  3  1  0  0  0  0
  2 11  1  0  0  0  0
  3  4  1  0  0  0  0
  3 24  1  0  0  0  0
  4  5  1  0  0  0  0
  4 25  1  0  0  0  0
  4 26  1  0  0  0  0
  5 10  1  0  0  0  0
  5  6  1  0  0  0  0
  5 27  1  0  0  0  0
  6  7  1  0  0  0  0
  6 28  1  0  0  0  0
  6 29  1  0  0  0  0
  7  8  1  0  0  0  0
  7 30  1  0  0  0  0
  7 31  1  0  0  0  0
  8  9  1  0  0  0  0
  8 32  1  0  0  0  0
  8 33  1  0  0  0  0
  9 10  1  0  0  0  0
 10 34  1  0  0  0  0
 10 35  1  0  0  0  0
 11 12  1  0  0  0  0
 11 36  1  0  0  0  0
 12 21  1  0  0  0  0
 12 13  2  0  0  0  0
 13 14  1  0  0  0  0
 13 37  1  0  0  0  0
 14 15  1  0  0  0  0
 14 19  2  0  0  0  0
 15 16  1  0  0  0  0
 15 17  1  0  0  0  0
 15 18  1  0  0  0  0
 19 20  1  0  0  0  0
 19 38  1  0  0  0  0
 20 23  1  0  0  0  0
 20 21  1  0  0  0  0
 21 22  2  0  0  0  0
M  END
> <s_m_source_file>
AV-unprocessed.smi

> <i_m_source_file_index>
1724

> <i_lp_mmshare_version>
43012

> <i_f3d_flags>
0

> <s_epik_input>
Tz1jMVtuSF1bY0hdYyhDKEYpKEYpRilbY0hdYzFbTkhdQyg9TylbTkhdW0NIMl1bQ0BASF0yW0NIMl1bQ0gyXVtDSDJdT1tDSDJdMg==

> <s_epik_cmdline>
J2VwaWtfcHl0aG9uJywgJy1waCcsICc3LjAnLCAnLXRuJywgJzgnLCAnLW1hJywgJzIwMCcsICctbWV0YWxfYmluZGluZycsICctaW1hZScsICc8aW5maWxlLm1hZT4nLCAnLW9tYWUnLCAnPG91dGZpbGUubWFlPic=

> <r_lp_tautomer_probability>
1

> <r_epik_Ionization_Penalty>
0.00384958

> <r_epik_Ionization_Penalty_Charging>
0.00382926

> <r_epik_Ionization_Penalty_Neutral>
2.03186e-05

> <r_epik_State_Penalty>
-0

> <r_epik_Charging_Adjusted_Penalty>
0.00382926

> <i_epik_Tot_Q>
0

> <i_epik_Tot_abs_Q>
0

> <r_epik_Metal_State_Penalty>
0.371494

> <b_epik_Metal_Only>
0

> <s_lp_Force_Field>
OPLS_2005

> <r_lp_Energy>
21.9541

> <b_lp_Chiralities_Consistent>
1

> <s_lp_Variant>
AV-unprocessed.smi:1724-1

> <Gold.Version>
5.8.1

> <Gold.Id.Protein>
6NUR|6NUR_protein|mol2

> <Gold.PLP.Fitness>
42.7326

> <Gold.PLP.PLP>
-39.6975

> <Gold.PLP.part.hbond>
-2.0000

> <Gold.PLP.part.metal>
0.0000

> <Gold.PLP.part.buried>
-2.1398

> <Gold.PLP.part.nonpolar>
-35.8138

> <Gold.PLP.part.repulsive>
0.2933

> <Gold.PLP.ligand.clash>
0.0000

> <Gold.PLP.ligand.torsion>
0.8122

> <Gold.PLP.Chemscore.Hbond>
1.5380

> <Gold.PLP.Chemscore.CHOScore>
0.0000

> <Gold.PLP.Chemscore.Metal>
0.0000

> <Gold.Chemscore.Hbonds>
donor molecule, donor type, donor heavy atom, donor atom, acceptor molecule, acceptor atom, score
      P1  H  7989  7998       L1     1  0.58
      P1  H  7997  8008       L1    22  1.00

> <Gold.PLP.Chemscore.Internal.Correction>
0.0455

> <Gold.Rescore>
     Score         DG    S(hbond)    S(metal)    S(lipo)     H(rot)  DE(clash)    DE(int)     intcor
     14.35     -15.31       1.52        0.00      69.77       1.33       0.15       0.81       ----

> <Gold.Chemscore.Fitness>
14.3472

> <Gold.Chemscore.DG>
-15.3063

> <Gold.Chemscore.ZeroCoef>
-5.4800

> <Gold.Chemscore.Hbond>
1.5208

> <Gold.Chemscore.Metal>
0.0000

> <Gold.Chemscore.Lipo>
69.7676

> <Gold.Chemscore.Internal_Hbond>
0.0000

> <Gold.Chemscore.DEClash>
0.1481

> <Gold.Chemscore.DEInternal>
0.8110

> <Gold.Chemscore.Rot>
1.3344

> <Gold.Chemscore.Internal.Correction>
   9.000000E+99

> <Gold.Chemscore.Hbonds>
donor molecule, donor type, donor heavy atom, donor atom, acceptor molecule, acceptor atom, score
      P1  H  7989  7998       L1     1  0.58
      P1  H  7997  8008       L1    22  0.24

> <Gold.Chemscore.Hbond.Weighted>
-5.0794

> <Gold.Chemscore.Metal.Weighted>
-0.0000

> <Gold.Chemscore.Lipo.Weighted>
-8.1628

> <Gold.Chemscore.Internal_Hbond.Weighted>
0.0000

> <Gold.Chemscore.DEClash.Weighted>
0.1481

> <Gold.Chemscore.DEInternal.Weighted>
0.8110

> <Gold.Chemscore.Rot.Weighted>
3.4160

> <Gold.Chemscore.Internal.Correction.Weighted>
   9.000000E+99

> <Gold.Protein.RotatedTorsions>
[ 6907 6896 6895 6894 ] final  139.46 input  -60.11 | X-H torsion
[ 7974 7965 7964 7962 ] final -132.60 input  175.53 | X-H torsion
[ 8008 7997 7996 7995 ] final -118.27 input   59.86 | X-H torsion
[ 10167 10162 10161 10158 ] final  124.24 input  -65.29 | X-H torsion
[ 10718 10713 10712 10709 ] final -104.50 input   66.30 | X-H torsion
[ 10763 10752 10751 10750 ] final   22.59 input  -60.55 | X-H torsion
[ 11005 11000 10999 10996 ] final -109.49 input  -57.11 | X-H torsion

> <Gold.Protein.ActiveResidues>
 VAL166  LYS551  ARG553  GLY616  TRP617  ASP618  TYR619  PRO620  LYS621  CYS622 
 ASP623  PHE694  ASN695  SER759  ASP760  ASP761  ALA762  ILE779  LEU786  VAL792 
 PHE793  MET794  SER795  GLU796  ALA797  LYS798  CYS799  TRP800  GLU811  SER814 

> <Gold.Protein.RotatedAtoms>
  152.2547  133.5245  159.5345 H   0  0  0  0  0  0  0  0  0  0  0  0  # atno 6907 bound_to 6896
  150.7105  134.0912  159.3941 H   0  0  0  0  0  0  0  0  0  0  0  0  # atno 6908 bound_to 6896
  151.8831  135.0445  160.0541 H   0  0  0  0  0  0  0  0  0  0  0  0  # atno 6909 bound_to 6896
  144.9271  140.7084  143.4929 H   0  0  0  0  0  0  0  0  0  0  0  0  # atno 7974 bound_to 7965
  155.0970  140.0395  157.2686 H   0  0  0  0  0  0  0  0  0  0  0  0  # atno 8008 bound_to 7997
  154.6787  140.2628  155.6905 H   0  0  0  0  0  0  0  0  0  0  0  0  # atno 8009 bound_to 7997
  156.2686  140.2783  156.1324 H   0  0  0  0  0  0  0  0  0  0  0  0  # atno 8010 bound_to 7997
  139.5753  144.6960  151.3669 H   0  0  0  0  0  0  0  0  0  0  0  0  # atno 10167 bound_to 10162
  156.0307  130.5518  150.7405 H   0  0  0  0  0  0  0  0  0  0  0  0  # atno 10718 bound_to 10713
  153.0903  135.6645  153.9866 H   0  0  0  0  0  0  0  0  0  0  0  0  # atno 10763 bound_to 10752
  153.9465  135.2988  155.3442 H   0  0  0  0  0  0  0  0  0  0  0  0  # atno 10764 bound_to 10752
  154.7317  135.5120  153.9048 H   0  0  0  0  0  0  0  0  0  0  0  0  # atno 10765 bound_to 10752
  141.0844  133.9164  157.2217 H   0  0  0  0  0  0  0  0  0  0  0  0  # atno 11005 bound_to 11000
  145.3202  139.1791  143.4592 LP  0  0  0  0  0  0  0  0  0  0  0  0  # atno 17320 bound_to 7965
  146.3231  140.3218  142.8634 LP  0  0  0  0  0  0  0  0  0  0  0  0  # atno 17321 bound_to 7965
  140.7036  143.7570  150.7444 LP  0  0  0  0  0  0  0  0  0  0  0  0  # atno 17342 bound_to 10162
  140.1088  143.4719  152.2382 LP  0  0  0  0  0  0  0  0  0  0  0  0  # atno 17343 bound_to 10162
  157.4975  131.0916  151.0354 LP  0  0  0  0  0  0  0  0  0  0  0  0  # atno 17370 bound_to 10713
  157.0744  130.5877  149.5408 LP  0  0  0  0  0  0  0  0  0  0  0  0  # atno 17371 bound_to 10713
  139.9661  135.0141  156.9390 LP  0  0  0  0  0  0  0  0  0  0  0  0  # atno 17394 bound_to 11000
  140.5395  134.0733  155.7337 LP  0  0  0  0  0  0  0  0  0  0  0  0  # atno 17395 bound_to 11000

$$$$
