AV-unprocessed.smi:2345|AV-procd|sdf|9364|dock3
  -GOLD-   2272012583D 1   1.00000     0.00000
 Structure written by MMmdl.
 37 38  0  0  0  0  0  0  0  0  1 V2000
  152.2836  138.9895  154.8824 C   0  0  0  0  0  0  0  0  0  0  0  0
  150.8351  139.3970  155.1622 C   0  0  0  0  0  0  0  0  0  0  0  0
  149.8653  139.4936  153.6320 S   0  0  0  0  0  0  0  0  0  0  0  0
  148.2888  140.1300  154.2749 C   0  0  1  0  0  0  0  0  0  0  0  0
  148.4310  141.5397  154.8552 C   0  0  0  0  0  0  0  0  0  0  0  0
  147.0294  142.1311  154.7506 C   0  0  0  0  0  0  0  0  0  0  0  0
  146.4964  141.5967  153.4210 C   0  0  0  0  0  0  0  0  0  0  0  0
  147.1879  140.2364  153.1976 C   0  0  2  0  0  0  0  0  0  0  0  0
  146.2379  139.1331  153.3196 N   0  0  0  0  0  0  0  0  0  0  0  0
  146.0924  138.1413  152.4302 C   0  0  0  0  0  0  0  0  0  0  0  0
  146.7469  138.0623  151.3909 O   0  0  0  0  0  0  0  0  0  0  0  0
  145.1654  137.2579  152.8377 N   0  0  0  0  0  0  0  0  0  0  0  0
  144.7175  136.0742  152.1896 C   0  0  0  0  0  0  0  0  0  0  0  0
  145.1140  135.6812  150.8881 C   0  0  0  0  0  0  0  0  0  0  0  0
  144.5828  134.4912  150.3514 C   0  0  0  0  0  0  0  0  0  0  0  0
  143.7052  133.7046  151.0095 N   0  0  0  0  0  0  0  0  0  0  0  0
  143.3186  134.0895  152.2440 C   0  0  0  0  0  0  0  0  0  0  0  0
  143.7891  135.2599  152.8724 C   0  0  0  0  0  0  0  0  0  0  0  0
  143.3564  135.5904  154.1136 F   0  0  0  0  0  0  0  0  0  0  0  0
  152.8563  138.9315  155.8080 H   0  0  0  0  0  0  0  0  0  0  0  0
  152.7760  139.7120  154.2310 H   0  0  0  0  0  0  0  0  0  0  0  0
  152.3310  138.0132  154.3993 H   0  0  0  0  0  0  0  0  0  0  0  0
  150.3712  138.6757  155.8348 H   0  0  0  0  0  0  0  0  0  0  0  0
  150.8109  140.3663  155.6606 H   0  0  0  0  0  0  0  0  0  0  0  0
  147.9605  139.4719  155.0814 H   0  0  0  0  0  0  0  0  0  0  0  0
  148.8093  141.5357  155.8778 H   0  0  0  0  0  0  0  0  0  0  0  0
  149.1182  142.1310  154.2481 H   0  0  0  0  0  0  0  0  0  0  0  0
  146.4124  141.7616  155.5706 H   0  0  0  0  0  0  0  0  0  0  0  0
  147.0281  143.2205  154.7953 H   0  0  0  0  0  0  0  0  0  0  0  0
  145.4070  141.5370  153.4167 H   0  0  0  0  0  0  0  0  0  0  0  0
  146.7805  142.2783  152.6183 H   0  0  0  0  0  0  0  0  0  0  0  0
  147.6380  140.2289  152.2029 H   0  0  0  0  0  0  0  0  0  0  0  0
  145.6613  139.1194  154.1482 H   0  0  0  0  0  0  0  0  0  0  0  0
  144.7724  137.4192  153.7535 H   0  0  0  0  0  0  0  0  0  0  0  0
  145.7966  136.2656  150.2910 H   0  0  0  0  0  0  0  0  0  0  0  0
  144.8672  134.1656  149.3616 H   0  0  0  0  0  0  0  0  0  0  0  0
  142.6111  133.4461  152.7461 H   0  0  0  0  0  0  0  0  0  0  0  0
  1  2  1  0  0  0  0
  1 20  1  0  0  0  0
  1 21  1  0  0  0  0
  1 22  1  0  0  0  0
  2  3  1  0  0  0  0
  2 23  1  0  0  0  0
  2 24  1  0  0  0  0
  3  4  1  0  0  0  0
  4  8  1  0  0  0  0
  4  5  1  0  0  0  0
  4 25  1  0  0  0  0
  5  6  1  0  0  0  0
  5 26  1  0  0  0  0
  5 27  1  0  0  0  0
  6  7  1  0  0  0  0
  6 28  1  0  0  0  0
  6 29  1  0  0  0  0
  7  8  1  0  0  0  0
  7 30  1  0  0  0  0
  7 31  1  0  0  0  0
  8  9  1  0  0  0  0
  8 32  1  0  0  0  0
  9 10  1  0  0  0  0
  9 33  1  0  0  0  0
 10 11  2  0  0  0  0
 10 12  1  0  0  0  0
 12 13  1  0  0  0  0
 12 34  1  0  0  0  0
 13 18  1  0  0  0  0
 13 14  2  0  0  0  0
 14 15  1  0  0  0  0
 14 35  1  0  0  0  0
 15 16  2  0  0  0  0
 15 36  1  0  0  0  0
 16 17  1  0  0  0  0
 17 18  2  0  0  0  0
 17 37  1  0  0  0  0
 18 19  1  0  0  0  0
M  END
> <s_m_source_file>
AV-unprocessed.smi

> <i_m_source_file_index>
2345

> <i_lp_mmshare_version>
43012

> <i_f3d_flags>
0

> <s_epik_input>
W0NIM11bQ0gyXVNbQ0BASF0xW0NIMl1bQ0gyXVtDSDJdW0NASF0xW05IXUMoPU8pW05IXWMyW2NIXVtjSF1uW2NIXWMyRg==

> <s_epik_cmdline>
J2VwaWtfcHl0aG9uJywgJy1waCcsICc3LjAnLCAnLXRuJywgJzgnLCAnLW1hJywgJzIwMCcsICctbWV0YWxfYmluZGluZycsICctaW1hZScsICc8aW5maWxlLm1hZT4nLCAnLW9tYWUnLCAnPG91dGZpbGUubWFlPic=

> <r_epik_Ionization_Penalty>
0.00333745

> <r_epik_Ionization_Penalty_Charging>
0

> <r_epik_Ionization_Penalty_Neutral>
0.00333745

> <r_epik_State_Penalty>
0.00233401

> <r_epik_Charging_Adjusted_Penalty>
0.00233401

> <i_epik_Tot_Q>
0

> <i_epik_Tot_abs_Q>
0

> <r_epik_Metal_State_Penalty>
-0

> <b_epik_Metal_Only>
0

> <s_lp_Force_Field>
OPLS_2005

> <r_lp_Energy>
20.2483

> <b_lp_Chiralities_Consistent>
1

> <s_lp_Variant>
AV-unprocessed.smi:2345-4

> <Gold.Version>
5.8.1

> <Gold.Id.Protein>
6NUR|6NUR_protein|mol2

> <Gold.PLP.Fitness>
38.2160

> <Gold.PLP.PLP>
-29.7196

> <Gold.PLP.part.hbond>
-1.9148

> <Gold.PLP.part.metal>
0.0000

> <Gold.PLP.part.buried>
1.0557

> <Gold.PLP.part.nonpolar>
-32.6004

> <Gold.PLP.part.repulsive>
2.7219

> <Gold.PLP.ligand.clash>
0.0000

> <Gold.PLP.ligand.torsion>
0.1004

> <Gold.PLP.Chemscore.Hbond>
0.9750

> <Gold.PLP.Chemscore.CHOScore>
1.9206

> <Gold.PLP.Chemscore.Metal>
0.0000

> <Gold.Chemscore.Hbonds>
donor molecule, donor type, donor heavy atom, donor atom, acceptor molecule, acceptor atom, score
      P1  H  7954  7966       L1    11  0.89
      L1  C    15    36       P1  7921  1.00
      L1  C    17    37       P1 10957  0.76

> <Gold.PLP.Chemscore.Internal.Correction>
0.0104

> <Gold.Rescore>
     Score         DG    S(hbond)    S(metal)    S(lipo)     H(rot)  DE(clash)    DE(int)     intcor
     10.94     -13.94       0.89        0.00      76.54       1.35       1.64       1.36       ----

> <Gold.Chemscore.Fitness>
10.9433

> <Gold.Chemscore.DG>
-13.9445

> <Gold.Chemscore.ZeroCoef>
-5.4800

> <Gold.Chemscore.Hbond>
0.8857

> <Gold.Chemscore.Metal>
0.0000

> <Gold.Chemscore.Lipo>
76.5445

> <Gold.Chemscore.Internal_Hbond>
0.0000

> <Gold.Chemscore.DEClash>
1.6438

> <Gold.Chemscore.DEInternal>
1.3574

> <Gold.Chemscore.Rot>
1.3475

> <Gold.Chemscore.Internal.Correction>
   9.000000E+99

> <Gold.Chemscore.Hbonds>
donor molecule, donor type, donor heavy atom, donor atom, acceptor molecule, acceptor atom, score
      P1  H  7954  7966       L1    11  0.87

> <Gold.Chemscore.Hbond.Weighted>
-2.9584

> <Gold.Chemscore.Metal.Weighted>
-0.0000

> <Gold.Chemscore.Lipo.Weighted>
-8.9557

> <Gold.Chemscore.Internal_Hbond.Weighted>
0.0000

> <Gold.Chemscore.DEClash.Weighted>
1.6438

> <Gold.Chemscore.DEInternal.Weighted>
1.3574

> <Gold.Chemscore.Rot.Weighted>
3.4496

> <Gold.Chemscore.Internal.Correction.Weighted>
   9.000000E+99

> <Gold.Protein.RotatedTorsions>
[ 6907 6896 6895 6894 ] final  -38.98 input  -60.11 | X-H torsion
[ 7974 7965 7964 7962 ] final  110.47 input  175.53 | X-H torsion
[ 8008 7997 7996 7995 ] final  -51.89 input   59.86 | X-H torsion
[ 10167 10162 10161 10158 ] final -163.88 input  -65.29 | X-H torsion
[ 10718 10713 10712 10709 ] final -163.09 input   66.30 | X-H torsion
[ 10763 10752 10751 10750 ] final -172.37 input  -60.55 | X-H torsion
[ 11005 11000 10999 10996 ] final  -26.22 input  -57.11 | X-H torsion

> <Gold.Protein.ActiveResidues>
 VAL166  LYS551  ARG553  GLY616  TRP617  ASP618  TYR619  PRO620  LYS621  CYS622 
 ASP623  PHE694  ASN695  SER759  ASP760  ASP761  ALA762  ILE779  LEU786  VAL792 
 PHE793  MET794  SER795  GLU796  ALA797  LYS798  CYS799  TRP800  GLU811  SER814 

> <Gold.Protein.RotatedAtoms>
  150.9959  134.9283  159.7925 H   0  0  0  0  0  0  0  0  0  0  0  0  # atno 6907 bound_to 6896
  152.5264  134.3219  159.9161 H   0  0  0  0  0  0  0  0  0  0  0  0  # atno 6908 bound_to 6896
  151.3225  133.3992  159.2690 H   0  0  0  0  0  0  0  0  0  0  0  0  # atno 6909 bound_to 6896
  145.2546  139.2726  143.4049 H   0  0  0  0  0  0  0  0  0  0  0  0  # atno 7974 bound_to 7965
  154.4093  140.1237  156.4903 H   0  0  0  0  0  0  0  0  0  0  0  0  # atno 8008 bound_to 7997
  155.6997  140.3495  155.4908 H   0  0  0  0  0  0  0  0  0  0  0  0  # atno 8009 bound_to 7997
  155.9396  140.1084  157.1056 H   0  0  0  0  0  0  0  0  0  0  0  0  # atno 8010 bound_to 7997
  139.6290  144.0477  152.1999 H   0  0  0  0  0  0  0  0  0  0  0  0  # atno 10167 bound_to 10162
  156.6198  130.8885  151.2955 H   0  0  0  0  0  0  0  0  0  0  0  0  # atno 10718 bound_to 10713
  154.6200  135.2874  155.0336 H   0  0  0  0  0  0  0  0  0  0  0  0  # atno 10763 bound_to 10752
  154.1535  135.6499  153.4973 H   0  0  0  0  0  0  0  0  0  0  0  0  # atno 10764 bound_to 10752
  153.0232  135.5361  154.6987 H   0  0  0  0  0  0  0  0  0  0  0  0  # atno 10765 bound_to 10752
  140.9009  133.7524  156.0543 H   0  0  0  0  0  0  0  0  0  0  0  0  # atno 11005 bound_to 11000
  146.3293  140.2946  142.8617 LP  0  0  0  0  0  0  0  0  0  0  0  0  # atno 17320 bound_to 7965
  144.9472  140.8141  143.5594 LP  0  0  0  0  0  0  0  0  0  0  0  0  # atno 17321 bound_to 7965
  140.0137  144.6204  150.7625 LP  0  0  0  0  0  0  0  0  0  0  0  0  # atno 17342 bound_to 10162
  140.7428  143.2837  151.3526 LP  0  0  0  0  0  0  0  0  0  0  0  0  # atno 17343 bound_to 10162
  157.7231  130.9585  150.1520 LP  0  0  0  0  0  0  0  0  0  0  0  0  # atno 17370 bound_to 10713
  156.2321  130.3683  149.8433 LP  0  0  0  0  0  0  0  0  0  0  0  0  # atno 17371 bound_to 10713
  140.8230  134.3266  157.5375 LP  0  0  0  0  0  0  0  0  0  0  0  0  # atno 17394 bound_to 11000
  139.8742  134.9320  156.3543 LP  0  0  0  0  0  0  0  0  0  0  0  0  # atno 17395 bound_to 11000

$$$$
