AV-unprocessed.smi:1598|AV-procd|sdf|6421|dock8
  -GOLD-   22720 7 63D 1   1.00000     0.00000
 Structure written by MMmdl.
 39 39  0  0  0  0  0  0  0  0  1 V2000
  152.4902  135.8681  157.5539 C   0  0  0  0  0  0  0  0  0  0  0  0
  152.0181  135.8490  156.2188 O   0  0  0  0  0  0  0  0  0  0  0  0
  151.2297  134.7029  155.9361 C   0  0  0  0  0  0  0  0  0  0  0  0
  149.8988  135.1291  155.2911 C   0  0  2  0  0  0  0  0  0  0  0  0
  149.0400  135.9825  156.2345 C   0  0  0  0  0  0  0  0  0  0  0  0
  149.1416  133.9573  154.8657 N   0  0  0  0  0  0  0  0  0  0  0  0
  149.5034  133.0884  153.9066 C   0  0  0  0  0  0  0  0  0  0  0  0
  150.5331  133.2150  153.2453 O   0  0  0  0  0  0  0  0  0  0  0  0
  148.5900  131.8752  153.6461 C   0  0  0  0  0  0  0  0  0  0  0  0
  147.3602  132.1670  152.8627 N   0  0  0  0  0  0  0  0  0  0  0  0
  147.2762  131.7734  151.4897 C   0  0  0  0  0  0  0  0  0  0  0  0
  148.4523  131.0258  150.8442 C   0  0  0  0  0  0  0  0  0  0  0  0
  148.1773  130.6937  149.5819 F   0  0  0  0  0  0  0  0  0  0  0  0
  149.5419  131.7936  150.8127 F   0  0  0  0  0  0  0  0  0  0  0  0
  148.7337  129.8895  151.4812 F   0  0  0  0  0  0  0  0  0  0  0  0
  146.1597  132.0360  150.7857 C   0  0  0  0  0  0  0  0  0  0  0  0
  145.0565  132.7162  151.4059 C   0  0  0  0  0  0  0  0  0  0  0  0
  145.1189  133.0945  152.7028 C   0  0  0  0  0  0  0  0  0  0  0  0
  144.0070  133.7945  153.3861 C   0  0  0  0  0  0  0  0  0  0  0  0
  143.1900  134.4643  152.5634 N   0  0  0  0  0  0  0  0  0  0  0  0
  143.7742  133.8134  154.5947 O   0  0  0  0  0  0  0  0  0  0  0  0
  146.3331  132.8161  153.5124 C   0  0  0  0  0  0  0  0  0  0  0  0
  146.4504  133.1219  154.7028 O   0  0  0  0  0  0  0  0  0  0  0  0
  153.0789  136.7700  157.7209 H   0  0  0  0  0  0  0  0  0  0  0  0
  153.1271  135.0066  157.7587 H   0  0  0  0  0  0  0  0  0  0  0  0
  151.6630  135.8695  158.2649 H   0  0  0  0  0  0  0  0  0  0  0  0
  151.7715  134.0332  155.2663 H   0  0  0  0  0  0  0  0  0  0  0  0
  151.0380  134.1488  156.8565 H   0  0  0  0  0  0  0  0  0  0  0  0
  150.1234  135.7398  154.4150 H   0  0  0  0  0  0  0  0  0  0  0  0
  149.5779  136.8755  156.5534 H   0  0  0  0  0  0  0  0  0  0  0  0
  148.7564  135.4274  157.1292 H   0  0  0  0  0  0  0  0  0  0  0  0
  148.1233  136.3083  155.7417 H   0  0  0  0  0  0  0  0  0  0  0  0
  148.2826  133.7749  155.3639 H   0  0  0  0  0  0  0  0  0  0  0  0
  149.1888  131.1110  153.1475 H   0  0  0  0  0  0  0  0  0  0  0  0
  148.3725  131.4098  154.6027 H   0  0  0  0  0  0  0  0  0  0  0  0
  146.0711  131.7413  149.7507 H   0  0  0  0  0  0  0  0  0  0  0  0
  144.1880  132.9066  150.7930 H   0  0  0  0  0  0  0  0  0  0  0  0
  142.4036  134.9760  152.9361 H   0  0  0  0  0  0  0  0  0  0  0  0
  143.3674  134.4564  151.5695 H   0  0  0  0  0  0  0  0  0  0  0  0
  1  2  1  0  0  0  0
  1 24  1  0  0  0  0
  1 25  1  0  0  0  0
  1 26  1  0  0  0  0
  2  3  1  0  0  0  0
  3  4  1  0  0  0  0
  3 27  1  0  0  0  0
  3 28  1  0  0  0  0
  4  5  1  0  0  0  0
  4  6  1  0  0  0  0
  4 29  1  0  0  0  0
  5 30  1  0  0  0  0
  5 31  1  0  0  0  0
  5 32  1  0  0  0  0
  6  7  1  0  0  0  0
  6 33  1  0  0  0  0
  7  8  2  0  0  0  0
  7  9  1  0  0  0  0
  9 10  1  0  0  0  0
  9 34  1  0  0  0  0
  9 35  1  0  0  0  0
 10 22  1  0  0  0  0
 10 11  1  0  0  0  0
 11 12  1  0  0  0  0
 11 16  2  0  0  0  0
 12 13  1  0  0  0  0
 12 14  1  0  0  0  0
 12 15  1  0  0  0  0
 16 17  1  0  0  0  0
 16 36  1  0  0  0  0
 17 18  2  0  0  0  0
 17 37  1  0  0  0  0
 18 19  1  0  0  0  0
 18 22  1  0  0  0  0
 19 20  1  0  0  0  0
 19 21  2  0  0  0  0
 20 38  1  0  0  0  0
 20 39  1  0  0  0  0
 22 23  2  0  0  0  0
M  END
> <s_m_source_file>
AV-unprocessed.smi

> <i_m_source_file_index>
1598

> <i_lp_mmshare_version>
43012

> <i_f3d_flags>
0

> <s_epik_input>
W0NIM11PW0NIMl1bQ0BIXShbQ0gzXSlbTkhdQyg9TylbQ0gyXW4xYyhDKEYpKEYpRilbY0hdW2NIXWMoYzE9TylDKD1PKVtOSDJd

> <s_epik_cmdline>
J2VwaWtfcHl0aG9uJywgJy1waCcsICc3LjAnLCAnLXRuJywgJzgnLCAnLW1hJywgJzIwMCcsICctbWV0YWxfYmluZGluZycsICctaW1hZScsICc8aW5maWxlLm1hZT4nLCAnLW9tYWUnLCAnPG91dGZpbGUubWFlPic=

> <r_lp_tautomer_probability>
1

> <r_epik_Ionization_Penalty>
2.07884e-06

> <r_epik_Ionization_Penalty_Charging>
8.00383e-10

> <r_epik_Ionization_Penalty_Neutral>
2.07804e-06

> <r_epik_State_Penalty>
-0

> <r_epik_Charging_Adjusted_Penalty>
8.00383e-10

> <i_epik_Tot_Q>
0

> <i_epik_Tot_abs_Q>
0

> <r_epik_Metal_State_Penalty>
-0

> <b_epik_Metal_Only>
0

> <s_lp_Force_Field>
OPLS_2005

> <r_lp_Energy>
25.9184

> <b_lp_Chiralities_Consistent>
1

> <s_lp_Variant>
AV-unprocessed.smi:1598-1

> <Gold.Version>
5.8.1

> <Gold.Id.Protein>
6NUR|6NUR_protein|mol2

> <Gold.PLP.Fitness>
36.5051

> <Gold.PLP.PLP>
-30.2765

> <Gold.PLP.part.hbond>
-3.5179

> <Gold.PLP.part.metal>
0.0000

> <Gold.PLP.part.buried>
-4.7090

> <Gold.PLP.part.nonpolar>
-23.0993

> <Gold.PLP.part.repulsive>
1.5968

> <Gold.PLP.ligand.clash>
3.8624

> <Gold.PLP.ligand.torsion>
1.1144

> <Gold.PLP.Chemscore.Hbond>
2.7600

> <Gold.PLP.Chemscore.CHOScore>
0.0000

> <Gold.PLP.Chemscore.Metal>
0.0000

> <Gold.Chemscore.Hbonds>
donor molecule, donor type, donor heavy atom, donor atom, acceptor molecule, acceptor atom, score
      P1  H 10752 10765       L1     2  0.70

> <Gold.PLP.Chemscore.Internal.Correction>
4.0399

> <Gold.Rescore>
     Score         DG    S(hbond)    S(metal)    S(lipo)     H(rot)  DE(clash)    DE(int)     intcor
      8.04     -13.98       2.73        0.00      47.87       2.43       0.24       5.70       ----

> <Gold.Chemscore.Fitness>
8.0388

> <Gold.Chemscore.DG>
-13.9806

> <Gold.Chemscore.ZeroCoef>
-5.4800

> <Gold.Chemscore.Hbond>
2.7301

> <Gold.Chemscore.Metal>
0.0000

> <Gold.Chemscore.Lipo>
47.8651

> <Gold.Chemscore.Internal_Hbond>
0.0000

> <Gold.Chemscore.DEClash>
0.2390

> <Gold.Chemscore.DEInternal>
5.7028

> <Gold.Chemscore.Rot>
2.4289

> <Gold.Chemscore.Internal.Correction>
   9.000000E+99

> <Gold.Chemscore.Hbonds>
donor molecule, donor type, donor heavy atom, donor atom, acceptor molecule, acceptor atom, score
      P1  H 10752 10765       L1     2  0.06

> <Gold.Chemscore.Hbond.Weighted>
-9.1184

> <Gold.Chemscore.Metal.Weighted>
-0.0000

> <Gold.Chemscore.Lipo.Weighted>
-5.6002

> <Gold.Chemscore.Internal_Hbond.Weighted>
0.0000

> <Gold.Chemscore.DEClash.Weighted>
0.2390

> <Gold.Chemscore.DEInternal.Weighted>
5.7028

> <Gold.Chemscore.Rot.Weighted>
6.2180

> <Gold.Chemscore.Internal.Correction.Weighted>
   9.000000E+99

> <Gold.Protein.RotatedTorsions>
[ 6907 6896 6895 6894 ] final   69.13 input  -60.11 | X-H torsion
[ 7974 7965 7964 7962 ] final  167.22 input  175.53 | X-H torsion
[ 8008 7997 7996 7995 ] final   47.02 input   59.86 | X-H torsion
[ 10167 10162 10161 10158 ] final -133.15 input  -65.29 | X-H torsion
[ 10718 10713 10712 10709 ] final  -61.09 input   66.30 | X-H torsion
[ 10763 10752 10751 10750 ] final -143.52 input  -60.55 | X-H torsion
[ 11005 11000 10999 10996 ] final   32.70 input  -57.11 | X-H torsion

> <Gold.Protein.ActiveResidues>
 VAL166  LYS551  ARG553  GLY616  TRP617  ASP618  TYR619  PRO620  LYS621  CYS622 
 ASP623  PHE694  ASN695  SER759  ASP760  ASP761  ALA762  ILE779  LEU786  VAL792 
 PHE793  MET794  SER795  GLU796  ALA797  LYS798  CYS799  TRP800  GLU811  SER814 

> <Gold.Protein.RotatedAtoms>
  152.4666  134.5061  159.9739 H   0  0  0  0  0  0  0  0  0  0  0  0  # atno 6907 bound_to 6896
  151.5097  133.3481  159.2891 H   0  0  0  0  0  0  0  0  0  0  0  0  # atno 6908 bound_to 6896
  150.8654  134.8044  159.7176 H   0  0  0  0  0  0  0  0  0  0  0  0  # atno 6909 bound_to 6896
  144.7432  139.8729  143.6390 H   0  0  0  0  0  0  0  0  0  0  0  0  # atno 7974 bound_to 7965
  155.3621  140.3419  155.4241 H   0  0  0  0  0  0  0  0  0  0  0  0  # atno 8008 bound_to 7997
  156.1708  140.1631  156.8485 H   0  0  0  0  0  0  0  0  0  0  0  0  # atno 8009 bound_to 7997
  154.5231  140.0762  156.8191 H   0  0  0  0  0  0  0  0  0  0  0  0  # atno 8010 bound_to 7997
  139.9012  143.6605  152.2594 H   0  0  0  0  0  0  0  0  0  0  0  0  # atno 10167 bound_to 10162
  156.0945  130.4195  150.0946 H   0  0  0  0  0  0  0  0  0  0  0  0  # atno 10718 bound_to 10713
  154.8466  135.3465  154.6201 H   0  0  0  0  0  0  0  0  0  0  0  0  # atno 10763 bound_to 10752
  153.6810  135.6980  153.5123 H   0  0  0  0  0  0  0  0  0  0  0  0  # atno 10764 bound_to 10752
  153.2668  135.4305  155.0905 H   0  0  0  0  0  0  0  0  0  0  0  0  # atno 10765 bound_to 10752
  140.2707  134.3085  155.7829 H   0  0  0  0  0  0  0  0  0  0  0  0  # atno 11005 bound_to 11000
  146.1267  139.4294  143.0194 LP  0  0  0  0  0  0  0  0  0  0  0  0  # atno 17320 bound_to 7965
  145.7224  141.0070  143.1395 LP  0  0  0  0  0  0  0  0  0  0  0  0  # atno 17321 bound_to 7965
  139.7023  144.7633  151.1251 LP  0  0  0  0  0  0  0  0  0  0  0  0  # atno 17342 bound_to 10162
  140.7706  143.5441  150.9279 LP  0  0  0  0  0  0  0  0  0  0  0  0  # atno 17343 bound_to 10162
  156.8948  130.9600  151.3584 LP  0  0  0  0  0  0  0  0  0  0  0  0  # atno 17370 bound_to 10713
  157.6103  130.8578  149.8940 LP  0  0  0  0  0  0  0  0  0  0  0  0  # atno 17371 bound_to 10713
  141.2178  133.7465  156.9330 LP  0  0  0  0  0  0  0  0  0  0  0  0  # atno 17394 bound_to 11000
  140.1376  134.9315  157.2423 LP  0  0  0  0  0  0  0  0  0  0  0  0  # atno 17395 bound_to 11000

$$$$
