#       Name:                AV-unprocessed.smi:3253
#       Creating user name   scv26
#       Creation time:       Fri Mar 27 18:34:35 2020


#       File generated by GOLD software.
#

@<TRIPOS>MOLECULE
AV-unprocessed.smi:3253
    41    42     1
SMALL
NO_CHARGES


@<TRIPOS>ATOM
      1 ****        -3.2841  -2.0319  -0.3240 C.3            1 S1                 0.0000
      2 ****        -2.4540  -0.7882   0.0214 C.3            1 S1                 0.0000
      3 ****        -2.8426  -0.2184   1.4025 C.3            1 S1                 0.0000
      4 ****        -2.1791   1.0388   1.6972 N.pl3          1 S1                 0.0000
      5 ****        -1.1111   1.2418   2.5618 C.2            1 S1                 0.0000
      6 ****        -0.8135   2.5847   2.5104 C.2            1 S1                 0.0000
      7 ****        -1.6851   3.2246   1.6325 N.2            1 S1                 0.0000
      8 ****        -2.4653   2.2463   1.1916 C.2            1 S1                 0.0000
      9 ****        -1.0347  -1.1391  -0.0134 N.am           1 S1                 0.0000
     10 ****        -0.0523  -0.3791  -0.5233 C.2            1 S1                 0.0000
     11 ****        -0.2493   0.7079  -1.0675 O.2            1 S1                 0.0000
     12 ****         1.3771  -0.9219  -0.3771 C.3            1 S1                 0.0000
     13 ****         2.2279  -0.0112   0.5317 C.3            1 S1                 0.0000
     14 ****         3.2607   0.5861  -0.4090 C.2            1 S1                 0.0000
     15 ****         4.0645   1.4485  -0.0581 O.2            1 S1                 0.0000
     16 ****         3.1580   0.0555  -1.6306 N.am           1 S1                 0.0000
     17 ****         3.9779   0.4037  -2.7830 C.3            1 S1                 0.0000
     18 ****         2.1337  -0.9706  -1.7228 C.3            1 S1                 0.0000
     19 ****        -4.3497  -1.8013  -0.3354 H              1 S1                 0.0000
     20 ****        -3.1248  -2.8313   0.4007 H              1 S1                 0.0000
     21 ****        -3.0216  -2.4177  -1.3097 H              1 S1                 0.0000
     22 ****        -2.6703  -0.0369  -0.7405 H              1 S1                 0.0000
     23 ****        -3.9186  -0.0456   1.4476 H              1 S1                 0.0000
     24 ****        -2.6084  -0.9333   2.1927 H              1 S1                 0.0000
     25 ****        -0.6585   0.4357   3.1199 H              1 S1                 0.0000
     26 ****        -0.0456   3.1354   3.0334 H              1 S1                 0.0000
     27 ****        -3.2598   2.4106   0.4784 H              1 S1                 0.0000
     28 ****        -0.7759  -2.0177   0.4115 H              1 S1                 0.0000
     29 ****         1.3335  -1.9265   0.0471 H              1 S1                 0.0000
     30 ****         1.6565   0.7798   1.0208 H              1 S1                 0.0000
     31 ****         2.7323  -0.5892   1.3066 H              1 S1                 0.0000
     32 ****         5.0382   0.3501  -2.5333 H              1 S1                 0.0000
     33 ****         3.7531   1.4174  -3.1159 H              1 S1                 0.0000
     34 ****         3.7933  -0.2759  -3.6154 H              1 S1                 0.0000
     35 ****         2.6081  -1.9425  -1.8650 H              1 S1                 0.0000
     36 ****         1.4887  -0.7902  -2.5849 H              1 S1                 0.0000
     37 ****        -1.7157   4.1946   1.3910 LP             1 S1                 0.0000
     38 ****        -1.1796   1.0661  -1.1468 LP             1 S1                 0.0000
     39 ****         0.5210   1.2325  -1.4301 LP             1 S1                 0.0000
     40 ****         4.0563   1.7865   0.8831 LP             1 S1                 0.0000
     41 ****         4.7263   1.8118  -0.7139 LP             1 S1                 0.0000
@<TRIPOS>BOND
    1    1    2 1     
    2    1   19 1     
    3    1   20 1     
    4    1   21 1     
    5    2    3 1     
    6    2    9 1     
    7    2   22 1     
    8    3    4 1     
    9    3   23 1     
   10    3   24 1     
   11    4    8 1     
   12    4    5 1     
   13    5    6 2     
   14    5   25 1     
   15    6    7 1     
   16    6   26 1     
   17    7    8 2     
   18    8   27 1     
   19    9   10 am    
   20    9   28 1     
   21   10   11 2     
   22   10   12 1     
   23   12   18 1     
   24   12   13 1     
   25   12   29 1     
   26   13   14 1     
   27   13   30 1     
   28   13   31 1     
   29   14   15 2     
   30   14   16 am    
   31   16   17 1     
   32   16   18 1     
   33   17   32 1     
   34   17   33 1     
   35   17   34 1     
   36   18   35 1     
   37   18   36 1     
   38    7   37 1     
   39   11   38 1     
   40   11   39 1     
   41   15   40 1     
   42   15   41 1     
@<TRIPOS>SUBSTRUCTURE
      1 S1             1
@<TRIPOS>SET
LONE_PAIRS      STATIC     ATOMS    <user>   **** ""
5 37 38 39 40 41
DONOR_HYDROGENS      STATIC     ATOMS    <user>   **** ""
1 28
ATOM$BLUE        STATIC     ATOMS    COLORGROUP SYSTEM
5 37 38 39 40 41
ATOM$RED        STATIC     ATOMS    COLORGROUP SYSTEM
1 28
