AV-unprocessed.smi:1758|AV-procd|sdf|7084|dock6
  -GOLD-   22720 8303D 1   1.00000     0.00000
 Structure written by MMmdl.
 44 46  0  0  0  0  0  0  0  0  2 V2000
  153.4085  142.1389  161.1575 C   0  0  0  0  0  0  0  0  0  0  0  0
  152.7444  143.4918  160.8759 C   0  0  0  0  0  0  0  0  0  0  0  0
  152.1084  143.5177  159.5735 N   0  0  0  0  0  0  0  0  0  0  0  0
  151.7007  142.4483  158.8012 C   0  0  0  0  0  0  0  0  0  0  0  0
  151.1593  142.9941  157.6717 C   0  0  0  0  0  0  0  0  0  0  0  0
  150.5838  142.3497  156.5481 N   0  0  0  0  0  0  0  0  0  0  0  0
  150.7306  141.0662  156.1820 C   0  0  0  0  0  0  0  0  0  0  0  0
  151.4178  140.2340  156.7741 O   0  0  0  0  0  0  0  0  0  0  0  0
  150.0348  140.7949  155.0691 N   0  0  0  0  0  0  0  0  0  0  0  0
  149.9971  139.4992  154.3977 C   0  0  1  0  0  0  0  0  0  0  0  0
  151.3506  138.7676  154.4290 C   0  0  0  0  0  0  0  0  0  0  0  0
  151.0052  137.2768  154.6166 C   0  0  0  0  0  0  0  0  0  0  0  0
  149.5313  137.2101  154.5948 N   0  3  1  0  0  0  0  0  0  0  0  0
  148.8983  136.0647  155.2843 C   0  0  0  0  0  0  0  0  0  0  0  0
  147.3714  136.1277  155.0780 C   0  0  0  0  0  0  0  0  0  0  0  0
  146.7937  137.4956  155.4949 C   0  0  0  0  0  0  0  0  0  0  0  0
  147.5537  138.6515  154.8160 C   0  0  0  0  0  0  0  0  0  0  0  0
  149.0597  138.5103  155.0949 C   0  0  2  0  0  0  0  0  0  0  0  0
  151.2733  144.4000  157.8276 C   0  0  0  0  0  0  0  0  0  0  0  0
  151.8497  144.7088  158.9791 N   0  0  0  0  0  0  0  0  0  0  0  0
  153.8846  142.1377  162.1378 H   0  0  0  0  0  0  0  0  0  0  0  0
  154.1743  141.9147  160.4146 H   0  0  0  0  0  0  0  0  0  0  0  0
  152.6787  141.3289  161.1420 H   0  0  0  0  0  0  0  0  0  0  0  0
  151.9952  143.7143  161.6368 H   0  0  0  0  0  0  0  0  0  0  0  0
  153.4857  144.2903  160.9186 H   0  0  0  0  0  0  0  0  0  0  0  0
  151.8294  141.4256  159.1241 H   0  0  0  0  0  0  0  0  0  0  0  0
  149.9988  142.9283  155.9630 H   0  0  0  0  0  0  0  0  0  0  0  0
  149.4973  141.5414  154.6530 H   0  0  0  0  0  0  0  0  0  0  0  0
  149.6949  139.6143  153.3543 H   0  0  0  0  0  0  0  0  0  0  0  0
  151.9132  138.9427  153.5111 H   0  0  0  0  0  0  0  0  0  0  0  0
  151.9688  139.1088  155.2609 H   0  0  0  0  0  0  0  0  0  0  0  0
  151.4307  136.6488  153.8335 H   0  0  0  0  0  0  0  0  0  0  0  0
  151.3834  136.9240  155.5773 H   0  0  0  0  0  0  0  0  0  0  0  0
  149.2947  135.1310  154.8840 H   0  0  0  0  0  0  0  0  0  0  0  0
  149.1417  136.0898  156.3477 H   0  0  0  0  0  0  0  0  0  0  0  0
  147.1422  135.9475  154.0268 H   0  0  0  0  0  0  0  0  0  0  0  0
  146.8850  135.3295  155.6395 H   0  0  0  0  0  0  0  0  0  0  0  0
  145.7328  137.5471  155.2484 H   0  0  0  0  0  0  0  0  0  0  0  0
  146.8645  137.6033  156.5781 H   0  0  0  0  0  0  0  0  0  0  0  0
  147.3668  138.6407  153.7413 H   0  0  0  0  0  0  0  0  0  0  0  0
  147.1846  139.6069  155.1895 H   0  0  0  0  0  0  0  0  0  0  0  0
  149.2345  138.5520  156.1726 H   0  0  0  0  0  0  0  0  0  0  0  0
  150.9643  145.1899  157.1591 H   0  0  0  0  0  0  0  0  0  0  0  0
  149.2605  137.1637  153.6228 H   0  0  0  0  0  0  0  0  0  0  0  0
  1  2  1  0  0  0  0
  1 21  1  0  0  0  0
  1 22  1  0  0  0  0
  1 23  1  0  0  0  0
  2  3  1  0  0  0  0
  2 24  1  0  0  0  0
  2 25  1  0  0  0  0
  3 20  1  0  0  0  0
  3  4  1  0  0  0  0
  4  5  2  0  0  0  0
  4 26  1  0  0  0  0
  5  6  1  0  0  0  0
  5 19  1  0  0  0  0
  6  7  1  0  0  0  0
  6 27  1  0  0  0  0
  7  8  2  0  0  0  0
  7  9  1  0  0  0  0
  9 10  1  0  0  0  0
  9 28  1  0  0  0  0
 10 18  1  0  0  0  0
 10 11  1  0  0  0  0
 10 29  1  0  0  0  0
 11 12  1  0  0  0  0
 11 30  1  0  0  0  0
 11 31  1  0  0  0  0
 12 13  1  0  0  0  0
 12 32  1  0  0  0  0
 12 33  1  0  0  0  0
 13 18  1  0  0  0  0
 13 14  1  0  0  0  0
 13 44  1  0  0  0  0
 14 15  1  0  0  0  0
 14 34  1  0  0  0  0
 14 35  1  0  0  0  0
 15 16  1  0  0  0  0
 15 36  1  0  0  0  0
 15 37  1  0  0  0  0
 16 17  1  0  0  0  0
 16 38  1  0  0  0  0
 16 39  1  0  0  0  0
 17 18  1  0  0  0  0
 17 40  1  0  0  0  0
 17 41  1  0  0  0  0
 18 42  1  0  0  0  0
 19 20  2  0  0  0  0
 19 43  1  0  0  0  0
M  CHG  1  13   1
M  END
> <s_m_source_file>
AV-unprocessed.smi

> <i_m_source_file_index>
1758

> <i_lp_mmshare_version>
43012

> <i_f3d_flags>
0

> <s_epik_input>
W0NIM11bQ0gyXW4xW2NIXWMoW2NIXW4xKVtOSF1DKD1PKVtOSF1bQ0BIXShbQ0gyXVtDSDJdMilbQ0BASF0oTjIzKVtDSDJdW0NIMl1bQ0gyXVtDSDJdMw==

> <s_epik_cmdline>
J2VwaWtfcHl0aG9uJywgJy1waCcsICc3LjAnLCAnLXRuJywgJzgnLCAnLW1hJywgJzIwMCcsICctbWV0YWxfYmluZGluZycsICctaW1hZScsICc8aW5maWxlLm1hZT4nLCAnLW9tYWUnLCAnPG91dGZpbGUubWFlPic=

> <r_lp_tautomer_probability>
1

> <r_epik_Ionization_Penalty>
0.00111541

> <r_epik_Ionization_Penalty_Charging>
0.000974069

> <r_epik_Ionization_Penalty_Neutral>
0.000141346

> <r_epik_State_Penalty>
0.000633842

> <r_epik_Charging_Adjusted_Penalty>
0.00160791

> <i_epik_Tot_Q>
1

> <i_epik_Tot_abs_Q>
1

> <r_epik_Metal_State_Penalty>
-0

> <b_epik_Metal_Only>
0

> <s_lp_Force_Field>
OPLS_2005

> <r_lp_Energy>
38.7451

> <b_lp_Chiralities_Consistent>
1

> <s_lp_Variant>
AV-unprocessed.smi:1758-6

> <Gold.Version>
5.8.1

> <Gold.Id.Protein>
6NUR|6NUR_protein|mol2

> <Gold.PLP.Fitness>
45.0014

> <Gold.PLP.PLP>
-35.7408

> <Gold.PLP.part.hbond>
-1.9856

> <Gold.PLP.part.metal>
0.0000

> <Gold.PLP.part.buried>
-5.8564

> <Gold.PLP.part.nonpolar>
-28.8175

> <Gold.PLP.part.repulsive>
0.6344

> <Gold.PLP.ligand.clash>
0.0000

> <Gold.PLP.ligand.torsion>
0.6590

> <Gold.PLP.Chemscore.Hbond>
2.7738

> <Gold.PLP.Chemscore.CHOScore>
0.7491

> <Gold.PLP.Chemscore.Metal>
0.0000

> <Gold.Chemscore.Hbonds>
donor molecule, donor type, donor heavy atom, donor atom, acceptor molecule, acceptor atom, score
      L1  H     6    27       P1  8028  0.75
      L1  H    13    44       P1  7948  2.00
      L1  C    19    43       P1  8028  0.72

> <Gold.PLP.Chemscore.Internal.Correction>
0.0098

> <Gold.Rescore>
     Score         DG    S(hbond)    S(metal)    S(lipo)     H(rot)  DE(clash)    DE(int)     intcor
     15.44     -18.61       1.81        0.00      86.52       1.19       0.01       3.16       ----

> <Gold.Chemscore.Fitness>
15.4387

> <Gold.Chemscore.DG>
-18.6073

> <Gold.Chemscore.ZeroCoef>
-5.4800

> <Gold.Chemscore.Hbond>
1.8105

> <Gold.Chemscore.Metal>
0.0000

> <Gold.Chemscore.Lipo>
86.5179

> <Gold.Chemscore.Internal_Hbond>
0.0000

> <Gold.Chemscore.DEClash>
0.0130

> <Gold.Chemscore.DEInternal>
3.1556

> <Gold.Chemscore.Rot>
1.1884

> <Gold.Chemscore.Internal.Correction>
   9.000000E+99

> <Gold.Chemscore.Hbonds>
donor molecule, donor type, donor heavy atom, donor atom, acceptor molecule, acceptor atom, score
      L1  H     6    27       P1  8028  0.71
      L1  H    13    44       P1  7948  0.93

> <Gold.Chemscore.Hbond.Weighted>
-6.0470

> <Gold.Chemscore.Metal.Weighted>
-0.0000

> <Gold.Chemscore.Lipo.Weighted>
-10.1226

> <Gold.Chemscore.Internal_Hbond.Weighted>
0.0000

> <Gold.Chemscore.DEClash.Weighted>
0.0130

> <Gold.Chemscore.DEInternal.Weighted>
3.1556

> <Gold.Chemscore.Rot.Weighted>
3.0423

> <Gold.Chemscore.Internal.Correction.Weighted>
   9.000000E+99

> <Gold.Protein.RotatedTorsions>
[ 6907 6896 6895 6894 ] final  137.96 input  -60.11 | X-H torsion
[ 7974 7965 7964 7962 ] final  -48.46 input  175.53 | X-H torsion
[ 8008 7997 7996 7995 ] final   14.42 input   59.86 | X-H torsion
[ 10167 10162 10161 10158 ] final  -57.76 input  -65.29 | X-H torsion
[ 10718 10713 10712 10709 ] final   69.83 input   66.30 | X-H torsion
[ 10763 10752 10751 10750 ] final   51.88 input  -60.55 | X-H torsion
[ 11005 11000 10999 10996 ] final  102.93 input  -57.11 | X-H torsion

> <Gold.Protein.ActiveResidues>
 VAL166  LYS551  ARG553  GLY616  TRP617  ASP618  TYR619  PRO620  LYS621  CYS622 
 ASP623  PHE694  ASN695  SER759  ASP760  ASP761  ALA762  ILE779  LEU786  VAL792 
 PHE793  MET794  SER795  GLU796  ALA797  LYS798  CYS799  TRP800  GLU811  SER814 

> <Gold.Protein.RotatedAtoms>
  152.2721  133.5391  159.5444 H   0  0  0  0  0  0  0  0  0  0  0  0  # atno 6907 bound_to 6896
  150.7163  134.0684  159.3864 H   0  0  0  0  0  0  0  0  0  0  0  0  # atno 6908 bound_to 6896
  151.8598  135.0528  160.0519 H   0  0  0  0  0  0  0  0  0  0  0  0  # atno 6909 bound_to 6896
  145.9509  140.7573  142.9505 H   0  0  0  0  0  0  0  0  0  0  0  0  # atno 7974 bound_to 7965
  154.8482  140.2925  155.5615 H   0  0  0  0  0  0  0  0  0  0  0  0  # atno 8008 bound_to 7997
  156.3015  140.2501  156.3368 H   0  0  0  0  0  0  0  0  0  0  0  0  # atno 8009 bound_to 7997
  154.9050  140.0390  157.1904 H   0  0  0  0  0  0  0  0  0  0  0  0  # atno 8010 bound_to 7997
  140.6238  143.2430  151.5414 H   0  0  0  0  0  0  0  0  0  0  0  0  # atno 10167 bound_to 10162
  157.6367  130.9446  150.0567 H   0  0  0  0  0  0  0  0  0  0  0  0  # atno 10718 bound_to 10713
  152.9786  135.5831  154.4487 H   0  0  0  0  0  0  0  0  0  0  0  0  # atno 10763 bound_to 10752
  154.4079  135.2769  155.2058 H   0  0  0  0  0  0  0  0  0  0  0  0  # atno 10764 bound_to 10752
  154.3860  135.6136  153.5871 H   0  0  0  0  0  0  0  0  0  0  0  0  # atno 10765 bound_to 10752
  139.8780  134.9243  156.5132 H   0  0  0  0  0  0  0  0  0  0  0  0  # atno 11005 bound_to 11000
  144.6795  140.2433  143.7341 LP  0  0  0  0  0  0  0  0  0  0  0  0  # atno 17320 bound_to 7965
  145.8173  139.2028  143.1958 LP  0  0  0  0  0  0  0  0  0  0  0  0  # atno 17321 bound_to 7965
  139.5462  144.2515  152.1446 LP  0  0  0  0  0  0  0  0  0  0  0  0  # atno 17342 bound_to 10162
  140.1742  144.4907  150.6563 LP  0  0  0  0  0  0  0  0  0  0  0  0  # atno 17343 bound_to 10162
  156.1612  130.3644  149.9296 LP  0  0  0  0  0  0  0  0  0  0  0  0  # atno 17370 bound_to 10713
  156.7294  130.9037  151.3624 LP  0  0  0  0  0  0  0  0  0  0  0  0  # atno 17371 bound_to 10713
  140.8504  133.8136  155.9163 LP  0  0  0  0  0  0  0  0  0  0  0  0  # atno 17394 bound_to 11000
  140.9149  134.2214  157.4963 LP  0  0  0  0  0  0  0  0  0  0  0  0  # atno 17395 bound_to 11000

$$$$
