AV-unprocessed.smi:1734|AV-procd|sdf|6981|dock4
  -GOLD-   22720 8193D 1   1.00000     0.00000
 Structure written by MMmdl.
 50 52  0  0  0  0  0  0  0  0  1 V2000
  147.7031  133.1676  152.4380 C   0  0  0  0  0  0  0  0  0  0  0  0
  146.4243  133.2224  151.6177 C   0  0  0  0  0  0  0  0  0  0  0  0
  145.8443  132.0191  151.1630 C   0  0  0  0  0  0  0  0  0  0  0  0
  144.6625  132.0711  150.4045 C   0  0  0  0  0  0  0  0  0  0  0  0
  144.1075  133.3326  150.1301 C   0  0  0  0  0  0  0  0  0  0  0  0
  144.6549  134.4874  150.5606 N   0  0  0  0  0  0  0  0  0  0  0  0
  145.7950  134.4551  151.2954 C   0  0  0  0  0  0  0  0  0  0  0  0
  146.4282  135.6331  151.7833 N   0  0  0  0  0  0  0  0  0  0  0  0
  145.8675  136.6990  152.3814 C   0  0  0  0  0  0  0  0  0  0  0  0
  144.6673  136.8318  152.6224 O   0  0  0  0  0  0  0  0  0  0  0  0
  146.7920  137.6203  152.6885 N   0  0  0  0  0  0  0  0  0  0  0  0
  146.5343  138.9025  153.3388 C   0  0  0  0  0  0  0  0  0  0  0  0
  147.8474  139.6899  153.5944 C   0  0  1  0  0  0  0  0  0  0  0  0
  147.5898  141.0805  154.2560 C   0  0  2  0  0  0  0  0  0  0  0  0
  147.1894  141.0744  155.7345 C   0  0  0  0  0  0  0  0  0  0  0  0
  145.9182  141.9202  155.7746 C   0  0  0  0  0  0  0  0  0  0  0  0
  146.0495  142.7863  154.6603 O   0  0  0  0  0  0  0  0  0  0  0  0
  146.5608  142.0095  153.5887 C   0  0  0  0  0  0  0  0  0  0  0  0
  148.9403  138.8972  154.1954 N   0  0  0  0  0  0  0  0  0  0  0  0
  148.5468  138.2078  155.4229 C   0  0  0  0  0  0  0  0  0  0  0  0
  149.6587  137.2803  155.9386 C   0  0  0  0  0  0  0  0  0  0  0  0
  150.8446  138.0394  156.1468 O   0  0  0  0  0  0  0  0  0  0  0  0
  151.2964  138.6832  154.9603 C   0  0  0  0  0  0  0  0  0  0  0  0
  150.1976  139.6108  154.4113 C   0  0  0  0  0  0  0  0  0  0  0  0
  148.0334  132.1396  152.5906 H   0  0  0  0  0  0  0  0  0  0  0  0
  147.5476  133.6185  153.4187 H   0  0  0  0  0  0  0  0  0  0  0  0
  148.5048  133.7058  151.9311 H   0  0  0  0  0  0  0  0  0  0  0  0
  146.2973  131.0653  151.3914 H   0  0  0  0  0  0  0  0  0  0  0  0
  144.1936  131.1681  150.0424 H   0  0  0  0  0  0  0  0  0  0  0  0
  143.2004  133.4177  149.5502 H   0  0  0  0  0  0  0  0  0  0  0  0
  147.4293  135.6650  151.6616 H   0  0  0  0  0  0  0  0  0  0  0  0
  147.7530  137.4217  152.4518 H   0  0  0  0  0  0  0  0  0  0  0  0
  145.8380  139.5080  152.7575 H   0  0  0  0  0  0  0  0  0  0  0  0
  146.0262  138.6737  154.2742 H   0  0  0  0  0  0  0  0  0  0  0  0
  148.2117  139.9547  152.6005 H   0  0  0  0  0  0  0  0  0  0  0  0
  148.5363  141.6220  154.2132 H   0  0  0  0  0  0  0  0  0  0  0  0
  147.0243  140.0853  156.1602 H   0  0  0  0  0  0  0  0  0  0  0  0
  147.9708  141.5506  156.3281 H   0  0  0  0  0  0  0  0  0  0  0  0
  145.0330  141.2956  155.6466 H   0  0  0  0  0  0  0  0  0  0  0  0
  145.8117  142.4759  156.7065 H   0  0  0  0  0  0  0  0  0  0  0  0
  147.0124  142.6524  152.8334 H   0  0  0  0  0  0  0  0  0  0  0  0
  145.7452  141.4719  153.1101 H   0  0  0  0  0  0  0  0  0  0  0  0
  148.3119  138.9289  156.2055 H   0  0  0  0  0  0  0  0  0  0  0  0
  147.6424  137.6237  155.2494 H   0  0  0  0  0  0  0  0  0  0  0  0
  149.3609  136.8176  156.8796 H   0  0  0  0  0  0  0  0  0  0  0  0
  149.8511  136.4732  155.2300 H   0  0  0  0  0  0  0  0  0  0  0  0
  152.1966  139.2552  155.1850 H   0  0  0  0  0  0  0  0  0  0  0  0
  151.5718  137.9335  154.2169 H   0  0  0  0  0  0  0  0  0  0  0  0
  150.5611  140.0309  153.4777 H   0  0  0  0  0  0  0  0  0  0  0  0
  150.0469  140.4394  155.1039 H   0  0  0  0  0  0  0  0  0  0  0  0
  1  2  1  0  0  0  0
  1 25  1  0  0  0  0
  1 26  1  0  0  0  0
  1 27  1  0  0  0  0
  2  7  1  0  0  0  0
  2  3  2  0  0  0  0
  3  4  1  0  0  0  0
  3 28  1  0  0  0  0
  4  5  2  0  0  0  0
  4 29  1  0  0  0  0
  5  6  1  0  0  0  0
  5 30  1  0  0  0  0
  6  7  2  0  0  0  0
  7  8  1  0  0  0  0
  8  9  1  0  0  0  0
  8 31  1  0  0  0  0
  9 10  2  0  0  0  0
  9 11  1  0  0  0  0
 11 12  1  0  0  0  0
 11 32  1  0  0  0  0
 12 13  1  0  0  0  0
 12 33  1  0  0  0  0
 12 34  1  0  0  0  0
 13 14  1  0  0  0  0
 13 19  1  0  0  0  0
 13 35  1  0  0  0  0
 14 18  1  0  0  0  0
 14 15  1  0  0  0  0
 14 36  1  0  0  0  0
 15 16  1  0  0  0  0
 15 37  1  0  0  0  0
 15 38  1  0  0  0  0
 16 17  1  0  0  0  0
 16 39  1  0  0  0  0
 16 40  1  0  0  0  0
 17 18  1  0  0  0  0
 18 41  1  0  0  0  0
 18 42  1  0  0  0  0
 19 24  1  0  0  0  0
 19 20  1  0  0  0  0
 20 21  1  0  0  0  0
 20 43  1  0  0  0  0
 20 44  1  0  0  0  0
 21 22  1  0  0  0  0
 21 45  1  0  0  0  0
 21 46  1  0  0  0  0
 22 23  1  0  0  0  0
 23 24  1  0  0  0  0
 23 47  1  0  0  0  0
 23 48  1  0  0  0  0
 24 49  1  0  0  0  0
 24 50  1  0  0  0  0
M  END
> <s_m_source_file>
AV-unprocessed.smi

> <i_m_source_file_index>
1734

> <i_lp_mmshare_version>
43012

> <i_f3d_flags>
0

> <s_epik_input>
W0NIM11jMVtjSF1bY0hdW2NIXW5jMVtOSF1DKD1PKVtOSF1bQ0gyXVtDQEhdKFtDQEBIXTJbQ0gyXVtDSDJdT1tDSDJdMilOM1tDSDJdW0NIMl1PW0NIMl1bQ0gyXTM=

> <s_epik_cmdline>
J2VwaWtfcHl0aG9uJywgJy1waCcsICc3LjAnLCAnLXRuJywgJzgnLCAnLW1hJywgJzIwMCcsICctbWV0YWxfYmluZGluZycsICctaW1hZScsICc8aW5maWxlLm1hZT4nLCAnLW9tYWUnLCAnPG91dGZpbGUubWFlPic=

> <r_epik_Ionization_Penalty>
0.125073

> <r_epik_Ionization_Penalty_Charging>
0

> <r_epik_Ionization_Penalty_Neutral>
0.125073

> <r_epik_State_Penalty>
0.114484

> <r_epik_Charging_Adjusted_Penalty>
0.114484

> <i_epik_Tot_Q>
0

> <i_epik_Tot_abs_Q>
0

> <r_epik_Metal_State_Penalty>
0.114483

> <b_epik_Metal_Only>
0

> <s_lp_Force_Field>
OPLS_2005

> <r_lp_Energy>
56.6734

> <b_lp_Chiralities_Consistent>
1

> <s_lp_Variant>
AV-unprocessed.smi:1734-2

> <Gold.Version>
5.8.1

> <Gold.Id.Protein>
6NUR|6NUR_protein|mol2

> <Gold.PLP.Fitness>
43.7486

> <Gold.PLP.PLP>
-35.7597

> <Gold.PLP.part.hbond>
-2.0000

> <Gold.PLP.part.metal>
0.0000

> <Gold.PLP.part.buried>
-4.9294

> <Gold.PLP.part.nonpolar>
-29.7487

> <Gold.PLP.part.repulsive>
0.9081

> <Gold.PLP.ligand.clash>
0.0000

> <Gold.PLP.ligand.torsion>
0.6295

> <Gold.PLP.Chemscore.Hbond>
1.9600

> <Gold.PLP.Chemscore.CHOScore>
1.0000

> <Gold.PLP.Chemscore.Metal>
0.0000

> <Gold.Chemscore.Hbonds>
donor molecule, donor type, donor heavy atom, donor atom, acceptor molecule, acceptor atom, score
      L1  H     8    31       P1  7948  1.00
      L1  H    11    32       P1  7948  0.96
      L1  C     5    30       P1 10186  1.00

> <Gold.PLP.Chemscore.Internal.Correction>
0.3678

> <Gold.Rescore>
     Score         DG    S(hbond)    S(metal)    S(lipo)     H(rot)  DE(clash)    DE(int)     intcor
     17.45     -18.50       1.93        0.00      92.15       1.65       0.35       0.70       ----

> <Gold.Chemscore.Fitness>
17.4488

> <Gold.Chemscore.DG>
-18.5030

> <Gold.Chemscore.ZeroCoef>
-5.4800

> <Gold.Chemscore.Hbond>
1.9344

> <Gold.Chemscore.Metal>
0.0000

> <Gold.Chemscore.Lipo>
92.1464

> <Gold.Chemscore.Internal_Hbond>
0.0000

> <Gold.Chemscore.DEClash>
0.3525

> <Gold.Chemscore.DEInternal>
0.7017

> <Gold.Chemscore.Rot>
1.6480

> <Gold.Chemscore.Internal.Correction>
   9.000000E+99

> <Gold.Chemscore.Hbonds>
donor molecule, donor type, donor heavy atom, donor atom, acceptor molecule, acceptor atom, score
      L1  H     8    31       P1  7948  0.98
      L1  H    11    32       P1  7948  0.92

> <Gold.Chemscore.Hbond.Weighted>
-6.4608

> <Gold.Chemscore.Metal.Weighted>
-0.0000

> <Gold.Chemscore.Lipo.Weighted>
-10.7811

> <Gold.Chemscore.Internal_Hbond.Weighted>
0.0000

> <Gold.Chemscore.DEClash.Weighted>
0.3525

> <Gold.Chemscore.DEInternal.Weighted>
0.7017

> <Gold.Chemscore.Rot.Weighted>
4.2188

> <Gold.Chemscore.Internal.Correction.Weighted>
   9.000000E+99

> <Gold.Protein.RotatedTorsions>
[ 6907 6896 6895 6894 ] final -141.05 input  -60.11 | X-H torsion
[ 7974 7965 7964 7962 ] final  171.04 input  175.53 | X-H torsion
[ 8008 7997 7996 7995 ] final   96.48 input   59.86 | X-H torsion
[ 10167 10162 10161 10158 ] final   19.28 input  -65.29 | X-H torsion
[ 10718 10713 10712 10709 ] final    6.59 input   66.30 | X-H torsion
[ 10763 10752 10751 10750 ] final   94.37 input  -60.55 | X-H torsion
[ 11005 11000 10999 10996 ] final  -31.72 input  -57.11 | X-H torsion

> <Gold.Protein.ActiveResidues>
 VAL166  LYS551  ARG553  GLY616  TRP617  ASP618  TYR619  PRO620  LYS621  CYS622 
 ASP623  PHE694  ASN695  SER759  ASP760  ASP761  ALA762  ILE779  LEU786  VAL792 
 PHE793  MET794  SER795  GLU796  ALA797  LYS798  CYS799  TRP800  GLU811  SER814 

> <Gold.Protein.RotatedAtoms>
  151.0686  133.5484  159.2628 H   0  0  0  0  0  0  0  0  0  0  0  0  # atno 6907 bound_to 6896
  151.2432  135.0595  159.9043 H   0  0  0  0  0  0  0  0  0  0  0  0  # atno 6908 bound_to 6896
  152.5408  134.0458  159.8141 H   0  0  0  0  0  0  0  0  0  0  0  0  # atno 6909 bound_to 6896
  144.7306  139.9291  143.6424 H   0  0  0  0  0  0  0  0  0  0  0  0  # atno 7974 bound_to 7965
  156.0801  140.3272  155.7682 H   0  0  0  0  0  0  0  0  0  0  0  0  # atno 8008 bound_to 7997
  155.5167  140.0581  157.2931 H   0  0  0  0  0  0  0  0  0  0  0  0  # atno 8009 bound_to 7997
  154.4577  140.1951  156.0349 H   0  0  0  0  0  0  0  0  0  0  0  0  # atno 8010 bound_to 7997
  140.5591  143.9371  150.6629 H   0  0  0  0  0  0  0  0  0  0  0  0  # atno 10167 bound_to 10162
  156.9244  130.5803  149.5648 H   0  0  0  0  0  0  0  0  0  0  0  0  # atno 10718 bound_to 10713
  153.2409  135.4292  155.0697 H   0  0  0  0  0  0  0  0  0  0  0  0  # atno 10763 bound_to 10752
  154.8340  135.3402  154.6651 H   0  0  0  0  0  0  0  0  0  0  0  0  # atno 10764 bound_to 10752
  153.7074  135.7025  153.5103 H   0  0  0  0  0  0  0  0  0  0  0  0  # atno 10765 bound_to 10752
  140.9491  133.7231  156.1193 H   0  0  0  0  0  0  0  0  0  0  0  0  # atno 11005 bound_to 11000
  146.0871  139.3860  143.0429 LP  0  0  0  0  0  0  0  0  0  0  0  0  # atno 17320 bound_to 7965
  145.7762  140.9876  143.1123 LP  0  0  0  0  0  0  0  0  0  0  0  0  # atno 17321 bound_to 7965
  140.2817  143.3385  152.1145 LP  0  0  0  0  0  0  0  0  0  0  0  0  # atno 17342 bound_to 10162
  139.5061  144.6808  151.6013 LP  0  0  0  0  0  0  0  0  0  0  0  0  # atno 17343 bound_to 10162
  156.0476  130.5550  150.8916 LP  0  0  0  0  0  0  0  0  0  0  0  0  # atno 17370 bound_to 10713
  157.5887  131.0945  150.9154 LP  0  0  0  0  0  0  0  0  0  0  0  0  # atno 17371 bound_to 10713
  140.7627  134.3921  157.5522 LP  0  0  0  0  0  0  0  0  0  0  0  0  # atno 17394 bound_to 11000
  139.8842  134.8972  156.2717 LP  0  0  0  0  0  0  0  0  0  0  0  0  # atno 17395 bound_to 11000

$$$$
