AV-unprocessed.smi:45|AV-procd|sdf|412|dock8
  -GOLD-   2262016273D 1   1.00000     0.00000
 Structure written by MMmdl.
 61 64  0  0  0  0  0  0  0  0  2 V2000
  141.6122  146.5260  155.0521 C   0  0  0  0  0  0  0  0  0  0  0  0
  142.1848  145.3955  155.6931 O   0  0  0  0  0  0  0  0  0  0  0  0
  143.2215  144.7412  155.0599 C   0  0  0  0  0  0  0  0  0  0  0  0
  143.7706  145.1491  153.8176 C   0  0  0  0  0  0  0  0  0  0  0  0
  144.8285  144.4282  153.2311 C   0  0  0  0  0  0  0  0  0  0  0  0
  145.3554  143.2899  153.8728 C   0  0  0  0  0  0  0  0  0  0  0  0
  146.4905  142.5111  153.2375 C   0  0  0  0  0  0  0  0  0  0  0  0
  146.2421  141.0775  153.1954 N   0  0  0  0  0  0  0  0  0  0  0  0
  147.0676  140.1698  153.8781 C   0  0  0  0  0  0  0  0  0  0  0  0
  148.1051  140.6661  154.6030 N   0  3  0  0  0  0  0  0  0  0  0  0
  148.9212  139.8512  155.2916 C   0  0  0  0  0  0  0  0  0  0  0  0
  149.9775  140.3970  156.0193 N   0  0  0  0  0  0  0  0  0  0  0  0
  149.9631  141.7906  156.4521 C   0  0  0  0  0  0  0  0  0  0  0  0
  150.7304  141.8307  157.7728 C   0  0  0  0  0  0  0  0  0  0  0  0
  151.7039  140.6671  157.6383 C   0  0  0  0  0  0  0  0  0  0  0  0
  150.9041  139.6224  156.8466 C   0  0  2  0  0  0  0  0  0  0  0  0
  151.8108  138.6776  156.0295 C   0  0  0  0  0  0  0  0  0  0  0  0
  152.4943  139.4105  155.0360 O   0  0  0  0  0  0  0  0  0  0  0  0
  148.7589  138.5218  155.2925 N   0  0  0  0  0  0  0  0  0  0  0  0
  147.7473  137.9793  154.5895 C   0  0  0  0  0  0  0  0  0  0  0  0
  146.8445  138.7689  153.8511 C   0  0  0  0  0  0  0  0  0  0  0  0
  145.7453  138.1244  153.0506 C   0  0  0  0  0  0  0  0  0  0  0  0
  145.6828  138.2580  151.8284 O   0  0  0  0  0  0  0  0  0  0  0  0
  144.8488  137.4275  153.7667 N   0  0  0  0  0  0  0  0  0  0  0  0
  143.7409  136.6689  153.1988 C   0  0  0  0  0  0  0  0  0  0  0  0
  144.2140  135.4706  152.3939 C   0  0  0  0  0  0  0  0  0  0  0  0
  144.7281  134.4454  153.0806 N   0  0  0  0  0  0  0  0  0  0  0  0
  145.1356  133.3743  152.3655 C   0  0  0  0  0  0  0  0  0  0  0  0
  145.0257  133.3354  150.9608 C   0  0  0  0  0  0  0  0  0  0  0  0
  144.4671  134.4745  150.3471 C   0  0  0  0  0  0  0  0  0  0  0  0
  144.0606  135.5425  151.0671 N   0  0  0  0  0  0  0  0  0  0  0  0
  144.8175  142.8805  155.1086 C   0  0  0  0  0  0  0  0  0  0  0  0
  143.7585  143.5999  155.6966 C   0  0  0  0  0  0  0  0  0  0  0  0
  143.1195  143.0675  157.2107 Cl  0  0  0  0  0  0  0  0  0  0  0  0
  150.3018  139.0375  157.5438 H   0  0  0  0  0  0  0  0  0  0  0  0
  140.8109  146.9247  155.6742 H   0  0  0  0  0  0  0  0  0  0  0  0
  141.1783  146.2604  154.0871 H   0  0  0  0  0  0  0  0  0  0  0  0
  142.3470  147.3202  154.9131 H   0  0  0  0  0  0  0  0  0  0  0  0
  143.3966  146.0140  153.2912 H   0  0  0  0  0  0  0  0  0  0  0  0
  145.2342  144.7522  152.2836 H   0  0  0  0  0  0  0  0  0  0  0  0
  146.6383  142.8817  152.2225 H   0  0  0  0  0  0  0  0  0  0  0  0
  147.4143  142.6994  153.7863 H   0  0  0  0  0  0  0  0  0  0  0  0
  145.4326  140.7397  152.6932 H   0  0  0  0  0  0  0  0  0  0  0  0
  150.4632  142.3970  155.6960 H   0  0  0  0  0  0  0  0  0  0  0  0
  148.9505  142.1754  156.5799 H   0  0  0  0  0  0  0  0  0  0  0  0
  151.2248  142.7865  157.9484 H   0  0  0  0  0  0  0  0  0  0  0  0
  150.0481  141.6452  158.6036 H   0  0  0  0  0  0  0  0  0  0  0  0
  152.5773  140.9921  157.0706 H   0  0  0  0  0  0  0  0  0  0  0  0
  152.0524  140.2916  158.6010 H   0  0  0  0  0  0  0  0  0  0  0  0
  152.5585  138.1894  156.6531 H   0  0  0  0  0  0  0  0  0  0  0  0
  151.2258  137.8872  155.5579 H   0  0  0  0  0  0  0  0  0  0  0  0
  152.8876  138.8033  154.4274 H   0  0  0  0  0  0  0  0  0  0  0  0
  147.6692  136.9020  154.6147 H   0  0  0  0  0  0  0  0  0  0  0  0
  144.9605  137.3816  154.7689 H   0  0  0  0  0  0  0  0  0  0  0  0
  143.1105  136.3161  154.0155 H   0  0  0  0  0  0  0  0  0  0  0  0
  143.1133  137.3204  152.5874 H   0  0  0  0  0  0  0  0  0  0  0  0
  145.5518  132.5443  152.9167 H   0  0  0  0  0  0  0  0  0  0  0  0
  145.3512  132.4804  150.3868 H   0  0  0  0  0  0  0  0  0  0  0  0
  144.3446  134.5281  149.2755 H   0  0  0  0  0  0  0  0  0  0  0  0
  145.2133  142.0094  155.6099 H   0  0  0  0  0  0  0  0  0  0  0  0
  148.2576  141.6742  154.6170 H   0  0  0  0  0  0  0  0  0  0  0  0
  1  2  1  0  0  0  0
  1 36  1  0  0  0  0
  1 37  1  0  0  0  0
  1 38  1  0  0  0  0
  2  3  1  0  0  0  0
  3 33  1  0  0  0  0
  3  4  2  0  0  0  0
  4  5  1  0  0  0  0
  4 39  1  0  0  0  0
  5  6  2  0  0  0  0
  5 40  1  0  0  0  0
  6  7  1  0  0  0  0
  6 32  1  0  0  0  0
  7  8  1  0  0  0  0
  7 41  1  0  0  0  0
  7 42  1  0  0  0  0
  8  9  1  0  0  0  0
  8 43  1  0  0  0  0
  9 21  1  0  0  0  0
  9 10  2  0  0  0  0
 10 11  1  0  0  0  0
 10 61  1  0  0  0  0
 11 12  1  0  0  0  0
 11 19  2  0  0  0  0
 12 16  1  0  0  0  0
 12 13  1  0  0  0  0
 13 14  1  0  0  0  0
 13 44  1  0  0  0  0
 13 45  1  0  0  0  0
 14 15  1  0  0  0  0
 14 46  1  0  0  0  0
 14 47  1  0  0  0  0
 15 16  1  0  0  0  0
 15 48  1  0  0  0  0
 15 49  1  0  0  0  0
 16 35  1  0  0  0  0
 16 17  1  0  0  0  0
 17 18  1  0  0  0  0
 17 50  1  0  0  0  0
 17 51  1  0  0  0  0
 18 52  1  0  0  0  0
 19 20  1  0  0  0  0
 20 21  2  0  0  0  0
 20 53  1  0  0  0  0
 21 22  1  0  0  0  0
 22 23  2  0  0  0  0
 22 24  1  0  0  0  0
 24 25  1  0  0  0  0
 24 54  1  0  0  0  0
 25 26  1  0  0  0  0
 25 55  1  0  0  0  0
 25 56  1  0  0  0  0
 26 31  1  0  0  0  0
 26 27  2  0  0  0  0
 27 28  1  0  0  0  0
 28 29  2  0  0  0  0
 28 57  1  0  0  0  0
 29 30  1  0  0  0  0
 29 58  1  0  0  0  0
 30 31  2  0  0  0  0
 30 59  1  0  0  0  0
 32 33  2  0  0  0  0
 32 60  1  0  0  0  0
 33 34  1  0  0  0  0
M  CHG  1  10   1
M  END
> <s_m_source_file>
AV-unprocessed.smi

> <i_m_source_file_index>
45

> <i_lp_mmshare_version>
43012

> <i_f3d_flags>
0

> <s_epik_input>
W0NIM11PYzFbY0hdW2NIXWMoW2NIXWMxQ2wpW0NIMl1bTkhdYzJuYyhOM1tDSDJdW0NIMl1bQ0gyXVtDQEhdM1tDSDJdW09IXSluW2NIXWMyQyg9TylbTkhdW0NIMl1jNG5bY0hdW2NIXVtjSF1uNA==

> <s_epik_cmdline>
J2VwaWtfcHl0aG9uJywgJy1waCcsICc3LjAnLCAnLXRuJywgJzgnLCAnLW1hJywgJzIwMCcsICctbWV0YWxfYmluZGluZycsICctaW1hZScsICc8aW5maWxlLm1hZT4nLCAnLW9tYWUnLCAnPG91dGZpbGUubWFlPic=

> <r_lp_tautomer_probability>
0.424989

> <r_epik_Ionization_Penalty>
2.31209

> <r_epik_Ionization_Penalty_Charging>
2.31199

> <r_epik_Ionization_Penalty_Neutral>
9.65277e-05

> <r_epik_State_Penalty>
2.29675

> <r_epik_Charging_Adjusted_Penalty>
4.60874

> <i_epik_Tot_Q>
1

> <i_epik_Tot_abs_Q>
1

> <r_epik_Metal_State_Penalty>
2.3404

> <b_epik_Metal_Only>
0

> <s_epik_Chemistry_Notes>
This compound contains an electron-poor aromatic ring that is susceptible to covalent hydrolysis at low pH, typically resulting in measured values for nitrogen ring protonation that are around two units higher than predicted values.

> <s_lp_Force_Field>
OPLS_2005

> <r_lp_Energy>
35.4262

> <b_lp_Chiralities_Consistent>
1

> <s_lp_Variant>
AV-unprocessed.smi:45-6

> <Gold.Version>
5.8.1

> <Gold.Id.Protein>
6NUR|6NUR_protein|mol2

> <Gold.PLP.Fitness>
57.5162

> <Gold.PLP.PLP>
-45.9315

> <Gold.PLP.part.hbond>
-3.0000

> <Gold.PLP.part.metal>
0.0000

> <Gold.PLP.part.buried>
-10.6605

> <Gold.PLP.part.nonpolar>
-36.5909

> <Gold.PLP.part.repulsive>
2.1873

> <Gold.PLP.ligand.clash>
0.0000

> <Gold.PLP.ligand.torsion>
1.5122

> <Gold.PLP.Chemscore.Hbond>
3.2724

> <Gold.PLP.Chemscore.CHOScore>
1.0000

> <Gold.PLP.Chemscore.Metal>
0.0000

> <Gold.Chemscore.Hbonds>
donor molecule, donor type, donor heavy atom, donor atom, acceptor molecule, acceptor atom, score
      L1  H     8    43       P1 10175  2.00
      P1  H  7989  7998       L1    18  0.25
      P1  H  7997  8010       L1    18  0.27
      L1  C    30    59       P1  7921  0.93

> <Gold.PLP.Chemscore.Internal.Correction>
1.7920

> <Gold.Rescore>
     Score         DG    S(hbond)    S(metal)    S(lipo)     H(rot)  DE(clash)    DE(int)     intcor
     11.41     -14.95       1.02        0.00     116.05       2.94       2.09       1.45       ----

> <Gold.Chemscore.Fitness>
11.4108

> <Gold.Chemscore.DG>
-14.9520

> <Gold.Chemscore.ZeroCoef>
-5.4800

> <Gold.Chemscore.Hbond>
1.0238

> <Gold.Chemscore.Metal>
0.0000

> <Gold.Chemscore.Lipo>
116.0482

> <Gold.Chemscore.Internal_Hbond>
0.0000

> <Gold.Chemscore.DEClash>
2.0867

> <Gold.Chemscore.DEInternal>
1.4545

> <Gold.Chemscore.Rot>
2.9395

> <Gold.Chemscore.Internal.Correction>
   9.000000E+99

> <Gold.Chemscore.Hbonds>
donor molecule, donor type, donor heavy atom, donor atom, acceptor molecule, acceptor atom, score
      L1  H     8    43       P1 10175  0.34
      P1  H  7989  7998       L1    18  0.04
      P1  H  7997  8010       L1    18  0.03

> <Gold.Chemscore.Hbond.Weighted>
-3.4195

> <Gold.Chemscore.Metal.Weighted>
-0.0000

> <Gold.Chemscore.Lipo.Weighted>
-13.5776

> <Gold.Chemscore.Internal_Hbond.Weighted>
0.0000

> <Gold.Chemscore.DEClash.Weighted>
2.0867

> <Gold.Chemscore.DEInternal.Weighted>
1.4545

> <Gold.Chemscore.Rot.Weighted>
7.5251

> <Gold.Chemscore.Internal.Correction.Weighted>
   9.000000E+99

> <Gold.Protein.RotatedTorsions>
[ 6907 6896 6895 6894 ] final  -45.63 input  -60.11 | X-H torsion
[ 7974 7965 7964 7962 ] final -136.09 input  175.53 | X-H torsion
[ 8008 7997 7996 7995 ] final  108.31 input   59.86 | X-H torsion
[ 10167 10162 10161 10158 ] final  -32.69 input  -65.29 | X-H torsion
[ 10718 10713 10712 10709 ] final   88.03 input   66.30 | X-H torsion
[ 10763 10752 10751 10750 ] final  -28.86 input  -60.55 | X-H torsion
[ 11005 11000 10999 10996 ] final -156.74 input  -57.11 | X-H torsion

> <Gold.Protein.ActiveResidues>
 VAL166  LYS551  ARG553  GLY616  TRP617  ASP618  TYR619  PRO620  LYS621  CYS622 
 ASP623  PHE694  ASN695  SER759  ASP760  ASP761  ALA762  ILE779  LEU786  VAL792 
 PHE793  MET794  SER795  GLU796  ALA797  LYS798  CYS799  TRP800  GLU811  SER814 

> <Gold.Protein.RotatedAtoms>
  150.9199  134.8616  159.7481 H   0  0  0  0  0  0  0  0  0  0  0  0  # atno 6907 bound_to 6896
  152.4987  134.4234  159.9498 H   0  0  0  0  0  0  0  0  0  0  0  0  # atno 6908 bound_to 6896
  151.4269  133.3642  159.2798 H   0  0  0  0  0  0  0  0  0  0  0  0  # atno 6909 bound_to 6896
  144.8957  140.6703  143.5117 H   0  0  0  0  0  0  0  0  0  0  0  0  # atno 7974 bound_to 7965
  156.1893  140.3078  155.9301 H   0  0  0  0  0  0  0  0  0  0  0  0  # atno 8008 bound_to 7997
  155.3209  140.0456  157.3056 H   0  0  0  0  0  0  0  0  0  0  0  0  # atno 8009 bound_to 7997
  154.5433  140.2268  155.8614 H   0  0  0  0  0  0  0  0  0  0  0  0  # atno 8010 bound_to 7997
  140.7217  143.3676  151.1840 H   0  0  0  0  0  0  0  0  0  0  0  0  # atno 10167 bound_to 10162
  157.6945  131.0279  150.3213 H   0  0  0  0  0  0  0  0  0  0  0  0  # atno 10718 bound_to 10713
  153.7553  135.6923  153.4937 H   0  0  0  0  0  0  0  0  0  0  0  0  # atno 10763 bound_to 10752
  153.1975  135.4448  155.0225 H   0  0  0  0  0  0  0  0  0  0  0  0  # atno 10764 bound_to 10752
  154.8173  135.3405  154.7071 H   0  0  0  0  0  0  0  0  0  0  0  0  # atno 10765 bound_to 10752
  140.6723  134.4234  157.5231 H   0  0  0  0  0  0  0  0  0  0  0  0  # atno 11005 bound_to 11000
  145.3704  139.1660  143.4335 LP  0  0  0  0  0  0  0  0  0  0  0  0  # atno 17320 bound_to 7965
  146.3080  140.3775  142.8680 LP  0  0  0  0  0  0  0  0  0  0  0  0  # atno 17321 bound_to 7965
  139.7241  143.9177  152.2996 LP  0  0  0  0  0  0  0  0  0  0  0  0  # atno 17342 bound_to 10162
  139.8943  144.6948  150.8735 LP  0  0  0  0  0  0  0  0  0  0  0  0  # atno 17343 bound_to 10162
  156.3700  130.3862  149.7183 LP  0  0  0  0  0  0  0  0  0  0  0  0  # atno 17370 bound_to 10713
  156.4600  130.7947  151.2968 LP  0  0  0  0  0  0  0  0  0  0  0  0  # atno 17371 bound_to 10713
  139.8978  134.8629  156.2030 LP  0  0  0  0  0  0  0  0  0  0  0  0  # atno 17394 bound_to 11000
  141.0383  133.6951  156.1551 LP  0  0  0  0  0  0  0  0  0  0  0  0  # atno 17395 bound_to 11000

$$$$
