#       Name:                AV-unprocessed.smi:1555
#       Creating user name   scv26
#       Creation time:       Fri Mar 27 06:45:24 2020


#       File generated by GOLD software.
#

@<TRIPOS>MOLECULE
AV-unprocessed.smi:1555
    46    47     1
SMALL
NO_CHARGES


@<TRIPOS>ATOM
      1 ****        -2.3609  -1.2892  -2.1941 C.3            1 S1                 0.0000
      2 ****        -2.4457  -0.4763  -0.8943 C.3            1 S1                 0.0000
      3 ****        -3.3074  -1.1876   0.1659 C.3            1 S1                 0.0000
      4 ****        -3.4928  -0.3773   1.3741 N.pl3          1 S1                 0.0000
      5 ****        -2.8514  -0.5186   2.5782 C.2            1 S1                 0.0000
      6 ****        -3.3446   0.4612   3.4007 C.2            1 S1                 0.0000
      7 ****        -4.2656   1.1578   2.6650 N.pl3          1 S1                 1.0000
      8 ****        -4.3555   0.6453   1.4334 C.2            1 S1                 0.0000
      9 ****        -1.1007  -0.2470  -0.3713 N.am           1 S1                 0.0000
     10 ****        -0.3554   0.8546  -0.5641 C.2            1 S1                 0.0000
     11 ****        -0.7543   1.8056  -1.2375 O.2            1 S1                 0.0000
     12 ****         0.8581   0.8294   0.0431 N.am           1 S1                 0.0000
     13 ****         1.4352  -0.2955   0.7983 C.3            1 S1                 0.0000
     14 ****         2.5602  -0.9267  -0.0408 C.3            1 S1                 0.0000
     15 ****         3.6403   0.1151  -0.4085 C.3            1 S1                 0.0000
     16 ****         4.7076  -0.4972  -1.3336 C.3            1 S1                 0.0000
     17 ****         5.8030   0.3809  -1.4857 O.3            1 S1                 0.0000
     18 ****         2.9913   1.3802  -1.0181 C.3            1 S1                 0.0000
     19 ****         1.8423   1.9035  -0.1366 C.3            1 S1                 0.0000
     20 ****        -3.3519  -1.4610  -2.6148 H              1 S1                 0.0000
     21 ****        -1.8975  -2.2621  -2.0257 H              1 S1                 0.0000
     22 ****        -1.7717  -0.7654  -2.9476 H              1 S1                 0.0000
     23 ****        -2.9209   0.4782  -1.1275 H              1 S1                 0.0000
     24 ****        -4.2969  -1.4144  -0.2339 H              1 S1                 0.0000
     25 ****        -2.8587  -2.1380   0.4595 H              1 S1                 0.0000
     26 ****        -2.1095  -1.2838   2.7554 H              1 S1                 0.0000
     27 ****        -3.1149   0.7085   4.4270 H              1 S1                 0.0000
     28 ****        -4.9956   0.9921   0.6416 H              1 S1                 0.0000
     29 ****        -0.6982  -0.9881   0.1838 H              1 S1                 0.0000
     30 ****         1.8394   0.0769   1.7407 H              1 S1                 0.0000
     31 ****         0.7113  -1.0594   1.0819 H              1 S1                 0.0000
     32 ****         3.0112  -1.7522   0.5108 H              1 S1                 0.0000
     33 ****         2.1359  -1.3571  -0.9492 H              1 S1                 0.0000
     34 ****         4.1307   0.4091   0.5212 H              1 S1                 0.0000
     35 ****         5.0793  -1.4338  -0.9170 H              1 S1                 0.0000
     36 ****         4.2884  -0.7253  -2.3141 H              1 S1                 0.0000
     37 ****         6.4339  -0.0228  -2.0621 H              1 S1                 0.0000
     38 ****         3.7387   2.1637  -1.1456 H              1 S1                 0.0000
     39 ****         2.6079   1.1560  -2.0146 H              1 S1                 0.0000
     40 ****         1.4129   2.8011  -0.5835 H              1 S1                 0.0000
     41 ****         2.2261   2.2129   0.8365 H              1 S1                 0.0000
     42 ****        -4.8018   1.9478   3.0017 H              1 S1                 0.0000
     43 ****        -1.6595   1.7733  -1.6614 LP             1 S1                 0.0000
     44 ****        -0.1731   2.6100  -1.3603 LP             1 S1                 0.0000
     45 ****         6.2226   0.5539  -0.5946 LP             1 S1                 0.0000
     46 ****         5.4902   1.2449  -1.8802 LP             1 S1                 0.0000
@<TRIPOS>BOND
    1    1    2 1     
    2    1   20 1     
    3    1   21 1     
    4    1   22 1     
    5    2    3 1     
    6    2    9 1     
    7    2   23 1     
    8    3    4 1     
    9    3   24 1     
   10    3   25 1     
   11    4    8 1     
   12    4    5 1     
   13    5    6 2     
   14    5   26 1     
   15    6    7 1     
   16    6   27 1     
   17    7    8 2     
   18    7   42 1     
   19    8   28 1     
   20    9   10 am    
   21    9   29 1     
   22   10   11 2     
   23   10   12 am    
   24   12   19 1     
   25   12   13 1     
   26   13   14 1     
   27   13   30 1     
   28   13   31 1     
   29   14   15 1     
   30   14   32 1     
   31   14   33 1     
   32   15   16 1     
   33   15   18 1     
   34   15   34 1     
   35   16   17 1     
   36   16   35 1     
   37   16   36 1     
   38   17   37 1     
   39   18   19 1     
   40   18   38 1     
   41   18   39 1     
   42   19   40 1     
   43   19   41 1     
   44   11   43 1     
   45   11   44 1     
   46   17   45 1     
   47   17   46 1     
@<TRIPOS>SUBSTRUCTURE
      1 S1             1
@<TRIPOS>SET
LONE_PAIRS      STATIC     ATOMS    <user>   **** ""
4 43 44 45 46
DONOR_HYDROGENS      STATIC     ATOMS    <user>   **** ""
3 42 29 37
ATOM$BLUE        STATIC     ATOMS    COLORGROUP SYSTEM
4 43 44 45 46
ATOM$RED        STATIC     ATOMS    COLORGROUP SYSTEM
3 42 29 37
