AV-unprocessed.smi:1674|AV-procd|sdf|6713|dock9
  -GOLD-   22720 7453D 1   1.00000     0.00000
 Structure written by MMmdl.
 47 48  0  0  0  0  0  0  0  0  1 V2000
  146.4904  136.1040  155.2260 C   0  0  0  0  0  0  0  0  0  0  0  0
  147.9899  136.2133  155.2901 C   0  0  0  0  0  0  0  0  0  0  0  0
  148.5176  137.2631  154.7523 N   0  0  0  0  0  0  0  0  0  0  0  0
  149.8842  137.4593  154.7429 N   0  0  0  0  0  0  0  0  0  0  0  0
  150.2899  138.6856  154.0380 C   0  0  0  0  0  0  0  0  0  0  0  0
  149.6087  139.9792  154.5614 C   0  0  2  0  0  0  0  0  0  0  0  0
  149.4469  140.8845  153.4868 O   0  0  0  0  0  0  0  0  0  0  0  0
  150.2660  140.6092  155.7861 C   0  0  0  0  0  0  0  0  0  0  0  0
  151.5096  140.1198  156.2381 C   0  0  0  0  0  0  0  0  0  0  0  0
  152.1453  140.7074  157.3484 C   0  0  0  0  0  0  0  0  0  0  0  0
  151.5413  141.7900  158.0206 C   0  0  0  0  0  0  0  0  0  0  0  0
  152.2249  142.4277  159.2180 C   0  0  0  0  0  0  0  0  0  0  0  0
  151.8710  143.9171  159.4094 C   0  0  0  0  0  0  0  0  0  0  0  0
  152.5622  144.7833  158.3458 C   0  0  0  0  0  0  0  0  0  0  0  0
  152.2010  144.4229  160.8242 C   0  0  0  0  0  0  0  0  0  0  0  0
  150.2982  142.2814  157.5719 C   0  0  0  0  0  0  0  0  0  0  0  0
  149.6626  141.6935  156.4620 C   0  0  0  0  0  0  0  0  0  0  0  0
  150.7932  136.6083  155.3026 C   0  0  0  0  0  0  0  0  0  0  0  0
  152.0064  136.8211  155.2809 O   0  0  0  0  0  0  0  0  0  0  0  0
  150.1886  135.4207  155.9099 C   0  0  0  0  0  0  0  0  0  0  0  0
  151.1069  134.4935  156.4880 C   0  0  0  0  0  0  0  0  0  0  0  0
  151.8367  133.7352  156.9702 N   0  0  0  0  0  0  0  0  0  0  0  0
  148.8483  135.2126  155.9151 C   0  0  0  0  0  0  0  0  0  0  0  0
  148.1728  133.9948  156.5305 C   0  0  0  0  0  0  0  0  0  0  0  0
  146.0560  136.1675  156.2237 H   0  0  0  0  0  0  0  0  0  0  0  0
  146.1877  135.1545  154.7842 H   0  0  0  0  0  0  0  0  0  0  0  0
  146.0501  136.8997  154.6228 H   0  0  0  0  0  0  0  0  0  0  0  0
  151.3768  138.7876  154.0492 H   0  0  0  0  0  0  0  0  0  0  0  0
  150.0497  138.5848  152.9786 H   0  0  0  0  0  0  0  0  0  0  0  0
  148.5893  139.7161  154.8466 H   0  0  0  0  0  0  0  0  0  0  0  0
  149.2760  140.3878  152.7012 H   0  0  0  0  0  0  0  0  0  0  0  0
  151.9868  139.2973  155.7255 H   0  0  0  0  0  0  0  0  0  0  0  0
  153.0985  140.3240  157.6817 H   0  0  0  0  0  0  0  0  0  0  0  0
  151.9768  141.8663  160.1201 H   0  0  0  0  0  0  0  0  0  0  0  0
  153.3021  142.3193  159.0842 H   0  0  0  0  0  0  0  0  0  0  0  0
  150.7958  144.0287  159.2619 H   0  0  0  0  0  0  0  0  0  0  0  0
  153.6478  144.7195  158.4269 H   0  0  0  0  0  0  0  0  0  0  0  0
  152.2824  145.8321  158.4493 H   0  0  0  0  0  0  0  0  0  0  0  0
  152.2840  144.4681  157.3397 H   0  0  0  0  0  0  0  0  0  0  0  0
  153.2620  144.3079  161.0483 H   0  0  0  0  0  0  0  0  0  0  0  0
  151.6390  143.8813  161.5853 H   0  0  0  0  0  0  0  0  0  0  0  0
  151.9513  145.4790  160.9305 H   0  0  0  0  0  0  0  0  0  0  0  0
  149.8297  143.1130  158.0776 H   0  0  0  0  0  0  0  0  0  0  0  0
  148.7164  142.0898  156.1238 H   0  0  0  0  0  0  0  0  0  0  0  0
  148.8776  133.3591  157.0657 H   0  0  0  0  0  0  0  0  0  0  0  0
  147.7041  133.3886  155.7547 H   0  0  0  0  0  0  0  0  0  0  0  0
  147.4046  134.2976  157.2427 H   0  0  0  0  0  0  0  0  0  0  0  0
  1  2  1  0  0  0  0
  1 25  1  0  0  0  0
  1 26  1  0  0  0  0
  1 27  1  0  0  0  0
  2 23  1  0  0  0  0
  2  3  2  0  0  0  0
  3  4  1  0  0  0  0
  4  5  1  0  0  0  0
  4 18  1  0  0  0  0
  5  6  1  0  0  0  0
  5 28  1  0  0  0  0
  5 29  1  0  0  0  0
  6  7  1  0  0  0  0
  6  8  1  0  0  0  0
  6 30  1  0  0  0  0
  7 31  1  0  0  0  0
  8 17  1  0  0  0  0
  8  9  2  0  0  0  0
  9 10  1  0  0  0  0
  9 32  1  0  0  0  0
 10 11  2  0  0  0  0
 10 33  1  0  0  0  0
 11 12  1  0  0  0  0
 11 16  1  0  0  0  0
 12 13  1  0  0  0  0
 12 34  1  0  0  0  0
 12 35  1  0  0  0  0
 13 14  1  0  0  0  0
 13 15  1  0  0  0  0
 13 36  1  0  0  0  0
 14 37  1  0  0  0  0
 14 38  1  0  0  0  0
 14 39  1  0  0  0  0
 15 40  1  0  0  0  0
 15 41  1  0  0  0  0
 15 42  1  0  0  0  0
 16 17  2  0  0  0  0
 16 43  1  0  0  0  0
 17 44  1  0  0  0  0
 18 19  2  0  0  0  0
 18 20  1  0  0  0  0
 20 21  1  0  0  0  0
 20 23  2  0  0  0  0
 21 22  3  0  0  0  0
 23 24  1  0  0  0  0
 24 45  1  0  0  0  0
 24 46  1  0  0  0  0
 24 47  1  0  0  0  0
M  END
> <s_m_source_file>
AV-unprocessed.smi

> <i_m_source_file_index>
1674

> <i_lp_mmshare_version>
43012

> <i_f3d_flags>
0

> <s_epik_input>
TiNDYyhjMVtDSDNdKWMoPU8pbihuYzFbQ0gzXSlbQ0gyXVtDQEhdKFtPSF0pYzJbY0hdW2NIXWMoW2NIXVtjSF0yKVtDSDJdW0NIXShbQ0gzXSlbQ0gzXQ==

> <s_epik_cmdline>
J2VwaWtfcHl0aG9uJywgJy1waCcsICc3LjAnLCAnLXRuJywgJzgnLCAnLW1hJywgJzIwMCcsICctbWV0YWxfYmluZGluZycsICctaW1hZScsICc8aW5maWxlLm1hZT4nLCAnLW9tYWUnLCAnPG91dGZpbGUubWFlPic=

> <r_lp_tautomer_probability>
1

> <r_epik_Ionization_Penalty>
4.60566e-08

> <r_epik_Ionization_Penalty_Charging>
1.40848e-10

> <r_epik_Ionization_Penalty_Neutral>
4.59158e-08

> <r_epik_State_Penalty>
-0

> <r_epik_Charging_Adjusted_Penalty>
1.40848e-10

> <i_epik_Tot_Q>
0

> <i_epik_Tot_abs_Q>
0

> <r_epik_Metal_State_Penalty>
-0

> <b_epik_Metal_Only>
0

> <s_lp_Force_Field>
OPLS_2005

> <r_lp_Energy>
29.2193

> <b_lp_Chiralities_Consistent>
1

> <s_lp_Variant>
AV-unprocessed.smi:1674-1

> <Gold.Version>
5.8.1

> <Gold.Id.Protein>
6NUR|6NUR_protein|mol2

> <Gold.PLP.Fitness>
49.9023

> <Gold.PLP.PLP>
-43.6841

> <Gold.PLP.part.hbond>
-4.8446

> <Gold.PLP.part.metal>
0.0000

> <Gold.PLP.part.buried>
-5.3445

> <Gold.PLP.part.nonpolar>
-34.8822

> <Gold.PLP.part.repulsive>
0.5489

> <Gold.PLP.ligand.clash>
0.0000

> <Gold.PLP.ligand.torsion>
0.9177

> <Gold.PLP.Chemscore.Hbond>
2.6465

> <Gold.PLP.Chemscore.CHOScore>
0.0000

> <Gold.PLP.Chemscore.Metal>
0.0000

> <Gold.Chemscore.Hbonds>
donor molecule, donor type, donor heavy atom, donor atom, acceptor molecule, acceptor atom, score
      L1  H     7    31       P1  7957  1.00
      P1  H  6896  6908       L1    22  0.13
      P1  H  7989  7998       L1     7  0.05
      P1  H  8011  8017       L1     7  0.35
      P1  H 10752 10765       L1    19  1.00

> <Gold.PLP.Chemscore.Internal.Correction>
0.1140

> <Gold.Rescore>
     Score         DG    S(hbond)    S(metal)    S(lipo)     H(rot)  DE(clash)    DE(int)     intcor
     20.23     -21.29       2.52        0.00     109.77       2.13       0.10       0.96       ----

> <Gold.Chemscore.Fitness>
20.2305

> <Gold.Chemscore.DG>
-21.2906

> <Gold.Chemscore.ZeroCoef>
-5.4800

> <Gold.Chemscore.Hbond>
2.5210

> <Gold.Chemscore.Metal>
0.0000

> <Gold.Chemscore.Lipo>
109.7712

> <Gold.Chemscore.Internal_Hbond>
0.0000

> <Gold.Chemscore.DEClash>
0.0982

> <Gold.Chemscore.DEInternal>
0.9619

> <Gold.Chemscore.Rot>
2.1299

> <Gold.Chemscore.Internal.Correction>
   9.000000E+99

> <Gold.Chemscore.Hbonds>
donor molecule, donor type, donor heavy atom, donor atom, acceptor molecule, acceptor atom, score
      L1  H     7    31       P1  7957  0.93
      P1  H  6896  6908       L1    22  0.10
      P1  H  8011  8017       L1     7  0.01
      P1  H 10752 10765       L1    19  0.90

> <Gold.Chemscore.Hbond.Weighted>
-8.4201

> <Gold.Chemscore.Metal.Weighted>
-0.0000

> <Gold.Chemscore.Lipo.Weighted>
-12.8432

> <Gold.Chemscore.Internal_Hbond.Weighted>
0.0000

> <Gold.Chemscore.DEClash.Weighted>
0.0982

> <Gold.Chemscore.DEInternal.Weighted>
0.9619

> <Gold.Chemscore.Rot.Weighted>
5.4526

> <Gold.Chemscore.Internal.Correction.Weighted>
   9.000000E+99

> <Gold.Protein.RotatedTorsions>
[ 6907 6896 6895 6894 ] final   82.54 input  -60.11 | X-H torsion
[ 7974 7965 7964 7962 ] final  134.43 input  175.53 | X-H torsion
[ 8008 7997 7996 7995 ] final  174.86 input   59.86 | X-H torsion
[ 10167 10162 10161 10158 ] final -117.37 input  -65.29 | X-H torsion
[ 10718 10713 10712 10709 ] final   -5.71 input   66.30 | X-H torsion
[ 10763 10752 10751 10750 ] final -177.86 input  -60.55 | X-H torsion
[ 11005 11000 10999 10996 ] final   10.50 input  -57.11 | X-H torsion

> <Gold.Protein.ActiveResidues>
 VAL166  LYS551  ARG553  GLY616  TRP617  ASP618  TYR619  PRO620  LYS621  CYS622 
 ASP623  PHE694  ASN695  SER759  ASP760  ASP761  ALA762  ILE779  LEU786  VAL792 
 PHE793  MET794  SER795  GLU796  ALA797  LYS798  CYS799  TRP800  GLU811  SER814 

> <Gold.Protein.RotatedAtoms>
  152.5302  134.3034  159.9086 H   0  0  0  0  0  0  0  0  0  0  0  0  # atno 6907 bound_to 6896
  151.2984  133.4127  159.2645 H   0  0  0  0  0  0  0  0  0  0  0  0  # atno 6908 bound_to 6896
  151.0140  134.9435  159.8080 H   0  0  0  0  0  0  0  0  0  0  0  0  # atno 6909 bound_to 6896
  144.9764  139.4550  143.5407 H   0  0  0  0  0  0  0  0  0  0  0  0  # atno 7974 bound_to 7965
  156.0930  140.1423  156.9567 H   0  0  0  0  0  0  0  0  0  0  0  0  # atno 8008 bound_to 7997
  154.4654  140.0928  156.7052 H   0  0  0  0  0  0  0  0  0  0  0  0  # atno 8009 bound_to 7997
  155.4887  140.3447  155.4353 H   0  0  0  0  0  0  0  0  0  0  0  0  # atno 8010 bound_to 7997
  140.0690  143.4895  152.1990 H   0  0  0  0  0  0  0  0  0  0  0  0  # atno 10167 bound_to 10162
  156.7425  130.5214  149.5821 H   0  0  0  0  0  0  0  0  0  0  0  0  # atno 10718 bound_to 10713
  154.5549  135.2815  155.0974 H   0  0  0  0  0  0  0  0  0  0  0  0  # atno 10763 bound_to 10752
  154.2405  135.6358  153.5209 H   0  0  0  0  0  0  0  0  0  0  0  0  # atno 10764 bound_to 10752
  153.0013  135.5559  154.6126 H   0  0  0  0  0  0  0  0  0  0  0  0  # atno 10765 bound_to 10752
  140.5137  134.0626  155.7825 H   0  0  0  0  0  0  0  0  0  0  0  0  # atno 11005 bound_to 11000
  146.3396  139.9010  142.8794 LP  0  0  0  0  0  0  0  0  0  0  0  0  # atno 17320 bound_to 7965
  145.2483  141.0035  143.3895 LP  0  0  0  0  0  0  0  0  0  0  0  0  # atno 17321 bound_to 7965
  139.5847  144.7526  151.3550 LP  0  0  0  0  0  0  0  0  0  0  0  0  # atno 17342 bound_to 10162
  140.7135  143.7329  150.7610 LP  0  0  0  0  0  0  0  0  0  0  0  0  # atno 17343 bound_to 10162
  156.1455  130.6274  151.0525 LP  0  0  0  0  0  0  0  0  0  0  0  0  # atno 17370 bound_to 10713
  157.6812  131.0837  150.7364 LP  0  0  0  0  0  0  0  0  0  0  0  0  # atno 17371 bound_to 10713
  141.1371  133.9202  157.2408 LP  0  0  0  0  0  0  0  0  0  0  0  0  # atno 17394 bound_to 11000
  139.9644  135.0146  156.9348 LP  0  0  0  0  0  0  0  0  0  0  0  0  # atno 17395 bound_to 11000

$$$$
