AV-unprocessed.smi:72|AV-procd|sdf|705|dock2
  -GOLD-   2262017 23D 1   1.00000     0.00000
 Structure written by MMmdl.
 30 31  0  0  0  0  0  0  0  0  2 V2000
  145.2638  139.3321  154.3631 N   0  0  0  0  0  0  0  0  0  0  0  0
  145.4922  138.0876  153.8136 C   0  0  0  0  0  0  0  0  0  0  0  0
  144.9161  137.8110  152.5866 N   0  3  0  0  0  0  0  0  0  0  0  0
  145.0413  136.6562  151.9183 C   0  0  0  0  0  0  0  0  0  0  0  0
  145.7621  135.6870  152.4453 N   0  0  0  0  0  0  0  0  0  0  0  0
  145.9421  134.3595  151.7487 C   0  0  2  0  0  0  0  0  0  0  0  0
  145.3329  134.4297  150.4946 O   0  0  0  0  0  0  0  0  0  0  0  0
  144.1287  133.6689  150.4900 C   0  0  1  0  0  0  0  0  0  0  0  0
  143.7235  133.2749  149.0593 C   0  0  0  0  0  0  0  0  0  0  0  0
  143.5506  134.4350  148.2739 O   0  0  0  0  0  0  0  0  0  0  0  0
  144.4588  132.5056  151.4324 C   0  0  1  0  0  0  0  0  0  0  0  0
  145.2187  131.5102  150.7714 O   0  0  0  0  0  0  0  0  0  0  0  0
  145.2930  133.1802  152.5135 C   0  0  2  0  0  0  0  0  0  0  0  0
  144.4491  133.5833  153.5793 O   0  0  0  0  0  0  0  0  0  0  0  0
  146.3903  135.8764  153.7033 C   0  0  0  0  0  0  0  0  0  0  0  0
  147.0579  134.9740  154.2074 O   0  0  0  0  0  0  0  0  0  0  0  0
  146.2033  137.1204  154.3236 N   0  0  0  0  0  0  0  0  0  0  0  0
  147.0163  134.2439  151.5949 H   0  0  0  0  0  0  0  0  0  0  0  0
  143.3320  134.2542  150.9525 H   0  0  0  0  0  0  0  0  0  0  0  0
  143.5583  132.0331  151.8275 H   0  0  0  0  0  0  0  0  0  0  0  0
  146.0692  132.5264  152.9140 H   0  0  0  0  0  0  0  0  0  0  0  0
  145.6447  139.6214  155.2532 H   0  0  0  0  0  0  0  0  0  0  0  0
  144.7017  140.0484  153.9264 H   0  0  0  0  0  0  0  0  0  0  0  0
  144.5500  136.5462  150.9610 H   0  0  0  0  0  0  0  0  0  0  0  0
  144.4611  132.6146  148.6019 H   0  0  0  0  0  0  0  0  0  0  0  0
  142.7713  132.7439  149.0712 H   0  0  0  0  0  0  0  0  0  0  0  0
  144.3967  134.8330  148.1349 H   0  0  0  0  0  0  0  0  0  0  0  0
  144.6454  131.0196  150.2023 H   0  0  0  0  0  0  0  0  0  0  0  0
  144.0021  132.8194  153.9119 H   0  0  0  0  0  0  0  0  0  0  0  0
  144.3587  138.5391  152.1632 H   0  0  0  0  0  0  0  0  0  0  0  0
  1  2  1  0  0  0  0
  1 22  1  0  0  0  0
  1 23  1  0  0  0  0
  2 17  2  0  0  0  0
  2  3  1  0  0  0  0
  3  4  2  0  0  0  0
  3 30  1  0  0  0  0
  4  5  1  0  0  0  0
  4 24  1  0  0  0  0
  5  6  1  0  0  0  0
  5 15  1  0  0  0  0
  6 18  1  0  0  0  0
  6 13  1  0  0  0  0
  6  7  1  0  0  0  0
  7  8  1  0  0  0  0
  8 19  1  0  0  0  0
  8  9  1  0  0  0  0
  8 11  1  0  0  0  0
  9 10  1  0  0  0  0
  9 25  1  0  0  0  0
  9 26  1  0  0  0  0
 10 27  1  0  0  0  0
 11 20  1  0  0  0  0
 11 12  1  0  0  0  0
 11 13  1  0  0  0  0
 12 28  1  0  0  0  0
 13 21  1  0  0  0  0
 13 14  1  0  0  0  0
 14 29  1  0  0  0  0
 15 16  2  0  0  0  0
 15 17  1  0  0  0  0
M  CHG  1   3   1
M  END
> <s_m_source_file>
AV-unprocessed.smi

> <i_m_source_file_index>
72

> <i_lp_mmshare_version>
43012

> <i_f3d_flags>
0

> <s_epik_input>
W05IMl1jMW5bY0hdbihjKD1PKW4xKVtDQEBIXTJPW0NASF0oW0NIMl1bT0hdKVtDQEBIXShbT0hdKVtDQEhdMltPSF0=

> <s_epik_cmdline>
J2VwaWtfcHl0aG9uJywgJy1waCcsICc3LjAnLCAnLXRuJywgJzgnLCAnLW1hJywgJzIwMCcsICctbWV0YWxfYmluZGluZycsICctaW1hZScsICc8aW5maWxlLm1hZT4nLCAnLW9tYWUnLCAnPG91dGZpbGUubWFlPic=

> <r_lp_tautomer_probability>
4.77166e-05

> <r_epik_Ionization_Penalty>
0.104979

> <r_epik_Ionization_Penalty_Charging>
0.0999619

> <r_epik_Ionization_Penalty_Neutral>
0.00501745

> <r_epik_State_Penalty>
2.51541

> <r_epik_Charging_Adjusted_Penalty>
2.61537

> <i_epik_Tot_Q>
1

> <i_epik_Tot_abs_Q>
1

> <r_epik_Metal_State_Penalty>
3.53763

> <b_epik_Metal_Only>
0

> <s_epik_Chemistry_Notes>
This compound contains an acetal/aminal-like group ( X-CH(R)-Y where X, Y are N, S, or O) that may be acid/base labile, releasing an aldehyde.

> <s_lp_Force_Field>
OPLS_2005

> <r_lp_Energy>
35.1753

> <b_lp_Chiralities_Consistent>
1

> <s_lp_Variant>
AV-unprocessed.smi:72-43

> <Gold.Version>
5.8.1

> <Gold.Id.Protein>
6NUR|6NUR_protein|mol2

> <Gold.PLP.Fitness>
40.9034

> <Gold.PLP.PLP>
-21.6758

> <Gold.PLP.part.hbond>
-6.8767

> <Gold.PLP.part.metal>
0.0000

> <Gold.PLP.part.buried>
-0.6916

> <Gold.PLP.part.nonpolar>
-14.5432

> <Gold.PLP.part.repulsive>
1.1920

> <Gold.PLP.ligand.clash>
0.0000

> <Gold.PLP.ligand.torsion>
0.0588

> <Gold.PLP.Chemscore.Hbond>
5.6566

> <Gold.PLP.Chemscore.CHOScore>
0.7605

> <Gold.PLP.Chemscore.Metal>
0.0000

> <Gold.Chemscore.Hbonds>
donor molecule, donor type, donor heavy atom, donor atom, acceptor molecule, acceptor atom, score
      L1  H     1    23       P1 10175  0.91
      L1  H     3    30       P1 10175  1.72
      L1  H    10    27       P1  7921  1.00
      L1  H    14    29       P1 10957  1.00
      P1  H 10192 10197       L1    10  0.99
      L1  C     4    24       P1 10171  0.76

> <Gold.PLP.Chemscore.Internal.Correction>
0.0938

> <Gold.Rescore>
     Score         DG    S(hbond)    S(metal)    S(lipo)     H(rot)  DE(clash)    DE(int)     intcor
     11.95     -13.41       4.45        0.00      30.09       4.08       0.66       0.80       ----

> <Gold.Chemscore.Fitness>
11.9480

> <Gold.Chemscore.DG>
-13.4110

> <Gold.Chemscore.ZeroCoef>
-5.4800

> <Gold.Chemscore.Hbond>
4.4464

> <Gold.Chemscore.Metal>
0.0000

> <Gold.Chemscore.Lipo>
30.0897

> <Gold.Chemscore.Internal_Hbond>
0.0000

> <Gold.Chemscore.DEClash>
0.6649

> <Gold.Chemscore.DEInternal>
0.7981

> <Gold.Chemscore.Rot>
4.0783

> <Gold.Chemscore.Internal.Correction>
   9.000000E+99

> <Gold.Chemscore.Hbonds>
donor molecule, donor type, donor heavy atom, donor atom, acceptor molecule, acceptor atom, score
      L1  H     1    23       P1 10175  0.90
      L1  H     3    30       P1 10175  0.79
      L1  H    10    27       P1  7921  0.98
      L1  H    14    29       P1 10957  0.90
      P1  H 10192 10197       L1    10  0.86

> <Gold.Chemscore.Hbond.Weighted>
-14.8510

> <Gold.Chemscore.Metal.Weighted>
-0.0000

> <Gold.Chemscore.Lipo.Weighted>
-3.5205

> <Gold.Chemscore.Internal_Hbond.Weighted>
0.0000

> <Gold.Chemscore.DEClash.Weighted>
0.6649

> <Gold.Chemscore.DEInternal.Weighted>
0.7981

> <Gold.Chemscore.Rot.Weighted>
10.4404

> <Gold.Chemscore.Internal.Correction.Weighted>
   9.000000E+99

> <Gold.Protein.RotatedTorsions>
[ 6907 6896 6895 6894 ] final  -23.10 input  -60.11 | X-H torsion
[ 7974 7965 7964 7962 ] final  119.33 input  175.53 | X-H torsion
[ 8008 7997 7996 7995 ] final  175.07 input   59.86 | X-H torsion
[ 10167 10162 10161 10158 ] final   40.11 input  -65.29 | X-H torsion
[ 10718 10713 10712 10709 ] final  128.73 input   66.30 | X-H torsion
[ 10763 10752 10751 10750 ] final  122.53 input  -60.55 | X-H torsion
[ 11005 11000 10999 10996 ] final  155.44 input  -57.11 | X-H torsion

> <Gold.Protein.ActiveResidues>
 VAL166  LYS551  ARG553  GLY616  TRP617  ASP618  TYR619  PRO620  LYS621  CYS622 
 ASP623  PHE694  ASN695  SER759  ASP760  ASP761  ALA762  ILE779  LEU786  VAL792 
 PHE793  MET794  SER795  GLU796  ALA797  LYS798  CYS799  TRP800  GLU811  SER814 

> <Gold.Protein.RotatedAtoms>
  151.2089  135.0473  159.8902 H   0  0  0  0  0  0  0  0  0  0  0  0  # atno 6907 bound_to 6896
  152.5426  134.0766  159.8227 H   0  0  0  0  0  0  0  0  0  0  0  0  # atno 6908 bound_to 6896
  151.0917  133.5263  159.2646 H   0  0  0  0  0  0  0  0  0  0  0  0  # atno 6909 bound_to 6896
  145.1444  139.3248  143.4599 H   0  0  0  0  0  0  0  0  0  0  0  0  # atno 7974 bound_to 7965
  156.0908  140.1418  156.9594 H   0  0  0  0  0  0  0  0  0  0  0  0  # atno 8008 bound_to 7997
  154.4641  140.0932  156.7019 H   0  0  0  0  0  0  0  0  0  0  0  0  # atno 8009 bound_to 7997
  155.4922  140.3448  155.4359 H   0  0  0  0  0  0  0  0  0  0  0  0  # atno 8010 bound_to 7997
  140.3774  144.2025  150.6131 H   0  0  0  0  0  0  0  0  0  0  0  0  # atno 10167 bound_to 10162
  157.5218  131.1098  150.9141 H   0  0  0  0  0  0  0  0  0  0  0  0  # atno 10718 bound_to 10713
  153.6312  135.3396  155.3042 H   0  0  0  0  0  0  0  0  0  0  0  0  # atno 10763 bound_to 10752
  154.8580  135.4296  154.2104 H   0  0  0  0  0  0  0  0  0  0  0  0  # atno 10764 bound_to 10752
  153.3000  135.7024  153.7285 H   0  0  0  0  0  0  0  0  0  0  0  0  # atno 10765 bound_to 10752
  140.1582  134.8628  157.2540 H   0  0  0  0  0  0  0  0  0  0  0  0  # atno 11005 bound_to 11000
  146.3501  140.1494  142.8592 LP  0  0  0  0  0  0  0  0  0  0  0  0  # atno 17320 bound_to 7965
  145.0497  140.9008  143.5003 LP  0  0  0  0  0  0  0  0  0  0  0  0  # atno 17321 bound_to 7965
  140.4972  143.2329  151.8732 LP  0  0  0  0  0  0  0  0  0  0  0  0  # atno 17342 bound_to 10162
  139.4798  144.5100  151.8945 LP  0  0  0  0  0  0  0  0  0  0  0  0  # atno 17343 bound_to 10162
  156.9750  130.5505  149.5292 LP  0  0  0  0  0  0  0  0  0  0  0  0  # atno 17370 bound_to 10713
  156.0359  130.5446  150.8652 LP  0  0  0  0  0  0  0  0  0  0  0  0  # atno 17371 bound_to 10713
  140.2522  134.3669  155.7438 LP  0  0  0  0  0  0  0  0  0  0  0  0  # atno 17394 bound_to 11000
  141.2206  133.7323  156.8953 LP  0  0  0  0  0  0  0  0  0  0  0  0  # atno 17395 bound_to 11000

$$$$
