AV-unprocessed.smi:2721|AV-procd|sdf|10503|dock2
  -GOLD-   2272014543D 1   1.00000     0.00000
 Structure written by MMmdl.
 29 30  0  0  0  0  0  0  0  0  2 V2000
  148.6289  140.9787  154.3588 C   0  0  0  0  0  0  0  0  0  0  0  0
  149.8001  141.0089  155.2084 N   0  0  0  0  0  0  0  0  0  0  0  0
  150.0688  141.8397  156.2746 C   0  0  0  0  0  0  0  0  0  0  0  0
  151.2954  141.4913  156.7678 C   0  0  0  0  0  0  0  0  0  0  0  0
  152.0617  142.1003  157.9128 C   0  0  2  0  0  0  0  0  0  0  0  0
  152.1506  141.1667  158.9877 O   0  0  0  0  0  0  0  0  0  0  0  0
  152.9423  141.6151  160.0826 C   0  0  0  0  0  0  0  0  0  0  0  0
  152.3058  142.8671  160.7018 C   0  0  0  0  0  0  0  0  0  0  0  0
  152.1402  143.9560  159.6380 C   0  0  0  0  0  0  0  0  0  0  0  0
  151.3829  143.3951  158.4246 C   0  0  1  0  0  0  0  0  0  0  0  0
  151.2924  144.4161  157.3634 N   0  3  0  0  0  0  0  0  0  0  0  0
  151.6992  140.4210  155.9190 C   0  0  0  0  0  0  0  0  0  0  0  0
  150.8043  140.1360  154.9882 N   0  0  0  0  0  0  0  0  0  0  0  0
  153.0772  142.3340  157.5870 H   0  0  0  0  0  0  0  0  0  0  0  0
  150.3631  143.1587  158.7326 H   0  0  0  0  0  0  0  0  0  0  0  0
  148.0169  141.8638  154.5344 H   0  0  0  0  0  0  0  0  0  0  0  0
  148.0385  140.0888  154.5787 H   0  0  0  0  0  0  0  0  0  0  0  0
  148.9295  140.9595  153.3106 H   0  0  0  0  0  0  0  0  0  0  0  0
  149.3737  142.6037  156.5913 H   0  0  0  0  0  0  0  0  0  0  0  0
  153.0000  140.8184  160.8243 H   0  0  0  0  0  0  0  0  0  0  0  0
  153.9624  141.8166  159.7521 H   0  0  0  0  0  0  0  0  0  0  0  0
  151.3324  142.6115  161.1227 H   0  0  0  0  0  0  0  0  0  0  0  0
  152.9173  143.2338  161.5267 H   0  0  0  0  0  0  0  0  0  0  0  0
  151.6114  144.8120  160.0589 H   0  0  0  0  0  0  0  0  0  0  0  0
  153.1241  144.3145  159.3311 H   0  0  0  0  0  0  0  0  0  0  0  0
  150.3813  144.3746  156.9292 H   0  0  0  0  0  0  0  0  0  0  0  0
  152.0046  144.2448  156.6682 H   0  0  0  0  0  0  0  0  0  0  0  0
  152.6147  139.8492  155.9494 H   0  0  0  0  0  0  0  0  0  0  0  0
  151.4311  145.3320  157.7667 H   0  0  0  0  0  0  0  0  0  0  0  0
  1  2  1  0  0  0  0
  1 16  1  0  0  0  0
  1 17  1  0  0  0  0
  1 18  1  0  0  0  0
  2 13  1  0  0  0  0
  2  3  1  0  0  0  0
  3  4  2  0  0  0  0
  3 19  1  0  0  0  0
  4  5  1  0  0  0  0
  4 12  1  0  0  0  0
  5 14  1  0  0  0  0
  5 10  1  0  0  0  0
  5  6  1  0  0  0  0
  6  7  1  0  0  0  0
  7  8  1  0  0  0  0
  7 20  1  0  0  0  0
  7 21  1  0  0  0  0
  8  9  1  0  0  0  0
  8 22  1  0  0  0  0
  8 23  1  0  0  0  0
  9 10  1  0  0  0  0
  9 24  1  0  0  0  0
  9 25  1  0  0  0  0
 10 15  1  0  0  0  0
 10 11  1  0  0  0  0
 11 26  1  0  0  0  0
 11 27  1  0  0  0  0
 11 29  1  0  0  0  0
 12 13  2  0  0  0  0
 12 28  1  0  0  0  0
M  CHG  1  11   1
M  END
> <s_m_source_file>
AV-unprocessed.smi

> <i_m_source_file_index>
2721

> <i_lp_mmshare_version>
43012

> <i_f3d_flags>
0

> <s_epik_input>
W0NIM11uMVtjSF1jKFtjSF1uMSlbQ0BIXTJPW0NIMl1bQ0gyXVtDSDJdW0NAQEhdMltOSDJd

> <s_epik_cmdline>
J2VwaWtfcHl0aG9uJywgJy1waCcsICc3LjAnLCAnLXRuJywgJzgnLCAnLW1hJywgJzIwMCcsICctbWV0YWxfYmluZGluZycsICctaW1hZScsICc8aW5maWxlLm1hZT4nLCAnLW9tYWUnLCAnPG91dGZpbGUubWFlPic=

> <r_lp_tautomer_probability>
1

> <r_epik_Ionization_Penalty>
0.0061467

> <r_epik_Ionization_Penalty_Charging>
0.00611941

> <r_epik_Ionization_Penalty_Neutral>
2.72888e-05

> <r_epik_State_Penalty>
0.00451057

> <r_epik_Charging_Adjusted_Penalty>
0.01063

> <i_epik_Tot_Q>
1

> <i_epik_Tot_abs_Q>
1

> <r_epik_Metal_State_Penalty>
-0

> <b_epik_Metal_Only>
0

> <s_lp_Force_Field>
OPLS_2005

> <r_lp_Energy>
11.0235

> <b_lp_Chiralities_Consistent>
1

> <s_lp_Variant>
AV-unprocessed.smi:2721-4

> <Gold.Version>
5.8.1

> <Gold.Id.Protein>
6NUR|6NUR_protein|mol2

> <Gold.PLP.Fitness>
41.6588

> <Gold.PLP.PLP>
-29.9364

> <Gold.PLP.part.hbond>
-2.0000

> <Gold.PLP.part.metal>
0.0000

> <Gold.PLP.part.buried>
-3.6795

> <Gold.PLP.part.nonpolar>
-23.5281

> <Gold.PLP.part.repulsive>
0.0915

> <Gold.PLP.ligand.clash>
0.0000

> <Gold.PLP.ligand.torsion>
0.1406

> <Gold.PLP.Chemscore.Hbond>
3.0000

> <Gold.PLP.Chemscore.CHOScore>
1.0000

> <Gold.PLP.Chemscore.Metal>
0.0000

> <Gold.Chemscore.Hbonds>
donor molecule, donor type, donor heavy atom, donor atom, acceptor molecule, acceptor atom, score
      L1  H    11    26       P1  8028  2.00
      P1  H  7989  7998       L1    13  1.00
      L1  C     3    19       P1  8028  1.00

> <Gold.PLP.Chemscore.Internal.Correction>
0.0037

> <Gold.Rescore>
     Score         DG    S(hbond)    S(metal)    S(lipo)     H(rot)  DE(clash)    DE(int)     intcor
     15.31     -15.72       1.00        0.00      80.92       1.00       0.06       0.35       ----

> <Gold.Chemscore.Fitness>
15.3086

> <Gold.Chemscore.DG>
-15.7191

> <Gold.Chemscore.ZeroCoef>
-5.4800

> <Gold.Chemscore.Hbond>
0.9976

> <Gold.Chemscore.Metal>
0.0000

> <Gold.Chemscore.Lipo>
80.9150

> <Gold.Chemscore.Internal_Hbond>
0.0000

> <Gold.Chemscore.DEClash>
0.0580

> <Gold.Chemscore.DEInternal>
0.3524

> <Gold.Chemscore.Rot>
1.0000

> <Gold.Chemscore.Internal.Correction>
   9.000000E+99

> <Gold.Chemscore.Hbonds>
donor molecule, donor type, donor heavy atom, donor atom, acceptor molecule, acceptor atom, score
      L1  H    11    26       P1  8028  0.89
      P1  H  7989  7998       L1    13  0.09

> <Gold.Chemscore.Hbond.Weighted>
-3.3320

> <Gold.Chemscore.Metal.Weighted>
-0.0000

> <Gold.Chemscore.Lipo.Weighted>
-9.4671

> <Gold.Chemscore.Internal_Hbond.Weighted>
0.0000

> <Gold.Chemscore.DEClash.Weighted>
0.0580

> <Gold.Chemscore.DEInternal.Weighted>
0.3524

> <Gold.Chemscore.Rot.Weighted>
2.5600

> <Gold.Chemscore.Internal.Correction.Weighted>
   9.000000E+99

> <Gold.Protein.RotatedTorsions>
[ 6907 6896 6895 6894 ] final   24.69 input  -60.11 | X-H torsion
[ 7974 7965 7964 7962 ] final  115.34 input  175.53 | X-H torsion
[ 8008 7997 7996 7995 ] final  137.92 input   59.86 | X-H torsion
[ 10167 10162 10161 10158 ] final   45.94 input  -65.29 | X-H torsion
[ 10718 10713 10712 10709 ] final   98.61 input   66.30 | X-H torsion
[ 10763 10752 10751 10750 ] final -122.11 input  -60.55 | X-H torsion
[ 11005 11000 10999 10996 ] final   58.03 input  -57.11 | X-H torsion

> <Gold.Protein.ActiveResidues>
 VAL166  LYS551  ARG553  GLY616  TRP617  ASP618  TYR619  PRO620  LYS621  CYS622 
 ASP623  PHE694  ASN695  SER759  ASP760  ASP761  ALA762  ILE779  LEU786  VAL792 
 PHE793  MET794  SER795  GLU796  ALA797  LYS798  CYS799  TRP800  GLU811  SER814 

> <Gold.Protein.RotatedAtoms>
  151.9613  135.0122  160.0547 H   0  0  0  0  0  0  0  0  0  0  0  0  # atno 6907 bound_to 6896
  152.1866  133.4739  159.4994 H   0  0  0  0  0  0  0  0  0  0  0  0  # atno 6908 bound_to 6896
  150.6927  134.1683  159.4245 H   0  0  0  0  0  0  0  0  0  0  0  0  # atno 6909 bound_to 6896
  145.1932  139.2989  143.4357 H   0  0  0  0  0  0  0  0  0  0  0  0  # atno 7974 bound_to 7965
  156.3000  140.2407  156.3988 H   0  0  0  0  0  0  0  0  0  0  0  0  # atno 8008 bound_to 7997
  154.8546  140.0422  157.1646 H   0  0  0  0  0  0  0  0  0  0  0  0  # atno 8009 bound_to 7997
  154.8962  140.2970  155.5347 H   0  0  0  0  0  0  0  0  0  0  0  0  # atno 8010 bound_to 7997
  140.3190  144.2728  150.6186 H   0  0  0  0  0  0  0  0  0  0  0  0  # atno 10167 bound_to 10162
  157.6892  131.0645  150.4822 H   0  0  0  0  0  0  0  0  0  0  0  0  # atno 10718 bound_to 10713
  154.8683  135.4144  154.2729 H   0  0  0  0  0  0  0  0  0  0  0  0  # atno 10763 bound_to 10752
  153.3636  135.7004  153.6698 H   0  0  0  0  0  0  0  0  0  0  0  0  # atno 10764 bound_to 10752
  153.5589  135.3614  155.2763 H   0  0  0  0  0  0  0  0  0  0  0  0  # atno 10765 bound_to 10752
  140.0408  134.5876  155.9384 H   0  0  0  0  0  0  0  0  0  0  0  0  # atno 11005 bound_to 11000
  146.3432  140.2152  142.8590 LP  0  0  0  0  0  0  0  0  0  0  0  0  # atno 17320 bound_to 7965
  145.0020  140.8640  143.5276 LP  0  0  0  0  0  0  0  0  0  0  0  0  # atno 17321 bound_to 7965
  140.5500  143.2208  151.7942 LP  0  0  0  0  0  0  0  0  0  0  0  0  # atno 17342 bound_to 10162
  139.4878  144.4489  151.9678 LP  0  0  0  0  0  0  0  0  0  0  0  0  # atno 17343 bound_to 10162
  156.5153  130.4149  149.6279 LP  0  0  0  0  0  0  0  0  0  0  0  0  # atno 17370 bound_to 10713
  156.3203  130.7277  151.2187 LP  0  0  0  0  0  0  0  0  0  0  0  0  # atno 17371 bound_to 10713
  141.1882  133.6562  156.5313 LP  0  0  0  0  0  0  0  0  0  0  0  0  # atno 17394 bound_to 11000
  140.4072  134.7304  157.4815 LP  0  0  0  0  0  0  0  0  0  0  0  0  # atno 17395 bound_to 11000

$$$$
