#       Name:                AV-unprocessed.smi:1654
#       Creating user name   scv26
#       Creation time:       Fri Mar 27 07:34:38 2020


#       File generated by GOLD software.
#

@<TRIPOS>MOLECULE
AV-unprocessed.smi:1654
    41    42     1
SMALL
NO_CHARGES


@<TRIPOS>ATOM
      1 ****         0.5584   2.5382   1.2114 O.2            1 S1                 0.0000
      2 ****         0.0980   1.7919   0.0290 S.o2           1 S1                 0.0000
      3 ****         0.2179   2.4442  -1.2857 O.2            1 S1                 0.0000
      4 ****         0.5879   0.2461  -0.0018 N.pl3          1 S1                -1.0000
      5 ****         2.0019  -0.0389  -0.1664 C.3            1 S1                 0.0000
      6 ****         2.2274  -1.5642  -0.1947 C.3            1 S1                 0.0000
      7 ****         3.6877  -1.9670  -0.3572 C.ar           1 S1                 0.0000
      8 ****         4.2498  -2.1658  -1.6373 C.ar           1 S1                 0.0000
      9 ****         5.6007  -2.5513  -1.7358 C.ar           1 S1                 0.0000
     10 ****         6.3357  -2.7273  -0.5468 C.ar           1 S1                 0.0000
     11 ****         5.8104  -2.5474   0.6840 N.ar           1 S1                 0.0000
     12 ****         4.5143  -2.1766   0.7696 C.ar           1 S1                 0.0000
     13 ****        -1.5980   1.4903   0.2914 N.pl3          1 S1                 0.0000
     14 ****        -2.5858   2.4403  -0.2551 C.3            1 S1                 0.0000
     15 ****        -3.6498   1.6954  -1.0754 C.3            1 S1                 0.0000
     16 ****        -4.8589   1.1897  -0.2677 C.3            1 S1                 0.0000
     17 ****        -4.5638   0.6863   1.1571 C.3            1 S1                 0.0000
     18 ****        -3.2528  -0.1011   1.3109 C.3            1 S1                 0.0000
     19 ****        -2.0177   0.7951   1.5244 C.3            1 S1                 0.0000
     20 ****         2.3926   0.3941  -1.0879 H              1 S1                 0.0000
     21 ****         2.5928   0.3924   0.6424 H              1 S1                 0.0000
     22 ****         1.8458  -2.0118   0.7244 H              1 S1                 0.0000
     23 ****         1.6532  -2.0085  -1.0090 H              1 S1                 0.0000
     24 ****         3.6567  -2.0235  -2.5288 H              1 S1                 0.0000
     25 ****         6.0620  -2.7084  -2.6994 H              1 S1                 0.0000
     26 ****         7.3738  -3.0229  -0.5854 H              1 S1                 0.0000
     27 ****         4.1250  -2.0430   1.7683 H              1 S1                 0.0000
     28 ****        -3.0283   3.0361   0.5440 H              1 S1                 0.0000
     29 ****        -2.0861   3.1535  -0.9084 H              1 S1                 0.0000
     30 ****        -4.0210   2.3547  -1.8605 H              1 S1                 0.0000
     31 ****        -3.1812   0.8612  -1.6001 H              1 S1                 0.0000
     32 ****        -5.6000   1.9868  -0.1973 H              1 S1                 0.0000
     33 ****        -5.3392   0.3941  -0.8384 H              1 S1                 0.0000
     34 ****        -4.5621   1.5270   1.8519 H              1 S1                 0.0000
     35 ****        -5.3969   0.0561   1.4704 H              1 S1                 0.0000
     36 ****        -3.3487  -0.7369   2.1915 H              1 S1                 0.0000
     37 ****        -3.1026  -0.7806   0.4708 H              1 S1                 0.0000
     38 ****        -1.2030   0.1709   1.8893 H              1 S1                 0.0000
     39 ****        -2.1974   1.5299   2.3099 H              1 S1                 0.0000
     40 ****        -0.0731  -0.4984   0.0910 LP             1 S1                 0.0000
     41 ****         6.3633  -2.6843   1.5059 LP             1 S1                 0.0000
@<TRIPOS>BOND
    1    1    2 2     
    2    2    3 2     
    3    2    4 1     
    4    2   13 1     
    5    4    5 1     
    6    5    6 1     
    7    5   20 1     
    8    5   21 1     
    9    6    7 1     
   10    6   22 1     
   11    6   23 1     
   12    7   12 ar    
   13    7    8 ar    
   14    8    9 ar    
   15    8   24 1     
   16    9   10 ar    
   17    9   25 1     
   18   10   11 ar    
   19   10   26 1     
   20   11   12 ar    
   21   12   27 1     
   22   13   19 1     
   23   13   14 1     
   24   14   15 1     
   25   14   28 1     
   26   14   29 1     
   27   15   16 1     
   28   15   30 1     
   29   15   31 1     
   30   16   17 1     
   31   16   32 1     
   32   16   33 1     
   33   17   18 1     
   34   17   34 1     
   35   17   35 1     
   36   18   19 1     
   37   18   36 1     
   38   18   37 1     
   39   19   38 1     
   40   19   39 1     
   41    4   40 1     
   42   11   41 1     
@<TRIPOS>SUBSTRUCTURE
      1 S1             1
@<TRIPOS>SET
LONE_PAIRS      STATIC     ATOMS    <user>   **** ""
4 1 3 40 41
ATOM$BLUE        STATIC     ATOMS    COLORGROUP SYSTEM
4 1 3 40 41
