#       Name:                AV-unprocessed.smi:712
#       Creating user name   scv26
#       Creation time:       Fri Mar 27 00:46:07 2020


#       File generated by GOLD software.
#

@<TRIPOS>MOLECULE
AV-unprocessed.smi:712
    57    58     1
SMALL
NO_CHARGES


@<TRIPOS>ATOM
      1 ****        -3.6676   4.7971   4.6341 C.3            1 S1                 0.0000
      2 ****        -3.5560   4.0305   3.3323 C.2            1 S1                 0.0000
      3 ****        -4.7082   3.3595   2.7669 C.2            1 S1                 0.0000
      4 ****        -4.5735   2.6916   1.6107 C.2            1 S1                 0.0000
      5 ****        -3.3438   2.6224   0.9311 N.am           1 S1                 0.0000
      6 ****        -3.3106   1.8595  -0.3279 C.3            1 S1                 0.0000
      7 ****        -2.7012   0.4606  -0.1626 C.2            1 S1                 0.0000
      8 ****        -2.8231  -0.1555   0.8969 O.2            1 S1                 0.0000
      9 ****        -2.0519  -0.0312  -1.2285 N.am           1 S1                 0.0000
     10 ****        -1.3583  -1.3142  -1.2697 C.3            1 S1                 0.0000
     11 ****         0.1074  -1.1780  -0.8186 C.3            1 S1                 0.0000
     12 ****         0.8921  -2.4936  -1.0198 C.3            1 S1                 0.0000
     13 ****         2.2776  -2.3981  -0.4900 N.4            1 S1                 1.0000
     14 ****         3.2336  -1.6585  -1.3589 C.3            1 S1                 0.0000
     15 ****         3.6805  -2.4680  -2.5959 C.3            1 S1                 0.0000
     16 ****         4.4281  -3.7532  -2.2025 C.3            1 S1                 0.0000
     17 ****         4.5517  -1.6035  -3.5195 C.3            1 S1                 0.0000
     18 ****         2.2633  -1.9218   0.9146 C.3            1 S1                 0.0000
     19 ****         1.4517  -0.6217   1.0512 C.3            1 S1                 0.0000
     20 ****         0.1345  -0.8420   0.5655 O.3            1 S1                 0.0000
     21 ****        -2.2163   3.2263   1.4150 C.2            1 S1                 0.0000
     22 ****        -1.1344   3.1595   0.8297 O.2            1 S1                 0.0000
     23 ****        -2.3761   3.9571   2.6776 C.2            1 S1                 0.0000
     24 ****        -4.7012   4.8421   4.9780 H              1 S1                 0.0000
     25 ****        -3.3072   5.8184   4.5071 H              1 S1                 0.0000
     26 ****        -3.0711   4.3153   5.4091 H              1 S1                 0.0000
     27 ****        -5.6648   3.3904   3.2677 H              1 S1                 0.0000
     28 ****        -5.3912   2.1649   1.1405 H              1 S1                 0.0000
     29 ****        -4.3145   1.7450  -0.7390 H              1 S1                 0.0000
     30 ****        -2.7533   2.4183  -1.0825 H              1 S1                 0.0000
     31 ****        -2.0117   0.5374  -2.0621 H              1 S1                 0.0000
     32 ****        -1.8815  -2.0605  -0.6692 H              1 S1                 0.0000
     33 ****        -1.3933  -1.6699  -2.2998 H              1 S1                 0.0000
     34 ****         0.5703  -0.3751  -1.3944 H              1 S1                 0.0000
     35 ****         0.3854  -3.2986  -0.4853 H              1 S1                 0.0000
     36 ****         0.8922  -2.7846  -2.0693 H              1 S1                 0.0000
     37 ****         2.8008  -0.7061  -1.6644 H              1 S1                 0.0000
     38 ****         4.1249  -1.4083  -0.7815 H              1 S1                 0.0000
     39 ****         2.8031  -2.7551  -3.1744 H              1 S1                 0.0000
     40 ****         5.3226  -3.5296  -1.6202 H              1 S1                 0.0000
     41 ****         4.7390  -4.3112  -3.0863 H              1 S1                 0.0000
     42 ****         3.7997  -4.4159  -1.6069 H              1 S1                 0.0000
     43 ****         5.4643  -1.2797  -3.0175 H              1 S1                 0.0000
     44 ****         4.0161  -0.7110  -3.8446 H              1 S1                 0.0000
     45 ****         4.8427  -2.1542  -4.4147 H              1 S1                 0.0000
     46 ****         1.8079  -2.6956   1.5340 H              1 S1                 0.0000
     47 ****         3.2784  -1.7893   1.2904 H              1 S1                 0.0000
     48 ****         1.3938  -0.3244   2.0983 H              1 S1                 0.0000
     49 ****         1.9226   0.2023   0.5134 H              1 S1                 0.0000
     50 ****        -1.5124   4.4541   3.0952 H              1 S1                 0.0000
     51 ****         2.6376  -3.3415  -0.4540 H              1 S1                 0.0000
     52 ****        -3.3228   0.2552   1.6595 LP             1 S1                 0.0000
     53 ****        -2.4223  -1.0665   0.9946 LP             1 S1                 0.0000
     54 ****        -0.2766  -1.5914   1.0846 LP             1 S1                 0.0000
     55 ****        -0.4006  -0.0085   0.7028 LP             1 S1                 0.0000
     56 ****        -1.0606   2.6512  -0.0283 LP             1 S1                 0.0000
     57 ****        -0.3299   3.6135   1.2126 LP             1 S1                 0.0000
@<TRIPOS>BOND
    1    1    2 1     
    2    1   24 1     
    3    1   25 1     
    4    1   26 1     
    5    2   23 2     
    6    2    3 1     
    7    3    4 2     
    8    3   27 1     
    9    4    5 1     
   10    4   28 1     
   11    5    6 1     
   12    5   21 am    
   13    6    7 1     
   14    6   29 1     
   15    6   30 1     
   16    7    8 2     
   17    7    9 am    
   18    9   10 1     
   19    9   31 1     
   20   10   11 1     
   21   10   32 1     
   22   10   33 1     
   23   11   20 1     
   24   11   12 1     
   25   11   34 1     
   26   12   13 1     
   27   12   35 1     
   28   12   36 1     
   29   13   14 1     
   30   13   18 1     
   31   13   51 1     
   32   14   15 1     
   33   14   37 1     
   34   14   38 1     
   35   15   16 1     
   36   15   17 1     
   37   15   39 1     
   38   16   40 1     
   39   16   41 1     
   40   16   42 1     
   41   17   43 1     
   42   17   44 1     
   43   17   45 1     
   44   18   19 1     
   45   18   46 1     
   46   18   47 1     
   47   19   20 1     
   48   19   48 1     
   49   19   49 1     
   50   21   22 2     
   51   21   23 1     
   52   23   50 1     
   53    8   52 1     
   54    8   53 1     
   55   20   54 1     
   56   20   55 1     
   57   22   56 1     
   58   22   57 1     
@<TRIPOS>SUBSTRUCTURE
      1 S1             1
@<TRIPOS>SET
LONE_PAIRS      STATIC     ATOMS    <user>   **** ""
6 52 53 54 55 56 57
DONOR_HYDROGENS      STATIC     ATOMS    <user>   **** ""
2 31 51
ATOM$BLUE        STATIC     ATOMS    COLORGROUP SYSTEM
6 52 53 54 55 56 57
ATOM$RED        STATIC     ATOMS    COLORGROUP SYSTEM
2 31 51
