AV-unprocessed.smi:2143|AV-procd|sdf|8723|dock9
  -GOLD-   2272011493D 1   1.00000     0.00000
 Structure written by MMmdl.
 44 45  0  0  0  0  0  0  0  0  1 V2000
  152.0708  145.2235  159.1665 C   0  0  0  0  0  0  0  0  0  0  0  0
  152.2934  143.7532  158.7746 C   0  0  1  0  0  0  0  0  0  0  0  0
  152.7021  142.8943  159.9885 C   0  0  0  0  0  0  0  0  0  0  0  0
  153.0232  141.4501  159.5728 C   0  0  0  0  0  0  0  0  0  0  0  0
  151.8579  140.8132  158.8012 C   0  0  0  0  0  0  0  0  0  0  0  0
  151.4555  141.6729  157.5876 C   0  0  1  0  0  0  0  0  0  0  0  0
  150.3677  141.0225  156.8607 N   0  0  0  0  0  0  0  0  0  0  0  0
  150.4709  140.4581  155.6482 C   0  0  0  0  0  0  0  0  0  0  0  0
  151.5276  140.3949  155.0186 O   0  0  0  0  0  0  0  0  0  0  0  0
  149.1800  139.8635  155.0707 C   0  0  0  0  0  0  0  0  0  0  0  0
  148.0529  140.8043  155.1105 N   0  0  0  0  0  0  0  0  0  0  0  0
  147.6099  141.3937  153.9402 C   0  0  0  0  0  0  0  0  0  0  0  0
  146.5824  142.2692  153.8898 C   0  0  0  0  0  0  0  0  0  0  0  0
  145.8689  142.6545  155.1010 C   0  0  0  0  0  0  0  0  0  0  0  0
  144.9131  143.4316  155.1029 O   0  0  0  0  0  0  0  0  0  0  0  0
  146.3528  142.0526  156.2861 N   0  0  0  0  0  0  0  0  0  0  0  0
  145.6755  142.3843  157.5228 C   0  0  0  0  0  0  0  0  0  0  0  0
  147.4162  141.1216  156.3305 C   0  0  0  0  0  0  0  0  0  0  0  0
  147.7841  140.5923  157.3823 O   0  0  0  0  0  0  0  0  0  0  0  0
  151.0986  143.1267  158.0070 C   0  0  1  0  0  0  0  0  0  0  0  0
  149.7542  143.2306  158.7649 C   0  0  0  0  0  0  0  0  0  0  0  0
  151.3096  145.3265  159.9398 H   0  0  0  0  0  0  0  0  0  0  0  0
  151.7614  145.8181  158.3066 H   0  0  0  0  0  0  0  0  0  0  0  0
  152.9890  145.6636  159.5561 H   0  0  0  0  0  0  0  0  0  0  0  0
  153.1407  143.7517  158.0869 H   0  0  0  0  0  0  0  0  0  0  0  0
  153.5751  143.3311  160.4746 H   0  0  0  0  0  0  0  0  0  0  0  0
  151.9076  142.8949  160.7354 H   0  0  0  0  0  0  0  0  0  0  0  0
  153.9178  141.4426  158.9489 H   0  0  0  0  0  0  0  0  0  0  0  0
  153.2573  140.8524  160.4541 H   0  0  0  0  0  0  0  0  0  0  0  0
  152.1468  139.8148  158.4703 H   0  0  0  0  0  0  0  0  0  0  0  0
  151.0063  140.6784  159.4691 H   0  0  0  0  0  0  0  0  0  0  0  0
  152.3211  141.7135  156.9233 H   0  0  0  0  0  0  0  0  0  0  0  0
  149.4613  141.0222  157.3059 H   0  0  0  0  0  0  0  0  0  0  0  0
  149.3772  139.5575  154.0425 H   0  0  0  0  0  0  0  0  0  0  0  0
  148.9191  138.9485  155.6057 H   0  0  0  0  0  0  0  0  0  0  0  0
  148.1090  141.1427  153.0156 H   0  0  0  0  0  0  0  0  0  0  0  0
  146.2837  142.6899  152.9409 H   0  0  0  0  0  0  0  0  0  0  0  0
  146.3351  142.2118  158.3735 H   0  0  0  0  0  0  0  0  0  0  0  0
  144.7868  141.7541  157.5757 H   0  0  0  0  0  0  0  0  0  0  0  0
  145.4146  143.4439  157.5080 H   0  0  0  0  0  0  0  0  0  0  0  0
  150.9744  143.7049  157.0900 H   0  0  0  0  0  0  0  0  0  0  0  0
  149.7784  142.7037  159.7180 H   0  0  0  0  0  0  0  0  0  0  0  0
  148.9316  142.8162  158.1819 H   0  0  0  0  0  0  0  0  0  0  0  0
  149.4896  144.2676  158.9684 H   0  0  0  0  0  0  0  0  0  0  0  0
  1  2  1  0  0  0  0
  1 22  1  0  0  0  0
  1 23  1  0  0  0  0
  1 24  1  0  0  0  0
  2 20  1  0  0  0  0
  2  3  1  0  0  0  0
  2 25  1  0  0  0  0
  3  4  1  0  0  0  0
  3 26  1  0  0  0  0
  3 27  1  0  0  0  0
  4  5  1  0  0  0  0
  4 28  1  0  0  0  0
  4 29  1  0  0  0  0
  5  6  1  0  0  0  0
  5 30  1  0  0  0  0
  5 31  1  0  0  0  0
  6  7  1  0  0  0  0
  6 20  1  0  0  0  0
  6 32  1  0  0  0  0
  7  8  1  0  0  0  0
  7 33  1  0  0  0  0
  8  9  2  0  0  0  0
  8 10  1  0  0  0  0
 10 11  1  0  0  0  0
 10 34  1  0  0  0  0
 10 35  1  0  0  0  0
 11 18  1  0  0  0  0
 11 12  1  0  0  0  0
 12 13  2  0  0  0  0
 12 36  1  0  0  0  0
 13 14  1  0  0  0  0
 13 37  1  0  0  0  0
 14 15  2  0  0  0  0
 14 16  1  0  0  0  0
 16 17  1  0  0  0  0
 16 18  1  0  0  0  0
 17 38  1  0  0  0  0
 17 39  1  0  0  0  0
 17 40  1  0  0  0  0
 18 19  2  0  0  0  0
 20 21  1  0  0  0  0
 20 41  1  0  0  0  0
 21 42  1  0  0  0  0
 21 43  1  0  0  0  0
 21 44  1  0  0  0  0
M  END
> <s_m_source_file>
AV-unprocessed.smi

> <i_m_source_file_index>
2143

> <i_lp_mmshare_version>
43012

> <i_f3d_flags>
0

> <s_epik_input>
W0NIM11bQ0BASF0xW0NIMl1bQ0gyXVtDSDJdW0NASF0oW0NASF0xW0NIM10pW05IXUMoPU8pW0NIMl1uMltjSF1bY0hdYyg9TyluKFtDSDNdKWMyPU8=

> <s_epik_cmdline>
J2VwaWtfcHl0aG9uJywgJy1waCcsICc3LjAnLCAnLXRuJywgJzgnLCAnLW1hJywgJzIwMCcsICctbWV0YWxfYmluZGluZycsICctaW1hZScsICc8aW5maWxlLm1hZT4nLCAnLW9tYWUnLCAnPG91dGZpbGUubWFlPic=

> <r_lp_tautomer_probability>
1

> <r_epik_Ionization_Penalty>
3.18445e-08

> <r_epik_Ionization_Penalty_Charging>
1.27977e-08

> <r_epik_Ionization_Penalty_Neutral>
1.90469e-08

> <r_epik_State_Penalty>
-0

> <r_epik_Charging_Adjusted_Penalty>
1.27977e-08

> <i_epik_Tot_Q>
0

> <i_epik_Tot_abs_Q>
0

> <r_epik_Metal_State_Penalty>
-0

> <b_epik_Metal_Only>
0

> <s_lp_Force_Field>
OPLS_2005

> <r_lp_Energy>
21.6223

> <b_lp_Chiralities_Consistent>
1

> <s_lp_Variant>
AV-unprocessed.smi:2143-2

> <Gold.Version>
5.8.1

> <Gold.Id.Protein>
6NUR|6NUR_protein|mol2

> <Gold.PLP.Fitness>
48.2594

> <Gold.PLP.PLP>
-42.9171

> <Gold.PLP.part.hbond>
-1.0000

> <Gold.PLP.part.metal>
0.0000

> <Gold.PLP.part.buried>
-7.6479

> <Gold.PLP.part.nonpolar>
-35.1199

> <Gold.PLP.part.repulsive>
0.3035

> <Gold.PLP.ligand.clash>
0.0000

> <Gold.PLP.ligand.torsion>
0.2997

> <Gold.PLP.Chemscore.Hbond>
0.9760

> <Gold.PLP.Chemscore.CHOScore>
1.0000

> <Gold.PLP.Chemscore.Metal>
0.0000

> <Gold.Chemscore.Hbonds>
donor molecule, donor type, donor heavy atom, donor atom, acceptor molecule, acceptor atom, score
      P1  H  7989  7998       L1     9  0.93
      L1  C    12    36       P1  7957  0.79

> <Gold.PLP.Chemscore.Internal.Correction>
0.0136

> <Gold.Rescore>
     Score         DG    S(hbond)    S(metal)    S(lipo)     H(rot)  DE(clash)    DE(int)     intcor
     16.01     -16.62       0.97        0.00     100.66       1.51       0.06       0.55       ----

> <Gold.Chemscore.Fitness>
16.0104

> <Gold.Chemscore.DG>
-16.6226

> <Gold.Chemscore.ZeroCoef>
-5.4800

> <Gold.Chemscore.Hbond>
0.9699

> <Gold.Chemscore.Metal>
0.0000

> <Gold.Chemscore.Lipo>
100.6556

> <Gold.Chemscore.Internal_Hbond>
0.0000

> <Gold.Chemscore.DEClash>
0.0629

> <Gold.Chemscore.DEInternal>
0.5494

> <Gold.Chemscore.Rot>
1.5131

> <Gold.Chemscore.Internal.Correction>
   9.000000E+99

> <Gold.Chemscore.Hbonds>
donor molecule, donor type, donor heavy atom, donor atom, acceptor molecule, acceptor atom, score
      P1  H  7989  7998       L1     9  0.88

> <Gold.Chemscore.Hbond.Weighted>
-3.2394

> <Gold.Chemscore.Metal.Weighted>
-0.0000

> <Gold.Chemscore.Lipo.Weighted>
-11.7767

> <Gold.Chemscore.Internal_Hbond.Weighted>
0.0000

> <Gold.Chemscore.DEClash.Weighted>
0.0629

> <Gold.Chemscore.DEInternal.Weighted>
0.5494

> <Gold.Chemscore.Rot.Weighted>
3.8734

> <Gold.Chemscore.Internal.Correction.Weighted>
   9.000000E+99

> <Gold.Protein.RotatedTorsions>
[ 6907 6896 6895 6894 ] final   82.68 input  -60.11 | X-H torsion
[ 7974 7965 7964 7962 ] final   19.58 input  175.53 | X-H torsion
[ 8008 7997 7996 7995 ] final   85.28 input   59.86 | X-H torsion
[ 10167 10162 10161 10158 ] final   65.91 input  -65.29 | X-H torsion
[ 10718 10713 10712 10709 ] final -143.99 input   66.30 | X-H torsion
[ 10763 10752 10751 10750 ] final  -56.69 input  -60.55 | X-H torsion
[ 11005 11000 10999 10996 ] final   -9.08 input  -57.11 | X-H torsion

> <Gold.Protein.ActiveResidues>
 VAL166  LYS551  ARG553  GLY616  TRP617  ASP618  TYR619  PRO620  LYS621  CYS622 
 ASP623  PHE694  ASN695  SER759  ASP760  ASP761  ALA762  ILE779  LEU786  VAL792 
 PHE793  MET794  SER795  GLU796  ALA797  LYS798  CYS799  TRP800  GLU811  SER814 

> <Gold.Protein.RotatedAtoms>
  152.5306  134.3012  159.9078 H   0  0  0  0  0  0  0  0  0  0  0  0  # atno 6907 bound_to 6896
  151.2963  133.4136  159.2644 H   0  0  0  0  0  0  0  0  0  0  0  0  # atno 6908 bound_to 6896
  151.0157  134.9447  159.8089 H   0  0  0  0  0  0  0  0  0  0  0  0  # atno 6909 bound_to 6896
  146.2144  139.8293  142.8663 H   0  0  0  0  0  0  0  0  0  0  0  0  # atno 7974 bound_to 7965
  155.9480  140.3403  155.6383 H   0  0  0  0  0  0  0  0  0  0  0  0  # atno 8008 bound_to 7997
  155.6956  140.0754  157.2449 H   0  0  0  0  0  0  0  0  0  0  0  0  # atno 8009 bound_to 7997
  154.4116  140.1649  156.2122 H   0  0  0  0  0  0  0  0  0  0  0  0  # atno 8010 bound_to 7997
  140.1062  144.4859  150.7006 H   0  0  0  0  0  0  0  0  0  0  0  0  # atno 10167 bound_to 10162
  156.3646  130.7756  151.1929 H   0  0  0  0  0  0  0  0  0  0  0  0  # atno 10718 bound_to 10713
  154.2106  135.6395  153.5114 H   0  0  0  0  0  0  0  0  0  0  0  0  # atno 10763 bound_to 10752
  152.9991  135.5473  154.6219 H   0  0  0  0  0  0  0  0  0  0  0  0  # atno 10764 bound_to 10752
  154.5655  135.2912  155.0852 H   0  0  0  0  0  0  0  0  0  0  0  0  # atno 10765 bound_to 10752
  140.7303  133.8755  155.8888 H   0  0  0  0  0  0  0  0  0  0  0  0  # atno 11005 bound_to 11000
  145.3014  141.0195  143.3606 LP  0  0  0  0  0  0  0  0  0  0  0  0  # atno 17320 bound_to 7965
  144.9003  139.4658  143.6635 LP  0  0  0  0  0  0  0  0  0  0  0  0  # atno 17321 bound_to 7965
  140.6951  143.2399  151.5024 LP  0  0  0  0  0  0  0  0  0  0  0  0  # atno 17342 bound_to 10162
  139.5644  144.2078  152.1742 LP  0  0  0  0  0  0  0  0  0  0  0  0  # atno 17343 bound_to 10162
  157.7477  131.0390  150.4529 LP  0  0  0  0  0  0  0  0  0  0  0  0  # atno 17370 bound_to 10713
  156.4745  130.4060  149.6498 LP  0  0  0  0  0  0  0  0  0  0  0  0  # atno 17371 bound_to 10713
  140.9927  134.1257  157.4393 LP  0  0  0  0  0  0  0  0  0  0  0  0  # atno 17394 bound_to 11000
  139.8828  135.0045  156.6254 LP  0  0  0  0  0  0  0  0  0  0  0  0  # atno 17395 bound_to 11000

$$$$
