AV-unprocessed.smi:1436|AV-procd|sdf|5861|dock2
  -GOLD-   22720 5533D 1   1.00000     0.00000
 Structure written by MMmdl.
 44 45  0  0  0  0  0  0  0  0  2 V2000
  153.1303  138.5371  154.5250 C   0  0  0  0  0  0  0  0  0  0  0  0
  152.4398  139.2438  155.6559 C   0  0  0  0  0  0  0  0  0  0  0  0
  152.9858  139.2305  156.8594 N   0  0  0  0  0  0  0  0  0  0  0  0
  152.1305  139.9758  157.6764 O   0  0  0  0  0  0  0  0  0  0  0  0
  151.0941  140.4206  156.9222 C   0  0  0  0  0  0  0  0  0  0  0  0
  150.0786  141.2610  157.6196 C   0  0  0  0  0  0  0  0  0  0  0  0
  151.2271  139.9921  155.6295 C   0  0  0  0  0  0  0  0  0  0  0  0
  150.3274  140.2640  154.4499 C   0  0  0  0  0  0  0  0  0  0  0  0
  148.9851  139.5834  154.7021 C   0  0  0  0  0  0  0  0  0  0  0  0
  148.6660  139.2557  155.8441 O   0  0  0  0  0  0  0  0  0  0  0  0
  148.1838  139.4432  153.6339 N   0  0  0  0  0  0  0  0  0  0  0  0
  146.7828  139.0262  153.6615 C   0  0  2  0  0  0  0  0  0  0  0  0
  146.0111  139.9004  154.6588 C   0  0  0  0  0  0  0  0  0  0  0  0
  146.6740  137.5252  154.0177 C   0  0  0  0  0  0  0  0  0  0  0  0
  146.5052  136.6567  152.8237 N   0  3  0  0  0  0  0  0  0  0  0  0
  146.2666  135.2347  153.1636 C   0  0  0  0  0  0  0  0  0  0  0  0
  146.1779  134.3876  151.8820 C   0  0  0  0  0  0  0  0  0  0  0  0
  145.1613  134.9040  151.0316 O   0  0  0  0  0  0  0  0  0  0  0  0
  145.4289  136.2430  150.6339 C   0  0  0  0  0  0  0  0  0  0  0  0
  145.4745  137.1458  151.8770 C   0  0  0  0  0  0  0  0  0  0  0  0
  153.7302  139.2348  153.9401 H   0  0  0  0  0  0  0  0  0  0  0  0
  152.4095  138.0728  153.8521 H   0  0  0  0  0  0  0  0  0  0  0  0
  153.7937  137.7509  154.8875 H   0  0  0  0  0  0  0  0  0  0  0  0
  150.4894  142.2421  157.8577 H   0  0  0  0  0  0  0  0  0  0  0  0
  149.7602  140.7913  158.5504 H   0  0  0  0  0  0  0  0  0  0  0  0
  149.1955  141.4080  156.9982 H   0  0  0  0  0  0  0  0  0  0  0  0
  150.1740  141.3327  154.2959 H   0  0  0  0  0  0  0  0  0  0  0  0
  150.7538  139.8824  153.5215 H   0  0  0  0  0  0  0  0  0  0  0  0
  148.5504  139.7279  152.7369 H   0  0  0  0  0  0  0  0  0  0  0  0
  146.3327  139.1908  152.6814 H   0  0  0  0  0  0  0  0  0  0  0  0
  144.9560  139.6261  154.6850 H   0  0  0  0  0  0  0  0  0  0  0  0
  146.0691  140.9543  154.3844 H   0  0  0  0  0  0  0  0  0  0  0  0
  146.4066  139.7972  155.6701 H   0  0  0  0  0  0  0  0  0  0  0  0
  147.5909  137.2348  154.5335 H   0  0  0  0  0  0  0  0  0  0  0  0
  145.8609  137.3504  154.7237 H   0  0  0  0  0  0  0  0  0  0  0  0
  147.0775  134.8618  153.7905 H   0  0  0  0  0  0  0  0  0  0  0  0
  145.3440  135.1448  153.7392 H   0  0  0  0  0  0  0  0  0  0  0  0
  147.1318  134.3773  151.3544 H   0  0  0  0  0  0  0  0  0  0  0  0
  145.9415  133.3529  152.1300 H   0  0  0  0  0  0  0  0  0  0  0  0
  146.3690  136.2930  150.0815 H   0  0  0  0  0  0  0  0  0  0  0  0
  144.6423  136.5750  149.9560 H   0  0  0  0  0  0  0  0  0  0  0  0
  144.4997  137.1573  152.3669 H   0  0  0  0  0  0  0  0  0  0  0  0
  145.6910  138.1698  151.5740 H   0  0  0  0  0  0  0  0  0  0  0  0
  147.3872  136.6805  152.3315 H   0  0  0  0  0  0  0  0  0  0  0  0
  1  2  1  0  0  0  0
  1 21  1  0  0  0  0
  1 22  1  0  0  0  0
  1 23  1  0  0  0  0
  2  7  1  0  0  0  0
  2  3  2  0  0  0  0
  3  4  1  0  0  0  0
  4  5  1  0  0  0  0
  5  6  1  0  0  0  0
  5  7  2  0  0  0  0
  6 24  1  0  0  0  0
  6 25  1  0  0  0  0
  6 26  1  0  0  0  0
  7  8  1  0  0  0  0
  8  9  1  0  0  0  0
  8 27  1  0  0  0  0
  8 28  1  0  0  0  0
  9 10  2  0  0  0  0
  9 11  1  0  0  0  0
 11 12  1  0  0  0  0
 11 29  1  0  0  0  0
 12 13  1  0  0  0  0
 12 14  1  0  0  0  0
 12 30  1  0  0  0  0
 13 31  1  0  0  0  0
 13 32  1  0  0  0  0
 13 33  1  0  0  0  0
 14 15  1  0  0  0  0
 14 34  1  0  0  0  0
 14 35  1  0  0  0  0
 15 20  1  0  0  0  0
 15 16  1  0  0  0  0
 15 44  1  0  0  0  0
 16 17  1  0  0  0  0
 16 36  1  0  0  0  0
 16 37  1  0  0  0  0
 17 18  1  0  0  0  0
 17 38  1  0  0  0  0
 17 39  1  0  0  0  0
 18 19  1  0  0  0  0
 19 20  1  0  0  0  0
 19 40  1  0  0  0  0
 19 41  1  0  0  0  0
 20 42  1  0  0  0  0
 20 43  1  0  0  0  0
M  CHG  1  15   1
M  END
> <s_m_source_file>
AV-unprocessed.smi

> <i_m_source_file_index>
1436

> <i_lp_mmshare_version>
43012

> <i_f3d_flags>
0

> <s_epik_input>
W0NIM11jMW5vYyhbQ0gzXSljMVtDSDJdQyg9TylbTkhdW0NASF0oW0NIM10pW0NIMl1OMltDSDJdW0NIMl1PW0NIMl1bQ0gyXTI=

> <s_epik_cmdline>
J2VwaWtfcHl0aG9uJywgJy1waCcsICc3LjAnLCAnLXRuJywgJzgnLCAnLW1hJywgJzIwMCcsICctbWV0YWxfYmluZGluZycsICctaW1hZScsICc8aW5maWxlLm1hZT4nLCAnLW9tYWUnLCAnPG91dGZpbGUubWFlPic=

> <r_epik_Ionization_Penalty>
0.663207

> <r_epik_Ionization_Penalty_Charging>
0.663207

> <r_epik_Ionization_Penalty_Neutral>
1.07515e-07

> <r_epik_State_Penalty>
0.682743

> <r_epik_Charging_Adjusted_Penalty>
1.34595

> <i_epik_Tot_Q>
1

> <i_epik_Tot_abs_Q>
1

> <r_epik_Metal_State_Penalty>
0.682743

> <b_epik_Metal_Only>
0

> <s_lp_Force_Field>
OPLS_2005

> <r_lp_Energy>
13.3689

> <b_lp_Chiralities_Consistent>
1

> <s_lp_Variant>
AV-unprocessed.smi:1436-3

> <Gold.Version>
5.8.1

> <Gold.Id.Protein>
6NUR|6NUR_protein|mol2

> <Gold.PLP.Fitness>
38.0313

> <Gold.PLP.PLP>
-27.8689

> <Gold.PLP.part.hbond>
-3.0000

> <Gold.PLP.part.metal>
0.0000

> <Gold.PLP.part.buried>
1.7617

> <Gold.PLP.part.nonpolar>
-26.0897

> <Gold.PLP.part.repulsive>
0.2081

> <Gold.PLP.ligand.clash>
0.0000

> <Gold.PLP.ligand.torsion>
0.9511

> <Gold.PLP.Chemscore.Hbond>
4.0000

> <Gold.PLP.Chemscore.CHOScore>
0.0000

> <Gold.PLP.Chemscore.Metal>
0.0000

> <Gold.Chemscore.Hbonds>
donor molecule, donor type, donor heavy atom, donor atom, acceptor molecule, acceptor atom, score
      L1  H    11    29       P1  7957  1.00
      L1  H    15    44       P1  7948  2.00
      P1  H  7997  8008       L1     3  1.00

> <Gold.PLP.Chemscore.Internal.Correction>
0.0645

> <Gold.Rescore>
     Score         DG    S(hbond)    S(metal)    S(lipo)     H(rot)  DE(clash)    DE(int)     intcor
     14.02     -18.05       2.76        0.00      67.92       1.79       1.43       2.60       ----

> <Gold.Chemscore.Fitness>
14.0206

> <Gold.Chemscore.DG>
-18.0482

> <Gold.Chemscore.ZeroCoef>
-5.4800

> <Gold.Chemscore.Hbond>
2.7585

> <Gold.Chemscore.Metal>
0.0000

> <Gold.Chemscore.Lipo>
67.9170

> <Gold.Chemscore.Internal_Hbond>
0.0000

> <Gold.Chemscore.DEClash>
1.4261

> <Gold.Chemscore.DEInternal>
2.6014

> <Gold.Chemscore.Rot>
1.7936

> <Gold.Chemscore.Internal.Correction>
   9.000000E+99

> <Gold.Chemscore.Hbonds>
donor molecule, donor type, donor heavy atom, donor atom, acceptor molecule, acceptor atom, score
      L1  H    11    29       P1  7957  1.00
      L1  H    15    44       P1  7948  1.00
      P1  H  7997  8008       L1     3  0.28

> <Gold.Chemscore.Hbond.Weighted>
-9.2135

> <Gold.Chemscore.Metal.Weighted>
-0.0000

> <Gold.Chemscore.Lipo.Weighted>
-7.9463

> <Gold.Chemscore.Internal_Hbond.Weighted>
0.0000

> <Gold.Chemscore.DEClash.Weighted>
1.4261

> <Gold.Chemscore.DEInternal.Weighted>
2.6014

> <Gold.Chemscore.Rot.Weighted>
4.5916

> <Gold.Chemscore.Internal.Correction.Weighted>
   9.000000E+99

> <Gold.Protein.RotatedTorsions>
[ 6907 6896 6895 6894 ] final   51.84 input  -60.11 | X-H torsion
[ 7974 7965 7964 7962 ] final   48.39 input  175.53 | X-H torsion
[ 8008 7997 7996 7995 ] final  -61.51 input   59.86 | X-H torsion
[ 10167 10162 10161 10158 ] final  -44.57 input  -65.29 | X-H torsion
[ 10718 10713 10712 10709 ] final  -47.09 input   66.30 | X-H torsion
[ 10763 10752 10751 10750 ] final  -52.71 input  -60.55 | X-H torsion
[ 11005 11000 10999 10996 ] final   67.99 input  -57.11 | X-H torsion

> <Gold.Protein.ActiveResidues>
 VAL166  LYS551  ARG553  GLY616  TRP617  ASP618  TYR619  PRO620  LYS621  CYS622 
 ASP623  PHE694  ASN695  SER759  ASP760  ASP761  ALA762  ILE779  LEU786  VAL792 
 PHE793  MET794  SER795  GLU796  ALA797  LYS798  CYS799  TRP800  GLU811  SER814 

> <Gold.Protein.RotatedAtoms>
  152.3169  134.7428  160.0322 H   0  0  0  0  0  0  0  0  0  0  0  0  # atno 6907 bound_to 6896
  151.7890  133.3352  159.3501 H   0  0  0  0  0  0  0  0  0  0  0  0  # atno 6908 bound_to 6896
  150.7349  134.5791  159.5974 H   0  0  0  0  0  0  0  0  0  0  0  0  # atno 6909 bound_to 6896
  146.0208  139.4649  142.9898 H   0  0  0  0  0  0  0  0  0  0  0  0  # atno 7974 bound_to 7965
  154.4451  140.1016  156.6441 H   0  0  0  0  0  0  0  0  0  0  0  0  # atno 8008 bound_to 7997
  155.5469  140.3485  155.4441 H   0  0  0  0  0  0  0  0  0  0  0  0  # atno 8009 bound_to 7997
  156.0557  140.1314  156.9988 H   0  0  0  0  0  0  0  0  0  0  0  0  # atno 8010 bound_to 7997
  140.6892  143.2924  151.3514 H   0  0  0  0  0  0  0  0  0  0  0  0  # atno 10167 bound_to 10162
  156.2119  130.4161  149.9104 H   0  0  0  0  0  0  0  0  0  0  0  0  # atno 10718 bound_to 10713
  154.1471  135.6496  153.4955 H   0  0  0  0  0  0  0  0  0  0  0  0  # atno 10763 bound_to 10752
  153.0148  135.5329  154.6846 H   0  0  0  0  0  0  0  0  0  0  0  0  # atno 10764 bound_to 10752
  154.6123  135.2955  155.0389 H   0  0  0  0  0  0  0  0  0  0  0  0  # atno 10765 bound_to 10752
  139.9737  134.6857  156.0395 H   0  0  0  0  0  0  0  0  0  0  0  0  # atno 11005 bound_to 11000
  145.7196  141.0079  143.1410 LP  0  0  0  0  0  0  0  0  0  0  0  0  # atno 17320 bound_to 7965
  144.6989  139.8854  143.7450 LP  0  0  0  0  0  0  0  0  0  0  0  0  # atno 17321 bound_to 7965
  139.6278  144.0780  152.2449 LP  0  0  0  0  0  0  0  0  0  0  0  0  # atno 17342 bound_to 10162
  140.0245  144.6128  150.7539 LP  0  0  0  0  0  0  0  0  0  0  0  0  # atno 17343 bound_to 10162
  156.6780  130.8846  151.3572 LP  0  0  0  0  0  0  0  0  0  0  0  0  # atno 17370 bound_to 10713
  157.7043  130.9367  150.0880 LP  0  0  0  0  0  0  0  0  0  0  0  0  # atno 17371 bound_to 10713
  141.1416  133.6564  156.3746 LP  0  0  0  0  0  0  0  0  0  0  0  0  # atno 17394 bound_to 11000
  140.5238  134.6278  157.5327 LP  0  0  0  0  0  0  0  0  0  0  0  0  # atno 17395 bound_to 11000

$$$$
