AV-unprocessed.smi:2083|AV-procd|sdf|8509|dock2
  -GOLD-   2272011223D 1   1.00000     0.00000
 Structure written by MMmdl.
 44 45  0  0  0  0  0  0  0  0  3 V2000
  148.8482  141.3209  154.4262 C   0  0  0  0  0  0  0  0  0  0  0  0
  149.4646  139.9676  154.5250 C   0  0  0  0  0  0  0  0  0  0  0  0
  148.9745  138.7070  154.3307 C   0  0  0  0  0  0  0  0  0  0  0  0
  150.1015  137.8812  154.5867 C   0  0  0  0  0  0  0  0  0  0  0  0
  150.0014  136.4686  154.4841 N   0  0  0  0  0  0  0  0  0  0  0  0
  150.6786  135.5244  155.1625 C   0  0  0  0  0  0  0  0  0  0  0  0
  151.5103  135.8455  156.0200 O   0  0  0  0  0  0  0  0  0  0  0  0
  150.3230  134.2645  154.7872 N   0  5  0  0  0  0  0  0  0  0  0  0
  149.0509  133.9087  154.1562 C   0  0  0  0  0  0  0  0  0  0  0  0
  149.1971  132.6336  153.2801 C   0  0  1  0  0  0  0  0  0  0  0  0
  149.7369  131.3966  154.0413 C   0  0  0  0  0  0  0  0  0  0  0  0
  147.9244  132.3538  152.5444 N   0  3  2  0  0  0  0  0  0  0  0  0
  147.3076  133.5107  151.8302 C   0  0  0  0  0  0  0  0  0  0  0  0
  146.1726  133.0394  150.9090 C   0  0  0  0  0  0  0  0  0  0  0  0
  145.1133  132.2603  151.7016 C   0  0  0  0  0  0  0  0  0  0  0  0
  145.7478  131.1085  152.5037 C   0  0  1  0  0  0  0  0  0  0  0  0
  146.1620  129.9225  151.6148 C   0  0  0  0  0  0  0  0  0  0  0  0
  146.9195  131.6242  153.3653 C   0  0  0  0  0  0  0  0  0  0  0  0
  151.1819  138.5767  154.9102 N   0  0  0  0  0  0  0  0  0  0  0  0
  150.7793  139.9169  154.8714 O   0  0  0  0  0  0  0  0  0  0  0  0
  147.7655  141.2635  154.5385 H   0  0  0  0  0  0  0  0  0  0  0  0
  149.0649  141.7725  153.4582 H   0  0  0  0  0  0  0  0  0  0  0  0
  149.2333  141.9819  155.2028 H   0  0  0  0  0  0  0  0  0  0  0  0
  147.9717  138.4229  154.0482 H   0  0  0  0  0  0  0  0  0  0  0  0
  149.3390  136.1272  153.8036 H   0  0  0  0  0  0  0  0  0  0  0  0
  148.2734  133.7392  154.9012 H   0  0  0  0  0  0  0  0  0  0  0  0
  148.6730  134.7220  153.5345 H   0  0  0  0  0  0  0  0  0  0  0  0
  149.9437  132.8792  152.5234 H   0  0  0  0  0  0  0  0  0  0  0  0
  150.7388  131.5708  154.4379 H   0  0  0  0  0  0  0  0  0  0  0  0
  149.8140  130.5357  153.3769 H   0  0  0  0  0  0  0  0  0  0  0  0
  149.1031  131.1063  154.8809 H   0  0  0  0  0  0  0  0  0  0  0  0
  146.9156  134.2294  152.5509 H   0  0  0  0  0  0  0  0  0  0  0  0
  148.0520  134.0368  151.2323 H   0  0  0  0  0  0  0  0  0  0  0  0
  145.7113  133.8981  150.4203 H   0  0  0  0  0  0  0  0  0  0  0  0
  146.5791  132.4162  150.1119 H   0  0  0  0  0  0  0  0  0  0  0  0
  144.6119  132.9427  152.3893 H   0  0  0  0  0  0  0  0  0  0  0  0
  144.3409  131.8810  151.0316 H   0  0  0  0  0  0  0  0  0  0  0  0
  144.9847  130.7290  153.1845 H   0  0  0  0  0  0  0  0  0  0  0  0
  146.9490  130.1947  150.9112 H   0  0  0  0  0  0  0  0  0  0  0  0
  145.3150  129.5507  151.0376 H   0  0  0  0  0  0  0  0  0  0  0  0
  146.5345  129.0939  152.2179 H   0  0  0  0  0  0  0  0  0  0  0  0
  147.3843  130.7788  153.8742 H   0  0  0  0  0  0  0  0  0  0  0  0
  146.5456  132.2895  154.1450 H   0  0  0  0  0  0  0  0  0  0  0  0
  148.1953  131.6976  151.8256 H   0  0  0  0  0  0  0  0  0  0  0  0
  1  2  1  0  0  0  0
  1 21  1  0  0  0  0
  1 22  1  0  0  0  0
  1 23  1  0  0  0  0
  2 20  1  0  0  0  0
  2  3  2  0  0  0  0
  3  4  1  0  0  0  0
  3 24  1  0  0  0  0
  4  5  1  0  0  0  0
  4 19  2  0  0  0  0
  5  6  1  0  0  0  0
  5 25  1  0  0  0  0
  6  7  2  0  0  0  0
  6  8  1  0  0  0  0
  8  9  1  0  0  0  0
  9 10  1  0  0  0  0
  9 26  1  0  0  0  0
  9 27  1  0  0  0  0
 10 11  1  0  0  0  0
 10 12  1  0  0  0  0
 10 28  1  0  0  0  0
 11 29  1  0  0  0  0
 11 30  1  0  0  0  0
 11 31  1  0  0  0  0
 12 18  1  0  0  0  0
 12 13  1  0  0  0  0
 12 44  1  0  0  0  0
 13 14  1  0  0  0  0
 13 32  1  0  0  0  0
 13 33  1  0  0  0  0
 14 15  1  0  0  0  0
 14 34  1  0  0  0  0
 14 35  1  0  0  0  0
 15 16  1  0  0  0  0
 15 36  1  0  0  0  0
 15 37  1  0  0  0  0
 16 17  1  0  0  0  0
 16 18  1  0  0  0  0
 16 38  1  0  0  0  0
 17 39  1  0  0  0  0
 17 40  1  0  0  0  0
 17 41  1  0  0  0  0
 18 42  1  0  0  0  0
 18 43  1  0  0  0  0
 19 20  1  0  0  0  0
M  CHG  1   8  -1
M  CHG  1  12   1
M  END
> <s_m_source_file>
AV-unprocessed.smi

> <i_m_source_file_index>
2083

> <i_lp_mmshare_version>
43012

> <i_f3d_flags>
0

> <s_epik_input>
W0NIM11jMVtjSF1jKG5vMSlbTkhdQyg9TylbTkhdW0NIMl1bQ0BIXShbQ0gzXSlOMltDSDJdW0NIMl1bQ0gyXVtDQEBIXShbQ0gzXSlbQ0gyXTI=

> <s_epik_cmdline>
J2VwaWtfcHl0aG9uJywgJy1waCcsICc3LjAnLCAnLXRuJywgJzgnLCAnLW1hJywgJzIwMCcsICctbWV0YWxfYmluZGluZycsICctaW1hZScsICc8aW5maWxlLm1hZT4nLCAnLW9tYWUnLCAnPG91dGZpbGUubWFlPic=

> <r_epik_Ionization_Penalty>
6.76934

> <r_epik_Ionization_Penalty_Charging>
6.76934

> <r_epik_Ionization_Penalty_Neutral>
5.77849e-06

> <r_epik_State_Penalty>
6.79457

> <r_epik_Charging_Adjusted_Penalty>
13.5639

> <i_epik_Tot_Q>
0

> <i_epik_Tot_abs_Q>
2

> <r_epik_Metal_State_Penalty>
2.72837

> <b_epik_Metal_Only>
1

> <s_lp_Force_Field>
OPLS_2005

> <r_lp_Energy>
19.7061

> <b_lp_Chiralities_Consistent>
1

> <s_lp_Variant>
AV-unprocessed.smi:2083-20

> <Gold.Version>
5.8.1

> <Gold.Id.Protein>
6NUR|6NUR_protein|mol2

> <Gold.PLP.Fitness>
46.8020

> <Gold.PLP.PLP>
-36.5923

> <Gold.PLP.part.hbond>
-4.3869

> <Gold.PLP.part.metal>
0.0000

> <Gold.PLP.part.buried>
-3.2699

> <Gold.PLP.part.nonpolar>
-27.4824

> <Gold.PLP.part.repulsive>
0.3729

> <Gold.PLP.ligand.clash>
0.0000

> <Gold.PLP.ligand.torsion>
0.6962

> <Gold.PLP.Chemscore.Hbond>
3.8000

> <Gold.PLP.Chemscore.CHOScore>
0.0000

> <Gold.PLP.Chemscore.Metal>
0.0000

> <Gold.Chemscore.Hbonds>
donor molecule, donor type, donor heavy atom, donor atom, acceptor molecule, acceptor atom, score
      L1  H     5    25       P1  7948  0.78
      L1  H    12    44       P1 10747  1.00
      P1  H  7989  7998       L1    20  1.00
      P1  H 10752 10763       L1     7  1.00

> <Gold.PLP.Chemscore.Internal.Correction>
0.2022

> <Gold.Rescore>
     Score         DG    S(hbond)    S(metal)    S(lipo)     H(rot)  DE(clash)    DE(int)     intcor
     17.90     -19.91       2.75        0.00      78.06       1.52       0.28       1.73       ----

> <Gold.Chemscore.Fitness>
17.9013

> <Gold.Chemscore.DG>
-19.9139

> <Gold.Chemscore.ZeroCoef>
-5.4800

> <Gold.Chemscore.Hbond>
2.7515

> <Gold.Chemscore.Metal>
0.0000

> <Gold.Chemscore.Lipo>
78.0566

> <Gold.Chemscore.Internal_Hbond>
0.0000

> <Gold.Chemscore.DEClash>
0.2786

> <Gold.Chemscore.DEInternal>
1.7339

> <Gold.Chemscore.Rot>
1.5190

> <Gold.Chemscore.Internal.Correction>
   9.000000E+99

> <Gold.Chemscore.Hbonds>
donor molecule, donor type, donor heavy atom, donor atom, acceptor molecule, acceptor atom, score
      L1  H     5    25       P1  7948  0.60
      L1  H    12    44       P1 10747  0.99
      P1  H  7989  7998       L1    20  0.37
      P1  H 10752 10763       L1     7  0.30

> <Gold.Chemscore.Hbond.Weighted>
-9.1899

> <Gold.Chemscore.Metal.Weighted>
-0.0000

> <Gold.Chemscore.Lipo.Weighted>
-9.1326

> <Gold.Chemscore.Internal_Hbond.Weighted>
0.0000

> <Gold.Chemscore.DEClash.Weighted>
0.2786

> <Gold.Chemscore.DEInternal.Weighted>
1.7339

> <Gold.Chemscore.Rot.Weighted>
3.8886

> <Gold.Chemscore.Internal.Correction.Weighted>
   9.000000E+99

> <Gold.Protein.RotatedTorsions>
[ 6907 6896 6895 6894 ] final  -27.21 input  -60.11 | X-H torsion
[ 7974 7965 7964 7962 ] final  107.70 input  175.53 | X-H torsion
[ 8008 7997 7996 7995 ] final -129.51 input   59.86 | X-H torsion
[ 10167 10162 10161 10158 ] final  -61.40 input  -65.29 | X-H torsion
[ 10718 10713 10712 10709 ] final -123.47 input   66.30 | X-H torsion
[ 10763 10752 10751 10750 ] final   94.73 input  -60.55 | X-H torsion
[ 11005 11000 10999 10996 ] final -139.89 input  -57.11 | X-H torsion

> <Gold.Protein.ActiveResidues>
 VAL166  LYS551  ARG553  GLY616  TRP617  ASP618  TYR619  PRO620  LYS621  CYS622 
 ASP623  PHE694  ASN695  SER759  ASP760  ASP761  ALA762  ILE779  LEU786  VAL792 
 PHE793  MET794  SER795  GLU796  ALA797  LYS798  CYS799  TRP800  GLU811  SER814 

> <Gold.Protein.RotatedAtoms>
  151.1502  135.0223  159.8664 H   0  0  0  0  0  0  0  0  0  0  0  0  # atno 6907 bound_to 6896
  152.5453  134.1398  159.8484 H   0  0  0  0  0  0  0  0  0  0  0  0  # atno 6908 bound_to 6896
  151.1482  133.4879  159.2628 H   0  0  0  0  0  0  0  0  0  0  0  0  # atno 6909 bound_to 6896
  145.2902  139.2603  143.3869 H   0  0  0  0  0  0  0  0  0  0  0  0  # atno 7974 bound_to 7965
  155.2804  140.0444  157.3015 H   0  0  0  0  0  0  0  0  0  0  0  0  # atno 8008 bound_to 7997
  154.5600  140.2343  155.8318 H   0  0  0  0  0  0  0  0  0  0  0  0  # atno 8009 bound_to 7997
  156.2039  140.3018  155.9593 H   0  0  0  0  0  0  0  0  0  0  0  0  # atno 8010 bound_to 7997
  140.6008  143.2361  151.5933 H   0  0  0  0  0  0  0  0  0  0  0  0  # atno 10167 bound_to 10162
  156.1505  130.6531  150.9906 H   0  0  0  0  0  0  0  0  0  0  0  0  # atno 10718 bound_to 10713
  153.2450  135.4279  155.0738 H   0  0  0  0  0  0  0  0  0  0  0  0  # atno 10763 bound_to 10752
  154.8357  135.3412  154.6594 H   0  0  0  0  0  0  0  0  0  0  0  0  # atno 10764 bound_to 10752
  153.7016  135.7028  153.5118 H   0  0  0  0  0  0  0  0  0  0  0  0  # atno 10765 bound_to 10752
  140.8476  134.2325  157.4777 H   0  0  0  0  0  0  0  0  0  0  0  0  # atno 11005 bound_to 11000
  146.3187  140.3391  142.8646 LP  0  0  0  0  0  0  0  0  0  0  0  0  # atno 17320 bound_to 7965
  144.9179  140.7834  143.5766 LP  0  0  0  0  0  0  0  0  0  0  0  0  # atno 17321 bound_to 7965
  139.5290  144.2973  152.1102 LP  0  0  0  0  0  0  0  0  0  0  0  0  # atno 17342 bound_to 10162
  140.2154  144.4520  150.6366 LP  0  0  0  0  0  0  0  0  0  0  0  0  # atno 17343 bound_to 10162
  157.6652  131.0873  150.7744 LP  0  0  0  0  0  0  0  0  0  0  0  0  # atno 17370 bound_to 10713
  156.7813  130.4860  149.5400 LP  0  0  0  0  0  0  0  0  0  0  0  0  # atno 17371 bound_to 10713
  139.8703  134.9667  156.4572 LP  0  0  0  0  0  0  0  0  0  0  0  0  # atno 17394 bound_to 11000
  140.8826  133.7907  155.9483 LP  0  0  0  0  0  0  0  0  0  0  0  0  # atno 17395 bound_to 11000

$$$$
