AV-unprocessed.smi:65|AV-procd|sdf|615|dock6
  -GOLD-   2262016503D 1   1.00000     0.00000
 Structure written by MMmdl.
 26 27  0  0  0  0  0  0  0  0  2 V2000
  149.7016  142.1109  154.5860 N   0  0  0  0  0  0  0  0  0  0  0  0
  150.3621  141.6978  155.7172 C   0  0  0  0  0  0  0  0  0  0  0  0
  150.8658  140.4606  155.7426 N   0  0  0  0  0  0  0  0  0  0  0  0
  151.5123  140.0480  156.8494 C   0  0  0  0  0  0  0  0  0  0  0  0
  151.6675  140.8864  157.9657 C   0  0  0  0  0  0  0  0  0  0  0  0
  151.1188  142.1859  157.8795 C   0  0  0  0  0  0  0  0  0  0  0  0
  151.2060  143.1150  158.9336 N   0  0  0  0  0  0  0  0  0  0  0  0
  151.9534  142.8149  160.1482 C   0  0  0  0  0  0  0  0  0  0  0  0
  152.4315  144.1702  160.6848 C   0  0  0  0  0  0  0  0  0  0  0  0
  151.4668  145.1725  160.0485 C   0  0  1  0  0  0  0  0  0  0  0  0
  152.0236  146.4644  159.9338 O   0  0  0  0  0  0  0  0  0  0  0  0
  151.1777  144.5477  158.6847 C   0  0  0  0  0  0  0  0  0  0  0  0
  150.4700  142.5547  156.7422 N   0  3  0  0  0  0  0  0  0  0  0  0
  149.3089  143.0400  154.5346 H   0  0  0  0  0  0  0  0  0  0  0  0
  149.5881  141.4889  153.7988 H   0  0  0  0  0  0  0  0  0  0  0  0
  151.9063  139.0424  156.8442 H   0  0  0  0  0  0  0  0  0  0  0  0
  152.1819  140.5324  158.8469 H   0  0  0  0  0  0  0  0  0  0  0  0
  151.2859  142.3299  160.8610 H   0  0  0  0  0  0  0  0  0  0  0  0
  152.7985  142.1511  159.9623 H   0  0  0  0  0  0  0  0  0  0  0  0
  152.4402  144.2171  161.7742 H   0  0  0  0  0  0  0  0  0  0  0  0
  153.4479  144.3562  160.3334 H   0  0  0  0  0  0  0  0  0  0  0  0
  150.5479  145.2214  160.6345 H   0  0  0  0  0  0  0  0  0  0  0  0
  152.6997  146.4452  159.2734 H   0  0  0  0  0  0  0  0  0  0  0  0
  151.9569  144.8029  157.9646 H   0  0  0  0  0  0  0  0  0  0  0  0
  150.2160  144.8732  158.2865 H   0  0  0  0  0  0  0  0  0  0  0  0
  150.0683  143.4897  156.6759 H   0  0  0  0  0  0  0  0  0  0  0  0
  1  2  1  0  0  0  0
  1 14  1  0  0  0  0
  1 15  1  0  0  0  0
  2 13  1  0  0  0  0
  2  3  2  0  0  0  0
  3  4  1  0  0  0  0
  4  5  2  0  0  0  0
  4 16  1  0  0  0  0
  5  6  1  0  0  0  0
  5 17  1  0  0  0  0
  6  7  1  0  0  0  0
  6 13  2  0  0  0  0
  7 12  1  0  0  0  0
  7  8  1  0  0  0  0
  8  9  1  0  0  0  0
  8 18  1  0  0  0  0
  8 19  1  0  0  0  0
  9 10  1  0  0  0  0
  9 20  1  0  0  0  0
  9 21  1  0  0  0  0
 10 11  1  0  0  0  0
 10 12  1  0  0  0  0
 10 22  1  0  0  0  0
 11 23  1  0  0  0  0
 12 24  1  0  0  0  0
 12 25  1  0  0  0  0
 13 26  1  0  0  0  0
M  CHG  1  13   1
M  END
> <s_m_source_file>
AV-unprocessed.smi

> <i_m_source_file_index>
65

> <i_lp_mmshare_version>
43012

> <i_f3d_flags>
0

> <s_epik_input>
W05IMl1jMW5bY0hdW2NIXWMobjEpTjJbQ0gyXVtDSDJdW0NAQEhdKFtPSF0pW0NIMl0y

> <s_epik_cmdline>
J2VwaWtfcHl0aG9uJywgJy1waCcsICc3LjAnLCAnLXRuJywgJzgnLCAnLW1hJywgJzIwMCcsICctbWV0YWxfYmluZGluZycsICctaW1hZScsICc8aW5maWxlLm1hZT4nLCAnLW9tYWUnLCAnPG91dGZpbGUubWFlPic=

> <r_lp_tautomer_probability>
0.424989

> <r_epik_Ionization_Penalty>
0.57487

> <r_epik_Ionization_Penalty_Charging>
0.574865

> <r_epik_Ionization_Penalty_Neutral>
4.40886e-06

> <r_epik_State_Penalty>
0.845539

> <r_epik_Charging_Adjusted_Penalty>
1.4204

> <i_epik_Tot_Q>
1

> <i_epik_Tot_abs_Q>
1

> <r_epik_Metal_State_Penalty>
1.14248

> <b_epik_Metal_Only>
0

> <s_lp_Force_Field>
OPLS_2005

> <r_lp_Energy>
20.8145

> <b_lp_Chiralities_Consistent>
1

> <s_lp_Variant>
AV-unprocessed.smi:65-5

> <Gold.Version>
5.8.1

> <Gold.Id.Protein>
6NUR|6NUR_protein|mol2

> <Gold.PLP.Fitness>
39.6728

> <Gold.PLP.PLP>
-28.7337

> <Gold.PLP.part.hbond>
-4.4652

> <Gold.PLP.part.metal>
0.0000

> <Gold.PLP.part.buried>
-3.7360

> <Gold.PLP.part.nonpolar>
-20.2930

> <Gold.PLP.part.repulsive>
1.0314

> <Gold.PLP.ligand.clash>
0.0000

> <Gold.PLP.ligand.torsion>
0.1565

> <Gold.PLP.Chemscore.Hbond>
3.6800

> <Gold.PLP.Chemscore.CHOScore>
0.0000

> <Gold.PLP.Chemscore.Metal>
0.0000

> <Gold.Chemscore.Hbonds>
donor molecule, donor type, donor heavy atom, donor atom, acceptor molecule, acceptor atom, score
      L1  H     1    14       P1  8028  1.72
      L1  H    13    26       P1  8028  1.89
      P1  H  7989  7998       L1     3  0.02

> <Gold.PLP.Chemscore.Internal.Correction>
0.2122

> <Gold.Rescore>
     Score         DG    S(hbond)    S(metal)    S(lipo)     H(rot)  DE(clash)    DE(int)     intcor
     14.32     -14.81       1.69        0.00      53.30       1.00       0.37       0.13       ----

> <Gold.Chemscore.Fitness>
14.3156

> <Gold.Chemscore.DG>
-14.8130

> <Gold.Chemscore.ZeroCoef>
-5.4800

> <Gold.Chemscore.Hbond>
1.6937

> <Gold.Chemscore.Metal>
0.0000

> <Gold.Chemscore.Lipo>
53.3003

> <Gold.Chemscore.Internal_Hbond>
0.0000

> <Gold.Chemscore.DEClash>
0.3687

> <Gold.Chemscore.DEInternal>
0.1287

> <Gold.Chemscore.Rot>
1.0000

> <Gold.Chemscore.Internal.Correction>
   9.000000E+99

> <Gold.Chemscore.Hbonds>
donor molecule, donor type, donor heavy atom, donor atom, acceptor molecule, acceptor atom, score
      L1  H     1    14       P1  8028  0.80
      L1  H    13    26       P1  8028  0.90

> <Gold.Chemscore.Hbond.Weighted>
-5.6569

> <Gold.Chemscore.Metal.Weighted>
-0.0000

> <Gold.Chemscore.Lipo.Weighted>
-6.2361

> <Gold.Chemscore.Internal_Hbond.Weighted>
0.0000

> <Gold.Chemscore.DEClash.Weighted>
0.3687

> <Gold.Chemscore.DEInternal.Weighted>
0.1287

> <Gold.Chemscore.Rot.Weighted>
2.5600

> <Gold.Chemscore.Internal.Correction.Weighted>
   9.000000E+99

> <Gold.Protein.RotatedTorsions>
[ 6907 6896 6895 6894 ] final  -53.04 input  -60.11 | X-H torsion
[ 7974 7965 7964 7962 ] final   -2.40 input  175.53 | X-H torsion
[ 8008 7997 7996 7995 ] final   27.56 input   59.86 | X-H torsion
[ 10167 10162 10161 10158 ] final  -80.49 input  -65.29 | X-H torsion
[ 10718 10713 10712 10709 ] final  123.94 input   66.30 | X-H torsion
[ 10763 10752 10751 10750 ] final -159.39 input  -60.55 | X-H torsion
[ 11005 11000 10999 10996 ] final    1.82 input  -57.11 | X-H torsion

> <Gold.Protein.ActiveResidues>
 VAL166  LYS551  ARG553  GLY616  TRP617  ASP618  TYR619  PRO620  LYS621  CYS622 
 ASP623  PHE694  ASN695  SER759  ASP760  ASP761  ALA762  ILE779  LEU786  VAL792 
 PHE793  MET794  SER795  GLU796  ALA797  LYS798  CYS799  TRP800  GLU811  SER814 

> <Gold.Protein.RotatedAtoms>
  150.8462  134.7772  159.6972 H   0  0  0  0  0  0  0  0  0  0  0  0  # atno 6907 bound_to 6896
  152.4539  134.5332  159.9827 H   0  0  0  0  0  0  0  0  0  0  0  0  # atno 6908 bound_to 6896
  151.5461  133.3387  159.2980 H   0  0  0  0  0  0  0  0  0  0  0  0  # atno 6909 bound_to 6896
  146.2405  140.1566  142.8333 H   0  0  0  0  0  0  0  0  0  0  0  0  # atno 7974 bound_to 7965
  155.0448  140.3173  155.4712 H   0  0  0  0  0  0  0  0  0  0  0  0  # atno 8008 bound_to 7997
  156.2847  140.2156  156.5516 H   0  0  0  0  0  0  0  0  0  0  0  0  # atno 8009 bound_to 7997
  154.7259  140.0485  157.0670 H   0  0  0  0  0  0  0  0  0  0  0  0  # atno 8010 bound_to 7997
  140.4499  143.2486  151.8505 H   0  0  0  0  0  0  0  0  0  0  0  0  # atno 10167 bound_to 10162
  157.5625  131.1088  150.8513 H   0  0  0  0  0  0  0  0  0  0  0  0  # atno 10718 bound_to 10713
  154.7478  135.3084  154.8612 H   0  0  0  0  0  0  0  0  0  0  0  0  # atno 10763 bound_to 10752
  153.9408  135.6775  153.4748 H   0  0  0  0  0  0  0  0  0  0  0  0  # atno 10764 bound_to 10752
  153.1075  135.4882  154.8903 H   0  0  0  0  0  0  0  0  0  0  0  0  # atno 10765 bound_to 10752
  140.6112  133.9747  155.8178 H   0  0  0  0  0  0  0  0  0  0  0  0  # atno 11005 bound_to 11000
  145.0124  140.8725  143.5216 LP  0  0  0  0  0  0  0  0  0  0  0  0  # atno 17320 bound_to 7965
  145.1601  139.2463  143.5396 LP  0  0  0  0  0  0  0  0  0  0  0  0  # atno 17321 bound_to 7965
  139.4796  144.5132  151.8903 LP  0  0  0  0  0  0  0  0  0  0  0  0  # atno 17342 bound_to 10162
  140.4220  144.2231  150.5887 LP  0  0  0  0  0  0  0  0  0  0  0  0  # atno 17343 bound_to 10162
  156.9006  130.5245  149.5283 LP  0  0  0  0  0  0  0  0  0  0  0  0  # atno 17370 bound_to 10713
  156.0676  130.5716  150.9320 LP  0  0  0  0  0  0  0  0  0  0  0  0  # atno 17371 bound_to 10713
  141.0807  134.0067  157.3390 LP  0  0  0  0  0  0  0  0  0  0  0  0  # atno 17394 bound_to 11000
  139.9191  135.0199  156.7997 LP  0  0  0  0  0  0  0  0  0  0  0  0  # atno 17395 bound_to 11000

$$$$
