AV-unprocessed.smi:670|AV-procd|sdf|3268|dock3
  -GOLD-   22720 0223D 1   1.00000     0.00000
 Structure written by MMmdl.
 44 45  0  0  0  0  0  0  0  0  2 V2000
  152.4049  143.2549  162.1063 C   0  0  0  0  0  0  0  0  0  0  0  0
  151.6753  143.4217  160.7638 C   0  0  1  0  0  0  0  0  0  0  0  0
  151.4861  144.9150  160.4267 C   0  0  0  0  0  0  0  0  0  0  0  0
  150.7620  145.1102  159.0857 C   0  0  0  0  0  0  0  0  0  0  0  0
  151.5049  144.3928  157.9506 C   0  0  0  0  0  0  0  0  0  0  0  0
  151.6868  142.9039  158.2738 C   0  0  0  0  0  0  0  0  0  0  0  0
  152.4134  142.6933  159.6181 C   0  0  2  0  0  0  0  0  0  0  0  0
  152.4224  141.3026  159.9086 O   0  0  0  0  0  0  0  0  0  0  0  0
  152.9218  140.4866  158.8587 C   0  0  0  0  0  0  0  0  0  0  0  0
  152.5069  139.0373  159.1281 C   0  0  0  0  0  0  0  0  0  0  0  0
  151.1132  138.8526  158.7448 N   0  0  0  0  0  0  0  0  0  0  0  0
  150.2927  137.8755  159.1623 C   0  0  0  0  0  0  0  0  0  0  0  0
  150.6281  137.0210  159.9824 O   0  0  0  0  0  0  0  0  0  0  0  0
  148.8765  137.8285  158.5621 C   0  0  0  0  0  0  0  0  0  0  0  0
  147.9829  136.8280  159.1704 N   0  0  0  0  0  0  0  0  0  0  0  0
  147.6280  137.1138  160.5578 N   0  5  0  0  0  0  0  0  0  0  0  0
  146.7932  136.2667  161.2164 C   0  0  0  0  0  0  0  0  0  0  0  0
  146.4342  136.4529  162.3764 O   0  0  0  0  0  0  0  0  0  0  0  0
  146.3115  135.0925  160.5082 C   0  0  0  0  0  0  0  0  0  0  0  0
  146.6595  134.8507  159.2291 C   0  0  0  0  0  0  0  0  0  0  0  0
  147.5291  135.7456  158.4756 C   0  0  0  0  0  0  0  0  0  0  0  0
  147.8281  135.5446  157.2986 O   0  0  0  0  0  0  0  0  0  0  0  0
  153.4124  143.6700  162.0641 H   0  0  0  0  0  0  0  0  0  0  0  0
  152.4897  142.2038  162.3836 H   0  0  0  0  0  0  0  0  0  0  0  0
  151.8690  143.7618  162.9091 H   0  0  0  0  0  0  0  0  0  0  0  0
  150.6849  142.9751  160.8666 H   0  0  0  0  0  0  0  0  0  0  0  0
  150.9214  145.4077  161.2189 H   0  0  0  0  0  0  0  0  0  0  0  0
  152.4576  145.4097  160.3877 H   0  0  0  0  0  0  0  0  0  0  0  0
  149.7445  144.7240  159.1585 H   0  0  0  0  0  0  0  0  0  0  0  0
  150.6747  146.1732  158.8596 H   0  0  0  0  0  0  0  0  0  0  0  0
  150.9554  144.5048  157.0156 H   0  0  0  0  0  0  0  0  0  0  0  0
  152.4800  144.8566  157.7967 H   0  0  0  0  0  0  0  0  0  0  0  0
  150.7091  142.4242  158.3208 H   0  0  0  0  0  0  0  0  0  0  0  0
  152.2259  142.4199  157.4597 H   0  0  0  0  0  0  0  0  0  0  0  0
  153.4339  143.0773  159.5574 H   0  0  0  0  0  0  0  0  0  0  0  0
  152.5419  140.7980  157.8846 H   0  0  0  0  0  0  0  0  0  0  0  0
  154.0080  140.5759  158.8235 H   0  0  0  0  0  0  0  0  0  0  0  0
  153.1620  138.3640  158.5735 H   0  0  0  0  0  0  0  0  0  0  0  0
  152.6230  138.7966  160.1851 H   0  0  0  0  0  0  0  0  0  0  0  0
  150.7367  139.5158  158.0815 H   0  0  0  0  0  0  0  0  0  0  0  0
  148.4301  138.8214  158.6370 H   0  0  0  0  0  0  0  0  0  0  0  0
  148.9738  137.6377  157.4921 H   0  0  0  0  0  0  0  0  0  0  0  0
  145.6589  134.3996  161.0185 H   0  0  0  0  0  0  0  0  0  0  0  0
  146.2748  133.9677  158.7412 H   0  0  0  0  0  0  0  0  0  0  0  0
  1  2  1  0  0  0  0
  1 23  1  0  0  0  0
  1 24  1  0  0  0  0
  1 25  1  0  0  0  0
  2  7  1  0  0  0  0
  2  3  1  0  0  0  0
  2 26  1  0  0  0  0
  3  4  1  0  0  0  0
  3 27  1  0  0  0  0
  3 28  1  0  0  0  0
  4  5  1  0  0  0  0
  4 29  1  0  0  0  0
  4 30  1  0  0  0  0
  5  6  1  0  0  0  0
  5 31  1  0  0  0  0
  5 32  1  0  0  0  0
  6  7  1  0  0  0  0
  6 33  1  0  0  0  0
  6 34  1  0  0  0  0
  7  8  1  0  0  0  0
  7 35  1  0  0  0  0
  8  9  1  0  0  0  0
  9 10  1  0  0  0  0
  9 36  1  0  0  0  0
  9 37  1  0  0  0  0
 10 11  1  0  0  0  0
 10 38  1  0  0  0  0
 10 39  1  0  0  0  0
 11 12  1  0  0  0  0
 11 40  1  0  0  0  0
 12 13  2  0  0  0  0
 12 14  1  0  0  0  0
 14 41  1  0  0  0  0
 14 42  1  0  0  0  0
 14 15  1  0  0  0  0
 15 16  1  0  0  0  0
 15 21  1  0  0  0  0
 16 17  1  0  0  0  0
 17 18  2  0  0  0  0
 17 19  1  0  0  0  0
 19 43  1  0  0  0  0
 19 20  2  0  0  0  0
 20 44  1  0  0  0  0
 20 21  1  0  0  0  0
 21 22  2  0  0  0  0
M  CHG  1  16  -1
M  END
> <s_m_source_file>
AV-unprocessed.smi

> <i_m_source_file_index>
670

> <i_lp_mmshare_version>
43012

> <i_f3d_flags>
0

> <s_epik_input>
W0NIM11bQ0BASF0xW0NIMl1bQ0gyXVtDSDJdW0NIMl1bQ0BIXTFPW0NIMl1bQ0gyXVtOSF1DKD1PKVtDSDJdbjJbbkhdYyg9TylbY0hdW2NIXWMyPU8=

> <s_epik_cmdline>
J2VwaWtfcHl0aG9uJywgJy1waCcsICc3LjAnLCAnLXRuJywgJzgnLCAnLW1hJywgJzIwMCcsICctbWV0YWxfYmluZGluZycsICctaW1hZScsICc8aW5maWxlLm1hZT4nLCAnLW9tYWUnLCAnPG91dGZpbGUubWFlPic=

> <r_lp_tautomer_probability>
1

> <r_epik_Ionization_Penalty>
0.0975638

> <r_epik_Ionization_Penalty_Charging>
0.0975637

> <r_epik_Ionization_Penalty_Neutral>
2.78599e-08

> <r_epik_State_Penalty>
0.0343507

> <r_epik_Charging_Adjusted_Penalty>
0.131914

> <i_epik_Tot_Q>
-1

> <i_epik_Tot_abs_Q>
1

> <r_epik_Metal_State_Penalty>
0.0343507

> <b_epik_Metal_Only>
0

> <s_lp_Force_Field>
OPLS_2005

> <r_lp_Energy>
24.2447

> <b_lp_Chiralities_Consistent>
1

> <s_lp_Variant>
AV-unprocessed.smi:670-4

> <Gold.Version>
5.8.1

> <Gold.Id.Protein>
6NUR|6NUR_protein|mol2

> <Gold.PLP.Fitness>
53.6598

> <Gold.PLP.PLP>
-42.1954

> <Gold.PLP.part.hbond>
-3.3268

> <Gold.PLP.part.metal>
0.0000

> <Gold.PLP.part.buried>
-4.7126

> <Gold.PLP.part.nonpolar>
-33.5863

> <Gold.PLP.part.repulsive>
0.1130

> <Gold.PLP.ligand.clash>
0.0000

> <Gold.PLP.ligand.torsion>
0.4092

> <Gold.PLP.Chemscore.Hbond>
4.0720

> <Gold.PLP.Chemscore.CHOScore>
0.0000

> <Gold.PLP.Chemscore.Metal>
0.0000

> <Gold.Chemscore.Hbonds>
donor molecule, donor type, donor heavy atom, donor atom, acceptor molecule, acceptor atom, score
      P1  H  6896  6907       L1    13  1.00
      P1  H  6931  6943       L1    16  0.73
      P1  H  6934  6947       L1    16  1.95

> <Gold.PLP.Chemscore.Internal.Correction>
0.0669

> <Gold.Rescore>
     Score         DG    S(hbond)    S(metal)    S(lipo)     H(rot)  DE(clash)    DE(int)     intcor
     18.50     -19.37       2.33        0.00     105.75       2.45       0.33       0.54       ----

> <Gold.Chemscore.Fitness>
18.5029

> <Gold.Chemscore.DG>
-19.3748

> <Gold.Chemscore.ZeroCoef>
-5.4800

> <Gold.Chemscore.Hbond>
2.3329

> <Gold.Chemscore.Metal>
0.0000

> <Gold.Chemscore.Lipo>
105.7459

> <Gold.Chemscore.Internal_Hbond>
0.0000

> <Gold.Chemscore.DEClash>
0.3337

> <Gold.Chemscore.DEInternal>
0.5382

> <Gold.Chemscore.Rot>
2.4490

> <Gold.Chemscore.Internal.Correction>
   9.000000E+99

> <Gold.Chemscore.Hbonds>
donor molecule, donor type, donor heavy atom, donor atom, acceptor molecule, acceptor atom, score
      P1  H  6896  6907       L1    13  0.94
      P1  H  6931  6943       L1    16  0.32
      P1  H  6934  6947       L1    16  0.65

> <Gold.Chemscore.Hbond.Weighted>
-7.7919

> <Gold.Chemscore.Metal.Weighted>
-0.0000

> <Gold.Chemscore.Lipo.Weighted>
-12.3723

> <Gold.Chemscore.Internal_Hbond.Weighted>
0.0000

> <Gold.Chemscore.DEClash.Weighted>
0.3337

> <Gold.Chemscore.DEInternal.Weighted>
0.5382

> <Gold.Chemscore.Rot.Weighted>
6.2694

> <Gold.Chemscore.Internal.Correction.Weighted>
   9.000000E+99

> <Gold.Protein.RotatedTorsions>
[ 6907 6896 6895 6894 ] final   -7.00 input  -60.11 | X-H torsion
[ 7974 7965 7964 7962 ] final  166.83 input  175.53 | X-H torsion
[ 8008 7997 7996 7995 ] final -121.37 input   59.86 | X-H torsion
[ 10167 10162 10161 10158 ] final  -70.85 input  -65.29 | X-H torsion
[ 10718 10713 10712 10709 ] final  -93.02 input   66.30 | X-H torsion
[ 10763 10752 10751 10750 ] final  -88.47 input  -60.55 | X-H torsion
[ 11005 11000 10999 10996 ] final -129.93 input  -57.11 | X-H torsion

> <Gold.Protein.ActiveResidues>
 VAL166  LYS551  ARG553  GLY616  TRP617  ASP618  TYR619  PRO620  LYS621  CYS622 
 ASP623  PHE694  ASN695  SER759  ASP760  ASP761  ALA762  ILE779  LEU786  VAL792 
 PHE793  MET794  SER795  GLU796  ALA797  LYS798  CYS799  TRP800  GLU811  SER814 

> <Gold.Protein.RotatedAtoms>
  151.4565  135.1034  159.9712 H   0  0  0  0  0  0  0  0  0  0  0  0  # atno 6907 bound_to 6896
  152.4869  133.8391  159.7154 H   0  0  0  0  0  0  0  0  0  0  0  0  # atno 6908 bound_to 6896
  150.8986  133.7088  159.2912 H   0  0  0  0  0  0  0  0  0  0  0  0  # atno 6909 bound_to 6896
  144.7447  139.8673  143.6386 H   0  0  0  0  0  0  0  0  0  0  0  0  # atno 7974 bound_to 7965
  155.1468  140.0403  157.2812 H   0  0  0  0  0  0  0  0  0  0  0  0  # atno 8008 bound_to 7997
  154.6433  140.2552  155.7271 H   0  0  0  0  0  0  0  0  0  0  0  0  # atno 8009 bound_to 7997
  156.2543  140.2851  156.0835 H   0  0  0  0  0  0  0  0  0  0  0  0  # atno 8010 bound_to 7997
  140.5319  143.2321  151.7246 H   0  0  0  0  0  0  0  0  0  0  0  0  # atno 10167 bound_to 10162
  156.0008  130.5010  150.5714 H   0  0  0  0  0  0  0  0  0  0  0  0  # atno 10718 bound_to 10713
  154.6449  135.5376  153.7833 H   0  0  0  0  0  0  0  0  0  0  0  0  # atno 10763 bound_to 10752
  153.0354  135.6468  154.1104 H   0  0  0  0  0  0  0  0  0  0  0  0  # atno 10764 bound_to 10752
  154.1026  135.2932  155.3228 H   0  0  0  0  0  0  0  0  0  0  0  0  # atno 10765 bound_to 10752
  140.9390  134.1219  157.4168 H   0  0  0  0  0  0  0  0  0  0  0  0  # atno 11005 bound_to 11000
  146.1305  139.4340  143.0171 LP  0  0  0  0  0  0  0  0  0  0  0  0  # atno 17320 bound_to 7965
  145.7169  141.0088  143.1423 LP  0  0  0  0  0  0  0  0  0  0  0  0  # atno 17321 bound_to 7965
  139.4957  144.4100  152.0090 LP  0  0  0  0  0  0  0  0  0  0  0  0  # atno 17342 bound_to 10162
  140.3203  144.3435  150.6011 LP  0  0  0  0  0  0  0  0  0  0  0  0  # atno 17343 bound_to 10162
  157.3608  131.0749  151.1638 LP  0  0  0  0  0  0  0  0  0  0  0  0  # atno 17370 bound_to 10713
  157.2423  130.6575  149.5895 LP  0  0  0  0  0  0  0  0  0  0  0  0  # atno 17371 bound_to 10713
  139.8815  135.0030  156.6161 LP  0  0  0  0  0  0  0  0  0  0  0  0  # atno 17394 bound_to 11000
  140.7760  133.8699  155.8530 LP  0  0  0  0  0  0  0  0  0  0  0  0  # atno 17395 bound_to 11000

$$$$
