AV-unprocessed.smi:919|AV-procd|sdf|4165|dock3
  -GOLD-   22720 2 73D 1   1.00000     0.00000
 Structure written by MMmdl.
 43 45  0  0  0  0  0  0  0  0  1 V2000
  147.0040  141.8763  154.3530 C   0  0  0  0  0  0  0  0  0  0  0  0
  148.1829  140.9485  154.4198 C   0  0  0  0  0  0  0  0  0  0  0  0
  149.4032  141.4487  154.3219 N   0  0  0  0  0  0  0  0  0  0  0  0
  150.2744  140.3601  154.4280 O   0  0  0  0  0  0  0  0  0  0  0  0
  149.5347  139.2336  154.5894 C   0  0  0  0  0  0  0  0  0  0  0  0
  150.2820  137.9509  154.7325 C   0  0  0  0  0  0  0  0  0  0  0  0
  148.2011  139.5340  154.5898 C   0  0  0  0  0  0  0  0  0  0  0  0
  147.0364  138.5943  154.7444 C   0  0  0  0  0  0  0  0  0  0  0  0
  146.2199  138.4987  153.4464 C   0  0  0  0  0  0  0  0  0  0  0  0
  146.5539  137.2983  152.6905 N   0  0  0  0  0  0  0  0  0  0  0  0
  145.6591  136.4443  152.1652 C   0  0  0  0  0  0  0  0  0  0  0  0
  144.4425  136.5828  152.2781 O   0  0  0  0  0  0  0  0  0  0  0  0
  146.1966  135.4132  151.4903 N   0  0  0  0  0  0  0  0  0  0  0  0
  145.4960  134.3218  150.8079 C   0  0  1  0  0  0  0  0  0  0  0  0
  146.4704  133.1823  150.4352 C   0  0  0  0  0  0  0  0  0  0  0  0
  145.8641  131.9570  151.1441 C   0  0  1  0  0  0  0  0  0  0  0  0
  146.0693  132.0858  152.6656 C   0  0  0  0  0  0  0  0  0  0  0  0
  145.0597  133.1821  153.0543 C   0  0  0  0  0  0  0  0  0  0  0  0
  144.4563  133.5828  151.6910 C   0  0  2  0  0  0  0  0  0  0  0  0
  144.3722  132.2252  151.0013 C   0  0  0  0  0  0  0  0  0  0  0  0
  146.0664  141.3276  154.2673 H   0  0  0  0  0  0  0  0  0  0  0  0
  147.0751  142.5421  153.4925 H   0  0  0  0  0  0  0  0  0  0  0  0
  146.9438  142.4949  155.2487 H   0  0  0  0  0  0  0  0  0  0  0  0
  149.9397  137.4029  155.6107 H   0  0  0  0  0  0  0  0  0  0  0  0
  151.3523  138.1273  154.8411 H   0  0  0  0  0  0  0  0  0  0  0  0
  150.1294  137.3169  153.8593 H   0  0  0  0  0  0  0  0  0  0  0  0
  147.3774  137.5996  155.0325 H   0  0  0  0  0  0  0  0  0  0  0  0
  146.3895  138.9264  155.5573 H   0  0  0  0  0  0  0  0  0  0  0  0
  145.1504  138.5160  153.6645 H   0  0  0  0  0  0  0  0  0  0  0  0
  146.4212  139.3645  152.8148 H   0  0  0  0  0  0  0  0  0  0  0  0
  147.5344  137.1069  152.5454 H   0  0  0  0  0  0  0  0  0  0  0  0
  147.2048  135.3861  151.4389 H   0  0  0  0  0  0  0  0  0  0  0  0
  145.0225  134.6971  149.8987 H   0  0  0  0  0  0  0  0  0  0  0  0
  146.4835  133.0333  149.3546 H   0  0  0  0  0  0  0  0  0  0  0  0
  147.4977  133.3683  150.7523 H   0  0  0  0  0  0  0  0  0  0  0  0
  146.2032  131.0045  150.7358 H   0  0  0  0  0  0  0  0  0  0  0  0
  145.8326  131.1501  153.1738 H   0  0  0  0  0  0  0  0  0  0  0  0
  147.0947  132.3559  152.9210 H   0  0  0  0  0  0  0  0  0  0  0  0
  144.2868  132.7699  153.7042 H   0  0  0  0  0  0  0  0  0  0  0  0
  145.5224  134.0110  153.5901 H   0  0  0  0  0  0  0  0  0  0  0  0
  143.5035  134.1059  151.7762 H   0  0  0  0  0  0  0  0  0  0  0  0
  144.0406  132.2861  149.9633 H   0  0  0  0  0  0  0  0  0  0  0  0
  143.7493  131.5044  151.5340 H   0  0  0  0  0  0  0  0  0  0  0  0
  1  2  1  0  0  0  0
  1 21  1  0  0  0  0
  1 22  1  0  0  0  0
  1 23  1  0  0  0  0
  2  7  1  0  0  0  0
  2  3  2  0  0  0  0
  3  4  1  0  0  0  0
  4  5  1  0  0  0  0
  5  6  1  0  0  0  0
  5  7  2  0  0  0  0
  6 24  1  0  0  0  0
  6 25  1  0  0  0  0
  6 26  1  0  0  0  0
  7  8  1  0  0  0  0
  8  9  1  0  0  0  0
  8 27  1  0  0  0  0
  8 28  1  0  0  0  0
  9 10  1  0  0  0  0
  9 29  1  0  0  0  0
  9 30  1  0  0  0  0
 10 11  1  0  0  0  0
 10 31  1  0  0  0  0
 11 12  2  0  0  0  0
 11 13  1  0  0  0  0
 13 14  1  0  0  0  0
 13 32  1  0  0  0  0
 14 19  1  0  0  0  0
 14 15  1  0  0  0  0
 14 33  1  0  0  0  0
 15 16  1  0  0  0  0
 15 34  1  0  0  0  0
 15 35  1  0  0  0  0
 16 20  1  0  0  0  0
 16 17  1  0  0  0  0
 16 36  1  0  0  0  0
 17 18  1  0  0  0  0
 17 37  1  0  0  0  0
 17 38  1  0  0  0  0
 18 19  1  0  0  0  0
 18 39  1  0  0  0  0
 18 40  1  0  0  0  0
 19 20  1  0  0  0  0
 19 41  1  0  0  0  0
 20 42  1  0  0  0  0
 20 43  1  0  0  0  0
M  END
> <s_m_source_file>
AV-unprocessed.smi

> <i_m_source_file_index>
919

> <i_lp_mmshare_version>
43012

> <i_f3d_flags>
0

> <s_epik_input>
W0NIM11jMW5vYyhbQ0gzXSljMVtDSDJdW0NIMl1bTkhdQyg9TylbTkhdW0NASF0oW0NIMl1bQ0BASF0yMylbQ0BASF0oW0NIMl0zKVtDSDJdW0NIMl0y

> <s_epik_cmdline>
J2VwaWtfcHl0aG9uJywgJy1waCcsICc3LjAnLCAnLXRuJywgJzgnLCAnLW1hJywgJzIwMCcsICctbWV0YWxfYmluZGluZycsICctaW1hZScsICc8aW5maWxlLm1hZT4nLCAnLW9tYWUnLCAnPG91dGZpbGUubWFlPic=

> <r_lp_tautomer_probability>
1

> <r_epik_Ionization_Penalty>
6.40771e-05

> <r_epik_Ionization_Penalty_Charging>
0

> <r_epik_Ionization_Penalty_Neutral>
6.40771e-05

> <r_epik_State_Penalty>
-0

> <r_epik_Charging_Adjusted_Penalty>
0

> <i_epik_Tot_Q>
0

> <i_epik_Tot_abs_Q>
0

> <r_epik_Metal_State_Penalty>
-0

> <b_epik_Metal_Only>
0

> <s_lp_Force_Field>
OPLS_2005

> <r_lp_Energy>
47.6346

> <b_lp_Chiralities_Consistent>
1

> <s_lp_Variant>
AV-unprocessed.smi:919-2

> <Gold.Version>
5.8.1

> <Gold.Id.Protein>
6NUR|6NUR_protein|mol2

> <Gold.PLP.Fitness>
44.3467

> <Gold.PLP.PLP>
-34.5162

> <Gold.PLP.part.hbond>
-4.8524

> <Gold.PLP.part.metal>
0.0000

> <Gold.PLP.part.buried>
-5.1840

> <Gold.PLP.part.nonpolar>
-25.9644

> <Gold.PLP.part.repulsive>
0.8577

> <Gold.PLP.ligand.clash>
0.0000

> <Gold.PLP.ligand.torsion>
0.5107

> <Gold.PLP.Chemscore.Hbond>
3.6080

> <Gold.PLP.Chemscore.CHOScore>
0.0000

> <Gold.PLP.Chemscore.Metal>
0.0000

> <Gold.Chemscore.Hbonds>
donor molecule, donor type, donor heavy atom, donor atom, acceptor molecule, acceptor atom, score
      L1  H    10    31       P1  7948  1.00
      L1  H    13    32       P1  7948  1.00
      P1  H  7989  7998       L1     4  0.99
      P1  H  8011  8017       L1     3  0.29

> <Gold.PLP.Chemscore.Internal.Correction>
0.0281

> <Gold.Rescore>
     Score         DG    S(hbond)    S(metal)    S(lipo)     H(rot)  DE(clash)    DE(int)     intcor
     20.33     -20.90       2.81        0.00      84.89       1.52       0.17       0.40       ----

> <Gold.Chemscore.Fitness>
20.3334

> <Gold.Chemscore.DG>
-20.8995

> <Gold.Chemscore.ZeroCoef>
-5.4800

> <Gold.Chemscore.Hbond>
2.8050

> <Gold.Chemscore.Metal>
0.0000

> <Gold.Chemscore.Lipo>
84.8893

> <Gold.Chemscore.Internal_Hbond>
0.0000

> <Gold.Chemscore.DEClash>
0.1703

> <Gold.Chemscore.DEInternal>
0.3957

> <Gold.Chemscore.Rot>
1.5161

> <Gold.Chemscore.Internal.Correction>
   9.000000E+99

> <Gold.Chemscore.Hbonds>
donor molecule, donor type, donor heavy atom, donor atom, acceptor molecule, acceptor atom, score
      L1  H    10    31       P1  7948  0.98
      L1  H    13    32       P1  7948  0.87
      P1  H  7989  7998       L1     4  0.33
      P1  H  8011  8017       L1     3  0.15

> <Gold.Chemscore.Hbond.Weighted>
-9.3687

> <Gold.Chemscore.Metal.Weighted>
-0.0000

> <Gold.Chemscore.Lipo.Weighted>
-9.9320

> <Gold.Chemscore.Internal_Hbond.Weighted>
0.0000

> <Gold.Chemscore.DEClash.Weighted>
0.1703

> <Gold.Chemscore.DEInternal.Weighted>
0.3957

> <Gold.Chemscore.Rot.Weighted>
3.8813

> <Gold.Chemscore.Internal.Correction.Weighted>
   9.000000E+99

> <Gold.Protein.RotatedTorsions>
[ 6907 6896 6895 6894 ] final  131.56 input  -60.11 | X-H torsion
[ 7974 7965 7964 7962 ] final   56.27 input  175.53 | X-H torsion
[ 8008 7997 7996 7995 ] final   91.06 input   59.86 | X-H torsion
[ 10167 10162 10161 10158 ] final -127.23 input  -65.29 | X-H torsion
[ 10718 10713 10712 10709 ] final   80.76 input   66.30 | X-H torsion
[ 10763 10752 10751 10750 ] final  133.88 input  -60.55 | X-H torsion
[ 11005 11000 10999 10996 ] final  112.62 input  -57.11 | X-H torsion

> <Gold.Protein.ActiveResidues>
 VAL166  LYS551  ARG553  GLY616  TRP617  ASP618  TYR619  PRO620  LYS621  CYS622 
 ASP623  PHE694  ASN695  SER759  ASP760  ASP761  ALA762  ILE779  LEU786  VAL792 
 PHE793  MET794  SER795  GLU796  ALA797  LYS798  CYS799  TRP800  GLU811  SER814 

> <Gold.Protein.RotatedAtoms>
  152.3413  133.6071  159.5878 H   0  0  0  0  0  0  0  0  0  0  0  0  # atno 6907 bound_to 6896
  150.7481  133.9717  159.3557 H   0  0  0  0  0  0  0  0  0  0  0  0  # atno 6908 bound_to 6896
  151.7581  135.0817  160.0392 H   0  0  0  0  0  0  0  0  0  0  0  0  # atno 6909 bound_to 6896
  145.9416  139.3893  143.0360 H   0  0  0  0  0  0  0  0  0  0  0  0  # atno 7974 bound_to 7965
  156.0193  140.3342  155.7022 H   0  0  0  0  0  0  0  0  0  0  0  0  # atno 8008 bound_to 7997
  155.6046  140.0659  157.2741 H   0  0  0  0  0  0  0  0  0  0  0  0  # atno 8009 bound_to 7997
  154.4310  140.1804  156.1196 H   0  0  0  0  0  0  0  0  0  0  0  0  # atno 8010 bound_to 7997
  139.9631  143.5928  152.2438 H   0  0  0  0  0  0  0  0  0  0  0  0  # atno 10167 bound_to 10162
  157.6815  130.9974  150.2126 H   0  0  0  0  0  0  0  0  0  0  0  0  # atno 10718 bound_to 10713
  153.8144  135.3124  155.3404 H   0  0  0  0  0  0  0  0  0  0  0  0  # atno 10763 bound_to 10752
  154.8038  135.4710  154.0344 H   0  0  0  0  0  0  0  0  0  0  0  0  # atno 10764 bound_to 10752
  153.1733  135.6881  153.8667 H   0  0  0  0  0  0  0  0  0  0  0  0  # atno 10765 bound_to 10752
  139.8932  134.9533  156.6614 H   0  0  0  0  0  0  0  0  0  0  0  0  # atno 11005 bound_to 11000
  145.8292  140.9639  143.0858 LP  0  0  0  0  0  0  0  0  0  0  0  0  # atno 17320 bound_to 7965
  144.6780  140.0140  143.7484 LP  0  0  0  0  0  0  0  0  0  0  0  0  # atno 17321 bound_to 7965
  139.6539  144.7661  151.2094 LP  0  0  0  0  0  0  0  0  0  0  0  0  # atno 17342 bound_to 10162
  140.7547  143.6117  150.8599 LP  0  0  0  0  0  0  0  0  0  0  0  0  # atno 17343 bound_to 10162
  156.2794  130.3731  149.7951 LP  0  0  0  0  0  0  0  0  0  0  0  0  # atno 17370 bound_to 10713
  156.5644  130.8397  151.3338 LP  0  0  0  0  0  0  0  0  0  0  0  0  # atno 17371 bound_to 10713
  140.7444  133.8950  155.8301 LP  0  0  0  0  0  0  0  0  0  0  0  0  # atno 17394 bound_to 11000
  141.0051  134.1097  157.4278 LP  0  0  0  0  0  0  0  0  0  0  0  0  # atno 17395 bound_to 11000

$$$$
