AV-unprocessed.smi:512|AV-procd|sdf|2770|dock6
  -GOLD-   2262023233D 1   1.00000     0.00000
 Structure written by MMmdl.
 48 50  0  0  0  0  0  0  0  0  3 V2000
  145.8267  143.0251  158.7708 C   0  0  0  0  0  0  0  0  0  0  0  0
  146.5246  141.9954  157.8794 C   0  0  0  0  0  0  0  0  0  0  0  0
  147.8079  141.7190  158.4143 O   0  0  0  0  0  0  0  0  0  0  0  0
  148.5297  140.7741  157.6427 C   0  0  0  0  0  0  0  0  0  0  0  0
  148.6824  141.3144  156.2155 C   0  0  0  0  0  0  0  0  0  0  0  0
  149.3570  140.3514  155.3476 N   0  0  0  0  0  0  0  0  0  0  0  0
  148.8534  139.6807  154.2770 C   0  0  0  0  0  0  0  0  0  0  0  0
  147.5574  139.8967  153.8087 N   0  0  0  0  0  0  0  0  0  0  0  0
  147.0881  139.5465  152.4695 C   0  0  0  0  0  0  0  0  0  0  0  0
  146.2635  138.2457  152.4871 C   0  0  0  0  0  0  0  0  0  0  0  0
  145.1260  138.3485  153.4324 N   0  3  0  0  0  0  0  0  0  0  0  0
  144.3038  137.1206  153.4712 C   0  0  0  0  0  0  0  0  0  0  0  0
  145.5668  138.7836  154.7789 C   0  0  0  0  0  0  0  0  0  0  0  0
  146.4027  140.0718  154.6843 C   0  0  0  0  0  0  0  0  0  0  0  0
  149.6876  138.7953  153.7288 N   0  0  0  0  0  0  0  0  0  0  0  0
  150.8349  138.9363  154.4948 C   0  0  0  0  0  0  0  0  0  0  0  0
  150.6621  139.8652  155.4731 C   0  0  0  0  0  0  0  0  0  0  0  0
  151.7027  140.2216  156.4623 C   0  0  0  0  0  0  0  0  0  0  0  0
  151.4905  141.0668  157.3292 O   0  0  0  0  0  0  0  0  0  0  0  0
  152.8591  139.5100  156.2748 N   0  5  0  0  0  0  0  0  0  0  0  0
  153.0781  138.5619  155.2984 C   0  0  0  0  0  0  0  0  0  0  0  0
  154.1502  137.9633  155.2022 O   0  0  0  0  0  0  0  0  0  0  0  0
  152.0844  138.2650  154.4026 N   0  0  0  0  0  0  0  0  0  0  0  0
  152.2879  137.2605  153.3550 C   0  0  0  0  0  0  0  0  0  0  0  0
  144.8335  143.2611  158.3889 H   0  0  0  0  0  0  0  0  0  0  0  0
  146.3971  143.9529  158.8172 H   0  0  0  0  0  0  0  0  0  0  0  0
  145.7137  142.6492  159.7877 H   0  0  0  0  0  0  0  0  0  0  0  0
  145.9310  141.0812  157.8336 H   0  0  0  0  0  0  0  0  0  0  0  0
  146.6150  142.3827  156.8636 H   0  0  0  0  0  0  0  0  0  0  0  0
  149.5084  140.5943  158.0894 H   0  0  0  0  0  0  0  0  0  0  0  0
  147.9958  139.8227  157.6269 H   0  0  0  0  0  0  0  0  0  0  0  0
  147.6984  141.5557  155.8233 H   0  0  0  0  0  0  0  0  0  0  0  0
  149.2365  142.2524  156.2106 H   0  0  0  0  0  0  0  0  0  0  0  0
  146.4982  140.3702  152.0655 H   0  0  0  0  0  0  0  0  0  0  0  0
  147.9376  139.4086  151.8010 H   0  0  0  0  0  0  0  0  0  0  0  0
  145.8901  138.0304  151.4854 H   0  0  0  0  0  0  0  0  0  0  0  0
  146.9012  137.4087  152.7769 H   0  0  0  0  0  0  0  0  0  0  0  0
  144.8805  136.2741  153.8462 H   0  0  0  0  0  0  0  0  0  0  0  0
  143.9381  136.8713  152.4745 H   0  0  0  0  0  0  0  0  0  0  0  0
  143.4375  137.2586  154.1192 H   0  0  0  0  0  0  0  0  0  0  0  0
  144.6962  138.9525  155.4135 H   0  0  0  0  0  0  0  0  0  0  0  0
  146.1550  137.9918  155.2459 H   0  0  0  0  0  0  0  0  0  0  0  0
  146.7418  140.3685  155.6775 H   0  0  0  0  0  0  0  0  0  0  0  0
  145.7909  140.8936  154.3098 H   0  0  0  0  0  0  0  0  0  0  0  0
  152.4623  136.2793  153.7980 H   0  0  0  0  0  0  0  0  0  0  0  0
  153.1522  137.5159  152.7410 H   0  0  0  0  0  0  0  0  0  0  0  0
  151.4326  137.1705  152.6865 H   0  0  0  0  0  0  0  0  0  0  0  0
  144.5307  139.0840  153.0791 H   0  0  0  0  0  0  0  0  0  0  0  0
  1  2  1  0  0  0  0
  1 25  1  0  0  0  0
  1 26  1  0  0  0  0
  1 27  1  0  0  0  0
  2  3  1  0  0  0  0
  2 28  1  0  0  0  0
  2 29  1  0  0  0  0
  3  4  1  0  0  0  0
  4  5  1  0  0  0  0
  4 30  1  0  0  0  0
  4 31  1  0  0  0  0
  5  6  1  0  0  0  0
  5 32  1  0  0  0  0
  5 33  1  0  0  0  0
  6 17  1  0  0  0  0
  6  7  1  0  0  0  0
  7  8  1  0  0  0  0
  7 15  2  0  0  0  0
  8 14  1  0  0  0  0
  8  9  1  0  0  0  0
  9 10  1  0  0  0  0
  9 34  1  0  0  0  0
  9 35  1  0  0  0  0
 10 11  1  0  0  0  0
 10 36  1  0  0  0  0
 10 37  1  0  0  0  0
 11 12  1  0  0  0  0
 11 13  1  0  0  0  0
 11 48  1  0  0  0  0
 12 38  1  0  0  0  0
 12 39  1  0  0  0  0
 12 40  1  0  0  0  0
 13 14  1  0  0  0  0
 13 41  1  0  0  0  0
 13 42  1  0  0  0  0
 14 43  1  0  0  0  0
 14 44  1  0  0  0  0
 15 16  1  0  0  0  0
 16 23  1  0  0  0  0
 16 17  2  0  0  0  0
 17 18  1  0  0  0  0
 18 19  2  0  0  0  0
 18 20  1  0  0  0  0
 20 21  1  0  0  0  0
 21 22  2  0  0  0  0
 21 23  1  0  0  0  0
 23 24  1  0  0  0  0
 24 45  1  0  0  0  0
 24 46  1  0  0  0  0
 24 47  1  0  0  0  0
M  CHG  1  11   1
M  CHG  1  20  -1
M  END
> <s_m_source_file>
AV-unprocessed.smi

> <i_m_source_file_index>
512

> <i_lp_mmshare_version>
43012

> <i_f3d_flags>
0

> <s_epik_input>
W0NIM11uMWMoPU8pW25IXWMoPU8pYyhjMTIpbihbQ0gyXVtDSDJdT1tDSDJdW0NIM10pYyhuMilOM1tDSDJdW0NIMl1OKFtDSDNdKVtDSDJdW0NIMl0z

> <s_epik_cmdline>
J2VwaWtfcHl0aG9uJywgJy1waCcsICc3LjAnLCAnLXRuJywgJzgnLCAnLW1hJywgJzIwMCcsICctbWV0YWxfYmluZGluZycsICctaW1hZScsICc8aW5maWxlLm1hZT4nLCAnLW9tYWUnLCAnPG91dGZpbGUubWFlPic=

> <r_epik_Ionization_Penalty>
5.9926

> <r_epik_Ionization_Penalty_Charging>
0.122107

> <r_epik_Ionization_Penalty_Neutral>
5.87049

> <r_epik_State_Penalty>
5.92685

> <r_epik_Charging_Adjusted_Penalty>
6.04896

> <i_epik_Tot_Q>
0

> <i_epik_Tot_abs_Q>
2

> <r_epik_Metal_State_Penalty>
1.88919

> <b_epik_Metal_Only>
1

> <s_lp_Force_Field>
OPLS_2005

> <r_lp_Energy>
50.2729

> <b_lp_Chiralities_Consistent>
1

> <s_lp_Variant>
AV-unprocessed.smi:512-3

> <Gold.Version>
5.8.1

> <Gold.Id.Protein>
6NUR|6NUR_protein|mol2

> <Gold.PLP.Fitness>
39.6786

> <Gold.PLP.PLP>
-27.9698

> <Gold.PLP.part.hbond>
-3.8609

> <Gold.PLP.part.metal>
0.0000

> <Gold.PLP.part.buried>
4.5219

> <Gold.PLP.part.nonpolar>
-30.4570

> <Gold.PLP.part.repulsive>
1.5440

> <Gold.PLP.ligand.clash>
0.0000

> <Gold.PLP.ligand.torsion>
0.4470

> <Gold.PLP.Chemscore.Hbond>
4.0000

> <Gold.PLP.Chemscore.CHOScore>
0.0000

> <Gold.PLP.Chemscore.Metal>
0.0000

> <Gold.Chemscore.Hbonds>
donor molecule, donor type, donor heavy atom, donor atom, acceptor molecule, acceptor atom, score
      L1  H    11    48       P1 10175  2.00
      P1  H  7997  8010       L1    20  1.70

> <Gold.PLP.Chemscore.Internal.Correction>
0.6027

> <Gold.Rescore>
     Score         DG    S(hbond)    S(metal)    S(lipo)     H(rot)  DE(clash)    DE(int)     intcor
      7.93     -11.01       1.63        0.00      36.55       1.63       1.66       1.42       ----

> <Gold.Chemscore.Fitness>
7.9347

> <Gold.Chemscore.DG>
-11.0122

> <Gold.Chemscore.ZeroCoef>
-5.4800

> <Gold.Chemscore.Hbond>
1.6276

> <Gold.Chemscore.Metal>
0.0000

> <Gold.Chemscore.Lipo>
36.5488

> <Gold.Chemscore.Internal_Hbond>
0.0000

> <Gold.Chemscore.DEClash>
1.6552

> <Gold.Chemscore.DEInternal>
1.4224

> <Gold.Chemscore.Rot>
1.6328

> <Gold.Chemscore.Internal.Correction>
   9.000000E+99

> <Gold.Chemscore.Hbonds>
donor molecule, donor type, donor heavy atom, donor atom, acceptor molecule, acceptor atom, score
      L1  H    11    48       P1 10175  1.00
      P1  H  7997  8010       L1    20  0.14

> <Gold.Chemscore.Hbond.Weighted>
-5.4360

> <Gold.Chemscore.Metal.Weighted>
-0.0000

> <Gold.Chemscore.Lipo.Weighted>
-4.2762

> <Gold.Chemscore.Internal_Hbond.Weighted>
0.0000

> <Gold.Chemscore.DEClash.Weighted>
1.6552

> <Gold.Chemscore.DEInternal.Weighted>
1.4224

> <Gold.Chemscore.Rot.Weighted>
4.1800

> <Gold.Chemscore.Internal.Correction.Weighted>
   9.000000E+99

> <Gold.Protein.RotatedTorsions>
[ 6907 6896 6895 6894 ] final  -86.02 input  -60.11 | X-H torsion
[ 7974 7965 7964 7962 ] final -118.43 input  175.53 | X-H torsion
[ 8008 7997 7996 7995 ] final   80.85 input   59.86 | X-H torsion
[ 10167 10162 10161 10158 ] final    0.71 input  -65.29 | X-H torsion
[ 10718 10713 10712 10709 ] final  -15.38 input   66.30 | X-H torsion
[ 10763 10752 10751 10750 ] final   20.83 input  -60.55 | X-H torsion
[ 11005 11000 10999 10996 ] final -143.19 input  -57.11 | X-H torsion

> <Gold.Protein.ActiveResidues>
 VAL166  LYS551  ARG553  GLY616  TRP617  ASP618  TYR619  PRO620  LYS621  CYS622 
 ASP623  PHE694  ASN695  SER759  ASP760  ASP761  ALA762  ILE779  LEU786  VAL792 
 PHE793  MET794  SER795  GLU796  ALA797  LYS798  CYS799  TRP800  GLU811  SER814 

> <Gold.Protein.RotatedAtoms>
  150.6868  134.3115  159.4747 H   0  0  0  0  0  0  0  0  0  0  0  0  # atno 6907 bound_to 6896
  152.1000  134.9345  160.0579 H   0  0  0  0  0  0  0  0  0  0  0  0  # atno 6908 bound_to 6896
  152.0628  133.4035  159.4462 H   0  0  0  0  0  0  0  0  0  0  0  0  # atno 6909 bound_to 6896
  145.0739  140.8378  143.4079 H   0  0  0  0  0  0  0  0  0  0  0  0  # atno 7974 bound_to 7965
  155.8891  140.3440  155.5943 H   0  0  0  0  0  0  0  0  0  0  0  0  # atno 8008 bound_to 7997
  155.7631  140.0835  157.2164 H   0  0  0  0  0  0  0  0  0  0  0  0  # atno 8009 bound_to 7997
  154.4031  140.1532  156.2843 H   0  0  0  0  0  0  0  0  0  0  0  0  # atno 8010 bound_to 7997
  140.6716  143.7032  150.7936 H   0  0  0  0  0  0  0  0  0  0  0  0  # atno 10167 bound_to 10162
  156.6026  130.4828  149.6233 H   0  0  0  0  0  0  0  0  0  0  0  0  # atno 10718 bound_to 10713
  153.1045  135.6681  153.9611 H   0  0  0  0  0  0  0  0  0  0  0  0  # atno 10763 bound_to 10752
  153.9173  135.3018  155.3449 H   0  0  0  0  0  0  0  0  0  0  0  0  # atno 10764 bound_to 10752
  154.7466  135.5054  153.9291 H   0  0  0  0  0  0  0  0  0  0  0  0  # atno 10765 bound_to 10752
  140.8150  134.2700  157.4925 H   0  0  0  0  0  0  0  0  0  0  0  0  # atno 11005 bound_to 11000
  145.1259  139.2663  143.5564 LP  0  0  0  0  0  0  0  0  0  0  0  0  # atno 17320 bound_to 7965
  146.3529  140.0896  142.8613 LP  0  0  0  0  0  0  0  0  0  0  0  0  # atno 17321 bound_to 7965
  140.0718  143.5054  152.2576 LP  0  0  0  0  0  0  0  0  0  0  0  0  # atno 17342 bound_to 10162
  139.5988  144.7576  151.3222 LP  0  0  0  0  0  0  0  0  0  0  0  0  # atno 17343 bound_to 10162
  156.2456  130.6877  151.1597 LP  0  0  0  0  0  0  0  0  0  0  0  0  # atno 17370 bound_to 10713
  157.7275  131.0638  150.5861 LP  0  0  0  0  0  0  0  0  0  0  0  0  # atno 17371 bound_to 10713
  139.8711  134.9504  156.4053 LP  0  0  0  0  0  0  0  0  0  0  0  0  # atno 17394 bound_to 11000
  140.9159  133.7679  155.9847 LP  0  0  0  0  0  0  0  0  0  0  0  0  # atno 17395 bound_to 11000

$$$$
