#       Name:                AV-unprocessed.smi:2973
#       Creating user name   scv26
#       Creation time:       Fri Mar 27 16:26:42 2020


#       File generated by GOLD software.
#

@<TRIPOS>MOLECULE
AV-unprocessed.smi:2973
    56    58     1
SMALL
NO_CHARGES


@<TRIPOS>ATOM
      1 ****        -4.7327   0.1406  -1.9797 C.3            1 S1                 0.0000
      2 ****        -3.7382   1.2436  -1.5558 C.3            1 S1                 0.0000
      3 ****        -4.4863   2.4596  -0.9672 C.3            1 S1                 0.0000
      4 ****        -3.5293   3.6150  -0.6390 C.3            1 S1                 0.0000
      5 ****        -2.4221   3.1608   0.3208 C.3            1 S1                 0.0000
      6 ****        -1.6543   1.9547  -0.2468 C.3            1 S1                 0.0000
      7 ****        -2.5856   0.7689  -0.6119 C.3            1 S1                 0.0000
      8 ****        -3.0958   0.1429   0.5978 N.pl3          1 S1                -1.0000
      9 ****        -2.6267  -1.1240   0.6711 C.2            1 S1                 0.0000
     10 ****        -2.8388  -1.9359   1.5707 O.2            1 S1                 0.0000
     11 ****        -1.8525  -1.4141  -0.3919 N.am           1 S1                 0.0000
     12 ****        -1.1432  -2.6859  -0.6029 C.3            1 S1                 0.0000
     13 ****         0.2877  -2.7223  -0.0368 C.2            1 S1                 0.0000
     14 ****         0.9934  -3.7072  -0.2533 O.2            1 S1                 0.0000
     15 ****         0.7201  -1.6615   0.6662 N.am           1 S1                 0.0000
     16 ****         2.0522  -1.5102   1.2346 C.3            1 S1                 0.0000
     17 ****         3.0655  -1.0641   0.1680 C.3            1 S1                 0.0000
     18 ****         4.4546  -0.8674   0.7414 C.ar           1 S1                 0.0000
     19 ****         4.9703   0.4124   1.0398 C.ar           1 S1                 0.0000
     20 ****         6.2705   0.5231   1.5756 C.ar           1 S1                 0.0000
     21 ****         7.0254  -0.6463   1.8030 C.ar           1 S1                 0.0000
     22 ****         6.4606  -1.8989   1.4871 C.ar           1 S1                 0.0000
     23 ****         5.2122  -1.9635   0.9745 N.pl3          1 S1                 1.0000
     24 ****        -1.7646  -0.3621  -1.2138 C.2            1 S1                 0.0000
     25 ****        -1.1266  -0.2834  -2.2647 O.2            1 S1                 0.0000
     26 ****        -5.2693  -0.2671  -1.1226 H              1 S1                 0.0000
     27 ****        -4.2334  -0.6862  -2.4844 H              1 S1                 0.0000
     28 ****        -5.4766   0.5349  -2.6722 H              1 S1                 0.0000
     29 ****        -3.2681   1.5926  -2.4770 H              1 S1                 0.0000
     30 ****        -5.2405   2.8090  -1.6729 H              1 S1                 0.0000
     31 ****        -5.0255   2.1643  -0.0662 H              1 S1                 0.0000
     32 ****        -3.0835   3.9941  -1.5593 H              1 S1                 0.0000
     33 ****        -4.0845   4.4436  -0.1990 H              1 S1                 0.0000
     34 ****        -1.7321   3.9839   0.5072 H              1 S1                 0.0000
     35 ****        -2.8574   2.9012   1.2865 H              1 S1                 0.0000
     36 ****        -1.1135   2.2810  -1.1366 H              1 S1                 0.0000
     37 ****        -0.8907   1.6407   0.4672 H              1 S1                 0.0000
     38 ****        -1.7082  -3.5085  -0.1622 H              1 S1                 0.0000
     39 ****        -1.0962  -2.9055  -1.6707 H              1 S1                 0.0000
     40 ****         0.0732  -0.8977   0.8055 H              1 S1                 0.0000
     41 ****         1.9963  -0.7654   2.0290 H              1 S1                 0.0000
     42 ****         2.3665  -2.4441   1.7035 H              1 S1                 0.0000
     43 ****         3.1204  -1.8004  -0.6353 H              1 S1                 0.0000
     44 ****         2.7336  -0.1326  -0.2928 H              1 S1                 0.0000
     45 ****         4.3780   1.2986   0.8622 H              1 S1                 0.0000
     46 ****         6.6836   1.4933   1.8101 H              1 S1                 0.0000
     47 ****         8.0230  -0.5830   2.2128 H              1 S1                 0.0000
     48 ****         6.9656  -2.8436   1.6274 H              1 S1                 0.0000
     49 ****         4.8221  -2.8802   0.7536 H              1 S1                 0.0000
     50 ****        -3.6967   0.5789   1.2677 LP             1 S1                 0.0000
     51 ****        -3.4109  -1.6804   2.3501 LP             1 S1                 0.0000
     52 ****        -2.4390  -2.8512   1.5226 LP             1 S1                 0.0000
     53 ****         0.6353  -4.4704  -0.7910 LP             1 S1                 0.0000
     54 ****         1.9250  -3.7441   0.1085 LP             1 S1                 0.0000
     55 ****        -1.1254   0.5699  -2.7862 LP             1 S1                 0.0000
     56 ****        -0.6099  -1.0727  -2.5963 LP             1 S1                 0.0000
@<TRIPOS>BOND
    1    1    2 1     
    2    1   26 1     
    3    1   27 1     
    4    1   28 1     
    5    2    7 1     
    6    2    3 1     
    7    2   29 1     
    8    3    4 1     
    9    3   30 1     
   10    3   31 1     
   11    4    5 1     
   12    4   32 1     
   13    4   33 1     
   14    5    6 1     
   15    5   34 1     
   16    5   35 1     
   17    6    7 1     
   18    6   36 1     
   19    6   37 1     
   20    7   24 1     
   21    7    8 1     
   22    8    9 1     
   23    9   10 2     
   24    9   11 am    
   25   11   12 1     
   26   11   24 am    
   27   12   13 1     
   28   12   38 1     
   29   12   39 1     
   30   13   14 2     
   31   13   15 am    
   32   15   16 1     
   33   15   40 1     
   34   16   17 1     
   35   16   41 1     
   36   16   42 1     
   37   17   18 1     
   38   17   43 1     
   39   17   44 1     
   40   18   23 ar    
   41   18   19 ar    
   42   19   20 ar    
   43   19   45 1     
   44   20   21 ar    
   45   20   46 1     
   46   21   22 ar    
   47   21   47 1     
   48   22   23 ar    
   49   22   48 1     
   50   23   49 1     
   51   24   25 2     
   52    8   50 1     
   53   10   51 1     
   54   10   52 1     
   55   14   53 1     
   56   14   54 1     
   57   25   55 1     
   58   25   56 1     
@<TRIPOS>SUBSTRUCTURE
      1 S1             1
@<TRIPOS>SET
LONE_PAIRS      STATIC     ATOMS    <user>   **** ""
7 50 51 52 53 54 55 56
DONOR_HYDROGENS      STATIC     ATOMS    <user>   **** ""
2 40 49
ATOM$BLUE        STATIC     ATOMS    COLORGROUP SYSTEM
7 50 51 52 53 54 55 56
ATOM$RED        STATIC     ATOMS    COLORGROUP SYSTEM
2 40 49
