#       Name:                AV-unprocessed.smi:688
#       Creating user name   scv26
#       Creation time:       Fri Mar 27 00:32:55 2020


#       File generated by GOLD software.
#

@<TRIPOS>MOLECULE
AV-unprocessed.smi:688
    44    45     1
SMALL
NO_CHARGES


@<TRIPOS>ATOM
      1 ****        -6.6414   2.4245  -0.7389 O.2            1 S1                 0.0000
      2 ****        -5.4393   2.4318  -0.4811 C.2            1 S1                 0.0000
      3 ****        -4.5150   2.0586  -1.4617 N.am           1 S1                 0.0000
      4 ****        -3.1294   2.0242  -1.3006 C.2            1 S1                 0.0000
      5 ****        -2.4108   1.6675  -2.2346 O.2            1 S1                 0.0000
      6 ****        -2.6255   2.4100  -0.0369 N.am           1 S1                 0.0000
      7 ****        -1.1966   2.3747   0.1642 C.3            1 S1                 0.0000
      8 ****        -0.6515   0.9552   0.4392 C.3            1 S1                 0.0000
      9 ****        -0.9578   0.6239   1.7799 O.3            1 S1                 0.0000
     10 ****         0.8781   0.8951   0.2916 C.3            1 S1                 0.0000
     11 ****         1.2798  -0.4567   0.1415 O.3            1 S1                 0.0000
     12 ****         2.6866  -0.6037   0.0297 C.3            1 S1                 0.0000
     13 ****         3.1019  -2.0550  -0.1236 C.ar           1 S1                 0.0000
     14 ****         2.3858  -3.0788   0.5334 C.ar           1 S1                 0.0000
     15 ****         2.7874  -4.4223   0.4005 C.ar           1 S1                 0.0000
     16 ****         3.9112  -4.7480  -0.3837 C.ar           1 S1                 0.0000
     17 ****         4.4034  -6.3937  -0.5466 Cl             1 S1                 0.0000
     18 ****         4.6349  -3.7286  -1.0324 C.ar           1 S1                 0.0000
     19 ****         4.2329  -2.3851  -0.8999 C.ar           1 S1                 0.0000
     20 ****        -3.5061   2.7797   0.9679 C.2            1 S1                 0.0000
     21 ****        -4.8509   2.8061   0.8045 C.2            1 S1                 0.0000
     22 ****        -5.8837   3.2783   2.1062 Cl             1 S1                 0.0000
     23 ****        -4.8820   1.7874  -2.3624 H              1 S1                 0.0000
     24 ****        -0.7479   2.8237  -0.7247 H              1 S1                 0.0000
     25 ****        -0.9751   3.0626   0.9825 H              1 S1                 0.0000
     26 ****        -1.1105   0.2312  -0.2354 H              1 S1                 0.0000
     27 ****        -0.5094   1.2300   2.3493 H              1 S1                 0.0000
     28 ****         1.1837   1.4378  -0.6043 H              1 S1                 0.0000
     29 ****         1.3756   1.3688   1.1400 H              1 S1                 0.0000
     30 ****         3.0472  -0.0333  -0.8279 H              1 S1                 0.0000
     31 ****         3.1750  -0.2006   0.9181 H              1 S1                 0.0000
     32 ****         1.5257  -2.8390   1.1415 H              1 S1                 0.0000
     33 ****         2.2329  -5.2020   0.9021 H              1 S1                 0.0000
     34 ****         5.4994  -3.9746  -1.6313 H              1 S1                 0.0000
     35 ****         4.7955  -1.6089  -1.3976 H              1 S1                 0.0000
     36 ****        -3.1042   3.0586   1.9317 H              1 S1                 0.0000
     37 ****        -7.3045   2.6898  -0.0390 LP             1 S1                 0.0000
     38 ****        -6.9560   2.1533  -1.6485 LP             1 S1                 0.0000
     39 ****        -2.8203   1.4028  -3.1077 LP             1 S1                 0.0000
     40 ****        -1.4177   1.6425  -2.1201 LP             1 S1                 0.0000
     41 ****        -0.6543  -0.3088   1.9744 LP             1 S1                 0.0000
     42 ****        -1.9447   0.6907   1.9266 LP             1 S1                 0.0000
     43 ****         0.8534  -0.8268  -0.6838 LP             1 S1                 0.0000
     44 ****         0.9670  -0.9732   0.9386 LP             1 S1                 0.0000
@<TRIPOS>BOND
    1    1    2 2     
    2    2   21 1     
    3    2    3 1     
    4    3   23 1     
    5    3    4 1     
    6    4    5 2     
    7    4    6 1     
    8    6    7 1     
    9    6   20 1     
   10    7    8 1     
   11    7   24 1     
   12    7   25 1     
   13    8    9 1     
   14    8   10 1     
   15    8   26 1     
   16    9   27 1     
   17   10   11 1     
   18   10   28 1     
   19   10   29 1     
   20   11   12 1     
   21   12   13 1     
   22   12   30 1     
   23   12   31 1     
   24   13   19 ar    
   25   13   14 ar    
   26   14   15 ar    
   27   14   32 1     
   28   15   16 ar    
   29   15   33 1     
   30   16   17 1     
   31   16   18 ar    
   32   18   19 ar    
   33   18   34 1     
   34   19   35 1     
   35   20   21 2     
   36   20   36 1     
   37   21   22 1     
   38    1   37 1     
   39    1   38 1     
   40    5   39 1     
   41    5   40 1     
   42    9   41 1     
   43    9   42 1     
   44   11   43 1     
   45   11   44 1     
@<TRIPOS>SUBSTRUCTURE
      1 S1             1
@<TRIPOS>SET
LONE_PAIRS      STATIC     ATOMS    <user>   **** ""
8 37 38 39 40 41 42 43 44
DONOR_HYDROGENS      STATIC     ATOMS    <user>   **** ""
2 23 27
ATOM$BLUE        STATIC     ATOMS    COLORGROUP SYSTEM
8 37 38 39 40 41 42 43 44
ATOM$RED        STATIC     ATOMS    COLORGROUP SYSTEM
2 23 27
