AV-unprocessed.smi:2961|AV-procd|sdf|11314|dock7
  -GOLD-   2272016213D 1   1.00000     0.00000
 Structure written by MMmdl.
 49 51  0  0  0  0  0  0  0  0  2 V2000
  146.1097  134.8616  150.9941 C   0  0  0  0  0  0  0  0  0  0  0  0
  145.7322  136.2906  151.3685 C   0  0  0  0  0  0  0  0  0  0  0  0
  144.5905  136.5498  151.7464 O   0  0  0  0  0  0  0  0  0  0  0  0
  146.7058  137.2075  151.2686 N   0  0  0  0  0  0  0  0  0  0  0  0
  146.5571  138.6288  151.5700 C   0  0  0  0  0  0  0  0  0  0  0  0
  146.5322  138.9359  153.0818 C   0  0  0  0  0  0  0  0  0  0  0  0
  147.8986  139.0336  153.6850 C   0  0  0  0  0  0  0  0  0  0  0  0
  148.8846  138.0986  153.5765 N   0  3  0  0  0  0  0  0  0  0  0  0
  150.0219  138.5288  154.2601 C   0  0  0  0  0  0  0  0  0  0  0  0
  151.2628  137.9236  154.4345 C   0  0  0  0  0  0  0  0  0  0  0  0
  152.2104  138.6328  155.2013 C   0  0  0  0  0  0  0  0  0  0  0  0
  151.9088  139.8920  155.7597 C   0  0  0  0  0  0  0  0  0  0  0  0
  150.6484  140.4968  155.5725 C   0  0  0  0  0  0  0  0  0  0  0  0
  149.7165  139.7897  154.8126 C   0  0  0  0  0  0  0  0  0  0  0  0
  148.3976  140.0628  154.4284 N   0  0  0  0  0  0  0  0  0  0  0  0
  147.7625  141.3186  154.8573 C   0  0  0  0  0  0  0  0  0  0  0  0
  146.3233  141.1037  155.3470 C   0  0  0  0  0  0  0  0  0  0  0  0
  145.8689  142.2756  156.0104 O   0  0  0  0  0  0  0  0  0  0  0  0
  145.3339  143.2932  155.2516 C   0  0  0  0  0  0  0  0  0  0  0  0
  145.6398  143.5149  153.8852 C   0  0  0  0  0  0  0  0  0  0  0  0
  145.0412  144.5812  153.1864 C   0  0  0  0  0  0  0  0  0  0  0  0
  144.1354  145.4364  153.8406 C   0  0  0  0  0  0  0  0  0  0  0  0
  143.8265  145.2280  155.1990 C   0  0  0  0  0  0  0  0  0  0  0  0
  142.8495  146.1478  155.9018 C   0  0  0  0  0  0  0  0  0  0  0  0
  144.4266  144.1591  155.8959 C   0  0  0  0  0  0  0  0  0  0  0  0
  146.6345  134.8398  150.0381 H   0  0  0  0  0  0  0  0  0  0  0  0
  145.2205  134.2360  150.9086 H   0  0  0  0  0  0  0  0  0  0  0  0
  146.7599  134.4305  151.7559 H   0  0  0  0  0  0  0  0  0  0  0  0
  147.6126  136.9020  150.9451 H   0  0  0  0  0  0  0  0  0  0  0  0
  147.3976  139.1456  151.1069 H   0  0  0  0  0  0  0  0  0  0  0  0
  145.6581  139.0195  151.0910 H   0  0  0  0  0  0  0  0  0  0  0  0
  145.9968  139.8686  153.2605 H   0  0  0  0  0  0  0  0  0  0  0  0
  145.9738  138.1621  153.6094 H   0  0  0  0  0  0  0  0  0  0  0  0
  151.4949  136.9579  154.0098 H   0  0  0  0  0  0  0  0  0  0  0  0
  153.1871  138.2017  155.3669 H   0  0  0  0  0  0  0  0  0  0  0  0
  152.6588  140.4044  156.3446 H   0  0  0  0  0  0  0  0  0  0  0  0
  150.4271  141.4592  156.0097 H   0  0  0  0  0  0  0  0  0  0  0  0
  148.3741  141.7859  155.6292 H   0  0  0  0  0  0  0  0  0  0  0  0
  147.7672  142.0026  154.0091 H   0  0  0  0  0  0  0  0  0  0  0  0
  145.6780  140.8786  154.4969 H   0  0  0  0  0  0  0  0  0  0  0  0
  146.2967  140.2504  156.0267 H   0  0  0  0  0  0  0  0  0  0  0  0
  146.3310  142.8819  153.3501 H   0  0  0  0  0  0  0  0  0  0  0  0
  145.2783  144.7430  152.1452 H   0  0  0  0  0  0  0  0  0  0  0  0
  143.6796  146.2518  153.2979 H   0  0  0  0  0  0  0  0  0  0  0  0
  142.9162  146.0421  156.9853 H   0  0  0  0  0  0  0  0  0  0  0  0
  141.8289  145.9157  155.5970 H   0  0  0  0  0  0  0  0  0  0  0  0
  143.0552  147.1886  155.6502 H   0  0  0  0  0  0  0  0  0  0  0  0
  144.1894  143.9960  156.9371 H   0  0  0  0  0  0  0  0  0  0  0  0
  148.7817  137.2278  153.0714 H   0  0  0  0  0  0  0  0  0  0  0  0
  1  2  1  0  0  0  0
  1 26  1  0  0  0  0
  1 27  1  0  0  0  0
  1 28  1  0  0  0  0
  2  3  2  0  0  0  0
  2  4  1  0  0  0  0
  4  5  1  0  0  0  0
  4 29  1  0  0  0  0
  5  6  1  0  0  0  0
  5 30  1  0  0  0  0
  5 31  1  0  0  0  0
  6  7  1  0  0  0  0
  6 32  1  0  0  0  0
  6 33  1  0  0  0  0
  7 15  1  0  0  0  0
  7  8  2  0  0  0  0
  8  9  1  0  0  0  0
  8 49  1  0  0  0  0
  9 14  2  0  0  0  0
  9 10  1  0  0  0  0
 10 11  2  0  0  0  0
 10 34  1  0  0  0  0
 11 12  1  0  0  0  0
 11 35  1  0  0  0  0
 12 13  2  0  0  0  0
 12 36  1  0  0  0  0
 13 14  1  0  0  0  0
 13 37  1  0  0  0  0
 14 15  1  0  0  0  0
 15 16  1  0  0  0  0
 16 17  1  0  0  0  0
 16 38  1  0  0  0  0
 16 39  1  0  0  0  0
 17 18  1  0  0  0  0
 17 40  1  0  0  0  0
 17 41  1  0  0  0  0
 18 19  1  0  0  0  0
 19 25  1  0  0  0  0
 19 20  2  0  0  0  0
 20 21  1  0  0  0  0
 20 42  1  0  0  0  0
 21 22  2  0  0  0  0
 21 43  1  0  0  0  0
 22 23  1  0  0  0  0
 22 44  1  0  0  0  0
 23 24  1  0  0  0  0
 23 25  2  0  0  0  0
 24 45  1  0  0  0  0
 24 46  1  0  0  0  0
 24 47  1  0  0  0  0
 25 48  1  0  0  0  0
M  CHG  1   8   1
M  END
> <s_m_source_file>
AV-unprocessed.smi

> <i_m_source_file_index>
2961

> <i_lp_mmshare_version>
43012

> <i_f3d_flags>
0

> <s_epik_input>
W0NIM11DKD1PKVtOSF1bQ0gyXVtDSDJdYyhuMSluKGMoYzEyKVtjSF1bY0hdW2NIXVtjSF0yKVtDSDJdW0NIMl1PYzNbY0hdW2NIXVtjSF1jKFtDSDNdKVtjSF0z

> <s_epik_cmdline>
J2VwaWtfcHl0aG9uJywgJy1waCcsICc3LjAnLCAnLXRuJywgJzgnLCAnLW1hJywgJzIwMCcsICctbWV0YWxfYmluZGluZycsICctaW1hZScsICc8aW5maWxlLm1hZT4nLCAnLW9tYWUnLCAnPG91dGZpbGUubWFlPic=

> <r_lp_tautomer_probability>
1

> <r_epik_Ionization_Penalty>
1.11168

> <r_epik_Ionization_Penalty_Charging>
1.11168

> <r_epik_Ionization_Penalty_Neutral>
3.05925e-07

> <r_epik_State_Penalty>
1.16973

> <r_epik_Charging_Adjusted_Penalty>
2.28141

> <i_epik_Tot_Q>
1

> <i_epik_Tot_abs_Q>
1

> <r_epik_Metal_State_Penalty>
1.2554

> <b_epik_Metal_Only>
0

> <s_lp_Force_Field>
OPLS_2005

> <r_lp_Energy>
19.5135

> <b_lp_Chiralities_Consistent>
1

> <s_lp_Variant>
AV-unprocessed.smi:2961-2

> <Gold.Version>
5.8.1

> <Gold.Id.Protein>
6NUR|6NUR_protein|mol2

> <Gold.PLP.Fitness>
60.7576

> <Gold.PLP.PLP>
-54.7914

> <Gold.PLP.part.hbond>
-2.3396

> <Gold.PLP.part.metal>
0.0000

> <Gold.PLP.part.buried>
-4.8768

> <Gold.PLP.part.nonpolar>
-49.1082

> <Gold.PLP.part.repulsive>
1.2534

> <Gold.PLP.ligand.clash>
0.0000

> <Gold.PLP.ligand.torsion>
1.0307

> <Gold.PLP.Chemscore.Hbond>
2.6560

> <Gold.PLP.Chemscore.CHOScore>
0.0000

> <Gold.PLP.Chemscore.Metal>
0.0000

> <Gold.Chemscore.Hbonds>
donor molecule, donor type, donor heavy atom, donor atom, acceptor molecule, acceptor atom, score
      L1  H     4    29       P1  7948  0.62
      L1  H     8    49       P1  7948  2.00

> <Gold.PLP.Chemscore.Internal.Correction>
0.0597

> <Gold.Rescore>
     Score         DG    S(hbond)    S(metal)    S(lipo)     H(rot)  DE(clash)    DE(int)     intcor
     18.47     -19.75       1.57        0.00     124.93       2.18       0.29       0.98       ----

> <Gold.Chemscore.Fitness>
18.4713

> <Gold.Chemscore.DG>
-19.7468

> <Gold.Chemscore.ZeroCoef>
-5.4800

> <Gold.Chemscore.Hbond>
1.5658

> <Gold.Chemscore.Metal>
0.0000

> <Gold.Chemscore.Lipo>
124.9253

> <Gold.Chemscore.Internal_Hbond>
0.0000

> <Gold.Chemscore.DEClash>
0.2946

> <Gold.Chemscore.DEInternal>
0.9809

> <Gold.Chemscore.Rot>
2.1793

> <Gold.Chemscore.Internal.Correction>
   9.000000E+99

> <Gold.Chemscore.Hbonds>
donor molecule, donor type, donor heavy atom, donor atom, acceptor molecule, acceptor atom, score
      L1  H     4    29       P1  7948  0.63
      L1  H     8    49       P1  7948  0.94

> <Gold.Chemscore.Hbond.Weighted>
-5.2297

> <Gold.Chemscore.Metal.Weighted>
-0.0000

> <Gold.Chemscore.Lipo.Weighted>
-14.6163

> <Gold.Chemscore.Internal_Hbond.Weighted>
0.0000

> <Gold.Chemscore.DEClash.Weighted>
0.2946

> <Gold.Chemscore.DEInternal.Weighted>
0.9809

> <Gold.Chemscore.Rot.Weighted>
5.5791

> <Gold.Chemscore.Internal.Correction.Weighted>
   9.000000E+99

> <Gold.Protein.RotatedTorsions>
[ 6907 6896 6895 6894 ] final  115.35 input  -60.11 | X-H torsion
[ 7974 7965 7964 7962 ] final  103.41 input  175.53 | X-H torsion
[ 8008 7997 7996 7995 ] final -166.33 input   59.86 | X-H torsion
[ 10167 10162 10161 10158 ] final -151.40 input  -65.29 | X-H torsion
[ 10718 10713 10712 10709 ] final  122.38 input   66.30 | X-H torsion
[ 10763 10752 10751 10750 ] final   43.60 input  -60.55 | X-H torsion
[ 11005 11000 10999 10996 ] final -104.16 input  -57.11 | X-H torsion

> <Gold.Protein.ActiveResidues>
 VAL166  LYS551  ARG553  GLY616  TRP617  ASP618  TYR619  PRO620  LYS621  CYS622 
 ASP623  PHE694  ASN695  SER759  ASP760  ASP761  ALA762  ILE779  LEU786  VAL792 
 PHE793  MET794  SER795  GLU796  ALA797  LYS798  CYS799  TRP800  GLU811  SER814 

> <Gold.Protein.RotatedAtoms>
  152.4747  133.8111  159.7003 H   0  0  0  0  0  0  0  0  0  0  0  0  # atno 6907 bound_to 6896
  150.8757  133.7433  159.2954 H   0  0  0  0  0  0  0  0  0  0  0  0  # atno 6908 bound_to 6896
  151.4954  135.1063  159.9867 H   0  0  0  0  0  0  0  0  0  0  0  0  # atno 6909 bound_to 6896
  145.3462  139.2450  143.3582 H   0  0  0  0  0  0  0  0  0  0  0  0  # atno 7974 bound_to 7965
  155.8623  140.0980  157.1605 H   0  0  0  0  0  0  0  0  0  0  0  0  # atno 8008 bound_to 7997
  154.3991  140.1362  156.4039 H   0  0  0  0  0  0  0  0  0  0  0  0  # atno 8009 bound_to 7997
  155.7842  140.3457  155.5316 H   0  0  0  0  0  0  0  0  0  0  0  0  # atno 8010 bound_to 7997
  139.7271  143.8867  152.2522 H   0  0  0  0  0  0  0  0  0  0  0  0  # atno 10167 bound_to 10162
  157.5747  131.1080  150.8302 H   0  0  0  0  0  0  0  0  0  0  0  0  # atno 10718 bound_to 10713
  152.9857  135.6096  154.3138 H   0  0  0  0  0  0  0  0  0  0  0  0  # atno 10763 bound_to 10752
  154.2851  135.2776  155.2681 H   0  0  0  0  0  0  0  0  0  0  0  0  # atno 10764 bound_to 10752
  154.5002  135.5869  153.6582 H   0  0  0  0  0  0  0  0  0  0  0  0  # atno 10765 bound_to 10752
  141.1113  133.8700  157.1576 H   0  0  0  0  0  0  0  0  0  0  0  0  # atno 11005 bound_to 11000
  146.2987  140.4069  142.8712 LP  0  0  0  0  0  0  0  0  0  0  0  0  # atno 17320 bound_to 7965
  144.8752  140.7327  143.6021 LP  0  0  0  0  0  0  0  0  0  0  0  0  # atno 17321 bound_to 7965
  139.8779  144.7033  150.8912 LP  0  0  0  0  0  0  0  0  0  0  0  0  # atno 17342 bound_to 10162
  140.7764  143.3685  151.1694 LP  0  0  0  0  0  0  0  0  0  0  0  0  # atno 17343 bound_to 10162
  156.8764  130.5164  149.5293 LP  0  0  0  0  0  0  0  0  0  0  0  0  # atno 17370 bound_to 10713
  156.0792  130.5806  150.9530 LP  0  0  0  0  0  0  0  0  0  0  0  0  # atno 17371 bound_to 10713
  140.0009  135.0028  157.0187 LP  0  0  0  0  0  0  0  0  0  0  0  0  # atno 17394 bound_to 11000
  140.4767  134.1331  155.7211 LP  0  0  0  0  0  0  0  0  0  0  0  0  # atno 17395 bound_to 11000

$$$$
