AV-unprocessed.smi:3334|AV-procd|sdf|12836|dock2
  -GOLD-   2272019213D 1   1.00000     0.00000
 Structure written by MMmdl.
 41 42  0  0  0  0  0  0  0  0  1 V2000
  143.3755  133.0642  151.3546 C   0  0  0  0  0  0  0  0  0  0  0  0
  144.5611  133.8951  150.8428 C   0  0  0  0  0  0  0  0  0  0  0  0
  145.8968  133.1520  150.9738 C   0  0  0  0  0  0  0  0  0  0  0  0
  144.6137  135.2502  151.4778 C   0  0  0  0  0  0  0  0  0  0  0  0
  145.5087  136.1808  151.1374 N   0  0  0  0  0  0  0  0  0  0  0  0
  145.3675  137.3661  151.8664 C   0  0  0  0  0  0  0  0  0  0  0  0
  146.3247  138.5020  151.6341 C   0  0  0  0  0  0  0  0  0  0  0  0
  146.7475  139.2212  152.9293 C   0  0  0  0  0  0  0  0  0  0  0  0
  148.1465  138.9597  153.2547 N   0  0  0  0  0  0  0  0  0  0  0  0
  148.8753  139.6471  154.1452 C   0  0  0  0  0  0  0  0  0  0  0  0
  148.4978  140.6957  154.6682 O   0  0  0  0  0  0  0  0  0  0  0  0
  150.2231  139.0317  154.5356 C   0  0  0  0  0  0  0  0  0  0  0  0
  151.0548  139.9374  155.4713 C   0  0  1  0  0  0  0  0  0  0  0  0
  150.3205  140.3737  156.7177 C   0  0  0  0  0  0  0  0  0  0  0  0
  151.0108  140.1368  157.8301 C   0  0  0  0  0  0  0  0  0  0  0  0
  152.3377  139.4859  157.5558 C   0  0  0  0  0  0  0  0  0  0  0  0
  152.3232  139.2434  156.0298 C   0  0  0  0  0  0  0  0  0  0  0  0
  144.3506  137.3154  152.7866 C   0  0  0  0  0  0  0  0  0  0  0  0
  143.5388  135.7734  152.7729 S   0  0  0  0  0  0  0  0  0  0  0  0
  142.4321  133.5868  151.1934 H   0  0  0  0  0  0  0  0  0  0  0  0
  143.4642  132.8563  152.4212 H   0  0  0  0  0  0  0  0  0  0  0  0
  143.3148  132.1073  150.8360 H   0  0  0  0  0  0  0  0  0  0  0  0
  144.3930  134.0518  149.7764 H   0  0  0  0  0  0  0  0  0  0  0  0
  146.7111  133.7317  150.5378 H   0  0  0  0  0  0  0  0  0  0  0  0
  145.8645  132.1913  150.4597 H   0  0  0  0  0  0  0  0  0  0  0  0
  146.1426  132.9603  152.0184 H   0  0  0  0  0  0  0  0  0  0  0  0
  147.2195  138.1267  151.1357 H   0  0  0  0  0  0  0  0  0  0  0  0
  145.8899  139.2263  150.9448 H   0  0  0  0  0  0  0  0  0  0  0  0
  146.5819  140.2954  152.8436 H   0  0  0  0  0  0  0  0  0  0  0  0
  146.1080  138.8687  153.7401 H   0  0  0  0  0  0  0  0  0  0  0  0
  148.5477  138.1158  152.8712 H   0  0  0  0  0  0  0  0  0  0  0  0
  150.0557  138.0653  155.0145 H   0  0  0  0  0  0  0  0  0  0  0  0
  150.7841  138.8307  153.6225 H   0  0  0  0  0  0  0  0  0  0  0  0
  151.3479  140.8427  154.9376 H   0  0  0  0  0  0  0  0  0  0  0  0
  149.3488  140.8449  156.6842 H   0  0  0  0  0  0  0  0  0  0  0  0
  150.6833  140.3816  158.8296 H   0  0  0  0  0  0  0  0  0  0  0  0
  153.1459  140.1555  157.8511 H   0  0  0  0  0  0  0  0  0  0  0  0
  152.4329  138.5542  158.1141 H   0  0  0  0  0  0  0  0  0  0  0  0
  152.2937  138.1706  155.8346 H   0  0  0  0  0  0  0  0  0  0  0  0
  153.2273  139.6272  155.5561 H   0  0  0  0  0  0  0  0  0  0  0  0
  144.0434  138.0819  153.4823 H   0  0  0  0  0  0  0  0  0  0  0  0
  1  2  1  0  0  0  0
  1 20  1  0  0  0  0
  1 21  1  0  0  0  0
  1 22  1  0  0  0  0
  2  3  1  0  0  0  0
  2  4  1  0  0  0  0
  2 23  1  0  0  0  0
  3 24  1  0  0  0  0
  3 25  1  0  0  0  0
  3 26  1  0  0  0  0
  4 19  1  0  0  0  0
  4  5  2  0  0  0  0
  5  6  1  0  0  0  0
  6  7  1  0  0  0  0
  6 18  2  0  0  0  0
  7  8  1  0  0  0  0
  7 27  1  0  0  0  0
  7 28  1  0  0  0  0
  8  9  1  0  0  0  0
  8 29  1  0  0  0  0
  8 30  1  0  0  0  0
  9 10  1  0  0  0  0
  9 31  1  0  0  0  0
 10 11  2  0  0  0  0
 10 12  1  0  0  0  0
 12 13  1  0  0  0  0
 12 32  1  0  0  0  0
 12 33  1  0  0  0  0
 13 17  1  0  0  0  0
 13 14  1  0  0  0  0
 13 34  1  0  0  0  0
 14 15  2  0  0  0  0
 14 35  1  0  0  0  0
 15 16  1  0  0  0  0
 15 36  1  0  0  0  0
 16 17  1  0  0  0  0
 16 37  1  0  0  0  0
 16 38  1  0  0  0  0
 17 39  1  0  0  0  0
 17 40  1  0  0  0  0
 18 19  1  0  0  0  0
 18 41  1  0  0  0  0
M  END
> <s_m_source_file>
AV-unprocessed.smi

> <i_m_source_file_index>
3334

> <i_lp_mmshare_version>
43012

> <i_f3d_flags>
0

> <s_epik_input>
W0NIM11bQ0hdKFtDSDNdKWMxbmMoW2NIXXMxKVtDSDJdW0NIMl1bTkhdQyg9TylbQ0gyXVtDQEBIXTJbQ0hdPVtDSF1bQ0gyXVtDSDJdMg==

> <s_epik_cmdline>
J2VwaWtfcHl0aG9uJywgJy1waCcsICc3LjAnLCAnLXRuJywgJzgnLCAnLW1hJywgJzIwMCcsICctbWV0YWxfYmluZGluZycsICctaW1hZScsICc8aW5maWxlLm1hZT4nLCAnLW9tYWUnLCAnPG91dGZpbGUubWFlPic=

> <r_epik_Ionization_Penalty>
0.000771592

> <r_epik_Ionization_Penalty_Charging>
0

> <r_epik_Ionization_Penalty_Neutral>
0.000771592

> <r_epik_State_Penalty>
0.000494253

> <r_epik_Charging_Adjusted_Penalty>
0.000494253

> <i_epik_Tot_Q>
0

> <i_epik_Tot_abs_Q>
0

> <r_epik_Metal_State_Penalty>
-0

> <b_epik_Metal_Only>
0

> <s_lp_Force_Field>
OPLS_2005

> <r_lp_Energy>
5.93023

> <b_lp_Chiralities_Consistent>
1

> <s_lp_Variant>
AV-unprocessed.smi:3334-2

> <Gold.Version>
5.8.1

> <Gold.Id.Protein>
6NUR|6NUR_protein|mol2

> <Gold.PLP.Fitness>
39.6961

> <Gold.PLP.PLP>
-35.4852

> <Gold.PLP.part.hbond>
-2.0000

> <Gold.PLP.part.metal>
0.0000

> <Gold.PLP.part.buried>
2.2624

> <Gold.PLP.part.nonpolar>
-36.2656

> <Gold.PLP.part.repulsive>
0.4233

> <Gold.PLP.ligand.clash>
0.0000

> <Gold.PLP.ligand.torsion>
0.8328

> <Gold.PLP.Chemscore.Hbond>
1.0000

> <Gold.PLP.Chemscore.CHOScore>
0.9223

> <Gold.PLP.Chemscore.Metal>
0.0000

> <Gold.Chemscore.Hbonds>
donor molecule, donor type, donor heavy atom, donor atom, acceptor molecule, acceptor atom, score
      L1  H     9    31       P1  7948  0.70
      L1  C    18    41       P1 10175  0.60

> <Gold.PLP.Chemscore.Internal.Correction>
0.1096

> <Gold.Rescore>
     Score         DG    S(hbond)    S(metal)    S(lipo)     H(rot)  DE(clash)    DE(int)     intcor
     12.81     -15.81       0.96        0.00      94.16       1.52       0.81       2.19       ----

> <Gold.Chemscore.Fitness>
12.8085

> <Gold.Chemscore.DG>
-15.8088

> <Gold.Chemscore.ZeroCoef>
-5.4800

> <Gold.Chemscore.Hbond>
0.9562

> <Gold.Chemscore.Metal>
0.0000

> <Gold.Chemscore.Lipo>
94.1606

> <Gold.Chemscore.Internal_Hbond>
0.0000

> <Gold.Chemscore.DEClash>
0.8143

> <Gold.Chemscore.DEInternal>
2.1860

> <Gold.Chemscore.Rot>
1.5162

> <Gold.Chemscore.Internal.Correction>
   9.000000E+99

> <Gold.Chemscore.Hbonds>
donor molecule, donor type, donor heavy atom, donor atom, acceptor molecule, acceptor atom, score
      L1  H     9    31       P1  7948  0.69

> <Gold.Chemscore.Hbond.Weighted>
-3.1936

> <Gold.Chemscore.Metal.Weighted>
-0.0000

> <Gold.Chemscore.Lipo.Weighted>
-11.0168

> <Gold.Chemscore.Internal_Hbond.Weighted>
0.0000

> <Gold.Chemscore.DEClash.Weighted>
0.8143

> <Gold.Chemscore.DEInternal.Weighted>
2.1860

> <Gold.Chemscore.Rot.Weighted>
3.8815

> <Gold.Chemscore.Internal.Correction.Weighted>
   9.000000E+99

> <Gold.Protein.RotatedTorsions>
[ 6907 6896 6895 6894 ] final  159.14 input  -60.11 | X-H torsion
[ 7974 7965 7964 7962 ] final  -32.28 input  175.53 | X-H torsion
[ 8008 7997 7996 7995 ] final   78.21 input   59.86 | X-H torsion
[ 10167 10162 10161 10158 ] final -176.50 input  -65.29 | X-H torsion
[ 10718 10713 10712 10709 ] final   42.34 input   66.30 | X-H torsion
[ 10763 10752 10751 10750 ] final -121.34 input  -60.55 | X-H torsion
[ 11005 11000 10999 10996 ] final -117.61 input  -57.11 | X-H torsion

> <Gold.Protein.ActiveResidues>
 VAL166  LYS551  ARG553  GLY616  TRP617  ASP618  TYR619  PRO620  LYS621  CYS622 
 ASP623  PHE694  ASN695  SER759  ASP760  ASP761  ALA762  ILE779  LEU786  VAL792 
 PHE793  MET794  SER795  GLU796  ALA797  LYS798  CYS799  TRP800  GLU811  SER814 

> <Gold.Protein.RotatedAtoms>
  151.9899  133.3787  159.4140 H   0  0  0  0  0  0  0  0  0  0  0  0  # atno 6907 bound_to 6896
  150.6923  134.3948  159.5101 H   0  0  0  0  0  0  0  0  0  0  0  0  # atno 6908 bound_to 6896
  152.1679  134.8858  160.0587 H   0  0  0  0  0  0  0  0  0  0  0  0  # atno 6909 bound_to 6896
  146.1002  140.5773  142.8824 H   0  0  0  0  0  0  0  0  0  0  0  0  # atno 7974 bound_to 7965
  155.8525  140.3457  155.5703 H   0  0  0  0  0  0  0  0  0  0  0  0  # atno 8008 bound_to 7997
  155.8022  140.0887  157.1970 H   0  0  0  0  0  0  0  0  0  0  0  0  # atno 8009 bound_to 7997
  154.4008  140.1463  156.3275 H   0  0  0  0  0  0  0  0  0  0  0  0  # atno 8010 bound_to 7997
  139.5526  144.2069  152.1104 H   0  0  0  0  0  0  0  0  0  0  0  0  # atno 10167 bound_to 10162
  157.4037  130.7874  149.7370 H   0  0  0  0  0  0  0  0  0  0  0  0  # atno 10718 bound_to 10713
  154.8666  135.4171  154.2604 H   0  0  0  0  0  0  0  0  0  0  0  0  # atno 10763 bound_to 10752
  153.3533  135.7000  153.6776 H   0  0  0  0  0  0  0  0  0  0  0  0  # atno 10764 bound_to 10752
  153.5707  135.3592  155.2809 H   0  0  0  0  0  0  0  0  0  0  0  0  # atno 10765 bound_to 10752
  141.0343  133.9934  157.3095 H   0  0  0  0  0  0  0  0  0  0  0  0  # atno 11005 bound_to 11000
  144.7427  140.4984  143.6858 LP  0  0  0  0  0  0  0  0  0  0  0  0  # atno 17320 bound_to 7965
  145.5869  139.1493  143.3204 LP  0  0  0  0  0  0  0  0  0  0  0  0  # atno 17321 bound_to 7965
  140.1568  144.5063  150.6655 LP  0  0  0  0  0  0  0  0  0  0  0  0  # atno 17342 bound_to 10162
  140.6792  143.2319  151.5427 LP  0  0  0  0  0  0  0  0  0  0  0  0  # atno 17343 bound_to 10162
  155.9830  130.4004  150.3385 LP  0  0  0  0  0  0  0  0  0  0  0  0  # atno 17370 bound_to 10713
  157.1515  131.0322  151.2883 LP  0  0  0  0  0  0  0  0  0  0  0  0  # atno 17371 bound_to 10713
  139.9229  135.0201  156.8131 LP  0  0  0  0  0  0  0  0  0  0  0  0  # atno 17394 bound_to 11000
  140.6351  133.9870  155.7680 LP  0  0  0  0  0  0  0  0  0  0  0  0  # atno 17395 bound_to 11000

$$$$
