AV-unprocessed.smi:2750|AV-procd|sdf|10590|dock6
  -GOLD-   2272015 43D 1   1.00000     0.00000
 Structure written by MMmdl.
 25 26  0  0  0  0  0  0  0  0  2 V2000
  148.1746  136.8165  162.2637 O   0  0  0  0  0  0  0  0  0  0  0  0
  147.3981  136.5645  161.3164 C   0  0  0  0  0  0  0  0  0  0  0  0
  146.4179  137.2648  160.9777 O   0  5  0  0  0  0  0  0  0  0  0  0
  147.6946  135.3063  160.4943 C   0  0  0  0  0  0  0  0  0  0  0  0
  148.4277  135.5815  159.2699 N   0  0  0  0  0  0  0  0  0  0  0  0
  148.6047  136.7889  158.6256 C   0  0  0  0  0  0  0  0  0  0  0  0
  149.3677  136.4621  157.5412 C   0  0  0  0  0  0  0  0  0  0  0  0
  149.8988  137.3522  156.4570 C   0  0  0  0  0  0  0  0  0  0  0  0
  149.5350  136.8610  155.0409 C   0  0  1  0  0  0  0  0  0  0  0  0
  148.1167  136.9706  154.7427 N   0  0  0  0  0  0  0  0  0  0  0  0
  147.8749  137.7551  153.6837 C   0  0  0  0  0  0  0  0  0  0  0  0
  146.7692  138.0185  153.2173 O   0  0  0  0  0  0  0  0  0  0  0  0
  149.0491  138.2025  153.2253 N   0  0  0  0  0  0  0  0  0  0  0  0
  150.0788  137.7581  153.9438 C   0  0  0  0  0  0  0  0  0  0  0  0
  151.2686  138.0151  153.7702 O   0  0  0  0  0  0  0  0  0  0  0  0
  149.6225  135.0909  157.5709 N   0  0  0  0  0  0  0  0  0  0  0  0
  149.0491  134.5731  158.6118 N   0  0  0  0  0  0  0  0  0  0  0  0
  148.2809  134.6173  161.1027 H   0  0  0  0  0  0  0  0  0  0  0  0
  146.7638  134.7945  160.2435 H   0  0  0  0  0  0  0  0  0  0  0  0
  148.1888  137.7211  158.9780 H   0  0  0  0  0  0  0  0  0  0  0  0
  149.5292  138.3686  156.6036 H   0  0  0  0  0  0  0  0  0  0  0  0
  150.9840  137.4199  156.5439 H   0  0  0  0  0  0  0  0  0  0  0  0
  149.8669  135.8340  154.8826 H   0  0  0  0  0  0  0  0  0  0  0  0
  147.4041  136.5101  155.2906 H   0  0  0  0  0  0  0  0  0  0  0  0
  149.1427  138.8191  152.4313 H   0  0  0  0  0  0  0  0  0  0  0  0
  1  2  2  0  0  0  0
  2  3  1  0  0  0  0
  2  4  1  0  0  0  0
  4  5  1  0  0  0  0
  4 18  1  0  0  0  0
  4 19  1  0  0  0  0
  5 17  1  0  0  0  0
  5  6  1  0  0  0  0
  6  7  2  0  0  0  0
  6 20  1  0  0  0  0
  7  8  1  0  0  0  0
  7 16  1  0  0  0  0
  8  9  1  0  0  0  0
  8 21  1  0  0  0  0
  8 22  1  0  0  0  0
  9 14  1  0  0  0  0
  9 10  1  0  0  0  0
  9 23  1  0  0  0  0
 10 11  1  0  0  0  0
 10 24  1  0  0  0  0
 11 12  2  0  0  0  0
 11 13  1  0  0  0  0
 13 14  1  0  0  0  0
 13 25  1  0  0  0  0
 14 15  2  0  0  0  0
 16 17  2  0  0  0  0
M  CHG  1   3  -1
M  END
> <s_m_source_file>
AV-unprocessed.smi

> <i_m_source_file_index>
2750

> <i_lp_mmshare_version>
43012

> <i_f3d_flags>
0

> <s_epik_input>
Tz1DKFtPSF0pW0NIMl1uMVtjSF1jKG5uMSlbQ0gyXVtDQEBIXTJbTkhdQyg9TylbTkhdQzI9Tw==

> <s_epik_cmdline>
J2VwaWtfcHl0aG9uJywgJy1waCcsICc3LjAnLCAnLXRuJywgJzgnLCAnLW1hJywgJzIwMCcsICctbWV0YWxfYmluZGluZycsICctaW1hZScsICc8aW5maWxlLm1hZT4nLCAnLW9tYWUnLCAnPG91dGZpbGUubWFlPic=

> <r_lp_tautomer_probability>
1

> <r_epik_Ionization_Penalty>
0.019671

> <r_epik_Ionization_Penalty_Charging>
2.66176e-05

> <r_epik_Ionization_Penalty_Neutral>
0.0196444

> <r_epik_State_Penalty>
0.0155882

> <r_epik_Charging_Adjusted_Penalty>
0.0156148

> <i_epik_Tot_Q>
-1

> <i_epik_Tot_abs_Q>
1

> <r_epik_Metal_State_Penalty>
0.396229

> <b_epik_Metal_Only>
0

> <s_lp_Force_Field>
OPLS_2005

> <r_lp_Energy>
18.3652

> <b_lp_Chiralities_Consistent>
1

> <s_lp_Variant>
AV-unprocessed.smi:2750-2

> <Gold.Version>
5.8.1

> <Gold.Id.Protein>
6NUR|6NUR_protein|mol2

> <Gold.PLP.Fitness>
40.3982

> <Gold.PLP.PLP>
-21.7293

> <Gold.PLP.part.hbond>
-5.8906

> <Gold.PLP.part.metal>
0.0000

> <Gold.PLP.part.buried>
-5.0724

> <Gold.PLP.part.nonpolar>
-12.1718

> <Gold.PLP.part.repulsive>
0.4066

> <Gold.PLP.ligand.clash>
0.0000

> <Gold.PLP.ligand.torsion>
0.5879

> <Gold.PLP.Chemscore.Hbond>
6.6080

> <Gold.PLP.Chemscore.CHOScore>
0.0000

> <Gold.PLP.Chemscore.Metal>
0.0000

> <Gold.Chemscore.Hbonds>
donor molecule, donor type, donor heavy atom, donor atom, acceptor molecule, acceptor atom, score
      L1  H    13    25       P1  7957  1.00
      P1  H  6896  6907       L1    17  0.60
      P1  H  6931  6943       L1     1  2.00
      P1  H  6934  6947       L1     3  2.00

> <Gold.PLP.Chemscore.Internal.Correction>
0.0208

> <Gold.Rescore>
     Score         DG    S(hbond)    S(metal)    S(lipo)     H(rot)  DE(clash)    DE(int)     intcor
      9.26     -10.45       3.00        0.00      18.94       2.84       0.53       0.66       ----

> <Gold.Chemscore.Fitness>
9.2558

> <Gold.Chemscore.DG>
-10.4476

> <Gold.Chemscore.ZeroCoef>
-5.4800

> <Gold.Chemscore.Hbond>
2.9971

> <Gold.Chemscore.Metal>
0.0000

> <Gold.Chemscore.Lipo>
18.9389

> <Gold.Chemscore.Internal_Hbond>
0.0000

> <Gold.Chemscore.DEClash>
0.5319

> <Gold.Chemscore.DEInternal>
0.6599

> <Gold.Chemscore.Rot>
2.8354

> <Gold.Chemscore.Internal.Correction>
   9.000000E+99

> <Gold.Chemscore.Hbonds>
donor molecule, donor type, donor heavy atom, donor atom, acceptor molecule, acceptor atom, score
      L1  H    13    25       P1  7957  0.91
      P1  H  6896  6907       L1    17  0.02
      P1  H  6931  6943       L1     1  0.74
      P1  H  6934  6947       L1     3  0.40

> <Gold.Chemscore.Hbond.Weighted>
-10.0103

> <Gold.Chemscore.Metal.Weighted>
-0.0000

> <Gold.Chemscore.Lipo.Weighted>
-2.2159

> <Gold.Chemscore.Internal_Hbond.Weighted>
0.0000

> <Gold.Chemscore.DEClash.Weighted>
0.5319

> <Gold.Chemscore.DEInternal.Weighted>
0.6599

> <Gold.Chemscore.Rot.Weighted>
7.2586

> <Gold.Chemscore.Internal.Correction.Weighted>
   9.000000E+99

> <Gold.Protein.RotatedTorsions>
[ 6907 6896 6895 6894 ] final  -78.25 input  -60.11 | X-H torsion
[ 7974 7965 7964 7962 ] final  133.54 input  175.53 | X-H torsion
[ 8008 7997 7996 7995 ] final  -46.69 input   59.86 | X-H torsion
[ 10167 10162 10161 10158 ] final -142.71 input  -65.29 | X-H torsion
[ 10718 10713 10712 10709 ] final -131.07 input   66.30 | X-H torsion
[ 10763 10752 10751 10750 ] final  -64.71 input  -60.55 | X-H torsion
[ 11005 11000 10999 10996 ] final -123.08 input  -57.11 | X-H torsion

> <Gold.Protein.ActiveResidues>
 VAL166  LYS551  ARG553  GLY616  TRP617  ASP618  TYR619  PRO620  LYS621  CYS622 
 ASP623  PHE694  ASN695  SER759  ASP760  ASP761  ALA762  ILE779  LEU786  VAL792 
 PHE793  MET794  SER795  GLU796  ALA797  LYS798  CYS799  TRP800  GLU811  SER814 

> <Gold.Protein.RotatedAtoms>
  150.6977  134.4300  159.5243 H   0  0  0  0  0  0  0  0  0  0  0  0  # atno 6907 bound_to 6896
  152.2028  134.8569  160.0515 H   0  0  0  0  0  0  0  0  0  0  0  0  # atno 6908 bound_to 6896
  151.9483  133.3623  159.4027 H   0  0  0  0  0  0  0  0  0  0  0  0  # atno 6909 bound_to 6896
  144.9855  139.4460  143.5365 H   0  0  0  0  0  0  0  0  0  0  0  0  # atno 7974 bound_to 7965
  154.4009  140.1365  156.4052 H   0  0  0  0  0  0  0  0  0  0  0  0  # atno 8008 bound_to 7997
  155.7786  140.3482  155.5265 H   0  0  0  0  0  0  0  0  0  0  0  0  # atno 8009 bound_to 7997
  155.8696  140.0969  157.1549 H   0  0  0  0  0  0  0  0  0  0  0  0  # atno 8010 bound_to 7997
  139.8062  143.7765  152.2661 H   0  0  0  0  0  0  0  0  0  0  0  0  # atno 10167 bound_to 10162
  156.2207  130.6977  151.0753 H   0  0  0  0  0  0  0  0  0  0  0  0  # atno 10718 bound_to 10713
  154.3342  135.6170  153.5565 H   0  0  0  0  0  0  0  0  0  0  0  0  # atno 10763 bound_to 10752
  152.9809  135.5754  154.4927 H   0  0  0  0  0  0  0  0  0  0  0  0  # atno 10764 bound_to 10752
  154.4619  135.2856  155.1683 H   0  0  0  0  0  0  0  0  0  0  0  0  # atno 10765 bound_to 10752
  140.9946  134.0490  157.3612 H   0  0  0  0  0  0  0  0  0  0  0  0  # atno 11005 bound_to 11000
  146.3419  139.9154  142.8774 LP  0  0  0  0  0  0  0  0  0  0  0  0  # atno 17320 bound_to 7965
  145.2360  140.9991  143.3963 LP  0  0  0  0  0  0  0  0  0  0  0  0  # atno 17321 bound_to 7965
  139.7900  144.7414  150.9968 LP  0  0  0  0  0  0  0  0  0  0  0  0  # atno 17342 bound_to 10162
  140.7819  143.4452  151.0493 LP  0  0  0  0  0  0  0  0  0  0  0  0  # atno 17343 bound_to 10162
  157.7086  131.0745  150.6580 LP  0  0  0  0  0  0  0  0  0  0  0  0  # atno 17370 bound_to 10713
  156.6643  130.4521  149.5677 LP  0  0  0  0  0  0  0  0  0  0  0  0  # atno 17371 bound_to 10713
  139.9009  135.0164  156.7261 LP  0  0  0  0  0  0  0  0  0  0  0  0  # atno 17394 bound_to 11000
  140.6985  133.9327  155.8010 LP  0  0  0  0  0  0  0  0  0  0  0  0  # atno 17395 bound_to 11000

$$$$
