AV-unprocessed.smi:1389|AV-procd|sdf|5653|dock10
  -GOLD-   22720 5273D 1   1.00000     0.00000
 Structure written by MMmdl.
 53 55  0  0  0  0  0  0  0  0  3 V2000
  150.7909  135.2061  156.5759 C   0  0  0  0  0  0  0  0  0  0  0  0
  150.4008  135.2278  155.0817 C   0  0  1  0  0  0  0  0  0  0  0  0
  149.5336  133.9849  154.7463 C   0  0  0  0  0  0  0  0  0  0  0  0
  148.2818  134.3072  154.0608 N   0  0  0  0  0  0  0  0  0  0  0  0
  147.6135  133.4809  153.2429 C   0  0  0  0  0  0  0  0  0  0  0  0
  147.9543  132.3193  153.0225 O   0  0  0  0  0  0  0  0  0  0  0  0
  146.5524  134.0903  152.6874 N   0  0  0  0  0  0  0  0  0  0  0  0
  145.6580  133.5602  151.7137 C   0  0  0  0  0  0  0  0  0  0  0  0
  146.0550  132.5047  150.8527 C   0  0  0  0  0  0  0  0  0  0  0  0
  145.1613  132.0145  149.8820 C   0  0  0  0  0  0  0  0  0  0  0  0
  143.8801  132.5837  149.7887 C   0  0  0  0  0  0  0  0  0  0  0  0
  143.5246  133.5720  150.6352 N   0  3  0  0  0  0  0  0  0  0  0  0
  144.3340  134.0768  151.5998 C   0  0  0  0  0  0  0  0  0  0  0  0
  143.8184  135.1052  152.4213 N   0  0  0  0  0  0  0  0  0  0  0  0
  143.9818  136.5041  152.0427 C   0  0  0  0  0  0  0  0  0  0  0  0
  143.0189  137.2727  152.9434 C   0  0  0  0  0  0  0  0  0  0  0  0
  141.8481  136.3033  153.0729 C   0  0  0  0  0  0  0  0  0  0  0  0
  142.5141  134.9232  153.0505 C   0  0  0  0  0  0  0  0  0  0  0  0
  149.7589  136.5212  154.6763 N   0  3  0  0  0  0  0  0  0  0  0  0
  148.6012  136.9097  155.5292 C   0  0  0  0  0  0  0  0  0  0  0  0
  147.9819  138.2388  155.0655 C   0  0  0  0  0  0  0  0  0  0  0  0
  148.9716  139.2558  155.0633 O   0  0  0  0  0  0  0  0  0  0  0  0
  150.0220  138.9531  154.1585 C   0  0  0  0  0  0  0  0  0  0  0  0
  150.7214  137.6546  154.5938 C   0  0  0  0  0  0  0  0  0  0  0  0
  151.1289  134.2146  156.8788 H   0  0  0  0  0  0  0  0  0  0  0  0
  149.9503  135.4765  157.2155 H   0  0  0  0  0  0  0  0  0  0  0  0
  151.6149  135.8850  156.7946 H   0  0  0  0  0  0  0  0  0  0  0  0
  151.3277  135.1319  154.5138 H   0  0  0  0  0  0  0  0  0  0  0  0
  150.0907  133.3004  154.1071 H   0  0  0  0  0  0  0  0  0  0  0  0
  149.3358  133.4073  155.6510 H   0  0  0  0  0  0  0  0  0  0  0  0
  147.9320  135.2473  154.1748 H   0  0  0  0  0  0  0  0  0  0  0  0
  146.4522  135.0758  152.8815 H   0  0  0  0  0  0  0  0  0  0  0  0
  147.0358  132.0592  150.9249 H   0  0  0  0  0  0  0  0  0  0  0  0
  145.4564  131.2152  149.2179 H   0  0  0  0  0  0  0  0  0  0  0  0
  143.1302  132.2760  149.0740 H   0  0  0  0  0  0  0  0  0  0  0  0
  145.0121  136.8359  152.1748 H   0  0  0  0  0  0  0  0  0  0  0  0
  143.7028  136.6525  150.9987 H   0  0  0  0  0  0  0  0  0  0  0  0
  143.4735  137.4406  153.9207 H   0  0  0  0  0  0  0  0  0  0  0  0
  142.7308  138.2400  152.5311 H   0  0  0  0  0  0  0  0  0  0  0  0
  141.2519  136.4723  153.9702 H   0  0  0  0  0  0  0  0  0  0  0  0
  141.1904  136.4086  152.2088 H   0  0  0  0  0  0  0  0  0  0  0  0
  141.8989  134.1945  152.5210 H   0  0  0  0  0  0  0  0  0  0  0  0
  142.6644  134.5665  154.0699 H   0  0  0  0  0  0  0  0  0  0  0  0
  147.8186  136.1535  155.4931 H   0  0  0  0  0  0  0  0  0  0  0  0
  148.9247  136.9923  156.5680 H   0  0  0  0  0  0  0  0  0  0  0  0
  147.5407  138.1386  154.0725 H   0  0  0  0  0  0  0  0  0  0  0  0
  147.1782  138.5326  155.7410 H   0  0  0  0  0  0  0  0  0  0  0  0
  149.6337  138.8664  153.1423 H   0  0  0  0  0  0  0  0  0  0  0  0
  150.7335  139.7792  154.1569 H   0  0  0  0  0  0  0  0  0  0  0  0
  151.1999  137.7983  155.5639 H   0  0  0  0  0  0  0  0  0  0  0  0
  151.5113  137.4447  153.8747 H   0  0  0  0  0  0  0  0  0  0  0  0
  149.3931  136.3821  153.7453 H   0  0  0  0  0  0  0  0  0  0  0  0
  142.5843  133.9579  150.5484 H   0  0  0  0  0  0  0  0  0  0  0  0
  1  2  1  0  0  0  0
  1 25  1  0  0  0  0
  1 26  1  0  0  0  0
  1 27  1  0  0  0  0
  2  3  1  0  0  0  0
  2 19  1  0  0  0  0
  2 28  1  0  0  0  0
  3  4  1  0  0  0  0
  3 29  1  0  0  0  0
  3 30  1  0  0  0  0
  4  5  1  0  0  0  0
  4 31  1  0  0  0  0
  5  6  2  0  0  0  0
  5  7  1  0  0  0  0
  7  8  1  0  0  0  0
  7 32  1  0  0  0  0
  8 13  1  0  0  0  0
  8  9  2  0  0  0  0
  9 10  1  0  0  0  0
  9 33  1  0  0  0  0
 10 11  2  0  0  0  0
 10 34  1  0  0  0  0
 11 12  1  0  0  0  0
 11 35  1  0  0  0  0
 12 13  2  0  0  0  0
 12 53  1  0  0  0  0
 13 14  1  0  0  0  0
 14 18  1  0  0  0  0
 14 15  1  0  0  0  0
 15 16  1  0  0  0  0
 15 36  1  0  0  0  0
 15 37  1  0  0  0  0
 16 17  1  0  0  0  0
 16 38  1  0  0  0  0
 16 39  1  0  0  0  0
 17 18  1  0  0  0  0
 17 40  1  0  0  0  0
 17 41  1  0  0  0  0
 18 42  1  0  0  0  0
 18 43  1  0  0  0  0
 19 24  1  0  0  0  0
 19 20  1  0  0  0  0
 19 52  1  0  0  0  0
 20 21  1  0  0  0  0
 20 44  1  0  0  0  0
 20 45  1  0  0  0  0
 21 22  1  0  0  0  0
 21 46  1  0  0  0  0
 21 47  1  0  0  0  0
 22 23  1  0  0  0  0
 23 24  1  0  0  0  0
 23 48  1  0  0  0  0
 23 49  1  0  0  0  0
 24 50  1  0  0  0  0
 24 51  1  0  0  0  0
M  CHG  1  12   1
M  CHG  1  19   1
M  END
> <s_m_source_file>
AV-unprocessed.smi

> <i_m_source_file_index>
1389

> <i_lp_mmshare_version>
43012

> <i_f3d_flags>
0

> <s_epik_input>
W0NIMl0xW0NIMl1PW0NIMl1bQ0gyXU4xW0NASF0oW0NIM10pW0NIMl1bTkhdQyg9TylbTkhdYzJbY0hdW2NIXVtjSF1uYzJOM1tDSDJdW0NIMl1bQ0gyXVtDSDJdMw==

> <s_epik_cmdline>
J2VwaWtfcHl0aG9uJywgJy1waCcsICc3LjAnLCAnLXRuJywgJzgnLCAnLW1hJywgJzIwMCcsICctbWV0YWxfYmluZGluZycsICctaW1hZScsICc8aW5maWxlLm1hZT4nLCAnLW9tYWUnLCAnPG91dGZpbGUubWFlPic=

> <r_lp_tautomer_probability>
0.999994

> <r_epik_Ionization_Penalty>
1.80872

> <r_epik_Ionization_Penalty_Charging>
1.8087

> <r_epik_Ionization_Penalty_Neutral>
2.02981e-05

> <r_epik_State_Penalty>
1.84892

> <r_epik_Charging_Adjusted_Penalty>
3.65762

> <i_epik_Tot_Q>
2

> <i_epik_Tot_abs_Q>
2

> <r_epik_Metal_State_Penalty>
1.9311

> <b_epik_Metal_Only>
0

> <s_lp_Force_Field>
OPLS_2005

> <r_lp_Energy>
68.1678

> <b_lp_Chiralities_Consistent>
1

> <s_lp_Variant>
AV-unprocessed.smi:1389-8

> <Gold.Version>
5.8.1

> <Gold.Id.Protein>
6NUR|6NUR_protein|mol2

> <Gold.PLP.Fitness>
49.9724

> <Gold.PLP.PLP>
-40.8882

> <Gold.PLP.part.hbond>
-3.1451

> <Gold.PLP.part.metal>
0.0000

> <Gold.PLP.part.buried>
-7.3585

> <Gold.PLP.part.nonpolar>
-31.9222

> <Gold.PLP.part.repulsive>
0.4286

> <Gold.PLP.ligand.clash>
0.0000

> <Gold.PLP.ligand.torsion>
1.6818

> <Gold.PLP.Chemscore.Hbond>
4.0000

> <Gold.PLP.Chemscore.CHOScore>
0.0000

> <Gold.PLP.Chemscore.Metal>
0.0000

> <Gold.Chemscore.Hbonds>
donor molecule, donor type, donor heavy atom, donor atom, acceptor molecule, acceptor atom, score
      L1  H    12    53       P1 10186  2.00
      L1  H    19    52       P1  7948  2.00

> <Gold.PLP.Chemscore.Internal.Correction>
0.4478

> <Gold.Rescore>
     Score         DG    S(hbond)    S(metal)    S(lipo)     H(rot)  DE(clash)    DE(int)     intcor
     15.01     -17.94       1.91        0.00      88.32       1.66       0.02       2.92       ----

> <Gold.Chemscore.Fitness>
15.0060

> <Gold.Chemscore.DG>
-17.9437

> <Gold.Chemscore.ZeroCoef>
-5.4800

> <Gold.Chemscore.Hbond>
1.9117

> <Gold.Chemscore.Metal>
0.0000

> <Gold.Chemscore.Lipo>
88.3172

> <Gold.Chemscore.Internal_Hbond>
0.0000

> <Gold.Chemscore.DEClash>
0.0170

> <Gold.Chemscore.DEInternal>
2.9207

> <Gold.Chemscore.Rot>
1.6620

> <Gold.Chemscore.Internal.Correction>
   9.000000E+99

> <Gold.Chemscore.Hbonds>
donor molecule, donor type, donor heavy atom, donor atom, acceptor molecule, acceptor atom, score
      L1  H    12    53       P1 10186  0.83
      L1  H    19    52       P1  7948  0.82

> <Gold.Chemscore.Hbond.Weighted>
-6.3852

> <Gold.Chemscore.Metal.Weighted>
-0.0000

> <Gold.Chemscore.Lipo.Weighted>
-10.3331

> <Gold.Chemscore.Internal_Hbond.Weighted>
0.0000

> <Gold.Chemscore.DEClash.Weighted>
0.0170

> <Gold.Chemscore.DEInternal.Weighted>
2.9207

> <Gold.Chemscore.Rot.Weighted>
4.2547

> <Gold.Chemscore.Internal.Correction.Weighted>
   9.000000E+99

> <Gold.Protein.RotatedTorsions>
[ 6907 6896 6895 6894 ] final  115.73 input  -60.11 | X-H torsion
[ 7974 7965 7964 7962 ] final  -62.55 input  175.53 | X-H torsion
[ 8008 7997 7996 7995 ] final  -67.13 input   59.86 | X-H torsion
[ 10167 10162 10161 10158 ] final  -28.34 input  -65.29 | X-H torsion
[ 10718 10713 10712 10709 ] final   -0.11 input   66.30 | X-H torsion
[ 10763 10752 10751 10750 ] final  103.77 input  -60.55 | X-H torsion
[ 11005 11000 10999 10996 ] final -172.23 input  -57.11 | X-H torsion

> <Gold.Protein.ActiveResidues>
 VAL166  LYS551  ARG553  GLY616  TRP617  ASP618  TYR619  PRO620  LYS621  CYS622 
 ASP623  PHE694  ASN695  SER759  ASP760  ASP761  ALA762  ILE779  LEU786  VAL792 
 PHE793  MET794  SER795  GLU796  ALA797  LYS798  CYS799  TRP800  GLU811  SER814 

> <Gold.Protein.RotatedAtoms>
  152.4723  133.8058  159.6976 H   0  0  0  0  0  0  0  0  0  0  0  0  # atno 6907 bound_to 6896
  150.8719  133.7483  159.2965 H   0  0  0  0  0  0  0  0  0  0  0  0  # atno 6908 bound_to 6896
  151.5015  135.1065  159.9882 H   0  0  0  0  0  0  0  0  0  0  0  0  # atno 6909 bound_to 6896
  145.7900  140.8715  143.0286 H   0  0  0  0  0  0  0  0  0  0  0  0  # atno 7974 bound_to 7965
  154.4780  140.0899  156.7308 H   0  0  0  0  0  0  0  0  0  0  0  0  # atno 8008 bound_to 7997
  155.4546  140.3458  155.4287 H   0  0  0  0  0  0  0  0  0  0  0  0  # atno 8009 bound_to 7997
  156.1146  140.1457  156.9279 H   0  0  0  0  0  0  0  0  0  0  0  0  # atno 8010 bound_to 7997
  140.7270  143.4018  151.1252 H   0  0  0  0  0  0  0  0  0  0  0  0  # atno 10167 bound_to 10162
  156.8252  130.5470  149.5693 H   0  0  0  0  0  0  0  0  0  0  0  0  # atno 10718 bound_to 10713
  153.3571  135.3965  155.1690 H   0  0  0  0  0  0  0  0  0  0  0  0  # atno 10763 bound_to 10752
  154.8672  135.3670  154.5148 H   0  0  0  0  0  0  0  0  0  0  0  0  # atno 10764 bound_to 10752
  153.5604  135.7081  153.5610 H   0  0  0  0  0  0  0  0  0  0  0  0  # atno 10765 bound_to 10752
  140.4993  134.5909  157.4982 H   0  0  0  0  0  0  0  0  0  0  0  0  # atno 11005 bound_to 11000
  144.6783  140.0109  143.7484 LP  0  0  0  0  0  0  0  0  0  0  0  0  # atno 17320 bound_to 7965
  145.9987  139.3073  143.0941 LP  0  0  0  0  0  0  0  0  0  0  0  0  # atno 17321 bound_to 7965
  139.7639  143.8595  152.3106 LP  0  0  0  0  0  0  0  0  0  0  0  0  # atno 17342 bound_to 10162
  139.8490  144.7173  150.9237 LP  0  0  0  0  0  0  0  0  0  0  0  0  # atno 17343 bound_to 10162
  156.0965  130.5936  150.9823 LP  0  0  0  0  0  0  0  0  0  0  0  0  # atno 17370 bound_to 10713
  157.6436  131.0907  150.8201 LP  0  0  0  0  0  0  0  0  0  0  0  0  # atno 17371 bound_to 10713
  139.9722  134.7273  156.0018 LP  0  0  0  0  0  0  0  0  0  0  0  0  # atno 17394 bound_to 11000
  141.1444  133.6559  156.3823 LP  0  0  0  0  0  0  0  0  0  0  0  0  # atno 17395 bound_to 11000

$$$$
