#       Name:                AV-unprocessed.smi:1351
#       Creating user name   scv26
#       Creation time:       Fri Mar 27 05:11:41 2020


#       File generated by GOLD software.
#

@<TRIPOS>MOLECULE
AV-unprocessed.smi:1351
    39    40     1
SMALL
NO_CHARGES


@<TRIPOS>ATOM
      1 ****        -5.3628  -0.8911  -0.2054 C.3            1 S1                 0.0000
      2 ****        -4.5022   0.1359   0.3689 N.pl3          1 S1                 0.0000
      3 ****        -5.0940   1.3030   1.0150 C.3            1 S1                 0.0000
      4 ****        -3.0966  -0.0117   0.3335 C.ar           1 S1                 0.0000
      5 ****        -2.4854  -1.1348  -0.2776 C.ar           1 S1                 0.0000
      6 ****        -1.0809  -1.2365  -0.2890 C.ar           1 S1                 0.0000
      7 ****        -0.3133  -0.2085   0.3046 C.ar           1 S1                 0.0000
      8 ****         1.1060  -0.2031   0.3757 N.am           1 S1                 0.0000
      9 ****         1.9939  -0.8579  -0.3966 C.2            1 S1                 0.0000
     10 ****         1.6875  -1.6022  -1.3277 O.2            1 S1                 0.0000
     11 ****         3.4789  -0.6425  -0.0645 C.3            1 S1                 0.0000
     12 ****         4.3791  -0.4097  -1.2939 C.3            1 S1                 0.0000
     13 ****         5.0794   0.9069  -0.9997 C.3            1 S1                 0.0000
     14 ****         4.9441   1.0341   0.5111 C.3            1 S1                 0.0000
     15 ****         3.6436   0.5223   0.7433 O.3            1 S1                 0.0000
     16 ****        -1.0088   0.8616   0.8999 C.ar           1 S1                 0.0000
     17 ****        -2.3539   0.9635   0.9122 N.ar           1 S1                 0.0000
     18 ****        -5.1926  -1.8511   0.2831 H              1 S1                 0.0000
     19 ****        -5.1678  -1.0016  -1.2724 H              1 S1                 0.0000
     20 ****        -6.4166  -0.6399  -0.0848 H              1 S1                 0.0000
     21 ****        -4.8249   1.3333   2.0714 H              1 S1                 0.0000
     22 ****        -6.1819   1.2869   0.9476 H              1 S1                 0.0000
     23 ****        -4.7452   2.2217   0.5422 H              1 S1                 0.0000
     24 ****        -3.0644  -1.9225  -0.7350 H              1 S1                 0.0000
     25 ****        -0.6267  -2.1053  -0.7390 H              1 S1                 0.0000
     26 ****         1.5043   0.4291   1.0555 H              1 S1                 0.0000
     27 ****         3.8410  -1.5044   0.4979 H              1 S1                 0.0000
     28 ****         5.1056  -1.2186  -1.3801 H              1 S1                 0.0000
     29 ****         3.8350  -0.3559  -2.2379 H              1 S1                 0.0000
     30 ****         6.1159   0.9255  -1.3379 H              1 S1                 0.0000
     31 ****         4.5481   1.7258  -1.4865 H              1 S1                 0.0000
     32 ****         5.6827   0.4184   1.0268 H              1 S1                 0.0000
     33 ****         5.0418   2.0624   0.8594 H              1 S1                 0.0000
     34 ****        -0.4705   1.6668   1.3783 H              1 S1                 0.0000
     35 ****         0.7246  -1.7522  -1.5518 LP             1 S1                 0.0000
     36 ****         2.4015  -2.0569  -1.8600 LP             1 S1                 0.0000
     37 ****         3.5401   0.2834   1.7089 LP             1 S1                 0.0000
     38 ****         2.9595   1.2078   0.4943 LP             1 S1                 0.0000
     39 ****        -2.7978   1.7491   1.3432 LP             1 S1                 0.0000
@<TRIPOS>BOND
    1    1    2 1     
    2    1   18 1     
    3    1   19 1     
    4    1   20 1     
    5    2    3 1     
    6    2    4 1     
    7    3   21 1     
    8    3   22 1     
    9    3   23 1     
   10    4   17 ar    
   11    4    5 ar    
   12    5    6 ar    
   13    5   24 1     
   14    6    7 ar    
   15    6   25 1     
   16    7    8 1     
   17    7   16 ar    
   18    8    9 am    
   19    8   26 1     
   20    9   10 2     
   21    9   11 1     
   22   11   15 1     
   23   11   12 1     
   24   11   27 1     
   25   12   13 1     
   26   12   28 1     
   27   12   29 1     
   28   13   14 1     
   29   13   30 1     
   30   13   31 1     
   31   14   15 1     
   32   14   32 1     
   33   14   33 1     
   34   16   17 ar    
   35   16   34 1     
   36   10   35 1     
   37   10   36 1     
   38   15   37 1     
   39   15   38 1     
   40   17   39 1     
@<TRIPOS>SUBSTRUCTURE
      1 S1             1
@<TRIPOS>SET
LONE_PAIRS      STATIC     ATOMS    <user>   **** ""
5 35 36 37 38 39
DONOR_HYDROGENS      STATIC     ATOMS    <user>   **** ""
1 26
ATOM$BLUE        STATIC     ATOMS    COLORGROUP SYSTEM
5 35 36 37 38 39
ATOM$RED        STATIC     ATOMS    COLORGROUP SYSTEM
1 26
