AV-unprocessed.smi:544|AV-procd|sdf|2879|dock6
  -GOLD-   2262023373D 1   1.00000     0.00000
 Structure written by MMmdl.
 48 50  0  0  0  0  0  0  0  0  2 V2000
  154.2405  136.8819  164.1035 C   0  0  0  0  0  0  0  0  0  0  0  0
  153.8650  136.6474  162.6387 C   0  0  0  0  0  0  0  0  0  0  0  0
  154.3309  137.7396  161.8648 O   0  0  0  0  0  0  0  0  0  0  0  0
  153.5157  137.9960  160.7337 C   0  0  0  0  0  0  0  0  0  0  0  0
  154.1336  139.1547  159.9335 C   0  0  0  0  0  0  0  0  0  0  0  0
  153.2380  139.6557  158.8940 N   0  0  0  0  0  0  0  0  0  0  0  0
  152.6623  140.8881  158.7741 C   0  0  0  0  0  0  0  0  0  0  0  0
  152.8734  141.9393  159.6785 N   0  0  0  0  0  0  0  0  0  0  0  0
  153.4469  141.8616  161.0247 C   0  0  0  0  0  0  0  0  0  0  0  0
  152.5788  142.5900  162.0662 C   0  0  0  0  0  0  0  0  0  0  0  0
  152.3913  144.0605  161.6753 C   0  0  0  0  0  0  0  0  0  0  0  0
  151.8786  144.1601  160.2293 C   0  0  1  0  0  0  0  0  0  0  0  0
  151.7590  145.6205  159.7741 C   0  0  0  0  0  0  0  0  0  0  0  0
  152.7945  143.3497  159.2895 C   0  0  0  0  0  0  0  0  0  0  0  0
  151.8399  141.0055  157.7280 N   0  0  0  0  0  0  0  0  0  0  0  0
  151.9046  139.7614  157.1246 C   0  0  0  0  0  0  0  0  0  0  0  0
  152.7289  138.9274  157.8114 C   0  0  0  0  0  0  0  0  0  0  0  0
  152.9706  137.5171  157.4291 C   0  0  0  0  0  0  0  0  0  0  0  0
  153.7040  136.7924  158.0983 O   0  0  0  0  0  0  0  0  0  0  0  0
  152.2920  137.1648  156.2913 N   0  5  0  0  0  0  0  0  0  0  0  0
  151.4557  137.9812  155.5612 C   0  0  0  0  0  0  0  0  0  0  0  0
  150.8826  137.5839  154.5458 O   0  0  0  0  0  0  0  0  0  0  0  0
  151.2457  139.2738  155.9632 N   0  0  0  0  0  0  0  0  0  0  0  0
  150.3579  140.1637  155.2095 C   0  0  0  0  0  0  0  0  0  0  0  0
  153.8952  136.0594  164.7299 H   0  0  0  0  0  0  0  0  0  0  0  0
  153.7916  137.8011  164.4802 H   0  0  0  0  0  0  0  0  0  0  0  0
  155.3213  136.9627  164.2220 H   0  0  0  0  0  0  0  0  0  0  0  0
  154.3117  135.7171  162.2850 H   0  0  0  0  0  0  0  0  0  0  0  0
  152.7824  136.5524  162.5426 H   0  0  0  0  0  0  0  0  0  0  0  0
  153.4376  137.0976  160.1219 H   0  0  0  0  0  0  0  0  0  0  0  0
  152.5045  138.2456  161.0544 H   0  0  0  0  0  0  0  0  0  0  0  0
  154.3933  139.9768  160.5999 H   0  0  0  0  0  0  0  0  0  0  0  0
  155.0781  138.8540  159.4880 H   0  0  0  0  0  0  0  0  0  0  0  0
  153.6013  140.8296  161.3234 H   0  0  0  0  0  0  0  0  0  0  0  0
  154.4421  142.3075  161.0032 H   0  0  0  0  0  0  0  0  0  0  0  0
  151.6051  142.1067  162.1490 H   0  0  0  0  0  0  0  0  0  0  0  0
  153.0422  142.5222  163.0509 H   0  0  0  0  0  0  0  0  0  0  0  0
  151.6981  144.5469  162.3622 H   0  0  0  0  0  0  0  0  0  0  0  0
  153.3437  144.5847  161.7670 H   0  0  0  0  0  0  0  0  0  0  0  0
  150.8813  143.7188  160.1902 H   0  0  0  0  0  0  0  0  0  0  0  0
  152.7286  146.1192  159.7837 H   0  0  0  0  0  0  0  0  0  0  0  0
  151.0888  146.1811  160.4264 H   0  0  0  0  0  0  0  0  0  0  0  0
  151.3617  145.6844  158.7607 H   0  0  0  0  0  0  0  0  0  0  0  0
  153.7989  143.7751  159.2752 H   0  0  0  0  0  0  0  0  0  0  0  0
  152.4141  143.4284  158.2706 H   0  0  0  0  0  0  0  0  0  0  0  0
  150.7223  140.2907  154.1894 H   0  0  0  0  0  0  0  0  0  0  0  0
  150.2795  141.1555  155.6534 H   0  0  0  0  0  0  0  0  0  0  0  0
  149.3503  139.7484  155.1628 H   0  0  0  0  0  0  0  0  0  0  0  0
  1  2  1  0  0  0  0
  1 25  1  0  0  0  0
  1 26  1  0  0  0  0
  1 27  1  0  0  0  0
  2  3  1  0  0  0  0
  2 28  1  0  0  0  0
  2 29  1  0  0  0  0
  3  4  1  0  0  0  0
  4  5  1  0  0  0  0
  4 30  1  0  0  0  0
  4 31  1  0  0  0  0
  5  6  1  0  0  0  0
  5 32  1  0  0  0  0
  5 33  1  0  0  0  0
  6 17  1  0  0  0  0
  6  7  1  0  0  0  0
  7  8  1  0  0  0  0
  7 15  2  0  0  0  0
  8 14  1  0  0  0  0
  8  9  1  0  0  0  0
  9 10  1  0  0  0  0
  9 34  1  0  0  0  0
  9 35  1  0  0  0  0
 10 11  1  0  0  0  0
 10 36  1  0  0  0  0
 10 37  1  0  0  0  0
 11 12  1  0  0  0  0
 11 38  1  0  0  0  0
 11 39  1  0  0  0  0
 12 13  1  0  0  0  0
 12 14  1  0  0  0  0
 12 40  1  0  0  0  0
 13 41  1  0  0  0  0
 13 42  1  0  0  0  0
 13 43  1  0  0  0  0
 14 44  1  0  0  0  0
 14 45  1  0  0  0  0
 15 16  1  0  0  0  0
 16 23  1  0  0  0  0
 16 17  2  0  0  0  0
 17 18  1  0  0  0  0
 18 19  2  0  0  0  0
 18 20  1  0  0  0  0
 20 21  1  0  0  0  0
 21 22  2  0  0  0  0
 21 23  1  0  0  0  0
 23 24  1  0  0  0  0
 24 46  1  0  0  0  0
 24 47  1  0  0  0  0
 24 48  1  0  0  0  0
M  CHG  1  20  -1
M  END
> <s_m_source_file>
AV-unprocessed.smi

> <i_m_source_file_index>
544

> <i_lp_mmshare_version>
43012

> <i_f3d_flags>
0

> <s_epik_input>
W0NIM11uMWMoPU8pW25IXWMoPU8pYyhjMTIpbihbQ0gyXVtDSDJdT1tDSDJdW0NIM10pYyhuMilOM1tDSDJdW0NIMl1bQ0gyXVtDQEBIXShbQ0gzXSlbQ0gyXTM=

> <s_epik_cmdline>
J2VwaWtfcHl0aG9uJywgJy1waCcsICc3LjAnLCAnLXRuJywgJzgnLCAnLW1hJywgJzIwMCcsICctbWV0YWxfYmluZGluZycsICctaW1hZScsICc8aW5maWxlLm1hZT4nLCAnLW9tYWUnLCAnPG91dGZpbGUubWFlPic=

> <r_lp_tautomer_probability>
1

> <r_epik_Ionization_Penalty>
5.1213

> <r_epik_Ionization_Penalty_Charging>
0.0741877

> <r_epik_Ionization_Penalty_Neutral>
5.04711

> <r_epik_State_Penalty>
5.04142

> <r_epik_Charging_Adjusted_Penalty>
5.11561

> <i_epik_Tot_Q>
-1

> <i_epik_Tot_abs_Q>
1

> <r_epik_Metal_State_Penalty>
1.14934

> <b_epik_Metal_Only>
1

> <s_lp_Force_Field>
OPLS_2005

> <r_lp_Energy>
41.9091

> <b_lp_Chiralities_Consistent>
1

> <s_lp_Variant>
AV-unprocessed.smi:544-3

> <Gold.Version>
5.8.1

> <Gold.Id.Protein>
6NUR|6NUR_protein|mol2

> <Gold.PLP.Fitness>
57.2307

> <Gold.PLP.PLP>
-52.2330

> <Gold.PLP.part.hbond>
-1.7232

> <Gold.PLP.part.metal>
0.0000

> <Gold.PLP.part.buried>
-5.2431

> <Gold.PLP.part.nonpolar>
-45.4848

> <Gold.PLP.part.repulsive>
0.1431

> <Gold.PLP.ligand.clash>
0.0574

> <Gold.PLP.ligand.torsion>
0.4741

> <Gold.PLP.Chemscore.Hbond>
1.9520

> <Gold.PLP.Chemscore.CHOScore>
0.0000

> <Gold.PLP.Chemscore.Metal>
0.0000

> <Gold.Chemscore.Hbonds>
donor molecule, donor type, donor heavy atom, donor atom, acceptor molecule, acceptor atom, score
      P1  H 10752 10765       L1    20  0.57

> <Gold.PLP.Chemscore.Internal.Correction>
0.1471

> <Gold.Rescore>
     Score         DG    S(hbond)    S(metal)    S(lipo)     H(rot)  DE(clash)    DE(int)     intcor
     15.35     -17.00       0.67        0.00     113.49       1.55       0.00       1.65       ----

> <Gold.Chemscore.Fitness>
15.3530

> <Gold.Chemscore.DG>
-17.0045

> <Gold.Chemscore.ZeroCoef>
-5.4800

> <Gold.Chemscore.Hbond>
0.6655

> <Gold.Chemscore.Metal>
0.0000

> <Gold.Chemscore.Lipo>
113.4923

> <Gold.Chemscore.Internal_Hbond>
0.0000

> <Gold.Chemscore.DEClash>
0.0004

> <Gold.Chemscore.DEInternal>
1.6511

> <Gold.Chemscore.Rot>
1.5534

> <Gold.Chemscore.Internal.Correction>
   9.000000E+99

> <Gold.Chemscore.Hbonds>
donor molecule, donor type, donor heavy atom, donor atom, acceptor molecule, acceptor atom, score
      P1  H 10752 10765       L1    20  0.21

> <Gold.Chemscore.Hbond.Weighted>
-2.2227

> <Gold.Chemscore.Metal.Weighted>
-0.0000

> <Gold.Chemscore.Lipo.Weighted>
-13.2786

> <Gold.Chemscore.Internal_Hbond.Weighted>
0.0000

> <Gold.Chemscore.DEClash.Weighted>
0.0004

> <Gold.Chemscore.DEInternal.Weighted>
1.6511

> <Gold.Chemscore.Rot.Weighted>
3.9768

> <Gold.Chemscore.Internal.Correction.Weighted>
   9.000000E+99

> <Gold.Protein.RotatedTorsions>
[ 6907 6896 6895 6894 ] final  -49.78 input  -60.11 | X-H torsion
[ 7974 7965 7964 7962 ] final  -51.42 input  175.53 | X-H torsion
[ 8008 7997 7996 7995 ] final  -84.31 input   59.86 | X-H torsion
[ 10167 10162 10161 10158 ] final   72.75 input  -65.29 | X-H torsion
[ 10718 10713 10712 10709 ] final -116.94 input   66.30 | X-H torsion
[ 10763 10752 10751 10750 ] final -131.98 input  -60.55 | X-H torsion
[ 11005 11000 10999 10996 ] final  138.65 input  -57.11 | X-H torsion

> <Gold.Protein.ActiveResidues>
 VAL166  LYS551  ARG553  GLY616  TRP617  ASP618  TYR619  PRO620  LYS621  CYS622 
 ASP623  PHE694  ASN695  SER759  ASP760  ASP761  ALA762  ILE779  LEU786  VAL792 
 PHE793  MET794  SER795  GLU796  ALA797  LYS798  CYS799  TRP800  GLU811  SER814 

> <Gold.Protein.RotatedAtoms>
  150.8771  134.8156  159.7197 H   0  0  0  0  0  0  0  0  0  0  0  0  # atno 6907 bound_to 6896
  152.4754  134.4854  159.9688 H   0  0  0  0  0  0  0  0  0  0  0  0  # atno 6908 bound_to 6896
  151.4934  133.3481  159.2892 H   0  0  0  0  0  0  0  0  0  0  0  0  # atno 6909 bound_to 6896
  145.9191  140.7849  142.9656 H   0  0  0  0  0  0  0  0  0  0  0  0  # atno 7974 bound_to 7965
  154.6285  140.0606  156.9703 H   0  0  0  0  0  0  0  0  0  0  0  0  # atno 8008 bound_to 7997
  155.1704  140.3290  155.4375 H   0  0  0  0  0  0  0  0  0  0  0  0  # atno 8009 bound_to 7997
  156.2470  140.1915  156.6806 H   0  0  0  0  0  0  0  0  0  0  0  0  # atno 8010 bound_to 7997
  140.0319  144.5458  150.7500 H   0  0  0  0  0  0  0  0  0  0  0  0  # atno 10167 bound_to 10162
  156.0998  130.6163  150.9100 H   0  0  0  0  0  0  0  0  0  0  0  0  # atno 10718 bound_to 10713
  154.8747  135.3812  154.4336 H   0  0  0  0  0  0  0  0  0  0  0  0  # atno 10763 bound_to 10752
  153.5027  135.7030  153.5828 H   0  0  0  0  0  0  0  0  0  0  0  0  # atno 10764 bound_to 10752
  153.4152  135.3915  155.2043 H   0  0  0  0  0  0  0  0  0  0  0  0  # atno 10765 bound_to 10752
  140.0198  134.9401  157.0451 H   0  0  0  0  0  0  0  0  0  0  0  0  # atno 11005 bound_to 11000
  144.6751  140.1947  143.7393 LP  0  0  0  0  0  0  0  0  0  0  0  0  # atno 17320 bound_to 7965
  145.8573  139.2205  143.1737 LP  0  0  0  0  0  0  0  0  0  0  0  0  # atno 17321 bound_to 7965
  140.7298  143.2676  151.3992 LP  0  0  0  0  0  0  0  0  0  0  0  0  # atno 17342 bound_to 10162
  139.6070  144.1176  152.2259 LP  0  0  0  0  0  0  0  0  0  0  0  0  # atno 17343 bound_to 10162
  157.6167  131.0933  150.8698 LP  0  0  0  0  0  0  0  0  0  0  0  0  # atno 17370 bound_to 10713
  156.8828  130.5185  149.5290 LP  0  0  0  0  0  0  0  0  0  0  0  0  # atno 17371 bound_to 10713
  140.4406  134.1685  155.7173 LP  0  0  0  0  0  0  0  0  0  0  0  0  # atno 17394 bound_to 11000
  141.1767  133.8500  157.1398 LP  0  0  0  0  0  0  0  0  0  0  0  0  # atno 17395 bound_to 11000

$$$$
