AV-unprocessed.smi:2676|AV-procd|sdf|10364|dock4
  -GOLD-   2272014393D 1   1.00000     0.00000
 Structure written by MMmdl.
 40 41  0  0  0  0  0  0  0  0  1 V2000
  153.8389  141.0126  160.4597 C   0  0  0  0  0  0  0  0  0  0  0  0
  152.7141  140.5935  159.8612 C   0  0  0  0  0  0  0  0  0  0  0  0
  152.6029  139.3267  159.0320 C   0  0  0  0  0  0  0  0  0  0  0  0
  151.2383  139.1539  158.4850 N   0  0  0  0  0  0  0  0  0  0  0  0
  150.6821  140.1848  157.7806 C   0  0  0  0  0  0  0  0  0  0  0  0
  151.2855  141.2473  157.6030 O   0  0  0  0  0  0  0  0  0  0  0  0
  149.4201  139.9876  157.2940 N   0  0  0  0  0  0  0  0  0  0  0  0
  148.7760  141.0823  156.5338 C   0  0  0  0  0  0  0  0  0  0  0  0
  148.7067  140.7626  155.0512 C   0  0  0  0  0  0  0  0  0  0  0  0
  148.2374  141.6010  154.1155 C   0  0  0  0  0  0  0  0  0  0  0  0
  148.7031  138.8452  157.5135 C   0  0  0  0  0  0  0  0  0  0  0  0
  147.5494  138.7136  157.0935 O   0  0  0  0  0  0  0  0  0  0  0  0
  149.3194  137.8596  158.2334 N   0  0  0  0  0  0  0  0  0  0  0  0
  148.5633  136.6139  158.5171 C   0  0  0  0  0  0  0  0  0  0  0  0
  148.3012  136.3802  160.0141 C   0  0  0  0  0  0  0  0  0  0  0  0
  148.6225  137.2228  160.8538 O   0  0  0  0  0  0  0  0  0  0  0  0
  147.7077  135.2193  160.3261 N   0  0  0  0  0  0  0  0  0  0  0  0
  147.3595  134.7937  161.6430 C   0  0  0  0  0  0  0  0  0  0  0  0
  145.8984  134.5276  161.9334 C   0  0  0  0  0  0  0  0  0  0  0  0
  146.5620  135.7518  162.5013 C   0  0  0  0  0  0  0  0  0  0  0  0
  150.5801  137.9853  158.7470 C   0  0  0  0  0  0  0  0  0  0  0  0
  151.0941  137.0901  159.4244 O   0  0  0  0  0  0  0  0  0  0  0  0
  154.7577  140.4499  160.3845 H   0  0  0  0  0  0  0  0  0  0  0  0
  153.8536  141.9266  161.0347 H   0  0  0  0  0  0  0  0  0  0  0  0
  151.8149  141.1847  159.9576 H   0  0  0  0  0  0  0  0  0  0  0  0
  153.3525  139.3715  158.2403 H   0  0  0  0  0  0  0  0  0  0  0  0
  152.9103  138.4668  159.6300 H   0  0  0  0  0  0  0  0  0  0  0  0
  147.7626  141.2789  156.8873 H   0  0  0  0  0  0  0  0  0  0  0  0
  149.2901  142.0339  156.6817 H   0  0  0  0  0  0  0  0  0  0  0  0
  149.0603  139.7858  154.7537 H   0  0  0  0  0  0  0  0  0  0  0  0
  147.8745  142.5847  154.3749 H   0  0  0  0  0  0  0  0  0  0  0  0
  148.2117  141.3127  153.0750 H   0  0  0  0  0  0  0  0  0  0  0  0
  147.6040  136.6040  157.9967 H   0  0  0  0  0  0  0  0  0  0  0  0
  149.0779  135.7393  158.1151 H   0  0  0  0  0  0  0  0  0  0  0  0
  147.4809  134.5880  159.5712 H   0  0  0  0  0  0  0  0  0  0  0  0
  148.0753  134.1653  162.1714 H   0  0  0  0  0  0  0  0  0  0  0  0
  145.1837  134.6722  161.1251 H   0  0  0  0  0  0  0  0  0  0  0  0
  145.6644  133.7179  162.6216 H   0  0  0  0  0  0  0  0  0  0  0  0
  146.7698  135.7600  163.5695 H   0  0  0  0  0  0  0  0  0  0  0  0
  146.2893  136.7146  162.0730 H   0  0  0  0  0  0  0  0  0  0  0  0
  1  2  2  0  0  0  0
  1 23  1  0  0  0  0
  1 24  1  0  0  0  0
  2  3  1  0  0  0  0
  2 25  1  0  0  0  0
  3  4  1  0  0  0  0
  3 26  1  0  0  0  0
  3 27  1  0  0  0  0
  4 21  1  0  0  0  0
  4  5  1  0  0  0  0
  5  6  2  0  0  0  0
  5  7  1  0  0  0  0
  7  8  1  0  0  0  0
  7 11  1  0  0  0  0
  8  9  1  0  0  0  0
  8 28  1  0  0  0  0
  8 29  1  0  0  0  0
  9 10  2  0  0  0  0
  9 30  1  0  0  0  0
 10 31  1  0  0  0  0
 10 32  1  0  0  0  0
 11 12  2  0  0  0  0
 11 13  1  0  0  0  0
 13 14  1  0  0  0  0
 13 21  1  0  0  0  0
 14 15  1  0  0  0  0
 14 33  1  0  0  0  0
 14 34  1  0  0  0  0
 15 16  2  0  0  0  0
 15 17  1  0  0  0  0
 17 18  1  0  0  0  0
 17 35  1  0  0  0  0
 18 20  1  0  0  0  0
 18 19  1  0  0  0  0
 18 36  1  0  0  0  0
 19 20  1  0  0  0  0
 19 37  1  0  0  0  0
 19 38  1  0  0  0  0
 20 39  1  0  0  0  0
 20 40  1  0  0  0  0
 21 22  2  0  0  0  0
M  END
> <s_m_source_file>
AV-unprocessed.smi

> <i_m_source_file_index>
2676

> <i_lp_mmshare_version>
43012

> <i_f3d_flags>
0

> <s_epik_input>
W0NIMl09W0NIXVtDSDJdbjFjKD1PKW4oW0NIMl1bQ0hdPVtDSDJdKWMoPU8pbihjMT1PKVtDSDJdQyg9TylbTkhdW0NIXTJbQ0gyXVtDSDJdMg==

> <s_epik_cmdline>
J2VwaWtfcHl0aG9uJywgJy1waCcsICc3LjAnLCAnLXRuJywgJzgnLCAnLW1hJywgJzIwMCcsICctbWV0YWxfYmluZGluZycsICctaW1hZScsICc8aW5maWxlLm1hZT4nLCAnLW9tYWUnLCAnPG91dGZpbGUubWFlPic=

> <r_lp_tautomer_probability>
1

> <r_epik_Ionization_Penalty>
2.07961e-08

> <r_epik_Ionization_Penalty_Charging>
1.25795e-10

> <r_epik_Ionization_Penalty_Neutral>
2.06703e-08

> <r_epik_State_Penalty>
-0

> <r_epik_Charging_Adjusted_Penalty>
1.25795e-10

> <i_epik_Tot_Q>
0

> <i_epik_Tot_abs_Q>
0

> <r_epik_Metal_State_Penalty>
-0

> <b_epik_Metal_Only>
0

> <s_lp_Force_Field>
OPLS_2005

> <r_lp_Energy>
27.3169

> <b_lp_Chiralities_Consistent>
1

> <s_lp_Variant>
AV-unprocessed.smi:2676-1

> <Gold.Version>
5.8.1

> <Gold.Id.Protein>
6NUR|6NUR_protein|mol2

> <Gold.PLP.Fitness>
40.9690

> <Gold.PLP.PLP>
-35.8303

> <Gold.PLP.part.hbond>
-2.1969

> <Gold.PLP.part.metal>
0.0000

> <Gold.PLP.part.buried>
-6.4475

> <Gold.PLP.part.nonpolar>
-27.8391

> <Gold.PLP.part.repulsive>
0.1049

> <Gold.PLP.ligand.clash>
0.0000

> <Gold.PLP.ligand.torsion>
0.2760

> <Gold.PLP.Chemscore.Hbond>
1.8640

> <Gold.PLP.Chemscore.CHOScore>
0.0000

> <Gold.PLP.Chemscore.Metal>
0.0000

> <Gold.Chemscore.Hbonds>
donor molecule, donor type, donor heavy atom, donor atom, acceptor molecule, acceptor atom, score
      P1  H  6896  6907       L1    22  1.00
      P1  H  6931  6943       L1    16  0.84
      P1  H  6934  6947       L1    16  0.16

> <Gold.PLP.Chemscore.Internal.Correction>
0.0987

> <Gold.Rescore>
     Score         DG    S(hbond)    S(metal)    S(lipo)     H(rot)  DE(clash)    DE(int)     intcor
     13.01     -14.85       2.56        0.00      59.18       2.39       0.07       1.77       ----

> <Gold.Chemscore.Fitness>
13.0058

> <Gold.Chemscore.DG>
-14.8513

> <Gold.Chemscore.ZeroCoef>
-5.4800

> <Gold.Chemscore.Hbond>
2.5643

> <Gold.Chemscore.Metal>
0.0000

> <Gold.Chemscore.Lipo>
59.1834

> <Gold.Chemscore.Internal_Hbond>
0.0000

> <Gold.Chemscore.DEClash>
0.0750

> <Gold.Chemscore.DEInternal>
1.7705

> <Gold.Chemscore.Rot>
2.3899

> <Gold.Chemscore.Internal.Correction>
   9.000000E+99

> <Gold.Chemscore.Hbonds>
donor molecule, donor type, donor heavy atom, donor atom, acceptor molecule, acceptor atom, score
      P1  H  6896  6907       L1    22  0.95
      P1  H  6931  6943       L1    16  0.77
      P1  H  6934  6947       L1    16  0.14

> <Gold.Chemscore.Hbond.Weighted>
-8.5649

> <Gold.Chemscore.Metal.Weighted>
-0.0000

> <Gold.Chemscore.Lipo.Weighted>
-6.9245

> <Gold.Chemscore.Internal_Hbond.Weighted>
0.0000

> <Gold.Chemscore.DEClash.Weighted>
0.0750

> <Gold.Chemscore.DEInternal.Weighted>
1.7705

> <Gold.Chemscore.Rot.Weighted>
6.1181

> <Gold.Chemscore.Internal.Correction.Weighted>
   9.000000E+99

> <Gold.Protein.RotatedTorsions>
[ 6907 6896 6895 6894 ] final  -13.79 input  -60.11 | X-H torsion
[ 7974 7965 7964 7962 ] final  -63.33 input  175.53 | X-H torsion
[ 8008 7997 7996 7995 ] final -178.02 input   59.86 | X-H torsion
[ 10167 10162 10161 10158 ] final -154.01 input  -65.29 | X-H torsion
[ 10718 10713 10712 10709 ] final   -7.26 input   66.30 | X-H torsion
[ 10763 10752 10751 10750 ] final   96.95 input  -60.55 | X-H torsion
[ 11005 11000 10999 10996 ] final -113.05 input  -57.11 | X-H torsion

> <Gold.Protein.ActiveResidues>
 VAL166  LYS551  ARG553  GLY616  TRP617  ASP618  TYR619  PRO620  LYS621  CYS622 
 ASP623  PHE694  ASN695  SER759  ASP760  ASP761  ALA762  ILE779  LEU786  VAL792 
 PHE793  MET794  SER795  GLU796  ALA797  LYS798  CYS799  TRP800  GLU811  SER814 

> <Gold.Protein.RotatedAtoms>
  151.3495  135.0881  159.9397 H   0  0  0  0  0  0  0  0  0  0  0  0  # atno 6907 bound_to 6896
  152.5191  133.9367  159.7617 H   0  0  0  0  0  0  0  0  0  0  0  0  # atno 6908 bound_to 6896
  150.9739  133.6261  159.2763 H   0  0  0  0  0  0  0  0  0  0  0  0  # atno 6909 bound_to 6896
  145.7804  140.8765  143.0333 H   0  0  0  0  0  0  0  0  0  0  0  0  # atno 7974 bound_to 7965
  156.0139  140.1246  157.0426 H   0  0  0  0  0  0  0  0  0  0  0  0  # atno 8008 bound_to 7997
  154.4286  140.1082  156.5938 H   0  0  0  0  0  0  0  0  0  0  0  0  # atno 8009 bound_to 7997
  155.6041  140.3471  155.4605 H   0  0  0  0  0  0  0  0  0  0  0  0  # atno 8010 bound_to 7997
  139.7049  143.9203  152.2444 H   0  0  0  0  0  0  0  0  0  0  0  0  # atno 10167 bound_to 10162
  156.7198  130.5147  149.5871 H   0  0  0  0  0  0  0  0  0  0  0  0  # atno 10718 bound_to 10713
  153.2711  135.4200  155.0988 H   0  0  0  0  0  0  0  0  0  0  0  0  # atno 10763 bound_to 10752
  154.8456  135.3472  154.6243 H   0  0  0  0  0  0  0  0  0  0  0  0  # atno 10764 bound_to 10752
  153.6663  135.7046  153.5218 H   0  0  0  0  0  0  0  0  0  0  0  0  # atno 10765 bound_to 10752
  141.0638  133.9492  157.2617 H   0  0  0  0  0  0  0  0  0  0  0  0  # atno 11005 bound_to 11000
  144.6797  139.9980  143.7484 LP  0  0  0  0  0  0  0  0  0  0  0  0  # atno 17320 bound_to 7965
  146.0080  139.3146  143.0887 LP  0  0  0  0  0  0  0  0  0  0  0  0  # atno 17321 bound_to 7965
  139.9055  144.6887  150.8618 LP  0  0  0  0  0  0  0  0  0  0  0  0  # atno 17342 bound_to 10162
  140.7719  143.3481  151.2069 LP  0  0  0  0  0  0  0  0  0  0  0  0  # atno 17343 bound_to 10162
  156.1602  130.6369  151.0709 LP  0  0  0  0  0  0  0  0  0  0  0  0  # atno 17370 bound_to 10713
  157.6902  131.0812  150.7128 LP  0  0  0  0  0  0  0  0  0  0  0  0  # atno 17371 bound_to 10713
  139.9457  135.0184  156.8845 LP  0  0  0  0  0  0  0  0  0  0  0  0  # atno 17394 bound_to 11000
  140.5815  134.0348  155.7466 LP  0  0  0  0  0  0  0  0  0  0  0  0  # atno 17395 bound_to 11000

$$$$
