AV-unprocessed.smi:670|AV-procd|sdf|3270|dock2
  -GOLD-   22720 0223D 1   1.00000     0.00000
 Structure written by MMmdl.
 45 46  0  0  0  0  0  0  0  0  1 V2000
  147.6657  141.5398  154.1551 C   0  0  0  0  0  0  0  0  0  0  0  0
  149.0743  140.9558  154.3449 C   0  0  1  0  0  0  0  0  0  0  0  0
  149.6495  141.2885  155.7369 C   0  0  0  0  0  0  0  0  0  0  0  0
  151.0723  140.7329  155.9076 C   0  0  0  0  0  0  0  0  0  0  0  0
  151.1183  139.2225  155.6349 C   0  0  0  0  0  0  0  0  0  0  0  0
  150.5494  138.8906  154.2462 C   0  0  0  0  0  0  0  0  0  0  0  0
  149.1139  139.4345  154.0746 C   0  0  1  0  0  0  0  0  0  0  0  0
  148.2292  138.7940  154.9867 O   0  0  0  0  0  0  0  0  0  0  0  0
  148.0627  137.3997  154.7759 C   0  0  0  0  0  0  0  0  0  0  0  0
  146.6158  137.1422  154.3323 C   0  0  0  0  0  0  0  0  0  0  0  0
  146.5661  136.4745  153.0361 N   0  0  0  0  0  0  0  0  0  0  0  0
  145.4493  136.0515  152.4258 C   0  0  0  0  0  0  0  0  0  0  0  0
  144.3280  136.1565  152.9257 O   0  0  0  0  0  0  0  0  0  0  0  0
  145.6449  135.4027  151.0476 C   0  0  0  0  0  0  0  0  0  0  0  0
  145.3758  133.9574  151.0353 N   0  0  0  0  0  0  0  0  0  0  0  0
  144.3646  133.5780  150.1654 N   0  0  0  0  0  0  0  0  0  0  0  0
  144.0447  132.3333  150.0521 C   0  0  0  0  0  0  0  0  0  0  0  0
  143.0407  132.0006  149.1762 O   0  0  0  0  0  0  0  0  0  0  0  0
  144.7208  131.3133  150.8237 C   0  0  0  0  0  0  0  0  0  0  0  0
  145.7008  131.6935  151.6723 C   0  0  0  0  0  0  0  0  0  0  0  0
  146.0903  133.0966  151.8237 C   0  0  0  0  0  0  0  0  0  0  0  0
  146.9797  133.4696  152.5881 O   0  0  0  0  0  0  0  0  0  0  0  0
  142.3601  132.6400  149.3187 H   0  0  0  0  0  0  0  0  0  0  0  0
  146.9616  141.1274  154.8784 H   0  0  0  0  0  0  0  0  0  0  0  0
  147.2829  141.3247  153.1572 H   0  0  0  0  0  0  0  0  0  0  0  0
  147.6711  142.6230  154.2794 H   0  0  0  0  0  0  0  0  0  0  0  0
  149.7167  141.4344  153.6044 H   0  0  0  0  0  0  0  0  0  0  0  0
  149.6618  142.3685  155.8870 H   0  0  0  0  0  0  0  0  0  0  0  0
  149.0033  140.8780  156.5137 H   0  0  0  0  0  0  0  0  0  0  0  0
  151.7494  141.2473  155.2248 H   0  0  0  0  0  0  0  0  0  0  0  0
  151.4336  140.9396  156.9153 H   0  0  0  0  0  0  0  0  0  0  0  0
  152.1444  138.8622  155.7114 H   0  0  0  0  0  0  0  0  0  0  0  0
  150.5479  138.6946  156.4002 H   0  0  0  0  0  0  0  0  0  0  0  0
  151.1919  139.3304  153.4825 H   0  0  0  0  0  0  0  0  0  0  0  0
  150.5863  137.8146  154.0802 H   0  0  0  0  0  0  0  0  0  0  0  0
  148.7765  139.2559  153.0519 H   0  0  0  0  0  0  0  0  0  0  0  0
  148.7547  137.0631  154.0031 H   0  0  0  0  0  0  0  0  0  0  0  0
  148.2847  136.8284  155.6769 H   0  0  0  0  0  0  0  0  0  0  0  0
  146.1096  136.5126  155.0642 H   0  0  0  0  0  0  0  0  0  0  0  0
  146.0599  138.0801  154.2902 H   0  0  0  0  0  0  0  0  0  0  0  0
  147.4457  136.3484  152.5565 H   0  0  0  0  0  0  0  0  0  0  0  0
  145.0085  135.9073  150.3180 H   0  0  0  0  0  0  0  0  0  0  0  0
  146.6693  135.5964  150.7246 H   0  0  0  0  0  0  0  0  0  0  0  0
  144.4416  130.2752  150.7190 H   0  0  0  0  0  0  0  0  0  0  0  0
  146.2131  130.9426  152.2556 H   0  0  0  0  0  0  0  0  0  0  0  0
  1  2  1  0  0  0  0
  1 24  1  0  0  0  0
  1 25  1  0  0  0  0
  1 26  1  0  0  0  0
  2  7  1  0  0  0  0
  2  3  1  0  0  0  0
  2 27  1  0  0  0  0
  3  4  1  0  0  0  0
  3 28  1  0  0  0  0
  3 29  1  0  0  0  0
  4  5  1  0  0  0  0
  4 30  1  0  0  0  0
  4 31  1  0  0  0  0
  5  6  1  0  0  0  0
  5 32  1  0  0  0  0
  5 33  1  0  0  0  0
  6  7  1  0  0  0  0
  6 34  1  0  0  0  0
  6 35  1  0  0  0  0
  7  8  1  0  0  0  0
  7 36  1  0  0  0  0
  8  9  1  0  0  0  0
  9 10  1  0  0  0  0
  9 37  1  0  0  0  0
  9 38  1  0  0  0  0
 10 11  1  0  0  0  0
 10 39  1  0  0  0  0
 10 40  1  0  0  0  0
 11 12  1  0  0  0  0
 11 41  1  0  0  0  0
 12 13  2  0  0  0  0
 12 14  1  0  0  0  0
 14 42  1  0  0  0  0
 14 43  1  0  0  0  0
 14 15  1  0  0  0  0
 15 16  1  0  0  0  0
 15 21  1  0  0  0  0
 16 17  2  0  0  0  0
 17 18  1  0  0  0  0
 17 19  1  0  0  0  0
 18 23  1  0  0  0  0
 19 44  1  0  0  0  0
 19 20  2  0  0  0  0
 20 45  1  0  0  0  0
 20 21  1  0  0  0  0
 21 22  2  0  0  0  0
M  END
> <s_m_source_file>
AV-unprocessed.smi

> <i_m_source_file_index>
670

> <i_lp_mmshare_version>
43012

> <i_f3d_flags>
0

> <s_epik_input>
W0NIM11bQ0BASF0xW0NIMl1bQ0gyXVtDSDJdW0NIMl1bQ0BIXTFPW0NIMl1bQ0gyXVtOSF1DKD1PKVtDSDJdbjJbbkhdYyg9TylbY0hdW2NIXWMyPU8=

> <s_epik_cmdline>
J2VwaWtfcHl0aG9uJywgJy1waCcsICc3LjAnLCAnLXRuJywgJzgnLCAnLW1hJywgJzIwMCcsICctbWV0YWxfYmluZGluZycsICctaW1hZScsICc8aW5maWxlLm1hZT4nLCAnLW9tYWUnLCAnPG91dGZpbGUubWFlPic=

> <r_lp_tautomer_probability>
0.9996

> <r_epik_Ionization_Penalty>
2.12726

> <r_epik_Ionization_Penalty_Charging>
3.83395e-08

> <r_epik_Ionization_Penalty_Neutral>
2.12726

> <r_epik_State_Penalty>
1.70432

> <r_epik_Charging_Adjusted_Penalty>
1.70432

> <i_epik_Tot_Q>
0

> <i_epik_Tot_abs_Q>
0

> <r_epik_Metal_State_Penalty>
1.70432

> <b_epik_Metal_Only>
0

> <s_lp_Force_Field>
OPLS_2005

> <r_lp_Energy>
19.8416

> <b_lp_Chiralities_Consistent>
1

> <s_lp_Variant>
AV-unprocessed.smi:670-6

> <Gold.Version>
5.8.1

> <Gold.Id.Protein>
6NUR|6NUR_protein|mol2

> <Gold.PLP.Fitness>
49.0367

> <Gold.PLP.PLP>
-41.9471

> <Gold.PLP.part.hbond>
-3.9242

> <Gold.PLP.part.metal>
0.0000

> <Gold.PLP.part.buried>
-6.0253

> <Gold.PLP.part.nonpolar>
-33.6250

> <Gold.PLP.part.repulsive>
0.5080

> <Gold.PLP.ligand.clash>
0.0000

> <Gold.PLP.ligand.torsion>
0.8369

> <Gold.PLP.Chemscore.Hbond>
2.8688

> <Gold.PLP.Chemscore.CHOScore>
0.0000

> <Gold.PLP.Chemscore.Metal>
0.0000

> <Gold.Chemscore.Hbonds>
donor molecule, donor type, donor heavy atom, donor atom, acceptor molecule, acceptor atom, score
      L1  H    11    41       P1  7948  1.00
      L1  H    18    23       P1 10186  0.49
      P1  H 10785 10796       L1    18  1.00

> <Gold.PLP.Chemscore.Internal.Correction>
0.1572

> <Gold.Rescore>
     Score         DG    S(hbond)    S(metal)    S(lipo)     H(rot)  DE(clash)    DE(int)     intcor
     11.68     -14.87       2.52        0.00      76.01       3.09       0.08       3.12       ----

> <Gold.Chemscore.Fitness>
11.6799

> <Gold.Chemscore.DG>
-14.8731

> <Gold.Chemscore.ZeroCoef>
-5.4800

> <Gold.Chemscore.Hbond>
2.5182

> <Gold.Chemscore.Metal>
0.0000

> <Gold.Chemscore.Lipo>
76.0066

> <Gold.Chemscore.Internal_Hbond>
0.0000

> <Gold.Chemscore.DEClash>
0.0775

> <Gold.Chemscore.DEInternal>
3.1157

> <Gold.Chemscore.Rot>
3.0901

> <Gold.Chemscore.Internal.Correction>
   9.000000E+99

> <Gold.Chemscore.Hbonds>
donor molecule, donor type, donor heavy atom, donor atom, acceptor molecule, acceptor atom, score
      L1  H    11    41       P1  7948  1.00
      L1  H    18    23       P1 10186  0.48
      P1  H 10785 10796       L1    18  0.69

> <Gold.Chemscore.Hbond.Weighted>
-8.4109

> <Gold.Chemscore.Metal.Weighted>
-0.0000

> <Gold.Chemscore.Lipo.Weighted>
-8.8928

> <Gold.Chemscore.Internal_Hbond.Weighted>
0.0000

> <Gold.Chemscore.DEClash.Weighted>
0.0775

> <Gold.Chemscore.DEInternal.Weighted>
3.1157

> <Gold.Chemscore.Rot.Weighted>
7.9106

> <Gold.Chemscore.Internal.Correction.Weighted>
   9.000000E+99

> <Gold.Protein.RotatedTorsions>
[ 6907 6896 6895 6894 ] final -122.29 input  -60.11 | X-H torsion
[ 7974 7965 7964 7962 ] final -115.13 input  175.53 | X-H torsion
[ 8008 7997 7996 7995 ] final -156.17 input   59.86 | X-H torsion
[ 10167 10162 10161 10158 ] final -133.91 input  -65.29 | X-H torsion
[ 10718 10713 10712 10709 ] final  -75.45 input   66.30 | X-H torsion
[ 10763 10752 10751 10750 ] final  166.79 input  -60.55 | X-H torsion
[ 11005 11000 10999 10996 ] final -167.80 input  -57.11 | X-H torsion

> <Gold.Protein.ActiveResidues>
 VAL166  LYS551  ARG553  GLY616  TRP617  ASP618  TYR619  PRO620  LYS621  CYS622 
 ASP623  PHE694  ASN695  SER759  ASP760  ASP761  ALA762  ILE779  LEU786  VAL792 
 PHE793  MET794  SER795  GLU796  ALA797  LYS798  CYS799  TRP800  GLU811  SER814 

> <Gold.Protein.RotatedAtoms>
  150.8562  133.7712  159.3007 H   0  0  0  0  0  0  0  0  0  0  0  0  # atno 6907 bound_to 6896
  151.5369  135.1067  159.9926 H   0  0  0  0  0  0  0  0  0  0  0  0  # atno 6908 bound_to 6896
  152.4591  133.7741  159.6871 H   0  0  0  0  0  0  0  0  0  0  0  0  # atno 6909 bound_to 6896
  145.1120  140.8617  143.3864 H   0  0  0  0  0  0  0  0  0  0  0  0  # atno 7974 bound_to 7965
  155.7130  140.0780  157.2363 H   0  0  0  0  0  0  0  0  0  0  0  0  # atno 8008 bound_to 7997
  154.4056  140.1626  156.2371 H   0  0  0  0  0  0  0  0  0  0  0  0  # atno 8009 bound_to 7997
  155.9265  140.3394  155.6218 H   0  0  0  0  0  0  0  0  0  0  0  0  # atno 8010 bound_to 7997
  139.8935  143.6694  152.2608 H   0  0  0  0  0  0  0  0  0  0  0  0  # atno 10167 bound_to 10162
  156.0207  130.4441  150.3045 H   0  0  0  0  0  0  0  0  0  0  0  0  # atno 10718 bound_to 10713
  154.3442  135.2753  155.2406 H   0  0  0  0  0  0  0  0  0  0  0  0  # atno 10763 bound_to 10752
  154.4664  135.5894  153.6294 H   0  0  0  0  0  0  0  0  0  0  0  0  # atno 10764 bound_to 10752
  152.9855  135.6077  154.3646 H   0  0  0  0  0  0  0  0  0  0  0  0  # atno 10765 bound_to 10752
  140.5492  134.5445  157.5118 H   0  0  0  0  0  0  0  0  0  0  0  0  # atno 11005 bound_to 11000
  145.0836  139.2941  143.5771 LP  0  0  0  0  0  0  0  0  0  0  0  0  # atno 17320 bound_to 7965
  146.3526  140.0351  142.8647 LP  0  0  0  0  0  0  0  0  0  0  0  0  # atno 17321 bound_to 7965
  139.7089  144.7623  151.1146 LP  0  0  0  0  0  0  0  0  0  0  0  0  # atno 17342 bound_to 10162
  140.7722  143.5357  150.9370 LP  0  0  0  0  0  0  0  0  0  0  0  0  # atno 17343 bound_to 10162
  157.1147  131.0231  151.3033 LP  0  0  0  0  0  0  0  0  0  0  0  0  # atno 17370 bound_to 10713
  157.4676  130.7690  149.7293 LP  0  0  0  0  0  0  0  0  0  0  0  0  # atno 17371 bound_to 10713
  139.9464  134.7695  156.0552 LP  0  0  0  0  0  0  0  0  0  0  0  0  # atno 17394 bound_to 11000
  141.1181  133.6621  156.3146 LP  0  0  0  0  0  0  0  0  0  0  0  0  # atno 17395 bound_to 11000

$$$$
