AV-unprocessed.smi:3176|AV-procd|sdf|12127|dock5
  -GOLD-   2272017563D 1   1.00000     0.00000
 Structure written by MMmdl.
 33 34  0  0  0  0  0  0  0  0  2 V2000
  149.9307  141.0050  154.1085 O   0  0  0  0  0  0  0  0  0  0  0  0
  150.0101  139.9863  154.7951 C   0  0  0  0  0  0  0  0  0  0  0  0
  149.9635  140.0077  156.1362 N   0  0  0  0  0  0  0  0  0  0  0  0
  149.8919  141.2108  156.9595 C   0  0  0  0  0  0  0  0  0  0  0  0
  150.9505  142.2638  156.5713 C   0  0  0  0  0  0  0  0  0  0  0  0
  151.4120  143.1195  157.7389 C   0  0  0  0  0  0  0  0  0  0  0  0
  152.1938  142.5943  158.7912 C   0  0  0  0  0  0  0  0  0  0  0  0
  152.5714  143.4370  159.8567 C   0  0  0  0  0  0  0  0  0  0  0  0
  152.1624  144.7867  159.8467 C   0  0  0  0  0  0  0  0  0  0  0  0
  151.3856  145.2598  158.7693 C   0  0  0  0  0  0  0  0  0  0  0  0
  151.0428  144.4205  157.7673 N   0  3  0  0  0  0  0  0  0  0  0  0
  150.1816  138.6024  154.1453 C   0  0  1  0  0  0  0  0  0  0  0  0
  151.4828  137.8775  154.5260 C   0  0  0  0  0  0  0  0  0  0  0  0
  151.0727  137.0765  155.7421 C   0  0  0  0  0  0  0  0  0  0  0  0
  149.6590  136.6583  155.3594 C   0  0  0  0  0  0  0  0  0  0  0  0
  149.1310  137.7484  154.6092 O   0  0  0  0  0  0  0  0  0  0  0  0
  150.0227  139.1233  156.6208 H   0  0  0  0  0  0  0  0  0  0  0  0
  148.8902  141.6412  156.9174 H   0  0  0  0  0  0  0  0  0  0  0  0
  150.0510  140.9025  157.9930 H   0  0  0  0  0  0  0  0  0  0  0  0
  151.8196  141.7665  156.1387 H   0  0  0  0  0  0  0  0  0  0  0  0
  150.5561  142.9113  155.7872 H   0  0  0  0  0  0  0  0  0  0  0  0
  152.4930  141.5560  158.7873 H   0  0  0  0  0  0  0  0  0  0  0  0
  153.1649  143.0517  160.6727 H   0  0  0  0  0  0  0  0  0  0  0  0
  152.4402  145.4491  160.6537 H   0  0  0  0  0  0  0  0  0  0  0  0
  151.0286  146.2756  158.6805 H   0  0  0  0  0  0  0  0  0  0  0  0
  150.1117  138.7214  153.0635 H   0  0  0  0  0  0  0  0  0  0  0  0
  151.7750  137.2028  153.7203 H   0  0  0  0  0  0  0  0  0  0  0  0
  152.3318  138.5338  154.7204 H   0  0  0  0  0  0  0  0  0  0  0  0
  151.7294  136.2292  155.9402 H   0  0  0  0  0  0  0  0  0  0  0  0
  151.0560  137.7133  156.6272 H   0  0  0  0  0  0  0  0  0  0  0  0
  149.6848  135.7752  154.7197 H   0  0  0  0  0  0  0  0  0  0  0  0
  149.0390  136.4319  156.2267 H   0  0  0  0  0  0  0  0  0  0  0  0
  150.4773  144.7835  156.9996 H   0  0  0  0  0  0  0  0  0  0  0  0
  1  2  2  0  0  0  0
  2  3  1  0  0  0  0
  2 12  1  0  0  0  0
  3  4  1  0  0  0  0
  3 17  1  0  0  0  0
  4  5  1  0  0  0  0
  4 18  1  0  0  0  0
  4 19  1  0  0  0  0
  5  6  1  0  0  0  0
  5 20  1  0  0  0  0
  5 21  1  0  0  0  0
  6 11  1  0  0  0  0
  6  7  2  0  0  0  0
  7  8  1  0  0  0  0
  7 22  1  0  0  0  0
  8  9  2  0  0  0  0
  8 23  1  0  0  0  0
  9 10  1  0  0  0  0
  9 24  1  0  0  0  0
 10 11  2  0  0  0  0
 10 25  1  0  0  0  0
 11 33  1  0  0  0  0
 12 16  1  0  0  0  0
 12 13  1  0  0  0  0
 12 26  1  0  0  0  0
 13 14  1  0  0  0  0
 13 27  1  0  0  0  0
 13 28  1  0  0  0  0
 14 15  1  0  0  0  0
 14 29  1  0  0  0  0
 14 30  1  0  0  0  0
 15 16  1  0  0  0  0
 15 31  1  0  0  0  0
 15 32  1  0  0  0  0
M  CHG  1  11   1
M  END
> <s_m_source_file>
AV-unprocessed.smi

> <i_m_source_file_index>
3176

> <i_lp_mmshare_version>
43012

> <i_f3d_flags>
0

> <s_epik_input>
TzFbQ0gyXVtDSDJdW0NIMl1bQ0BIXTFDKD1PKVtOSF1bQ0gyXVtDSDJdYzJbY0hdW2NIXVtjSF1bY0hdbjI=

> <s_epik_cmdline>
J2VwaWtfcHl0aG9uJywgJy1waCcsICc3LjAnLCAnLXRuJywgJzgnLCAnLW1hJywgJzIwMCcsICctbWV0YWxfYmluZGluZycsICctaW1hZScsICc8aW5maWxlLm1hZT4nLCAnLW9tYWUnLCAnPG91dGZpbGUubWFlPic=

> <r_epik_Ionization_Penalty>
1.81664

> <r_epik_Ionization_Penalty_Charging>
1.81664

> <r_epik_Ionization_Penalty_Neutral>
5.71603e-08

> <r_epik_State_Penalty>
1.93152

> <r_epik_Charging_Adjusted_Penalty>
3.74817

> <i_epik_Tot_Q>
1

> <i_epik_Tot_abs_Q>
1

> <r_epik_Metal_State_Penalty>
1.95876

> <b_epik_Metal_Only>
0

> <s_lp_Force_Field>
OPLS_2005

> <r_lp_Energy>
22.6844

> <b_lp_Chiralities_Consistent>
1

> <s_lp_Variant>
AV-unprocessed.smi:3176-4

> <Gold.Version>
5.8.1

> <Gold.Id.Protein>
6NUR|6NUR_protein|mol2

> <Gold.PLP.Fitness>
42.6096

> <Gold.PLP.PLP>
-35.5008

> <Gold.PLP.part.hbond>
-2.7189

> <Gold.PLP.part.metal>
0.0000

> <Gold.PLP.part.buried>
-3.5565

> <Gold.PLP.part.nonpolar>
-28.9242

> <Gold.PLP.part.repulsive>
0.6753

> <Gold.PLP.ligand.clash>
0.0000

> <Gold.PLP.ligand.torsion>
0.3548

> <Gold.PLP.Chemscore.Hbond>
2.5978

> <Gold.PLP.Chemscore.CHOScore>
0.0000

> <Gold.PLP.Chemscore.Metal>
0.0000

> <Gold.Chemscore.Hbonds>
donor molecule, donor type, donor heavy atom, donor atom, acceptor molecule, acceptor atom, score
      L1  H    11    33       P1  8028  1.95
      P1  H  7989  7998       L1     1  0.37
      P1  H  8011  8017       L1     1  0.32

> <Gold.PLP.Chemscore.Internal.Correction>
0.0252

> <Gold.Rescore>
     Score         DG    S(hbond)    S(metal)    S(lipo)     H(rot)  DE(clash)    DE(int)     intcor
     16.06     -17.45       1.67        0.00      89.86       1.61       0.07       1.31       ----

> <Gold.Chemscore.Fitness>
16.0604

> <Gold.Chemscore.DG>
-17.4488

> <Gold.Chemscore.ZeroCoef>
-5.4800

> <Gold.Chemscore.Hbond>
1.6661

> <Gold.Chemscore.Metal>
0.0000

> <Gold.Chemscore.Lipo>
89.8598

> <Gold.Chemscore.Internal_Hbond>
0.0000

> <Gold.Chemscore.DEClash>
0.0736

> <Gold.Chemscore.DEInternal>
1.3147

> <Gold.Chemscore.Rot>
1.6054

> <Gold.Chemscore.Internal.Correction>
   9.000000E+99

> <Gold.Chemscore.Hbonds>
donor molecule, donor type, donor heavy atom, donor atom, acceptor molecule, acceptor atom, score
      L1  H    11    33       P1  8028  0.55
      P1  H  7989  7998       L1     1  0.05
      P1  H  8011  8017       L1     1  0.32

> <Gold.Chemscore.Hbond.Weighted>
-5.5649

> <Gold.Chemscore.Metal.Weighted>
-0.0000

> <Gold.Chemscore.Lipo.Weighted>
-10.5136

> <Gold.Chemscore.Internal_Hbond.Weighted>
0.0000

> <Gold.Chemscore.DEClash.Weighted>
0.0736

> <Gold.Chemscore.DEInternal.Weighted>
1.3147

> <Gold.Chemscore.Rot.Weighted>
4.1097

> <Gold.Chemscore.Internal.Correction.Weighted>
   9.000000E+99

> <Gold.Protein.RotatedTorsions>
[ 6907 6896 6895 6894 ] final  142.93 input  -60.11 | X-H torsion
[ 7974 7965 7964 7962 ] final  -31.40 input  175.53 | X-H torsion
[ 8008 7997 7996 7995 ] final   97.77 input   59.86 | X-H torsion
[ 10167 10162 10161 10158 ] final  -91.80 input  -65.29 | X-H torsion
[ 10718 10713 10712 10709 ] final   98.87 input   66.30 | X-H torsion
[ 10763 10752 10751 10750 ] final   10.65 input  -60.55 | X-H torsion
[ 11005 11000 10999 10996 ] final -154.52 input  -57.11 | X-H torsion

> <Gold.Protein.ActiveResidues>
 VAL166  LYS551  ARG553  GLY616  TRP617  ASP618  TYR619  PRO620  LYS621  CYS622 
 ASP623  PHE694  ASN695  SER759  ASP760  ASP761  ALA762  ILE779  LEU786  VAL792 
 PHE793  MET794  SER795  GLU796  ALA797  LYS798  CYS799  TRP800  GLU811  SER814 

> <Gold.Protein.RotatedAtoms>
  152.2126  133.4923  159.5118 H   0  0  0  0  0  0  0  0  0  0  0  0  # atno 6907 bound_to 6896
  150.6994  134.1447  159.4127 H   0  0  0  0  0  0  0  0  0  0  0  0  # atno 6908 bound_to 6896
  151.9366  135.0232  160.0583 H   0  0  0  0  0  0  0  0  0  0  0  0  # atno 6909 bound_to 6896
  146.1070  140.5663  142.8795 H   0  0  0  0  0  0  0  0  0  0  0  0  # atno 7974 bound_to 7965
  156.0935  140.3253  155.7847 H   0  0  0  0  0  0  0  0  0  0  0  0  # atno 8008 bound_to 7997
  155.4956  140.0565  157.2964 H   0  0  0  0  0  0  0  0  0  0  0  0  # atno 8009 bound_to 7997
  154.4652  140.1986  156.0153 H   0  0  0  0  0  0  0  0  0  0  0  0  # atno 8010 bound_to 7997
  140.3412  143.2941  151.9833 H   0  0  0  0  0  0  0  0  0  0  0  0  # atno 10167 bound_to 10162
  157.6887  131.0653  150.4861 H   0  0  0  0  0  0  0  0  0  0  0  0  # atno 10718 bound_to 10713
  153.2010  135.6856  153.8232 H   0  0  0  0  0  0  0  0  0  0  0  0  # atno 10763 bound_to 10752
  153.7498  135.3225  155.3320 H   0  0  0  0  0  0  0  0  0  0  0  0  # atno 10764 bound_to 10752
  154.8171  135.4678  154.0775 H   0  0  0  0  0  0  0  0  0  0  0  0  # atno 10765 bound_to 10752
  140.6964  134.3985  157.5214 H   0  0  0  0  0  0  0  0  0  0  0  0  # atno 11005 bound_to 11000
  144.7479  140.5115  143.6823 LP  0  0  0  0  0  0  0  0  0  0  0  0  # atno 17320 bound_to 7965
  145.5741  139.1485  143.3272 LP  0  0  0  0  0  0  0  0  0  0  0  0  # atno 17321 bound_to 7965
  139.4840  144.6155  151.7354 LP  0  0  0  0  0  0  0  0  0  0  0  0  # atno 17342 bound_to 10162
  140.5307  144.0735  150.6053 LP  0  0  0  0  0  0  0  0  0  0  0  0  # atno 17343 bound_to 10162
  156.5190  130.4157  149.6260 LP  0  0  0  0  0  0  0  0  0  0  0  0  # atno 17370 bound_to 10713
  156.3171  130.7260  151.2165 LP  0  0  0  0  0  0  0  0  0  0  0  0  # atno 17371 bound_to 10713
  139.8909  134.8794  156.2347 LP  0  0  0  0  0  0  0  0  0  0  0  0  # atno 17394 bound_to 11000
  141.0199  133.7047  156.1251 LP  0  0  0  0  0  0  0  0  0  0  0  0  # atno 17395 bound_to 11000

$$$$
