AV-unprocessed.smi:1824|AV-procd|sdf|7409|dock7
  -GOLD-   22720 9 83D 1   1.00000     0.00000
 Structure written by MMmdl.
 45 47  0  0  0  0  0  0  0  0  2 V2000
  147.9727  136.3656  159.1311 C   0  0  0  0  0  0  0  0  0  0  0  0
  149.4324  136.5984  158.7050 C   0  0  2  0  0  0  0  0  0  0  0  0
  149.5967  137.7426  157.6852 C   0  0  0  0  0  0  0  0  0  0  0  0
  149.1294  137.3843  156.3499 N   0  0  0  0  0  0  0  0  0  0  0  0
  149.3057  138.5024  155.4214 C   0  0  0  0  0  0  0  0  0  0  0  0
  150.5758  138.4478  154.5492 C   0  0  1  0  0  0  0  0  0  0  0  0
  150.2090  138.7275  153.2125 O   0  0  0  0  0  0  0  0  0  0  0  0
  151.6266  139.4720  155.0201 C   0  0  0  0  0  0  0  0  0  0  0  0
  151.0297  140.7349  155.4791 N   0  0  0  0  0  0  0  0  0  0  0  0
  150.0788  141.5092  154.8894 C   0  0  0  0  0  0  0  0  0  0  0  0
  149.8583  142.5801  155.7013 N   0  3  0  0  0  0  0  0  0  0  0  0
  150.6789  142.4883  156.8278 C   0  0  0  0  0  0  0  0  0  0  0  0
  150.8138  143.3293  157.9277 C   0  0  0  0  0  0  0  0  0  0  0  0
  151.7452  142.9418  158.9134 C   0  0  0  0  0  0  0  0  0  0  0  0
  151.9154  143.7239  160.0056 F   0  0  0  0  0  0  0  0  0  0  0  0
  152.5006  141.7573  158.7838 C   0  0  0  0  0  0  0  0  0  0  0  0
  153.3827  141.4209  159.7546 F   0  0  0  0  0  0  0  0  0  0  0  0
  152.3563  140.9136  157.6628 C   0  0  0  0  0  0  0  0  0  0  0  0
  151.4339  141.3042  156.6927 C   0  0  0  0  0  0  0  0  0  0  0  0
  149.8233  136.1739  155.9177 C   0  0  0  0  0  0  0  0  0  0  0  0
  149.6168  135.0083  156.9026 C   0  0  1  0  0  0  0  0  0  0  0  0
  150.4195  133.7662  156.5013 C   0  0  0  0  0  0  0  0  0  0  0  0
  150.0376  135.4045  158.2066 O   0  0  0  0  0  0  0  0  0  0  0  0
  147.5619  137.2565  159.6066 H   0  0  0  0  0  0  0  0  0  0  0  0
  147.9026  135.5470  159.8475 H   0  0  0  0  0  0  0  0  0  0  0  0
  147.3309  136.1246  158.2840 H   0  0  0  0  0  0  0  0  0  0  0  0
  149.9860  136.8698  159.6042 H   0  0  0  0  0  0  0  0  0  0  0  0
  149.0659  138.6259  158.0427 H   0  0  0  0  0  0  0  0  0  0  0  0
  150.6513  138.0191  157.6361 H   0  0  0  0  0  0  0  0  0  0  0  0
  148.4441  138.5552  154.7538 H   0  0  0  0  0  0  0  0  0  0  0  0
  149.2968  139.4363  155.9855 H   0  0  0  0  0  0  0  0  0  0  0  0
  151.0275  137.4573  154.5814 H   0  0  0  0  0  0  0  0  0  0  0  0
  150.0926  137.9056  152.7596 H   0  0  0  0  0  0  0  0  0  0  0  0
  152.2563  139.0620  155.8102 H   0  0  0  0  0  0  0  0  0  0  0  0
  152.2964  139.7184  154.1953 H   0  0  0  0  0  0  0  0  0  0  0  0
  149.5881  141.3103  153.9472 H   0  0  0  0  0  0  0  0  0  0  0  0
  150.2367  144.2363  158.0318 H   0  0  0  0  0  0  0  0  0  0  0  0
  152.9353  140.0062  157.5785 H   0  0  0  0  0  0  0  0  0  0  0  0
  149.4679  135.8599  154.9376 H   0  0  0  0  0  0  0  0  0  0  0  0
  150.8900  136.3782  155.8123 H   0  0  0  0  0  0  0  0  0  0  0  0
  148.5606  134.7386  156.9298 H   0  0  0  0  0  0  0  0  0  0  0  0
  150.1282  133.4128  155.5118 H   0  0  0  0  0  0  0  0  0  0  0  0
  150.2544  132.9513  157.2063 H   0  0  0  0  0  0  0  0  0  0  0  0
  151.4892  133.9772  156.4805 H   0  0  0  0  0  0  0  0  0  0  0  0
  149.1949  143.3173  155.4989 H   0  0  0  0  0  0  0  0  0  0  0  0
  1  2  1  0  0  0  0
  1 24  1  0  0  0  0
  1 25  1  0  0  0  0
  1 26  1  0  0  0  0
  2 23  1  0  0  0  0
  2  3  1  0  0  0  0
  2 27  1  0  0  0  0
  3  4  1  0  0  0  0
  3 28  1  0  0  0  0
  3 29  1  0  0  0  0
  4  5  1  0  0  0  0
  4 20  1  0  0  0  0
  5  6  1  0  0  0  0
  5 30  1  0  0  0  0
  5 31  1  0  0  0  0
  6  7  1  0  0  0  0
  6  8  1  0  0  0  0
  6 32  1  0  0  0  0
  7 33  1  0  0  0  0
  8  9  1  0  0  0  0
  8 34  1  0  0  0  0
  8 35  1  0  0  0  0
  9 19  1  0  0  0  0
  9 10  1  0  0  0  0
 10 11  2  0  0  0  0
 10 36  1  0  0  0  0
 11 12  1  0  0  0  0
 11 45  1  0  0  0  0
 12 19  2  0  0  0  0
 12 13  1  0  0  0  0
 13 14  2  0  0  0  0
 13 37  1  0  0  0  0
 14 15  1  0  0  0  0
 14 16  1  0  0  0  0
 16 17  1  0  0  0  0
 16 18  2  0  0  0  0
 18 19  1  0  0  0  0
 18 38  1  0  0  0  0
 20 21  1  0  0  0  0
 20 39  1  0  0  0  0
 20 40  1  0  0  0  0
 21 22  1  0  0  0  0
 21 23  1  0  0  0  0
 21 41  1  0  0  0  0
 22 42  1  0  0  0  0
 22 43  1  0  0  0  0
 22 44  1  0  0  0  0
M  CHG  1  11   1
M  END
> <s_m_source_file>
AV-unprocessed.smi

> <i_m_source_file_index>
1824

> <i_lp_mmshare_version>
43012

> <i_f3d_flags>
0

> <s_epik_input>
W0NIM11bQ0BASF0xW0NIMl1OKFtDSDJdW0NASF0oTzEpW0NIM10pW0NIMl1bQ0BIXShbT0hdKVtDSDJdbihbY0hdbjIpYyhjMjMpW2NIXWMoRiljKEYpW2NIXTM=

> <s_epik_cmdline>
J2VwaWtfcHl0aG9uJywgJy1waCcsICc3LjAnLCAnLXRuJywgJzgnLCAnLW1hJywgJzIwMCcsICctbWV0YWxfYmluZGluZycsICctaW1hZScsICc8aW5maWxlLm1hZT4nLCAnLW9tYWUnLCAnPG91dGZpbGUubWFlPic=

> <r_epik_Ionization_Penalty>
2.58709

> <r_epik_Ionization_Penalty_Charging>
2.37273

> <r_epik_Ionization_Penalty_Neutral>
0.214359

> <r_epik_State_Penalty>
2.71799

> <r_epik_Charging_Adjusted_Penalty>
5.09071

> <i_epik_Tot_Q>
1

> <i_epik_Tot_abs_Q>
1

> <r_epik_Metal_State_Penalty>
6.80217

> <b_epik_Metal_Only>
0

> <s_lp_Force_Field>
OPLS_2005

> <r_lp_Energy>
35.2621

> <b_lp_Chiralities_Consistent>
1

> <s_lp_Variant>
AV-unprocessed.smi:1824-17

> <Gold.Version>
5.8.1

> <Gold.Id.Protein>
6NUR|6NUR_protein|mol2

> <Gold.PLP.Fitness>
48.9311

> <Gold.PLP.PLP>
-40.0057

> <Gold.PLP.part.hbond>
-3.8045

> <Gold.PLP.part.metal>
0.0000

> <Gold.PLP.part.buried>
-5.5286

> <Gold.PLP.part.nonpolar>
-31.9012

> <Gold.PLP.part.repulsive>
0.1186

> <Gold.PLP.ligand.clash>
0.0000

> <Gold.PLP.ligand.torsion>
1.5345

> <Gold.PLP.Chemscore.Hbond>
3.9913

> <Gold.PLP.Chemscore.CHOScore>
0.0000

> <Gold.PLP.Chemscore.Metal>
0.0000

> <Gold.Chemscore.Hbonds>
donor molecule, donor type, donor heavy atom, donor atom, acceptor molecule, acceptor atom, score
      L1  H     7    33       P1  7948  0.58
      L1  H    11    45       P1  8028  1.45
      P1  H  6896  6907       L1    23  0.82

> <Gold.PLP.Chemscore.Internal.Correction>
0.0206

> <Gold.Rescore>
     Score         DG    S(hbond)    S(metal)    S(lipo)     H(rot)  DE(clash)    DE(int)     intcor
     16.69     -18.33       2.85        0.00      79.20       2.32       0.11       1.54       ----

> <Gold.Chemscore.Fitness>
16.6867

> <Gold.Chemscore.DG>
-18.3312

> <Gold.Chemscore.ZeroCoef>
-5.4800

> <Gold.Chemscore.Hbond>
2.8523

> <Gold.Chemscore.Metal>
0.0000

> <Gold.Chemscore.Lipo>
79.1982

> <Gold.Chemscore.Internal_Hbond>
0.0000

> <Gold.Chemscore.DEClash>
0.1087

> <Gold.Chemscore.DEInternal>
1.5359

> <Gold.Chemscore.Rot>
2.3210

> <Gold.Chemscore.Internal.Correction>
   9.000000E+99

> <Gold.Chemscore.Hbonds>
donor molecule, donor type, donor heavy atom, donor atom, acceptor molecule, acceptor atom, score
      L1  H     7    33       P1  7948  0.10
      L1  H    11    45       P1  8028  0.69
      P1  H  6896  6907       L1    23  0.74

> <Gold.Chemscore.Hbond.Weighted>
-9.5267

> <Gold.Chemscore.Metal.Weighted>
-0.0000

> <Gold.Chemscore.Lipo.Weighted>
-9.2662

> <Gold.Chemscore.Internal_Hbond.Weighted>
0.0000

> <Gold.Chemscore.DEClash.Weighted>
0.1087

> <Gold.Chemscore.DEInternal.Weighted>
1.5359

> <Gold.Chemscore.Rot.Weighted>
5.9416

> <Gold.Chemscore.Internal.Correction.Weighted>
   9.000000E+99

> <Gold.Protein.RotatedTorsions>
[ 6907 6896 6895 6894 ] final  -86.03 input  -60.11 | X-H torsion
[ 7974 7965 7964 7962 ] final   -1.78 input  175.53 | X-H torsion
[ 8008 7997 7996 7995 ] final   74.60 input   59.86 | X-H torsion
[ 10167 10162 10161 10158 ] final -114.44 input  -65.29 | X-H torsion
[ 10718 10713 10712 10709 ] final   12.88 input   66.30 | X-H torsion
[ 10763 10752 10751 10750 ] final  -74.78 input  -60.55 | X-H torsion
[ 11005 11000 10999 10996 ] final  -53.20 input  -57.11 | X-H torsion

> <Gold.Protein.ActiveResidues>
 VAL166  LYS551  ARG553  GLY616  TRP617  ASP618  TYR619  PRO620  LYS621  CYS622 
 ASP623  PHE694  ASN695  SER759  ASP760  ASP761  ALA762  ILE779  LEU786  VAL792 
 PHE793  MET794  SER795  GLU796  ALA797  LYS798  CYS799  TRP800  GLU811  SER814 

> <Gold.Protein.RotatedAtoms>
  150.6868  134.3113  159.4747 H   0  0  0  0  0  0  0  0  0  0  0  0  # atno 6907 bound_to 6896
  152.0998  134.9347  160.0579 H   0  0  0  0  0  0  0  0  0  0  0  0  # atno 6908 bound_to 6896
  152.0630  133.4036  159.4463 H   0  0  0  0  0  0  0  0  0  0  0  0  # atno 6909 bound_to 6896
  146.2413  140.1472  142.8334 H   0  0  0  0  0  0  0  0  0  0  0  0  # atno 7974 bound_to 7965
  155.8008  140.3476  155.5401 H   0  0  0  0  0  0  0  0  0  0  0  0  # atno 8008 bound_to 7997
  155.8540  140.0961  157.1677 H   0  0  0  0  0  0  0  0  0  0  0  0  # atno 8009 bound_to 7997
  154.4009  140.1371  156.3867 H   0  0  0  0  0  0  0  0  0  0  0  0  # atno 8010 bound_to 7997
  140.1009  143.4614  152.1813 H   0  0  0  0  0  0  0  0  0  0  0  0  # atno 10167 bound_to 10162
  157.0166  130.6138  149.5715 H   0  0  0  0  0  0  0  0  0  0  0  0  # atno 10718 bound_to 10713
  154.4777  135.5853  153.6367 H   0  0  0  0  0  0  0  0  0  0  0  0  # atno 10763 bound_to 10752
  152.9843  135.6082  154.3286 H   0  0  0  0  0  0  0  0  0  0  0  0  # atno 10764 bound_to 10752
  154.3174  135.2844  155.2516 H   0  0  0  0  0  0  0  0  0  0  0  0  # atno 10765 bound_to 10752
  141.0964  133.6624  156.4137 H   0  0  0  0  0  0  0  0  0  0  0  0  # atno 11005 bound_to 11000
  145.0197  140.8784  143.5174 LP  0  0  0  0  0  0  0  0  0  0  0  0  # atno 17320 bound_to 7965
  145.1519  139.2509  143.5436 LP  0  0  0  0  0  0  0  0  0  0  0  0  # atno 17321 bound_to 7965
  139.5672  144.7442  151.3990 LP  0  0  0  0  0  0  0  0  0  0  0  0  # atno 17342 bound_to 10162
  140.6978  143.7706  150.7354 LP  0  0  0  0  0  0  0  0  0  0  0  0  # atno 17343 bound_to 10162
  156.0117  130.5209  150.8009 LP  0  0  0  0  0  0  0  0  0  0  0  0  # atno 17370 bound_to 10713
  157.5281  131.0935  150.9991 LP  0  0  0  0  0  0  0  0  0  0  0  0  # atno 17371 bound_to 10713
  140.5130  134.6377  157.5291 LP  0  0  0  0  0  0  0  0  0  0  0  0  # atno 17394 bound_to 11000
  139.9802  134.7150  155.9874 LP  0  0  0  0  0  0  0  0  0  0  0  0  # atno 17395 bound_to 11000

$$$$
