AV-unprocessed.smi:415|AV-procd|sdf|2522|dock1
  -GOLD-   2262022473D 1   1.00000     0.00000
 Structure written by MMmdl.
 53 54  0  0  0  0  0  0  0  0  1 V2000
  145.7172  137.6929  154.8050 C   0  0  0  0  0  0  0  0  0  0  0  0
  145.7292  138.7547  155.7423 O   0  0  0  0  0  0  0  0  0  0  0  0
  145.6191  140.0276  155.1273 C   0  0  0  0  0  0  0  0  0  0  0  0
  146.6328  141.0028  155.7486 C   0  0  0  0  0  0  0  0  0  0  0  0
  148.0020  140.5291  155.6655 N   0  0  0  0  0  0  0  0  0  0  0  0
  148.6621  140.3278  154.4565 C   0  0  0  0  0  0  0  0  0  0  0  0
  148.0106  140.6046  153.2679 N   0  0  0  0  0  0  0  0  0  0  0  0
  149.9348  139.8754  154.4148 C   0  0  0  0  0  0  0  0  0  0  0  0
  150.6841  139.5754  155.6265 C   0  0  0  0  0  0  0  0  0  0  0  0
  151.8301  139.1256  155.6091 O   0  0  0  0  0  0  0  0  0  0  0  0
  150.0054  139.8145  156.8436 N   0  0  0  0  0  0  0  0  0  0  0  0
  150.6944  139.4863  158.1154 C   0  0  0  0  0  0  0  0  0  0  0  0
  152.0354  140.2161  158.3157 C   0  0  0  0  0  0  0  0  0  0  0  0
  153.0785  139.6819  157.9422 O   0  0  0  0  0  0  0  0  0  0  0  0
  152.0002  141.4227  158.9030 N   0  0  0  0  0  0  0  0  0  0  0  0
  153.1336  142.2942  159.1953 C   0  0  2  0  0  0  0  0  0  0  0  0
  153.6440  142.0522  160.6291 C   0  0  0  0  0  0  0  0  0  0  0  0
  152.6213  142.5096  161.6798 C   0  0  0  0  0  0  0  0  0  0  0  0
  152.2417  143.9819  161.4714 C   0  0  0  0  0  0  0  0  0  0  0  0
  151.7117  144.2534  160.0477 C   0  0  1  0  0  0  0  0  0  0  0  0
  151.3411  145.7402  159.9046 C   0  0  0  0  0  0  0  0  0  0  0  0
  152.7372  143.7779  158.9788 C   0  0  2  0  0  0  0  0  0  0  0  0
  152.2526  144.0190  157.5338 C   0  0  0  0  0  0  0  0  0  0  0  0
  148.6757  140.2934  156.8915 C   0  0  0  0  0  0  0  0  0  0  0  0
  148.1229  140.4793  157.9789 O   0  0  0  0  0  0  0  0  0  0  0  0
  145.8110  136.7416  155.3288 H   0  0  0  0  0  0  0  0  0  0  0  0
  146.5491  137.7749  154.1044 H   0  0  0  0  0  0  0  0  0  0  0  0
  144.7839  137.6758  154.2408 H   0  0  0  0  0  0  0  0  0  0  0  0
  145.8218  139.9292  154.0598 H   0  0  0  0  0  0  0  0  0  0  0  0
  144.6046  140.4162  155.2299 H   0  0  0  0  0  0  0  0  0  0  0  0
  146.5727  142.0017  155.3139 H   0  0  0  0  0  0  0  0  0  0  0  0
  146.4268  141.1497  156.8086 H   0  0  0  0  0  0  0  0  0  0  0  0
  147.0622  140.9515  153.2472 H   0  0  0  0  0  0  0  0  0  0  0  0
  148.4569  140.4707  152.3718 H   0  0  0  0  0  0  0  0  0  0  0  0
  150.4181  139.7249  153.4600 H   0  0  0  0  0  0  0  0  0  0  0  0
  150.0576  139.7053  158.9740 H   0  0  0  0  0  0  0  0  0  0  0  0
  150.8758  138.4134  158.1939 H   0  0  0  0  0  0  0  0  0  0  0  0
  151.0930  141.7743  159.1726 H   0  0  0  0  0  0  0  0  0  0  0  0
  153.9399  142.0538  158.5000 H   0  0  0  0  0  0  0  0  0  0  0  0
  153.8835  140.9982  160.7757 H   0  0  0  0  0  0  0  0  0  0  0  0
  154.5772  142.5972  160.7753 H   0  0  0  0  0  0  0  0  0  0  0  0
  151.7271  141.8873  161.6261 H   0  0  0  0  0  0  0  0  0  0  0  0
  153.0316  142.3704  162.6802 H   0  0  0  0  0  0  0  0  0  0  0  0
  151.4908  144.2667  162.2092 H   0  0  0  0  0  0  0  0  0  0  0  0
  153.1134  144.6091  161.6644 H   0  0  0  0  0  0  0  0  0  0  0  0
  150.7919  143.6798  159.9214 H   0  0  0  0  0  0  0  0  0  0  0  0
  152.2260  146.3760  159.9479 H   0  0  0  0  0  0  0  0  0  0  0  0
  150.6688  146.0541  160.7036 H   0  0  0  0  0  0  0  0  0  0  0  0
  150.8278  145.9404  158.9645 H   0  0  0  0  0  0  0  0  0  0  0  0
  153.6448  144.3696  159.1089 H   0  0  0  0  0  0  0  0  0  0  0  0
  151.2741  143.5713  157.3554 H   0  0  0  0  0  0  0  0  0  0  0  0
  152.9487  143.5916  156.8118 H   0  0  0  0  0  0  0  0  0  0  0  0
  152.1772  145.0820  157.3073 H   0  0  0  0  0  0  0  0  0  0  0  0
  1  2  1  0  0  0  0
  1 26  1  0  0  0  0
  1 27  1  0  0  0  0
  1 28  1  0  0  0  0
  2  3  1  0  0  0  0
  3  4  1  0  0  0  0
  3 29  1  0  0  0  0
  3 30  1  0  0  0  0
  4  5  1  0  0  0  0
  4 31  1  0  0  0  0
  4 32  1  0  0  0  0
  5 24  1  0  0  0  0
  5  6  1  0  0  0  0
  6  7  1  0  0  0  0
  6  8  2  0  0  0  0
  7 33  1  0  0  0  0
  7 34  1  0  0  0  0
  8  9  1  0  0  0  0
  8 35  1  0  0  0  0
  9 10  2  0  0  0  0
  9 11  1  0  0  0  0
 11 12  1  0  0  0  0
 11 24  1  0  0  0  0
 12 13  1  0  0  0  0
 12 36  1  0  0  0  0
 12 37  1  0  0  0  0
 13 14  2  0  0  0  0
 13 15  1  0  0  0  0
 15 16  1  0  0  0  0
 15 38  1  0  0  0  0
 16 22  1  0  0  0  0
 16 17  1  0  0  0  0
 16 39  1  0  0  0  0
 17 18  1  0  0  0  0
 17 40  1  0  0  0  0
 17 41  1  0  0  0  0
 18 19  1  0  0  0  0
 18 42  1  0  0  0  0
 18 43  1  0  0  0  0
 19 20  1  0  0  0  0
 19 44  1  0  0  0  0
 19 45  1  0  0  0  0
 20 21  1  0  0  0  0
 20 22  1  0  0  0  0
 20 46  1  0  0  0  0
 21 47  1  0  0  0  0
 21 48  1  0  0  0  0
 21 49  1  0  0  0  0
 22 23  1  0  0  0  0
 22 50  1  0  0  0  0
 23 51  1  0  0  0  0
 23 52  1  0  0  0  0
 23 53  1  0  0  0  0
 24 25  2  0  0  0  0
M  END
> <s_m_source_file>
AV-unprocessed.smi

> <i_m_source_file_index>
415

> <i_lp_mmshare_version>
43012

> <i_f3d_flags>
0

> <s_epik_input>
W0NIM11PW0NIMl1bQ0gyXW4xYyhbTkgyXSlbY0hdYyg9TyluKGMxPU8pW0NIMl1DKD1PKVtOSF1bQ0BASF0yW0NIMl1bQ0gyXVtDSDJdW0NAQEhdKFtDSDNdKVtDQEhdMltDSDNd

> <s_epik_cmdline>
J2VwaWtfcHl0aG9uJywgJy1waCcsICc3LjAnLCAnLXRuJywgJzgnLCAnLW1hJywgJzIwMCcsICctbWV0YWxfYmluZGluZycsICctaW1hZScsICc8aW5maWxlLm1hZT4nLCAnLW9tYWUnLCAnPG91dGZpbGUubWFlPic=

> <r_lp_tautomer_probability>
1

> <r_epik_Ionization_Penalty>
8.6647e-06

> <r_epik_Ionization_Penalty_Charging>
1.81162e-08

> <r_epik_Ionization_Penalty_Neutral>
8.64658e-06

> <r_epik_State_Penalty>
-0

> <r_epik_Charging_Adjusted_Penalty>
1.81162e-08

> <i_epik_Tot_Q>
0

> <i_epik_Tot_abs_Q>
0

> <r_epik_Metal_State_Penalty>
-0

> <b_epik_Metal_Only>
0

> <s_lp_Force_Field>
OPLS_2005

> <r_lp_Energy>
19.7433

> <b_lp_Chiralities_Consistent>
1

> <s_lp_Variant>
AV-unprocessed.smi:415-5

> <Gold.Version>
5.8.1

> <Gold.Id.Protein>
6NUR|6NUR_protein|mol2

> <Gold.PLP.Fitness>
51.4166

> <Gold.PLP.PLP>
-47.2919

> <Gold.PLP.part.hbond>
-2.7363

> <Gold.PLP.part.metal>
0.0000

> <Gold.PLP.part.buried>
-4.7393

> <Gold.PLP.part.nonpolar>
-39.9438

> <Gold.PLP.part.repulsive>
0.2824

> <Gold.PLP.ligand.clash>
0.0000

> <Gold.PLP.ligand.torsion>
1.0589

> <Gold.PLP.Chemscore.Hbond>
2.0000

> <Gold.PLP.Chemscore.CHOScore>
0.0000

> <Gold.PLP.Chemscore.Metal>
0.0000

> <Gold.Chemscore.Hbonds>
donor molecule, donor type, donor heavy atom, donor atom, acceptor molecule, acceptor atom, score
      L1  H     7    34       P1  7957  1.00
      P1  H  7997  8008       L1    14  1.00

> <Gold.PLP.Chemscore.Internal.Correction>
0.2424

> <Gold.Rescore>
     Score         DG    S(hbond)    S(metal)    S(lipo)     H(rot)  DE(clash)    DE(int)     intcor
     18.15     -19.49       1.99        0.00     112.36       2.26       0.07       1.27       ----

> <Gold.Chemscore.Fitness>
18.1511

> <Gold.Chemscore.DG>
-19.4891

> <Gold.Chemscore.ZeroCoef>
-5.4800

> <Gold.Chemscore.Hbond>
1.9942

> <Gold.Chemscore.Metal>
0.0000

> <Gold.Chemscore.Lipo>
112.3569

> <Gold.Chemscore.Internal_Hbond>
0.0000

> <Gold.Chemscore.DEClash>
0.0653

> <Gold.Chemscore.DEInternal>
1.2727

> <Gold.Chemscore.Rot>
2.2645

> <Gold.Chemscore.Internal.Correction>
   9.000000E+99

> <Gold.Chemscore.Hbonds>
donor molecule, donor type, donor heavy atom, donor atom, acceptor molecule, acceptor atom, score
      L1  H     7    34       P1  7957  1.00
      P1  H  7997  8008       L1    14  1.00

> <Gold.Chemscore.Hbond.Weighted>
-6.6605

> <Gold.Chemscore.Metal.Weighted>
-0.0000

> <Gold.Chemscore.Lipo.Weighted>
-13.1458

> <Gold.Chemscore.Internal_Hbond.Weighted>
0.0000

> <Gold.Chemscore.DEClash.Weighted>
0.0653

> <Gold.Chemscore.DEInternal.Weighted>
1.2727

> <Gold.Chemscore.Rot.Weighted>
5.7972

> <Gold.Chemscore.Internal.Correction.Weighted>
   9.000000E+99

> <Gold.Protein.RotatedTorsions>
[ 6907 6896 6895 6894 ] final  -20.60 input  -60.11 | X-H torsion
[ 7974 7965 7964 7962 ] final   67.52 input  175.53 | X-H torsion
[ 8008 7997 7996 7995 ] final  -77.62 input   59.86 | X-H torsion
[ 10167 10162 10161 10158 ] final -152.73 input  -65.29 | X-H torsion
[ 10718 10713 10712 10709 ] final  146.95 input   66.30 | X-H torsion
[ 10763 10752 10751 10750 ] final -112.56 input  -60.55 | X-H torsion
[ 11005 11000 10999 10996 ] final  118.58 input  -57.11 | X-H torsion

> <Gold.Protein.ActiveResidues>
 VAL166  LYS551  ARG553  GLY616  TRP617  ASP618  TYR619  PRO620  LYS621  CYS622 
 ASP623  PHE694  ASN695  SER759  ASP760  ASP761  ALA762  ILE779  LEU786  VAL792 
 PHE793  MET794  SER795  GLU796  ALA797  LYS798  CYS799  TRP800  GLU811  SER814 

> <Gold.Protein.RotatedAtoms>
  151.2457  135.0604  159.9042 H   0  0  0  0  0  0  0  0  0  0  0  0  # atno 6907 bound_to 6896
  152.5387  134.0386  159.8067 H   0  0  0  0  0  0  0  0  0  0  0  0  # atno 6908 bound_to 6896
  151.0587  133.5514  159.2667 H   0  0  0  0  0  0  0  0  0  0  0  0  # atno 6909 bound_to 6896
  145.8136  139.3046  143.1084 H   0  0  0  0  0  0  0  0  0  0  0  0  # atno 7974 bound_to 7965
  154.5613  140.0707  156.8824 H   0  0  0  0  0  0  0  0  0  0  0  0  # atno 8008 bound_to 7997
  155.2805  140.3371  155.4240 H   0  0  0  0  0  0  0  0  0  0  0  0  # atno 8009 bound_to 7997
  156.2045  140.1734  156.7815 H   0  0  0  0  0  0  0  0  0  0  0  0  # atno 8010 bound_to 7997
  139.7156  143.9038  152.2485 H   0  0  0  0  0  0  0  0  0  0  0  0  # atno 10167 bound_to 10162
  157.3269  131.0914  151.1194 H   0  0  0  0  0  0  0  0  0  0  0  0  # atno 10718 bound_to 10713
  154.8355  135.4486  154.1212 H   0  0  0  0  0  0  0  0  0  0  0  0  # atno 10763 bound_to 10752
  153.2448  135.6920  153.7750 H   0  0  0  0  0  0  0  0  0  0  0  0  # atno 10764 bound_to 10752
  153.7084  135.3360  155.3216 H   0  0  0  0  0  0  0  0  0  0  0  0  # atno 10765 bound_to 10752
  139.9115  134.9621  156.7524 H   0  0  0  0  0  0  0  0  0  0  0  0  # atno 11005 bound_to 11000
  145.9751  140.8729  143.0143 LP  0  0  0  0  0  0  0  0  0  0  0  0  # atno 17320 bound_to 7965
  144.6755  140.2000  143.7388 LP  0  0  0  0  0  0  0  0  0  0  0  0  # atno 17321 bound_to 7965
  139.8919  144.6960  150.8760 LP  0  0  0  0  0  0  0  0  0  0  0  0  # atno 17342 bound_to 10162
  140.7743  143.3579  151.1884 LP  0  0  0  0  0  0  0  0  0  0  0  0  # atno 17343 bound_to 10162
  157.2458  130.6590  149.5909 LP  0  0  0  0  0  0  0  0  0  0  0  0  # atno 17370 bound_to 10713
  155.9691  130.4554  150.5886 LP  0  0  0  0  0  0  0  0  0  0  0  0  # atno 17371 bound_to 10713
  140.6762  133.9515  155.7884 LP  0  0  0  0  0  0  0  0  0  0  0  0  # atno 17394 bound_to 11000
  141.0542  134.0440  157.3744 LP  0  0  0  0  0  0  0  0  0  0  0  0  # atno 17395 bound_to 11000

$$$$
