#       Name:                AV-unprocessed.smi:673
#       Creating user name   scv26
#       Creation time:       Fri Mar 27 00:26:01 2020


#       File generated by GOLD software.
#

@<TRIPOS>MOLECULE
AV-unprocessed.smi:673
    49    50     1
SMALL
NO_CHARGES


@<TRIPOS>ATOM
      1 ****        -3.7015  -1.0038  -1.4069 C.3            1 S1                 0.0000
      2 ****        -3.1556  -0.4466  -0.0826 C.3            1 S1                 0.0000
      3 ****        -3.6535  -1.2266   1.1575 C.3            1 S1                 0.0000
      4 ****        -3.3432  -2.6459   1.1175 N.pl3          1 S1                 0.0000
      5 ****        -4.0748  -3.6843   0.7093 C.2            1 S1                 0.0000
      6 ****        -3.4560  -4.8515   0.8187 N.2            1 S1                 0.0000
      7 ****        -2.2666  -4.4308   1.3431 C.2            1 S1                 0.0000
      8 ****        -2.1479  -3.1185   1.5434 N.2            1 S1                 0.0000
      9 ****        -1.6962  -0.4185  -0.1405 N.am           1 S1                 0.0000
     10 ****        -0.8916   0.3761   0.5871 C.2            1 S1                 0.0000
     11 ****        -1.3377   1.1911   1.3969 O.2            1 S1                 0.0000
     12 ****         0.4379   0.1576   0.4045 N.am           1 S1                 0.0000
     13 ****         0.9942  -0.6577  -0.6948 C.3            1 S1                 0.0000
     14 ****         2.3647  -0.1905  -1.2245 C.3            1 S1                 0.0000
     15 ****         2.4667   1.3250  -1.5016 C.3            1 S1                 0.0000
     16 ****         2.8612   2.2264  -0.2995 C.3            1 S1                 0.0000
     17 ****         4.2697   1.8679   0.2266 C.3            1 S1                 0.0000
     18 ****         2.9227   3.6820  -0.8064 C.3            1 S1                 0.0000
     19 ****         1.8255   2.1733   0.8528 C.3            1 S1                 0.0000
     20 ****         1.4135   0.7642   1.3219 C.3            1 S1                 0.0000
     21 ****        -4.7907  -1.0517  -1.3912 H              1 S1                 0.0000
     22 ****        -3.3256  -2.0071  -1.6105 H              1 S1                 0.0000
     23 ****        -3.4127  -0.3690  -2.2454 H              1 S1                 0.0000
     24 ****        -3.5109   0.5813   0.0063 H              1 S1                 0.0000
     25 ****        -3.2399  -0.8035   2.0742 H              1 S1                 0.0000
     26 ****        -4.7360  -1.1236   1.2407 H              1 S1                 0.0000
     27 ****        -5.0772  -3.5837   0.3195 H              1 S1                 0.0000
     28 ****        -1.4643  -5.1120   1.5851 H              1 S1                 0.0000
     29 ****        -1.2566  -1.0789  -0.7649 H              1 S1                 0.0000
     30 ****         1.0582  -1.6957  -0.3665 H              1 S1                 0.0000
     31 ****         0.3245  -0.6503  -1.5559 H              1 S1                 0.0000
     32 ****         3.1635  -0.5286  -0.5675 H              1 S1                 0.0000
     33 ****         2.5435  -0.7190  -2.1616 H              1 S1                 0.0000
     34 ****         3.2118   1.4653  -2.2860 H              1 S1                 0.0000
     35 ****         1.5275   1.6712  -1.9355 H              1 S1                 0.0000
     36 ****         4.5991   2.5795   0.9846 H              1 S1                 0.0000
     37 ****         5.0081   1.8856  -0.5757 H              1 S1                 0.0000
     38 ****         4.3118   0.8818   0.6859 H              1 S1                 0.0000
     39 ****         3.1956   4.3721  -0.0070 H              1 S1                 0.0000
     40 ****         1.9606   4.0084  -1.2032 H              1 S1                 0.0000
     41 ****         3.6588   3.7976  -1.6027 H              1 S1                 0.0000
     42 ****         2.2293   2.7159   1.7085 H              1 S1                 0.0000
     43 ****         0.9281   2.7248   0.5686 H              1 S1                 0.0000
     44 ****         0.9841   0.8372   2.3227 H              1 S1                 0.0000
     45 ****         2.2783   0.1157   1.4561 H              1 S1                 0.0000
     46 ****        -3.7688  -5.7722   0.5853 LP             1 S1                 0.0000
     47 ****        -1.3709  -2.6104   1.9150 LP             1 S1                 0.0000
     48 ****        -2.3254   1.2760   1.5283 LP             1 S1                 0.0000
     49 ****        -0.7120   1.7674   1.9225 LP             1 S1                 0.0000
@<TRIPOS>BOND
    1    1    2 1     
    2    1   21 1     
    3    1   22 1     
    4    1   23 1     
    5    2    3 1     
    6    2    9 1     
    7    2   24 1     
    8    3    4 1     
    9    3   25 1     
   10    3   26 1     
   11    4    8 1     
   12    4    5 1     
   13    5    6 2     
   14    5   27 1     
   15    6    7 1     
   16    7    8 2     
   17    7   28 1     
   18    9   10 am    
   19    9   29 1     
   20   10   11 2     
   21   10   12 am    
   22   12   20 1     
   23   12   13 1     
   24   13   14 1     
   25   13   30 1     
   26   13   31 1     
   27   14   15 1     
   28   14   32 1     
   29   14   33 1     
   30   15   16 1     
   31   15   34 1     
   32   15   35 1     
   33   16   17 1     
   34   16   18 1     
   35   16   19 1     
   36   17   36 1     
   37   17   37 1     
   38   17   38 1     
   39   18   39 1     
   40   18   40 1     
   41   18   41 1     
   42   19   20 1     
   43   19   42 1     
   44   19   43 1     
   45   20   44 1     
   46   20   45 1     
   47    6   46 1     
   48    8   47 1     
   49   11   48 1     
   50   11   49 1     
@<TRIPOS>SUBSTRUCTURE
      1 S1             1
@<TRIPOS>SET
LONE_PAIRS      STATIC     ATOMS    <user>   **** ""
4 46 47 48 49
DONOR_HYDROGENS      STATIC     ATOMS    <user>   **** ""
1 29
ATOM$BLUE        STATIC     ATOMS    COLORGROUP SYSTEM
4 46 47 48 49
ATOM$RED        STATIC     ATOMS    COLORGROUP SYSTEM
1 29
