#       Name:                AV-unprocessed.smi:2159
#       Creating user name   scv26
#       Creation time:       Fri Mar 27 11:57:51 2020


#       File generated by GOLD software.
#

@<TRIPOS>MOLECULE
AV-unprocessed.smi:2159
    54    56     1
SMALL
NO_CHARGES


@<TRIPOS>ATOM
      1 ****        -2.0943   0.6247   0.8695 O.2            1 S1                 0.0000
      2 ****        -1.4438  -0.1196   0.1349 C.2            1 S1                 0.0000
      3 ****         0.0823  -0.0108   0.0695 C.3            1 S1                 0.0000
      4 ****         0.7182   0.3387   1.4299 C.3            1 S1                 0.0000
      5 ****         2.1756   0.4443   1.3256 N.am           1 S1                 0.0000
      6 ****         3.0253  -0.5887   1.4820 C.2            1 S1                 0.0000
      7 ****         2.7476  -1.7353   1.8319 O.2            1 S1                 0.0000
      8 ****         4.4183  -0.1490   1.0557 C.3            1 S1                 0.0000
      9 ****         5.6886  -0.6579   1.7385 C.3            1 S1                 0.0000
     10 ****         6.8863   0.0074   1.0092 C.3            1 S1                 0.0000
     11 ****         6.7630   1.5537   0.8685 C.3            1 S1                 0.0000
     12 ****         5.3804   2.0313   0.3503 C.3            1 S1                 0.0000
     13 ****         4.3234   1.3548   1.2244 C.3            1 S1                 0.0000
     14 ****         2.8319   1.5830   1.0315 C.2            1 S1                 0.0000
     15 ****         2.3394   2.6656   0.7158 O.2            1 S1                 0.0000
     16 ****        -2.0095  -1.0487  -0.6512 N.am           1 S1                 0.0000
     17 ****        -3.4428  -1.3023  -0.7410 C.3            1 S1                 0.0000
     18 ****        -4.1417  -0.2795  -1.6530 C.3            1 S1                 0.0000
     19 ****        -5.6398  -0.5014  -1.7229 C.ar           1 S1                 0.0000
     20 ****        -6.2530  -1.1741  -2.8022 C.ar           1 S1                 0.0000
     21 ****        -7.6531  -1.3472  -2.7995 C.ar           1 S1                 0.0000
     22 ****        -8.4089  -0.8451  -1.7196 C.ar           1 S1                 0.0000
     23 ****        -7.7446  -0.1825  -0.6673 C.ar           1 S1                 0.0000
     24 ****        -6.4018  -0.0372  -0.7059 N.pl3          1 S1                 1.0000
     25 ****         0.4966  -0.9512  -0.2977 H              1 S1                 0.0000
     26 ****         0.3353   0.7517  -0.6681 H              1 S1                 0.0000
     27 ****         0.3137   1.2788   1.8101 H              1 S1                 0.0000
     28 ****         0.4539  -0.4173   2.1717 H              1 S1                 0.0000
     29 ****         4.4829  -0.4037  -0.0048 H              1 S1                 0.0000
     30 ****         5.6904  -0.4003   2.7986 H              1 S1                 0.0000
     31 ****         5.7572  -1.7442   1.6716 H              1 S1                 0.0000
     32 ****         7.8162  -0.2444   1.5199 H              1 S1                 0.0000
     33 ****         6.9684  -0.4235   0.0104 H              1 S1                 0.0000
     34 ****         6.9433   2.0048   1.8452 H              1 S1                 0.0000
     35 ****         7.5518   1.9295   0.2162 H              1 S1                 0.0000
     36 ****         5.3029   3.1170   0.4166 H              1 S1                 0.0000
     37 ****         5.2471   1.7631  -0.6987 H              1 S1                 0.0000
     38 ****         4.5209   1.6290   2.2635 H              1 S1                 0.0000
     39 ****        -1.4046  -1.6193  -1.2242 H              1 S1                 0.0000
     40 ****        -3.5879  -2.3096  -1.1326 H              1 S1                 0.0000
     41 ****        -3.8828  -1.2923   0.2579 H              1 S1                 0.0000
     42 ****        -3.9593   0.7352  -1.2962 H              1 S1                 0.0000
     43 ****        -3.7236  -0.3303  -2.6593 H              1 S1                 0.0000
     44 ****        -5.6607  -1.5534  -3.6223 H              1 S1                 0.0000
     45 ****        -8.1417  -1.8585  -3.6160 H              1 S1                 0.0000
     46 ****        -9.4822  -0.9668  -1.6993 H              1 S1                 0.0000
     47 ****        -8.2424   0.2331   0.1969 H              1 S1                 0.0000
     48 ****        -5.9413   0.4464   0.0660 H              1 S1                 0.0000
     49 ****        -1.6263   1.3078   1.4302 LP             1 S1                 0.0000
     50 ****        -3.0906   0.5460   0.9053 LP             1 S1                 0.0000
     51 ****         1.7996  -1.9803   2.0350 LP             1 S1                 0.0000
     52 ****         3.4699  -2.4220   1.9131 LP             1 S1                 0.0000
     53 ****         1.3461   2.7647   0.6563 LP             1 S1                 0.0000
     54 ****         2.9324   3.4463   0.5188 LP             1 S1                 0.0000
@<TRIPOS>BOND
    1    1    2 2     
    2    2    3 1     
    3    2   16 am    
    4    3    4 1     
    5    3   25 1     
    6    3   26 1     
    7    4    5 1     
    8    4   27 1     
    9    4   28 1     
   10    5   14 am    
   11    5    6 am    
   12    6    7 2     
   13    6    8 1     
   14    8   13 1     
   15    8    9 1     
   16    8   29 1     
   17    9   10 1     
   18    9   30 1     
   19    9   31 1     
   20   10   11 1     
   21   10   32 1     
   22   10   33 1     
   23   11   12 1     
   24   11   34 1     
   25   11   35 1     
   26   12   13 1     
   27   12   36 1     
   28   12   37 1     
   29   13   14 1     
   30   13   38 1     
   31   14   15 2     
   32   16   17 1     
   33   16   39 1     
   34   17   18 1     
   35   17   40 1     
   36   17   41 1     
   37   18   19 1     
   38   18   42 1     
   39   18   43 1     
   40   19   24 ar    
   41   19   20 ar    
   42   20   21 ar    
   43   20   44 1     
   44   21   22 ar    
   45   21   45 1     
   46   22   23 ar    
   47   22   46 1     
   48   23   24 ar    
   49   23   47 1     
   50   24   48 1     
   51    1   49 1     
   52    1   50 1     
   53    7   51 1     
   54    7   52 1     
   55   15   53 1     
   56   15   54 1     
@<TRIPOS>SUBSTRUCTURE
      1 S1             1
@<TRIPOS>SET
LONE_PAIRS      STATIC     ATOMS    <user>   **** ""
6 49 50 51 52 53 54
DONOR_HYDROGENS      STATIC     ATOMS    <user>   **** ""
2 39 48
ATOM$BLUE        STATIC     ATOMS    COLORGROUP SYSTEM
6 49 50 51 52 53 54
ATOM$RED        STATIC     ATOMS    COLORGROUP SYSTEM
2 39 48
