AV-unprocessed.smi:1956|AV-procd|sdf|7902|dock2
  -GOLD-   2272010 53D 1   1.00000     0.00000
 Structure written by MMmdl.
 46 47  0  0  0  0  0  0  0  0  2 V2000
  150.6998  142.4195  157.4434 C   0  0  0  0  0  0  0  0  0  0  0  0
  151.2825  141.6823  156.3742 O   0  0  0  0  0  0  0  0  0  0  0  0
  150.4821  140.8055  155.6710 C   0  0  0  0  0  0  0  0  0  0  0  0
  149.0838  140.9167  155.8000 C   0  0  0  0  0  0  0  0  0  0  0  0
  148.2590  140.0270  155.0855 C   0  0  0  0  0  0  0  0  0  0  0  0
  148.8618  139.0465  154.2597 C   0  0  0  0  0  0  0  0  0  0  0  0
  148.1575  138.0879  153.4788 N   0  0  0  0  0  0  0  0  0  0  0  0
  146.8441  137.8020  153.4519 C   0  0  0  0  0  0  0  0  0  0  0  0
  145.9755  138.3407  154.1368 O   0  0  0  0  0  0  0  0  0  0  0  0
  146.5790  136.8312  152.5660 N   0  0  0  0  0  0  0  0  0  0  0  0
  145.2536  136.2825  152.3019 C   0  0  0  0  0  0  0  0  0  0  0  0
  144.9680  136.1927  150.7898 C   0  0  0  0  0  0  0  0  0  0  0  0
  145.0737  134.8039  150.2765 N   0  3  1  0  0  0  0  0  0  0  0  0
  146.2625  134.0933  150.8150 C   0  0  0  0  0  0  0  0  0  0  0  0
  146.4395  132.7216  150.1448 C   0  0  0  0  0  0  0  0  0  0  0  0
  145.1722  131.8680  150.2931 C   0  0  0  0  0  0  0  0  0  0  0  0
  143.9267  132.6242  149.7947 C   0  0  2  0  0  0  0  0  0  0  0  0
  143.8594  132.7180  148.2602 C   0  0  0  0  0  0  0  0  0  0  0  0
  143.8296  134.0092  150.4673 C   0  0  0  0  0  0  0  0  0  0  0  0
  150.2711  139.0223  154.1993 C   0  0  0  0  0  0  0  0  0  0  0  0
  151.0672  139.8717  154.8815 N   0  0  0  0  0  0  0  0  0  0  0  0
  151.4574  143.0601  157.8945 H   0  0  0  0  0  0  0  0  0  0  0  0
  150.3181  141.7587  158.2233 H   0  0  0  0  0  0  0  0  0  0  0  0
  149.8913  143.0615  157.0905 H   0  0  0  0  0  0  0  0  0  0  0  0
  148.6498  141.6736  156.4366 H   0  0  0  0  0  0  0  0  0  0  0  0
  147.1909  140.1260  155.1897 H   0  0  0  0  0  0  0  0  0  0  0  0
  148.7367  137.5379  152.8613 H   0  0  0  0  0  0  0  0  0  0  0  0
  147.3494  136.4374  152.0453 H   0  0  0  0  0  0  0  0  0  0  0  0
  145.2150  135.2978  152.7657 H   0  0  0  0  0  0  0  0  0  0  0  0
  144.4941  136.8889  152.7988 H   0  0  0  0  0  0  0  0  0  0  0  0
  143.9561  136.5583  150.6106 H   0  0  0  0  0  0  0  0  0  0  0  0
  145.6346  136.8487  150.2276 H   0  0  0  0  0  0  0  0  0  0  0  0
  147.1601  134.6887  150.6440 H   0  0  0  0  0  0  0  0  0  0  0  0
  146.1600  133.9762  151.8950 H   0  0  0  0  0  0  0  0  0  0  0  0
  146.6787  132.8553  149.0893 H   0  0  0  0  0  0  0  0  0  0  0  0
  147.2900  132.2009  150.5857 H   0  0  0  0  0  0  0  0  0  0  0  0
  145.2870  130.9231  149.7606 H   0  0  0  0  0  0  0  0  0  0  0  0
  145.0380  131.6105  151.3446 H   0  0  0  0  0  0  0  0  0  0  0  0
  143.0533  132.0489  150.1046 H   0  0  0  0  0  0  0  0  0  0  0  0
  144.6829  133.3028  147.8500 H   0  0  0  0  0  0  0  0  0  0  0  0
  142.9303  133.1894  147.9384 H   0  0  0  0  0  0  0  0  0  0  0  0
  143.8975  131.7278  147.8052 H   0  0  0  0  0  0  0  0  0  0  0  0
  143.6474  133.8875  151.5364 H   0  0  0  0  0  0  0  0  0  0  0  0
  142.9669  134.5406  150.0674 H   0  0  0  0  0  0  0  0  0  0  0  0
  150.7799  138.2963  153.5821 H   0  0  0  0  0  0  0  0  0  0  0  0
  145.2234  134.8821  149.2806 H   0  0  0  0  0  0  0  0  0  0  0  0
  1  2  1  0  0  0  0
  1 22  1  0  0  0  0
  1 23  1  0  0  0  0
  1 24  1  0  0  0  0
  2  3  1  0  0  0  0
  3 21  1  0  0  0  0
  3  4  2  0  0  0  0
  4  5  1  0  0  0  0
  4 25  1  0  0  0  0
  5  6  2  0  0  0  0
  5 26  1  0  0  0  0
  6  7  1  0  0  0  0
  6 20  1  0  0  0  0
  7  8  1  0  0  0  0
  7 27  1  0  0  0  0
  8  9  2  0  0  0  0
  8 10  1  0  0  0  0
 10 11  1  0  0  0  0
 10 28  1  0  0  0  0
 11 12  1  0  0  0  0
 11 29  1  0  0  0  0
 11 30  1  0  0  0  0
 12 13  1  0  0  0  0
 12 31  1  0  0  0  0
 12 32  1  0  0  0  0
 13 19  1  0  0  0  0
 13 14  1  0  0  0  0
 13 46  1  0  0  0  0
 14 15  1  0  0  0  0
 14 33  1  0  0  0  0
 14 34  1  0  0  0  0
 15 16  1  0  0  0  0
 15 35  1  0  0  0  0
 15 36  1  0  0  0  0
 16 17  1  0  0  0  0
 16 37  1  0  0  0  0
 16 38  1  0  0  0  0
 17 18  1  0  0  0  0
 17 19  1  0  0  0  0
 17 39  1  0  0  0  0
 18 40  1  0  0  0  0
 18 41  1  0  0  0  0
 18 42  1  0  0  0  0
 19 43  1  0  0  0  0
 19 44  1  0  0  0  0
 20 21  2  0  0  0  0
 20 45  1  0  0  0  0
M  CHG  1  13   1
M  END
> <s_m_source_file>
AV-unprocessed.smi

> <i_m_source_file_index>
1956

> <i_lp_mmshare_version>
43012

> <i_f3d_flags>
0

> <s_epik_input>
W0NIM11PYzFbY0hdW2NIXWMoW2NIXW4xKVtOSF1DKD1PKVtOSF1bQ0gyXVtDSDJdTjJbQ0gyXVtDSDJdW0NIMl1bQ0BASF0oW0NIM10pW0NIMl0y

> <s_epik_cmdline>
J2VwaWtfcHl0aG9uJywgJy1waCcsICc3LjAnLCAnLXRuJywgJzgnLCAnLW1hJywgJzIwMCcsICctbWV0YWxfYmluZGluZycsICctaW1hZScsICc8aW5maWxlLm1hZT4nLCAnLW9tYWUnLCAnPG91dGZpbGUubWFlPic=

> <r_lp_tautomer_probability>
1

> <r_epik_Ionization_Penalty>
0.00179545

> <r_epik_Ionization_Penalty_Charging>
0.00171832

> <r_epik_Ionization_Penalty_Neutral>
7.7124e-05

> <r_epik_State_Penalty>
0.0011618

> <r_epik_Charging_Adjusted_Penalty>
0.00288012

> <i_epik_Tot_Q>
1

> <i_epik_Tot_abs_Q>
1

> <r_epik_Metal_State_Penalty>
-0

> <b_epik_Metal_Only>
0

> <s_lp_Force_Field>
OPLS_2005

> <r_lp_Energy>
22.555

> <b_lp_Chiralities_Consistent>
1

> <s_lp_Variant>
AV-unprocessed.smi:1956-3

> <Gold.Version>
5.8.1

> <Gold.Id.Protein>
6NUR|6NUR_protein|mol2

> <Gold.PLP.Fitness>
45.8541

> <Gold.PLP.PLP>
-35.3842

> <Gold.PLP.part.hbond>
-4.0085

> <Gold.PLP.part.metal>
0.0000

> <Gold.PLP.part.buried>
2.5111

> <Gold.PLP.part.nonpolar>
-32.7502

> <Gold.PLP.part.repulsive>
0.3560

> <Gold.PLP.ligand.clash>
0.0000

> <Gold.PLP.ligand.torsion>
0.7958

> <Gold.PLP.Chemscore.Hbond>
4.0000

> <Gold.PLP.Chemscore.CHOScore>
0.0000

> <Gold.PLP.Chemscore.Metal>
0.0000

> <Gold.Chemscore.Hbonds>
donor molecule, donor type, donor heavy atom, donor atom, acceptor molecule, acceptor atom, score
      L1  H     7    27       P1  7948  1.00
      L1  H    10    28       P1  7948  1.00
      L1  H    13    46       P1  7921  1.00
      P1  H  7989  7998       L1    21  0.95

> <Gold.PLP.Chemscore.Internal.Correction>
0.0617

> <Gold.Rescore>
     Score         DG    S(hbond)    S(metal)    S(lipo)     H(rot)  DE(clash)    DE(int)     intcor
     19.42     -23.25       3.15        0.00      99.38       1.71       1.94       1.89       ----

> <Gold.Chemscore.Fitness>
19.4230

> <Gold.Chemscore.DG>
-23.2505

> <Gold.Chemscore.ZeroCoef>
-5.4800

> <Gold.Chemscore.Hbond>
3.1505

> <Gold.Chemscore.Metal>
0.0000

> <Gold.Chemscore.Lipo>
99.3769

> <Gold.Chemscore.Internal_Hbond>
0.0000

> <Gold.Chemscore.DEClash>
1.9382

> <Gold.Chemscore.DEInternal>
1.8892

> <Gold.Chemscore.Rot>
1.7107

> <Gold.Chemscore.Internal.Correction>
   9.000000E+99

> <Gold.Chemscore.Hbonds>
donor molecule, donor type, donor heavy atom, donor atom, acceptor molecule, acceptor atom, score
      L1  H     7    27       P1  7948  0.96
      L1  H    10    28       P1  7948  0.94
      L1  H    13    46       P1  7921  0.99
      P1  H  7989  7998       L1    21  0.07

> <Gold.Chemscore.Hbond.Weighted>
-10.5228

> <Gold.Chemscore.Metal.Weighted>
-0.0000

> <Gold.Chemscore.Lipo.Weighted>
-11.6271

> <Gold.Chemscore.Internal_Hbond.Weighted>
0.0000

> <Gold.Chemscore.DEClash.Weighted>
1.9382

> <Gold.Chemscore.DEInternal.Weighted>
1.8892

> <Gold.Chemscore.Rot.Weighted>
4.3794

> <Gold.Chemscore.Internal.Correction.Weighted>
   9.000000E+99

> <Gold.Protein.RotatedTorsions>
[ 6907 6896 6895 6894 ] final   12.72 input  -60.11 | X-H torsion
[ 7974 7965 7964 7962 ] final  171.20 input  175.53 | X-H torsion
[ 8008 7997 7996 7995 ] final  126.57 input   59.86 | X-H torsion
[ 10167 10162 10161 10158 ] final -114.39 input  -65.29 | X-H torsion
[ 10718 10713 10712 10709 ] final -118.48 input   66.30 | X-H torsion
[ 10763 10752 10751 10750 ] final  152.29 input  -60.55 | X-H torsion
[ 11005 11000 10999 10996 ] final  123.25 input  -57.11 | X-H torsion

> <Gold.Protein.ActiveResidues>
 VAL166  LYS551  ARG553  GLY616  TRP617  ASP618  TYR619  PRO620  LYS621  CYS622 
 ASP623  PHE694  ASN695  SER759  ASP760  ASP761  ALA762  ILE779  LEU786  VAL792 
 PHE793  MET794  SER795  GLU796  ALA797  LYS798  CYS799  TRP800  GLU811  SER814 

> <Gold.Protein.RotatedAtoms>
  151.7748  135.0777  160.0364 H   0  0  0  0  0  0  0  0  0  0  0  0  # atno 6907 bound_to 6896
  152.3264  133.5905  159.5787 H   0  0  0  0  0  0  0  0  0  0  0  0  # atno 6908 bound_to 6896
  150.7397  133.9851  159.3630 H   0  0  0  0  0  0  0  0  0  0  0  0  # atno 6909 bound_to 6896
  144.7301  139.9315  143.6425 H   0  0  0  0  0  0  0  0  0  0  0  0  # atno 7974 bound_to 7965
  156.2867  140.2689  156.2133 H   0  0  0  0  0  0  0  0  0  0  0  0  # atno 8008 bound_to 7997
  155.0242  140.0386  157.2467 H   0  0  0  0  0  0  0  0  0  0  0  0  # atno 8009 bound_to 7997
  154.7409  140.2725  155.6379 H   0  0  0  0  0  0  0  0  0  0  0  0  # atno 8010 bound_to 7997
  140.1015  143.4609  152.1809 H   0  0  0  0  0  0  0  0  0  0  0  0  # atno 10167 bound_to 10162
  156.1109  130.6248  150.9296 H   0  0  0  0  0  0  0  0  0  0  0  0  # atno 10718 bound_to 10713
  154.1176  135.2835  155.3216 H   0  0  0  0  0  0  0  0  0  0  0  0  # atno 10763 bound_to 10752
  154.6446  135.5390  153.7832 H   0  0  0  0  0  0  0  0  0  0  0  0  # atno 10764 bound_to 10752
  153.0324  135.6495  154.1332 H   0  0  0  0  0  0  0  0  0  0  0  0  # atno 10765 bound_to 10752
  139.9304  134.9641  156.8231 H   0  0  0  0  0  0  0  0  0  0  0  0  # atno 11005 bound_to 11000
  146.0854  139.3842  143.0439 LP  0  0  0  0  0  0  0  0  0  0  0  0  # atno 17320 bound_to 7965
  145.7784  140.9867  143.1112 LP  0  0  0  0  0  0  0  0  0  0  0  0  # atno 17321 bound_to 7965
  139.5669  144.7440  151.3999 LP  0  0  0  0  0  0  0  0  0  0  0  0  # atno 17342 bound_to 10162
  140.6975  143.7713  150.7350 LP  0  0  0  0  0  0  0  0  0  0  0  0  # atno 17343 bound_to 10162
  157.6290  131.0923  150.8478 LP  0  0  0  0  0  0  0  0  0  0  0  0  # atno 17370 bound_to 10713
  156.8589  130.5106  149.5305 LP  0  0  0  0  0  0  0  0  0  0  0  0  # atno 17371 bound_to 10713
  140.6218  133.9987  155.7622 LP  0  0  0  0  0  0  0  0  0  0  0  0  # atno 17394 bound_to 11000
  141.0889  133.9948  157.3269 LP  0  0  0  0  0  0  0  0  0  0  0  0  # atno 17395 bound_to 11000

$$$$
