AV-unprocessed.smi:1716|AV-procd|sdf|6916|dock10
  -GOLD-   22720 8123D 1   1.00000     0.00000
 Structure written by MMmdl.
 40 41  0  0  0  0  0  0  0  0  1 V2000
  147.6605  140.8853  157.3325 C   0  0  0  0  0  0  0  0  0  0  0  0
  148.0758  141.2125  155.8962 C   0  0  0  0  0  0  0  0  0  0  0  0
  149.1809  141.7247  155.7165 O   0  0  0  0  0  0  0  0  0  0  0  0
  147.2259  140.9292  154.8796 N   0  0  0  0  0  0  0  0  0  0  0  0
  147.5731  141.1468  153.4703 C   0  0  0  0  0  0  0  0  0  0  0  0
  147.7531  139.7813  152.7827 C   0  0  0  0  0  0  0  0  0  0  0  0
  146.4926  138.9005  152.9429 C   0  0  0  0  0  0  0  0  0  0  0  0
  146.7434  137.5468  152.4568 N   0  0  0  0  0  0  0  0  0  0  0  0
  145.8006  136.6225  152.2205 C   0  0  0  0  0  0  0  0  0  0  0  0
  144.5972  136.8228  152.3889 O   0  0  0  0  0  0  0  0  0  0  0  0
  146.3460  135.4740  151.7820 N   0  0  0  0  0  0  0  0  0  0  0  0
  145.6918  134.2601  151.4274 C   0  0  0  0  0  0  0  0  0  0  0  0
  144.4715  134.2320  150.8344 N   0  0  0  0  0  0  0  0  0  0  0  0
  143.9087  133.0461  150.5255 C   0  0  0  0  0  0  0  0  0  0  0  0
  144.5269  131.8117  150.7880 C   0  0  0  0  0  0  0  0  0  0  0  0
  145.7913  131.8222  151.4014 C   0  0  0  0  0  0  0  0  0  0  0  0
  146.3880  133.0585  151.7284 C   0  0  0  0  0  0  0  0  0  0  0  0
  147.7558  133.0714  152.3916 C   0  0  0  0  0  0  0  0  0  0  0  0
  146.0295  138.8465  154.4145 C   0  0  0  0  0  0  0  0  0  0  0  0
  145.9272  140.2583  155.0190 C   0  0  0  0  0  0  0  0  0  0  0  0
  147.4529  139.8204  157.4427 H   0  0  0  0  0  0  0  0  0  0  0  0
  146.7737  141.4523  157.6169 H   0  0  0  0  0  0  0  0  0  0  0  0
  148.4578  141.1421  158.0305 H   0  0  0  0  0  0  0  0  0  0  0  0
  146.7747  141.7089  152.9838 H   0  0  0  0  0  0  0  0  0  0  0  0
  148.4759  141.7458  153.3443 H   0  0  0  0  0  0  0  0  0  0  0  0
  147.9795  139.9272  151.7259 H   0  0  0  0  0  0  0  0  0  0  0  0
  148.6166  139.2748  153.2165 H   0  0  0  0  0  0  0  0  0  0  0  0
  145.6845  139.3462  152.3596 H   0  0  0  0  0  0  0  0  0  0  0  0
  147.7070  137.2970  152.2888 H   0  0  0  0  0  0  0  0  0  0  0  0
  147.3509  135.4635  151.6914 H   0  0  0  0  0  0  0  0  0  0  0  0
  142.9370  133.0834  150.0558 H   0  0  0  0  0  0  0  0  0  0  0  0
  144.0435  130.8823  150.5257 H   0  0  0  0  0  0  0  0  0  0  0  0
  146.2938  130.8906  151.6168 H   0  0  0  0  0  0  0  0  0  0  0  0
  148.1321  132.0597  152.5460 H   0  0  0  0  0  0  0  0  0  0  0  0
  147.7043  133.5615  153.3641 H   0  0  0  0  0  0  0  0  0  0  0  0
  148.4761  133.6057  151.7715 H   0  0  0  0  0  0  0  0  0  0  0  0
  145.0655  138.3413  154.4847 H   0  0  0  0  0  0  0  0  0  0  0  0
  146.7324  138.2559  155.0046 H   0  0  0  0  0  0  0  0  0  0  0  0
  145.5751  140.1955  156.0474 H   0  0  0  0  0  0  0  0  0  0  0  0
  145.1686  140.8354  154.4882 H   0  0  0  0  0  0  0  0  0  0  0  0
  1  2  1  0  0  0  0
  1 21  1  0  0  0  0
  1 22  1  0  0  0  0
  1 23  1  0  0  0  0
  2  3  2  0  0  0  0
  2  4  1  0  0  0  0
  4 20  1  0  0  0  0
  4  5  1  0  0  0  0
  5  6  1  0  0  0  0
  5 24  1  0  0  0  0
  5 25  1  0  0  0  0
  6  7  1  0  0  0  0
  6 26  1  0  0  0  0
  6 27  1  0  0  0  0
  7  8  1  0  0  0  0
  7 19  1  0  0  0  0
  7 28  1  0  0  0  0
  8  9  1  0  0  0  0
  8 29  1  0  0  0  0
  9 10  2  0  0  0  0
  9 11  1  0  0  0  0
 11 12  1  0  0  0  0
 11 30  1  0  0  0  0
 12 17  1  0  0  0  0
 12 13  2  0  0  0  0
 13 14  1  0  0  0  0
 14 15  2  0  0  0  0
 14 31  1  0  0  0  0
 15 16  1  0  0  0  0
 15 32  1  0  0  0  0
 16 17  2  0  0  0  0
 16 33  1  0  0  0  0
 17 18  1  0  0  0  0
 18 34  1  0  0  0  0
 18 35  1  0  0  0  0
 18 36  1  0  0  0  0
 19 20  1  0  0  0  0
 19 37  1  0  0  0  0
 19 38  1  0  0  0  0
 20 39  1  0  0  0  0
 20 40  1  0  0  0  0
M  END
> <s_m_source_file>
AV-unprocessed.smi

> <i_m_source_file_index>
1716

> <i_lp_mmshare_version>
43012

> <i_f3d_flags>
0

> <s_epik_input>
W0NIM11DKD1PKU4xW0NIMl1bQ0gyXVtDSF0oW0NIMl1bQ0gyXTEpW05IXUMoPU8pW05IXWMybltjSF1bY0hdW2NIXWMyW0NIM10=

> <s_epik_cmdline>
J2VwaWtfcHl0aG9uJywgJy1waCcsICc3LjAnLCAnLXRuJywgJzgnLCAnLW1hJywgJzIwMCcsICctbWV0YWxfYmluZGluZycsICctaW1hZScsICc8aW5maWxlLm1hZT4nLCAnLW9tYWUnLCAnPG91dGZpbGUubWFlPic=

> <r_lp_tautomer_probability>
1

> <r_epik_Ionization_Penalty>
5.94044e-05

> <r_epik_Ionization_Penalty_Charging>
0

> <r_epik_Ionization_Penalty_Neutral>
5.94044e-05

> <r_epik_State_Penalty>
-0

> <r_epik_Charging_Adjusted_Penalty>
0

> <i_epik_Tot_Q>
0

> <i_epik_Tot_abs_Q>
0

> <r_epik_Metal_State_Penalty>
-0

> <b_epik_Metal_Only>
0

> <s_lp_Force_Field>
OPLS_2005

> <r_lp_Energy>
26.4914

> <b_lp_Chiralities_Consistent>
1

> <s_lp_Variant>
AV-unprocessed.smi:1716-1

> <Gold.Version>
5.8.1

> <Gold.Id.Protein>
6NUR|6NUR_protein|mol2

> <Gold.PLP.Fitness>
36.2437

> <Gold.PLP.PLP>
-27.9756

> <Gold.PLP.part.hbond>
-2.0000

> <Gold.PLP.part.metal>
0.0000

> <Gold.PLP.part.buried>
-1.5087

> <Gold.PLP.part.nonpolar>
-25.9924

> <Gold.PLP.part.repulsive>
1.1931

> <Gold.PLP.ligand.clash>
0.0000

> <Gold.PLP.ligand.torsion>
0.3733

> <Gold.PLP.Chemscore.Hbond>
2.0000

> <Gold.PLP.Chemscore.CHOScore>
1.0000

> <Gold.PLP.Chemscore.Metal>
0.0000

> <Gold.Chemscore.Hbonds>
donor molecule, donor type, donor heavy atom, donor atom, acceptor molecule, acceptor atom, score
      L1  H     8    29       P1  7948  1.00
      L1  H    11    30       P1  7948  1.00
      L1  C    14    31       P1 10186  1.00

> <Gold.PLP.Chemscore.Internal.Correction>
0.0146

> <Gold.Rescore>
     Score         DG    S(hbond)    S(metal)    S(lipo)     H(rot)  DE(clash)    DE(int)     intcor
     14.40     -17.41       1.94        0.00      68.44       1.00       1.71       1.31       ----

> <Gold.Chemscore.Fitness>
14.3960

> <Gold.Chemscore.DG>
-17.4081

> <Gold.Chemscore.ZeroCoef>
-5.4800

> <Gold.Chemscore.Hbond>
1.9404

> <Gold.Chemscore.Metal>
0.0000

> <Gold.Chemscore.Lipo>
68.4378

> <Gold.Chemscore.Internal_Hbond>
0.0000

> <Gold.Chemscore.DEClash>
1.7053

> <Gold.Chemscore.DEInternal>
1.3067

> <Gold.Chemscore.Rot>
1.0000

> <Gold.Chemscore.Internal.Correction>
   9.000000E+99

> <Gold.Chemscore.Hbonds>
donor molecule, donor type, donor heavy atom, donor atom, acceptor molecule, acceptor atom, score
      L1  H     8    29       P1  7948  0.97
      L1  H    11    30       P1  7948  0.95

> <Gold.Chemscore.Hbond.Weighted>
-6.4809

> <Gold.Chemscore.Metal.Weighted>
-0.0000

> <Gold.Chemscore.Lipo.Weighted>
-8.0072

> <Gold.Chemscore.Internal_Hbond.Weighted>
0.0000

> <Gold.Chemscore.DEClash.Weighted>
1.7053

> <Gold.Chemscore.DEInternal.Weighted>
1.3067

> <Gold.Chemscore.Rot.Weighted>
2.5600

> <Gold.Chemscore.Internal.Correction.Weighted>
   9.000000E+99

> <Gold.Protein.RotatedTorsions>
[ 6907 6896 6895 6894 ] final   40.66 input  -60.11 | X-H torsion
[ 7974 7965 7964 7962 ] final -123.31 input  175.53 | X-H torsion
[ 8008 7997 7996 7995 ] final -165.87 input   59.86 | X-H torsion
[ 10167 10162 10161 10158 ] final  -28.03 input  -65.29 | X-H torsion
[ 10718 10713 10712 10709 ] final  -97.52 input   66.30 | X-H torsion
[ 10763 10752 10751 10750 ] final   32.46 input  -60.55 | X-H torsion
[ 11005 11000 10999 10996 ] final -114.03 input  -57.11 | X-H torsion

> <Gold.Protein.ActiveResidues>
 VAL166  LYS551  ARG553  GLY616  TRP617  ASP618  TYR619  PRO620  LYS621  CYS622 
 ASP623  PHE694  ASN695  SER759  ASP760  ASP761  ALA762  ILE779  LEU786  VAL792 
 PHE793  MET794  SER795  GLU796  ALA797  LYS798  CYS799  TRP800  GLU811  SER814 

> <Gold.Protein.RotatedAtoms>
  152.1854  134.8718  160.0522 H   0  0  0  0  0  0  0  0  0  0  0  0  # atno 6907 bound_to 6896
  151.9627  133.3695  159.4049 H   0  0  0  0  0  0  0  0  0  0  0  0  # atno 6908 bound_to 6896
  150.6925  134.4147  159.5221 H   0  0  0  0  0  0  0  0  0  0  0  0  # atno 6909 bound_to 6896
  145.0200  140.7980  143.4386 H   0  0  0  0  0  0  0  0  0  0  0  0  # atno 7974 bound_to 7965
  155.8559  140.0970  157.1645 H   0  0  0  0  0  0  0  0  0  0  0  0  # atno 8008 bound_to 7997
  154.3988  140.1374  156.3963 H   0  0  0  0  0  0  0  0  0  0  0  0  # atno 8009 bound_to 7997
  155.7911  140.3455  155.5352 H   0  0  0  0  0  0  0  0  0  0  0  0  # atno 8010 bound_to 7997
  140.7273  143.4043  151.1211 H   0  0  0  0  0  0  0  0  0  0  0  0  # atno 10167 bound_to 10162
  156.0085  130.5198  150.6387 H   0  0  0  0  0  0  0  0  0  0  0  0  # atno 10718 bound_to 10713
  153.0261  135.6412  154.1359 H   0  0  0  0  0  0  0  0  0  0  0  0  # atno 10763 bound_to 10752
  154.1087  135.2854  155.3237 H   0  0  0  0  0  0  0  0  0  0  0  0  # atno 10764 bound_to 10752
  154.6347  135.5480  153.7783 H   0  0  0  0  0  0  0  0  0  0  0  0  # atno 10765 bound_to 10752
  141.0578  133.9585  157.2723 H   0  0  0  0  0  0  0  0  0  0  0  0  # atno 11005 bound_to 11000
  145.1908  139.2302  143.5244 LP  0  0  0  0  0  0  0  0  0  0  0  0  # atno 17320 bound_to 7965
  146.3484  140.1703  142.8589 LP  0  0  0  0  0  0  0  0  0  0  0  0  # atno 17321 bound_to 7965
  139.7668  143.8553  152.3112 LP  0  0  0  0  0  0  0  0  0  0  0  0  # atno 17342 bound_to 10162
  139.8458  144.7188  150.9274 LP  0  0  0  0  0  0  0  0  0  0  0  0  # atno 17343 bound_to 10162
  157.4171  131.0831  151.1166 LP  0  0  0  0  0  0  0  0  0  0  0  0  # atno 17370 bound_to 10713
  157.1779  130.6296  149.5662 LP  0  0  0  0  0  0  0  0  0  0  0  0  # atno 17371 bound_to 10713
  139.9405  135.0191  156.8693 LP  0  0  0  0  0  0  0  0  0  0  0  0  # atno 17394 bound_to 11000
  140.5930  134.0244  155.7507 LP  0  0  0  0  0  0  0  0  0  0  0  0  # atno 17395 bound_to 11000

$$$$
