AV-unprocessed.smi:861|AV-procd|sdf|3972|dock8
  -GOLD-   22720 1443D 1   1.00000     0.00000
 Structure written by MMmdl.
 45 46  0  0  0  0  0  0  0  0  3 V2000
  151.4680  144.4883  159.6963 C   0  0  0  0  0  0  0  0  0  0  0  0
  151.9393  143.0647  159.3522 C   0  0  0  0  0  0  0  0  0  0  0  0
  153.4743  143.0109  159.3027 C   0  0  0  0  0  0  0  0  0  0  0  0
  151.3324  142.5410  158.0336 C   0  0  0  0  0  0  0  0  0  0  0  0
  149.8478  142.1382  158.1425 C   0  0  0  0  0  0  0  0  0  0  0  0
  149.1762  142.0625  156.8195 N   0  3  1  0  0  0  0  0  0  0  0  0
  150.0071  141.4268  155.7670 C   0  0  0  0  0  0  0  0  0  0  0  0
  149.2557  141.4063  154.4268 C   0  0  0  0  0  0  0  0  0  0  0  0
  148.0149  140.7312  154.5876 O   0  0  0  0  0  0  0  0  0  0  0  0
  147.1585  141.3817  155.5189 C   0  0  1  0  0  0  0  0  0  0  0  0
  145.8283  140.6050  155.5274 C   0  0  0  0  0  0  0  0  0  0  0  0
  144.6867  141.4216  155.1360 N   0  0  0  0  0  0  0  0  0  0  0  0
  144.3019  142.5576  155.8629 C   0  0  0  0  0  0  0  0  0  0  0  0
  144.9601  143.0283  157.0235 C   0  0  0  0  0  0  0  0  0  0  0  0
  144.4624  144.1835  157.6502 C   0  0  0  0  0  0  0  0  0  0  0  0
  143.3359  144.8013  157.0789 C   0  0  0  0  0  0  0  0  0  0  0  0
  142.7214  144.3367  155.9685 N   0  0  0  0  0  0  0  0  0  0  0  0
  143.2215  143.2298  155.3920 N   0  3  0  0  0  0  0  0  0  0  0  0
  147.8511  141.3997  156.8989 C   0  0  0  0  0  0  0  0  0  0  0  0
  151.7259  145.1935  158.9053 H   0  0  0  0  0  0  0  0  0  0  0  0
  151.9341  144.8414  160.6168 H   0  0  0  0  0  0  0  0  0  0  0  0
  150.3902  144.5348  159.8482 H   0  0  0  0  0  0  0  0  0  0  0  0
  151.6210  142.4021  160.1582 H   0  0  0  0  0  0  0  0  0  0  0  0
  153.8682  143.6485  158.5103 H   0  0  0  0  0  0  0  0  0  0  0  0
  153.8286  141.9958  159.1207 H   0  0  0  0  0  0  0  0  0  0  0  0
  153.9111  143.3432  160.2452 H   0  0  0  0  0  0  0  0  0  0  0  0
  151.4555  143.2910  157.2510 H   0  0  0  0  0  0  0  0  0  0  0  0
  151.9143  141.6763  157.7164 H   0  0  0  0  0  0  0  0  0  0  0  0
  149.7422  141.1869  158.6661 H   0  0  0  0  0  0  0  0  0  0  0  0
  149.3290  142.8823  158.7468 H   0  0  0  0  0  0  0  0  0  0  0  0
  150.9451  141.9648  155.6375 H   0  0  0  0  0  0  0  0  0  0  0  0
  150.2607  140.4085  156.0657 H   0  0  0  0  0  0  0  0  0  0  0  0
  149.0893  142.4187  154.0548 H   0  0  0  0  0  0  0  0  0  0  0  0
  149.8468  140.8840  153.6744 H   0  0  0  0  0  0  0  0  0  0  0  0
  146.9820  142.4036  155.1785 H   0  0  0  0  0  0  0  0  0  0  0  0
  145.8928  139.7343  154.8745 H   0  0  0  0  0  0  0  0  0  0  0  0
  145.6392  140.2129  156.5270 H   0  0  0  0  0  0  0  0  0  0  0  0
  144.1980  141.1875  154.2833 H   0  0  0  0  0  0  0  0  0  0  0  0
  145.8236  142.5293  157.4367 H   0  0  0  0  0  0  0  0  0  0  0  0
  144.9274  144.5851  158.5387 H   0  0  0  0  0  0  0  0  0  0  0  0
  142.9156  145.6918  157.5228 H   0  0  0  0  0  0  0  0  0  0  0  0
  147.9777  140.3817  157.2715 H   0  0  0  0  0  0  0  0  0  0  0  0
  147.2246  141.9283  157.6186 H   0  0  0  0  0  0  0  0  0  0  0  0
  149.0031  143.0141  156.5278 H   0  0  0  0  0  0  0  0  0  0  0  0
  142.7638  142.8768  154.5512 H   0  0  0  0  0  0  0  0  0  0  0  0
  1  2  1  0  0  0  0
  1 20  1  0  0  0  0
  1 21  1  0  0  0  0
  1 22  1  0  0  0  0
  2  3  1  0  0  0  0
  2  4  1  0  0  0  0
  2 23  1  0  0  0  0
  3 24  1  0  0  0  0
  3 25  1  0  0  0  0
  3 26  1  0  0  0  0
  4  5  1  0  0  0  0
  4 27  1  0  0  0  0
  4 28  1  0  0  0  0
  5  6  1  0  0  0  0
  5 29  1  0  0  0  0
  5 30  1  0  0  0  0
  6 19  1  0  0  0  0
  6  7  1  0  0  0  0
  6 44  1  0  0  0  0
  7  8  1  0  0  0  0
  7 31  1  0  0  0  0
  7 32  1  0  0  0  0
  8  9  1  0  0  0  0
  8 33  1  0  0  0  0
  8 34  1  0  0  0  0
  9 10  1  0  0  0  0
 10 11  1  0  0  0  0
 10 19  1  0  0  0  0
 10 35  1  0  0  0  0
 11 12  1  0  0  0  0
 11 36  1  0  0  0  0
 11 37  1  0  0  0  0
 12 13  1  0  0  0  0
 12 38  1  0  0  0  0
 13 18  1  0  0  0  0
 13 14  2  0  0  0  0
 14 15  1  0  0  0  0
 14 39  1  0  0  0  0
 15 16  2  0  0  0  0
 15 40  1  0  0  0  0
 16 17  1  0  0  0  0
 16 41  1  0  0  0  0
 17 18  2  0  0  0  0
 18 45  1  0  0  0  0
 19 42  1  0  0  0  0
 19 43  1  0  0  0  0
M  CHG  1   6   1
M  CHG  1  18   1
M  END
> <s_m_source_file>
AV-unprocessed.smi

> <i_m_source_file_index>
861

> <i_lp_mmshare_version>
43012

> <i_f3d_flags>
0

> <s_epik_input>
W0NIM11bQ0hdKFtDSDNdKVtDSDJdW0NIMl1OMVtDSDJdW0NIMl1PW0NASF0oW0NIMl0xKVtDSDJdW05IXWMyW2NIXVtjSF1bY0hdbm4y

> <s_epik_cmdline>
J2VwaWtfcHl0aG9uJywgJy1waCcsICc3LjAnLCAnLXRuJywgJzgnLCAnLW1hJywgJzIwMCcsICctbWV0YWxfYmluZGluZycsICctaW1hZScsICc8aW5maWxlLm1hZT4nLCAnLW9tYWUnLCAnPG91dGZpbGUubWFlPic=

> <r_lp_tautomer_probability>
0.966961

> <r_epik_Ionization_Penalty>
2.478

> <r_epik_Ionization_Penalty_Charging>
2.47799

> <r_epik_Ionization_Penalty_Neutral>
3.15286e-06

> <r_epik_State_Penalty>
2.10794

> <r_epik_Charging_Adjusted_Penalty>
4.58594

> <i_epik_Tot_Q>
2

> <i_epik_Tot_abs_Q>
2

> <r_epik_Metal_State_Penalty>
2.11378

> <b_epik_Metal_Only>
0

> <s_lp_Force_Field>
OPLS_2005

> <r_lp_Energy>
34.6119

> <b_lp_Chiralities_Consistent>
1

> <s_lp_Variant>
AV-unprocessed.smi:861-7

> <Gold.Version>
5.8.1

> <Gold.Id.Protein>
6NUR|6NUR_protein|mol2

> <Gold.PLP.Fitness>
48.6821

> <Gold.PLP.PLP>
-32.8066

> <Gold.PLP.part.hbond>
-3.0000

> <Gold.PLP.part.metal>
0.0000

> <Gold.PLP.part.buried>
-4.9222

> <Gold.PLP.part.nonpolar>
-25.9868

> <Gold.PLP.part.repulsive>
0.2053

> <Gold.PLP.ligand.clash>
0.0000

> <Gold.PLP.ligand.torsion>
1.0794

> <Gold.PLP.Chemscore.Hbond>
6.0000

> <Gold.PLP.Chemscore.CHOScore>
0.0000

> <Gold.PLP.Chemscore.Metal>
0.0000

> <Gold.Chemscore.Hbonds>
donor molecule, donor type, donor heavy atom, donor atom, acceptor molecule, acceptor atom, score
      L1  H     6    44       P1  8028  2.00
      L1  H    12    38       P1 10175  2.00

> <Gold.PLP.Chemscore.Internal.Correction>
0.0343

> <Gold.Rescore>
     Score         DG    S(hbond)    S(metal)    S(lipo)     H(rot)  DE(clash)    DE(int)     intcor
     18.77     -19.68       2.60        0.00      85.88       1.78       0.09       0.81       ----

> <Gold.Chemscore.Fitness>
18.7738

> <Gold.Chemscore.DG>
-19.6767

> <Gold.Chemscore.ZeroCoef>
-5.4800

> <Gold.Chemscore.Hbond>
2.6032

> <Gold.Chemscore.Metal>
0.0000

> <Gold.Chemscore.Lipo>
85.8824

> <Gold.Chemscore.Internal_Hbond>
0.0000

> <Gold.Chemscore.DEClash>
0.0920

> <Gold.Chemscore.DEInternal>
0.8108

> <Gold.Chemscore.Rot>
1.7759

> <Gold.Chemscore.Internal.Correction>
   9.000000E+99

> <Gold.Chemscore.Hbonds>
donor molecule, donor type, donor heavy atom, donor atom, acceptor molecule, acceptor atom, score
      L1  H     6    44       P1  8028  0.99
      L1  H    12    38       P1 10175  0.68
      L1  H    18    45       P1 10174  0.05

> <Gold.Chemscore.Hbond.Weighted>
-8.6946

> <Gold.Chemscore.Metal.Weighted>
-0.0000

> <Gold.Chemscore.Lipo.Weighted>
-10.0482

> <Gold.Chemscore.Internal_Hbond.Weighted>
0.0000

> <Gold.Chemscore.DEClash.Weighted>
0.0920

> <Gold.Chemscore.DEInternal.Weighted>
0.8108

> <Gold.Chemscore.Rot.Weighted>
4.5462

> <Gold.Chemscore.Internal.Correction.Weighted>
   9.000000E+99

> <Gold.Protein.RotatedTorsions>
[ 6907 6896 6895 6894 ] final -179.58 input  -60.11 | X-H torsion
[ 7974 7965 7964 7962 ] final   46.01 input  175.53 | X-H torsion
[ 8008 7997 7996 7995 ] final  -49.76 input   59.86 | X-H torsion
[ 10167 10162 10161 10158 ] final  157.66 input  -65.29 | X-H torsion
[ 10718 10713 10712 10709 ] final   65.64 input   66.30 | X-H torsion
[ 10763 10752 10751 10750 ] final  -12.33 input  -60.55 | X-H torsion
[ 11005 11000 10999 10996 ] final  117.03 input  -57.11 | X-H torsion

> <Gold.Protein.ActiveResidues>
 VAL166  LYS551  ARG553  GLY616  TRP617  ASP618  TYR619  PRO620  LYS621  CYS622 
 ASP623  PHE694  ASN695  SER759  ASP760  ASP761  ALA762  ILE779  LEU786  VAL792 
 PHE793  MET794  SER795  GLU796  ALA797  LYS798  CYS799  TRP800  GLU811  SER814 

> <Gold.Protein.RotatedAtoms>
  151.6557  133.3319  159.3161 H   0  0  0  0  0  0  0  0  0  0  0  0  # atno 6907 bound_to 6896
  150.7938  134.6986  159.6547 H   0  0  0  0  0  0  0  0  0  0  0  0  # atno 6908 bound_to 6896
  152.4022  134.6271  160.0117 H   0  0  0  0  0  0  0  0  0  0  0  0  # atno 6909 bound_to 6896
  146.0428  139.4902  142.9767 H   0  0  0  0  0  0  0  0  0  0  0  0  # atno 7974 bound_to 7965
  154.4050  140.1289  156.4556 H   0  0  0  0  0  0  0  0  0  0  0  0  # atno 8008 bound_to 7997
  155.7323  140.3491  155.5045 H   0  0  0  0  0  0  0  0  0  0  0  0  # atno 8009 bound_to 7997
  155.9115  140.1037  157.1265 H   0  0  0  0  0  0  0  0  0  0  0  0  # atno 8010 bound_to 7997
  139.4824  144.4897  151.8326 H   0  0  0  0  0  0  0  0  0  0  0  0  # atno 10167 bound_to 10162
  157.6118  130.9225  150.0003 H   0  0  0  0  0  0  0  0  0  0  0  0  # atno 10718 bound_to 10713
  153.4969  135.7017  153.5853 H   0  0  0  0  0  0  0  0  0  0  0  0  # atno 10763 bound_to 10752
  153.4002  135.3874  155.1982 H   0  0  0  0  0  0  0  0  0  0  0  0  # atno 10764 bound_to 10752
  154.8713  135.3879  154.4435 H   0  0  0  0  0  0  0  0  0  0  0  0  # atno 10765 bound_to 10752
  139.9061  134.9605  156.7288 H   0  0  0  0  0  0  0  0  0  0  0  0  # atno 11005 bound_to 11000
  145.6855  141.0179  143.1583 LP  0  0  0  0  0  0  0  0  0  0  0  0  # atno 17320 bound_to 7965
  144.7083  139.8472  143.7423 LP  0  0  0  0  0  0  0  0  0  0  0  0  # atno 17321 bound_to 7965
  140.4380  144.2026  150.5890 LP  0  0  0  0  0  0  0  0  0  0  0  0  # atno 17342 bound_to 10162
  140.4712  143.2412  151.9086 LP  0  0  0  0  0  0  0  0  0  0  0  0  # atno 17343 bound_to 10162
  156.1224  130.3645  149.9865 LP  0  0  0  0  0  0  0  0  0  0  0  0  # atno 17370 bound_to 10713
  156.7942  130.9267  151.3646 LP  0  0  0  0  0  0  0  0  0  0  0  0  # atno 17371 bound_to 10713
  140.6941  133.9364  155.7984 LP  0  0  0  0  0  0  0  0  0  0  0  0  # atno 17394 bound_to 11000
  141.0420  134.0608  157.3891 LP  0  0  0  0  0  0  0  0  0  0  0  0  # atno 17395 bound_to 11000

$$$$
