AV-unprocessed.smi:149|AV-procd|sdf|1237|dock7
  -GOLD-   2262018453D 1   1.00000     0.00000
 Structure written by MMmdl.
 60 64  0  0  0  0  0  0  0  0  2 V2000
  151.0833  130.7417  155.3057 C   0  0  0  0  0  0  0  0  0  0  0  0
  150.1268  131.9243  155.5526 C   0  0  1  0  0  0  0  0  0  0  0  0
  150.8852  133.0913  156.2109 C   0  0  0  0  0  0  0  0  0  0  0  0
  150.3991  134.3131  155.5922 N   0  0  0  0  0  0  0  0  0  0  0  0
  150.4604  135.4987  156.2543 C   0  0  0  0  0  0  0  0  0  0  0  0
  149.9078  135.5841  157.4939 N   0  0  0  0  0  0  0  0  0  0  0  0
  149.9549  136.7285  158.1813 C   0  0  0  0  0  0  0  0  0  0  0  0
  150.4885  137.8958  157.8200 N   0  0  0  0  0  0  0  0  0  0  0  0
  151.0286  137.8287  156.5697 C   0  0  0  0  0  0  0  0  0  0  0  0
  151.0624  136.6799  155.7274 C   0  0  0  0  0  0  0  0  0  0  0  0
  151.7034  136.9967  154.5353 N   0  0  0  0  0  0  0  0  0  0  0  0
  152.0429  138.2488  154.6726 C   0  0  0  0  0  0  0  0  0  0  0  0
  151.6476  138.8396  155.8527 N   0  0  0  0  0  0  0  0  0  0  0  0
  151.9084  140.1867  156.2870 C   0  0  0  0  0  0  0  0  0  0  0  0
  151.6357  140.5954  157.7418 C   0  0  0  0  0  0  0  0  0  0  0  0
  150.3453  141.3194  157.2994 C   0  0  0  0  0  0  0  0  0  0  0  0
  149.0724  140.4603  157.4253 C   0  0  0  0  0  0  0  0  0  0  0  0
  148.0207  140.9687  156.6296 O   0  0  0  0  0  0  0  0  0  0  0  0
  150.0471  142.6739  157.9725 C   0  0  0  0  0  0  0  0  0  0  0  0
  150.8839  143.7117  157.5019 O   0  0  0  0  0  0  0  0  0  0  0  0
  150.9867  141.3510  155.8942 C   0  0  0  0  0  0  0  0  0  0  0  0
  149.2961  134.0062  154.7007 C   0  0  0  0  0  0  0  0  0  0  0  0
  149.4958  132.5435  154.2822 C   0  0  2  0  0  0  0  0  0  0  0  0
  148.2038  131.9471  153.8256 N   0  3  0  0  0  0  0  0  0  0  0  0
  147.6381  132.6636  152.6521 C   0  0  0  0  0  0  0  0  0  0  0  0
  146.2732  132.0793  152.2536 C   0  0  0  0  0  0  0  0  0  0  0  0
  146.4158  130.6941  151.9749 O   0  0  0  0  0  0  0  0  0  0  0  0
  146.8551  129.9745  153.1179 C   0  0  0  0  0  0  0  0  0  0  0  0
  148.2368  130.4861  153.5612 C   0  0  0  0  0  0  0  0  0  0  0  0
  151.8926  131.0250  154.6319 H   0  0  0  0  0  0  0  0  0  0  0  0
  150.5882  129.8763  154.8709 H   0  0  0  0  0  0  0  0  0  0  0  0
  151.5368  130.4126  156.2411 H   0  0  0  0  0  0  0  0  0  0  0  0
  149.3306  131.6201  156.2337 H   0  0  0  0  0  0  0  0  0  0  0  0
  150.7269  133.0940  157.2903 H   0  0  0  0  0  0  0  0  0  0  0  0
  151.9580  133.0181  156.0279 H   0  0  0  0  0  0  0  0  0  0  0  0
  149.4995  136.7062  159.1603 H   0  0  0  0  0  0  0  0  0  0  0  0
  152.5892  138.7719  153.9022 H   0  0  0  0  0  0  0  0  0  0  0  0
  152.9425  140.3910  156.0068 H   0  0  0  0  0  0  0  0  0  0  0  0
  151.4671  139.7685  158.4321 H   0  0  0  0  0  0  0  0  0  0  0  0
  152.4072  141.2629  158.1282 H   0  0  0  0  0  0  0  0  0  0  0  0
  149.2552  139.4313  157.1162 H   0  0  0  0  0  0  0  0  0  0  0  0
  148.7352  140.4089  158.4612 H   0  0  0  0  0  0  0  0  0  0  0  0
  147.8246  140.3389  155.9528 H   0  0  0  0  0  0  0  0  0  0  0  0
  149.0159  142.9812  157.7966 H   0  0  0  0  0  0  0  0  0  0  0  0
  150.1751  142.6064  159.0533 H   0  0  0  0  0  0  0  0  0  0  0  0
  150.3517  144.3391  157.0368 H   0  0  0  0  0  0  0  0  0  0  0  0
  151.5505  142.2638  155.6958 H   0  0  0  0  0  0  0  0  0  0  0  0
  150.2922  141.1551  155.0781 H   0  0  0  0  0  0  0  0  0  0  0  0
  148.3543  134.1303  155.2379 H   0  0  0  0  0  0  0  0  0  0  0  0
  149.2942  134.6764  153.8403 H   0  0  0  0  0  0  0  0  0  0  0  0
  150.2265  132.4999  153.4723 H   0  0  0  0  0  0  0  0  0  0  0  0
  147.5162  133.7239  152.8722 H   0  0  0  0  0  0  0  0  0  0  0  0
  148.3305  132.5905  151.8120 H   0  0  0  0  0  0  0  0  0  0  0  0
  145.5353  132.2340  153.0425 H   0  0  0  0  0  0  0  0  0  0  0  0
  145.8961  132.5810  151.3621 H   0  0  0  0  0  0  0  0  0  0  0  0
  146.1272  130.0716  153.9252 H   0  0  0  0  0  0  0  0  0  0  0  0
  146.9102  128.9150  152.8675 H   0  0  0  0  0  0  0  0  0  0  0  0
  148.9825  130.2669  152.7952 H   0  0  0  0  0  0  0  0  0  0  0  0
  148.5152  129.9448  154.4640 H   0  0  0  0  0  0  0  0  0  0  0  0
  147.5509  132.0754  154.5857 H   0  0  0  0  0  0  0  0  0  0  0  0
  1  2  1  0  0  0  0
  1 30  1  0  0  0  0
  1 31  1  0  0  0  0
  1 32  1  0  0  0  0
  2 23  1  0  0  0  0
  2  3  1  0  0  0  0
  2 33  1  0  0  0  0
  3  4  1  0  0  0  0
  3 34  1  0  0  0  0
  3 35  1  0  0  0  0
  4  5  1  0  0  0  0
  4 22  1  0  0  0  0
  5 10  1  0  0  0  0
  5  6  2  0  0  0  0
  6  7  1  0  0  0  0
  7  8  2  0  0  0  0
  7 36  1  0  0  0  0
  8  9  1  0  0  0  0
  9 13  1  0  0  0  0
  9 10  2  0  0  0  0
 10 11  1  0  0  0  0
 11 12  2  0  0  0  0
 12 13  1  0  0  0  0
 12 37  1  0  0  0  0
 13 14  1  0  0  0  0
 14 21  1  0  0  0  0
 14 15  1  0  0  0  0
 14 38  1  0  0  0  0
 15 16  1  0  0  0  0
 15 39  1  0  0  0  0
 15 40  1  0  0  0  0
 16 17  1  0  0  0  0
 16 19  1  0  0  0  0
 16 21  1  0  0  0  0
 17 18  1  0  0  0  0
 17 41  1  0  0  0  0
 17 42  1  0  0  0  0
 18 43  1  0  0  0  0
 19 20  1  0  0  0  0
 19 44  1  0  0  0  0
 19 45  1  0  0  0  0
 20 46  1  0  0  0  0
 21 47  1  0  0  0  0
 21 48  1  0  0  0  0
 22 23  1  0  0  0  0
 22 49  1  0  0  0  0
 22 50  1  0  0  0  0
 23 24  1  0  0  0  0
 23 51  1  0  0  0  0
 24 29  1  0  0  0  0
 24 25  1  0  0  0  0
 24 60  1  0  0  0  0
 25 26  1  0  0  0  0
 25 52  1  0  0  0  0
 25 53  1  0  0  0  0
 26 27  1  0  0  0  0
 26 54  1  0  0  0  0
 26 55  1  0  0  0  0
 27 28  1  0  0  0  0
 28 29  1  0  0  0  0
 28 56  1  0  0  0  0
 28 57  1  0  0  0  0
 29 58  1  0  0  0  0
 29 59  1  0  0  0  0
M  CHG  1  24   1
M  END
> <s_m_source_file>
AV-unprocessed.smi

> <i_m_source_file_index>
149

> <i_lp_mmshare_version>
43012

> <i_f3d_flags>
0

> <s_epik_input>
W0NIMl0xW0NIMl1PW0NIMl1bQ0gyXU4xW0NAQEhdMltDSDJdTihbQ0gyXVtDQEhdMltDSDNdKWMobltjSF1uMyljKGMzNCluW2NIXW40W0NIXShbQ0gyXTUpW0NIMl1DNShbQ0gyXVtPSF0pW0NIMl1bT0hd

> <s_epik_cmdline>
J2VwaWtfcHl0aG9uJywgJy1waCcsICc3LjAnLCAnLXRuJywgJzgnLCAnLW1hJywgJzIwMCcsICctbWV0YWxfYmluZGluZycsICctaW1hZScsICc8aW5maWxlLm1hZT4nLCAnLW9tYWUnLCAnPG91dGZpbGUubWFlPic=

> <r_lp_tautomer_probability>
1

> <r_epik_Ionization_Penalty>
0.404847

> <r_epik_Ionization_Penalty_Charging>
0.404623

> <r_epik_Ionization_Penalty_Neutral>
0.000224096

> <r_epik_State_Penalty>
0.238803

> <r_epik_Charging_Adjusted_Penalty>
0.643425

> <i_epik_Tot_Q>
1

> <i_epik_Tot_abs_Q>
1

> <r_epik_Metal_State_Penalty>
0.239083

> <b_epik_Metal_Only>
0

> <s_lp_Force_Field>
OPLS_2005

> <r_lp_Energy>
71.3702

> <b_lp_Chiralities_Consistent>
1

> <s_lp_Variant>
AV-unprocessed.smi:149-4

> <Gold.Version>
5.8.1

> <Gold.Id.Protein>
6NUR|6NUR_protein|mol2

> <Gold.PLP.Fitness>
47.4134

> <Gold.PLP.PLP>
-45.0325

> <Gold.PLP.part.hbond>
-2.3000

> <Gold.PLP.part.metal>
0.0000

> <Gold.PLP.part.buried>
-8.1642

> <Gold.PLP.part.nonpolar>
-34.6299

> <Gold.PLP.part.repulsive>
0.3835

> <Gold.PLP.ligand.clash>
0.0000

> <Gold.PLP.ligand.torsion>
2.1887

> <Gold.PLP.Chemscore.Hbond>
1.9920

> <Gold.PLP.Chemscore.CHOScore>
0.0000

> <Gold.PLP.Chemscore.Metal>
0.0000

> <Gold.Chemscore.Hbonds>
donor molecule, donor type, donor heavy atom, donor atom, acceptor molecule, acceptor atom, score
      L1  H    20    46       P1  8028  1.00
      P1  H 10752 10764       L1    11  0.98

> <Gold.PLP.Chemscore.Internal.Correction>
0.7822

> <Gold.Rescore>
     Score         DG    S(hbond)    S(metal)    S(lipo)     H(rot)  DE(clash)    DE(int)     intcor
      9.95     -13.38       1.69        0.00      86.80       3.09       0.16       3.27       ----

> <Gold.Chemscore.Fitness>
9.9460

> <Gold.Chemscore.DG>
-13.3772

> <Gold.Chemscore.ZeroCoef>
-5.4800

> <Gold.Chemscore.Hbond>
1.6930

> <Gold.Chemscore.Metal>
0.0000

> <Gold.Chemscore.Lipo>
86.8035

> <Gold.Chemscore.Internal_Hbond>
0.0000

> <Gold.Chemscore.DEClash>
0.1568

> <Gold.Chemscore.DEInternal>
3.2744

> <Gold.Chemscore.Rot>
3.0912

> <Gold.Chemscore.Internal.Correction>
   9.000000E+99

> <Gold.Chemscore.Hbonds>
donor molecule, donor type, donor heavy atom, donor atom, acceptor molecule, acceptor atom, score
      L1  H    20    46       P1  8028  0.79
      P1  H 10752 10764       L1    11  0.72

> <Gold.Chemscore.Hbond.Weighted>
-5.6546

> <Gold.Chemscore.Metal.Weighted>
-0.0000

> <Gold.Chemscore.Lipo.Weighted>
-10.1560

> <Gold.Chemscore.Internal_Hbond.Weighted>
0.0000

> <Gold.Chemscore.DEClash.Weighted>
0.1568

> <Gold.Chemscore.DEInternal.Weighted>
3.2744

> <Gold.Chemscore.Rot.Weighted>
7.9135

> <Gold.Chemscore.Internal.Correction.Weighted>
   9.000000E+99

> <Gold.Protein.RotatedTorsions>
[ 6907 6896 6895 6894 ] final -126.23 input  -60.11 | X-H torsion
[ 7974 7965 7964 7962 ] final  136.00 input  175.53 | X-H torsion
[ 8008 7997 7996 7995 ] final  -93.92 input   59.86 | X-H torsion
[ 10167 10162 10161 10158 ] final  109.34 input  -65.29 | X-H torsion
[ 10718 10713 10712 10709 ] final  171.48 input   66.30 | X-H torsion
[ 10763 10752 10751 10750 ] final  -89.18 input  -60.55 | X-H torsion
[ 11005 11000 10999 10996 ] final  133.96 input  -57.11 | X-H torsion

> <Gold.Protein.ActiveResidues>
 VAL166  LYS551  ARG553  GLY616  TRP617  ASP618  TYR619  PRO620  LYS621  CYS622 
 ASP623  PHE694  ASN695  SER759  ASP760  ASP761  ALA762  ILE779  LEU786  VAL792 
 PHE793  MET794  SER795  GLU796  ALA797  LYS798  CYS799  TRP800  GLU811  SER814 

> <Gold.Protein.RotatedAtoms>
  150.8948  133.7195  159.2894 H   0  0  0  0  0  0  0  0  0  0  0  0  # atno 6907 bound_to 6896
  151.4733  135.1046  159.9767 H   0  0  0  0  0  0  0  0  0  0  0  0  # atno 6908 bound_to 6896
  152.4842  133.8283  159.7145 H   0  0  0  0  0  0  0  0  0  0  0  0  # atno 6909 bound_to 6896
  144.9607  139.4713  143.5481 H   0  0  0  0  0  0  0  0  0  0  0  0  # atno 7974 bound_to 7965
  154.7418  140.0494  157.0817 H   0  0  0  0  0  0  0  0  0  0  0  0  # atno 8008 bound_to 7997
  155.0169  140.3142  155.4789 H   0  0  0  0  0  0  0  0  0  0  0  0  # atno 8009 bound_to 7997
  156.2866  140.2174  156.5286 H   0  0  0  0  0  0  0  0  0  0  0  0  # atno 8010 bound_to 7997
  139.6774  144.7121  151.1577 H   0  0  0  0  0  0  0  0  0  0  0  0  # atno 10167 bound_to 10162
  156.9930  131.0153  151.2851 H   0  0  0  0  0  0  0  0  0  0  0  0  # atno 10718 bound_to 10713
  154.6525  135.5350  153.7919 H   0  0  0  0  0  0  0  0  0  0  0  0  # atno 10763 bound_to 10752
  153.0394  135.6486  154.0995 H   0  0  0  0  0  0  0  0  0  0  0  0  # atno 10764 bound_to 10752
  154.0911  135.2940  155.3251 H   0  0  0  0  0  0  0  0  0  0  0  0  # atno 10765 bound_to 10752
  139.9885  134.9524  156.9799 H   0  0  0  0  0  0  0  0  0  0  0  0  # atno 11005 bound_to 11000
  146.3352  139.8756  142.8833 LP  0  0  0  0  0  0  0  0  0  0  0  0  # atno 17320 bound_to 7965
  145.2703  141.0106  143.3775 LP  0  0  0  0  0  0  0  0  0  0  0  0  # atno 17321 bound_to 7965
  140.7640  143.5751  150.8954 LP  0  0  0  0  0  0  0  0  0  0  0  0  # atno 17342 bound_to 10162
  139.9421  143.6370  152.3051 LP  0  0  0  0  0  0  0  0  0  0  0  0  # atno 17343 bound_to 10162
  157.5445  130.8142  149.8069 LP  0  0  0  0  0  0  0  0  0  0  0  0  # atno 17370 bound_to 10713
  156.0200  130.3799  150.1991 LP  0  0  0  0  0  0  0  0  0  0  0  0  # atno 17371 bound_to 10713
  140.4955  134.1149  155.7240 LP  0  0  0  0  0  0  0  0  0  0  0  0  # atno 17394 bound_to 11000
  141.1545  133.8908  157.2012 LP  0  0  0  0  0  0  0  0  0  0  0  0  # atno 17395 bound_to 11000

$$$$
