#       Name:                AV-unprocessed.smi:1250
#       Creating user name   scv26
#       Creation time:       Fri Mar 27 04:36:38 2020


#       File generated by GOLD software.
#

@<TRIPOS>MOLECULE
AV-unprocessed.smi:1250
    46    47     1
SMALL
NO_CHARGES


@<TRIPOS>ATOM
      1 ****        -2.2609   1.2239  -3.4592 C.3            1 S1                 0.0000
      2 ****        -2.9683   0.7248  -2.1838 C.3            1 S1                 0.0000
      3 ****        -4.4914   0.7277  -2.4093 C.3            1 S1                 0.0000
      4 ****        -2.5573   1.5362  -0.9263 C.3            1 S1                 0.0000
      5 ****        -3.1716   0.9920   0.3773 C.3            1 S1                 0.0000
      6 ****        -1.1015   1.5531  -0.7866 N.am           1 S1                 0.0000
      7 ****        -0.3779   2.5584  -0.2684 C.2            1 S1                 0.0000
      8 ****        -0.8705   3.6046   0.1534 O.2            1 S1                 0.0000
      9 ****         1.1362   2.3517  -0.2129 C.3            1 S1                 0.0000
     10 ****         1.5012   1.4836   0.9569 C.2            1 S1                 0.0000
     11 ****         1.4371   1.8225   2.2870 C.2            1 S1                 0.0000
     12 ****         1.9560   0.5200   3.3200 S.3            1 S1                 0.0000
     13 ****         2.2567  -0.4573   1.8797 C.2            1 S1                 0.0000
     14 ****         2.7621  -1.7915   1.8550 N.am           1 S1                 0.0000
     15 ****         3.0976  -2.4641   0.6036 C.3            1 S1                 0.0000
     16 ****         3.8177  -3.7571   1.0008 C.3            1 S1                 0.0000
     17 ****         3.5197  -3.9453   2.4869 C.3            1 S1                 0.0000
     18 ****         2.9715  -2.5937   2.9140 C.2            1 S1                 0.0000
     19 ****         2.7597  -2.3318   4.0972 O.2            1 S1                 0.0000
     20 ****         1.9728   0.1840   0.7407 N.2            1 S1                 0.0000
     21 ****        -2.4792   2.2759  -3.6451 H              1 S1                 0.0000
     22 ****        -2.5843   0.6595  -4.3342 H              1 S1                 0.0000
     23 ****        -1.1783   1.1144  -3.3951 H              1 S1                 0.0000
     24 ****        -2.6643  -0.3120  -2.0324 H              1 S1                 0.0000
     25 ****        -4.8765   1.7439  -2.4979 H              1 S1                 0.0000
     26 ****        -5.0237   0.2359  -1.5959 H              1 S1                 0.0000
     27 ****        -4.7541   0.1945  -3.3235 H              1 S1                 0.0000
     28 ****        -2.9076   2.5610  -1.0646 H              1 S1                 0.0000
     29 ****        -4.2584   1.0677   0.3758 H              1 S1                 0.0000
     30 ****        -2.8196   1.5543   1.2429 H              1 S1                 0.0000
     31 ****        -2.9074  -0.0543   0.5341 H              1 S1                 0.0000
     32 ****        -0.6066   0.7325  -1.1054 H              1 S1                 0.0000
     33 ****         1.4746   1.9121  -1.1524 H              1 S1                 0.0000
     34 ****         1.6281   3.3219  -0.1340 H              1 S1                 0.0000
     35 ****         1.1116   2.7572   2.7194 H              1 S1                 0.0000
     36 ****         2.1791  -2.6850   0.0576 H              1 S1                 0.0000
     37 ****         3.7289  -1.8407  -0.0312 H              1 S1                 0.0000
     38 ****         3.4851  -4.6067   0.4037 H              1 S1                 0.0000
     39 ****         4.8927  -3.6496   0.8500 H              1 S1                 0.0000
     40 ****         2.7596  -4.7105   2.6466 H              1 S1                 0.0000
     41 ****         4.4113  -4.2127   3.0552 H              1 S1                 0.0000
     42 ****        -1.8608   3.7398   0.1206 LP             1 S1                 0.0000
     43 ****        -0.2804   4.3193   0.5289 LP             1 S1                 0.0000
     44 ****         2.3917  -1.4380   4.3533 LP             1 S1                 0.0000
     45 ****         2.9556  -3.0128   4.8029 LP             1 S1                 0.0000
     46 ****         2.0853  -0.2212  -0.1666 LP             1 S1                 0.0000
@<TRIPOS>BOND
    1    1    2 1     
    2    1   21 1     
    3    1   22 1     
    4    1   23 1     
    5    2    3 1     
    6    2    4 1     
    7    2   24 1     
    8    3   25 1     
    9    3   26 1     
   10    3   27 1     
   11    4    5 1     
   12    4    6 1     
   13    4   28 1     
   14    5   29 1     
   15    5   30 1     
   16    5   31 1     
   17    6    7 am    
   18    6   32 1     
   19    7    8 2     
   20    7    9 1     
   21    9   10 1     
   22    9   33 1     
   23    9   34 1     
   24   10   20 1     
   25   10   11 2     
   26   11   12 1     
   27   11   35 1     
   28   12   13 1     
   29   13   14 1     
   30   13   20 2     
   31   14   18 am    
   32   14   15 1     
   33   15   16 1     
   34   15   36 1     
   35   15   37 1     
   36   16   17 1     
   37   16   38 1     
   38   16   39 1     
   39   17   18 1     
   40   17   40 1     
   41   17   41 1     
   42   18   19 2     
   43    8   42 1     
   44    8   43 1     
   45   19   44 1     
   46   19   45 1     
   47   20   46 1     
@<TRIPOS>SUBSTRUCTURE
      1 S1             1
@<TRIPOS>SET
LONE_PAIRS      STATIC     ATOMS    <user>   **** ""
5 42 43 44 45 46
DONOR_HYDROGENS      STATIC     ATOMS    <user>   **** ""
1 32
ATOM$BLUE        STATIC     ATOMS    COLORGROUP SYSTEM
5 42 43 44 45 46
ATOM$RED        STATIC     ATOMS    COLORGROUP SYSTEM
1 32
