AV-unprocessed.smi:262|AV-procd|sdf|1999|dock6
  -GOLD-   2262021193D 1   1.00000     0.00000
 Structure written by MMmdl.
 60 64  0  0  0  0  0  0  0  0  2 V2000
  145.3658  135.8850  150.1815 O   0  0  0  0  0  0  0  0  0  0  0  0
  145.0764  135.3287  151.4528 C   0  0  0  0  0  0  0  0  0  0  0  0
  144.7129  136.4933  152.4073 C   0  0  0  0  0  0  0  0  0  0  0  0
  145.7986  137.4353  152.6350 N   0  0  0  0  0  0  0  0  0  0  0  0
  146.3709  138.2730  151.7033 C   0  0  0  0  0  0  0  0  0  0  0  0
  147.3325  139.0333  152.1528 N   0  0  0  0  0  0  0  0  0  0  0  0
  147.4236  138.6981  153.4971 C   0  0  0  0  0  0  0  0  0  0  0  0
  148.2456  139.1344  154.5680 C   0  0  0  0  0  0  0  0  0  0  0  0
  149.1893  140.0862  154.3995 N   0  0  0  0  0  0  0  0  0  0  0  0
  148.8698  141.3985  154.9500 C   0  0  0  0  0  0  0  0  0  0  0  0
  149.3764  141.5559  156.3965 C   0  0  0  0  0  0  0  0  0  0  0  0
  150.8165  141.1993  156.5037 N   0  3  0  0  0  0  0  0  0  0  0  0
  151.3863  141.4076  157.8601 C   0  0  0  0  0  0  0  0  0  0  0  0
  151.2013  142.8465  158.3832 C   0  0  2  0  0  0  0  0  0  0  0  0
  151.8776  143.9157  157.5473 C   0  0  0  0  0  0  0  0  0  0  0  0
  151.9485  145.0848  158.5254 C   0  0  0  0  0  0  0  0  0  0  0  0
  152.0532  144.5025  159.8216 O   0  0  0  0  0  0  0  0  0  0  0  0
  151.8547  143.0946  159.7429 C   0  0  0  0  0  0  0  0  0  0  0  0
  151.0814  139.8288  155.9940 C   0  0  0  0  0  0  0  0  0  0  0  0
  150.5746  139.6547  154.5493 C   0  0  0  0  0  0  0  0  0  0  0  0
  148.0561  138.5709  155.7889 N   0  0  0  0  0  0  0  0  0  0  0  0
  147.1127  137.6377  155.9521 C   0  0  0  0  0  0  0  0  0  0  0  0
  146.2690  137.1362  155.0470 N   0  0  0  0  0  0  0  0  0  0  0  0
  146.4642  137.6990  153.8196 C   0  0  0  0  0  0  0  0  0  0  0  0
  143.8804  134.3675  151.3014 C   0  0  0  0  0  0  0  0  0  0  0  0
  144.2471  133.1040  150.5025 C   0  0  0  0  0  0  0  0  0  0  0  0
  145.3584  132.4526  151.1054 O   0  0  0  0  0  0  0  0  0  0  0  0
  146.5331  133.2543  151.0991 C   0  0  0  0  0  0  0  0  0  0  0  0
  146.3088  134.5298  151.9304 C   0  0  0  0  0  0  0  0  0  0  0  0
  145.4686  135.1793  149.5615 H   0  0  0  0  0  0  0  0  0  0  0  0
  143.8588  137.0487  152.0169 H   0  0  0  0  0  0  0  0  0  0  0  0
  144.3986  136.0996  153.3749 H   0  0  0  0  0  0  0  0  0  0  0  0
  146.0515  138.3000  150.6713 H   0  0  0  0  0  0  0  0  0  0  0  0
  149.3344  142.1528  154.3139 H   0  0  0  0  0  0  0  0  0  0  0  0
  147.7944  141.5776  154.9053 H   0  0  0  0  0  0  0  0  0  0  0  0
  149.2097  142.5859  156.7074 H   0  0  0  0  0  0  0  0  0  0  0  0
  148.7963  140.9274  157.0736 H   0  0  0  0  0  0  0  0  0  0  0  0
  150.9425  140.6925  158.5544 H   0  0  0  0  0  0  0  0  0  0  0  0
  152.4543  141.1852  157.8332 H   0  0  0  0  0  0  0  0  0  0  0  0
  150.1426  143.0877  158.4791 H   0  0  0  0  0  0  0  0  0  0  0  0
  152.8843  143.6024  157.2664 H   0  0  0  0  0  0  0  0  0  0  0  0
  151.3290  144.1611  156.6375 H   0  0  0  0  0  0  0  0  0  0  0  0
  152.7862  145.7509  158.3174 H   0  0  0  0  0  0  0  0  0  0  0  0
  151.0304  145.6720  158.4833 H   0  0  0  0  0  0  0  0  0  0  0  0
  151.2471  142.7318  160.5723 H   0  0  0  0  0  0  0  0  0  0  0  0
  152.8295  142.6083  159.8014 H   0  0  0  0  0  0  0  0  0  0  0  0
  152.1519  139.6226  156.0229 H   0  0  0  0  0  0  0  0  0  0  0  0
  150.6054  139.1015  156.6529 H   0  0  0  0  0  0  0  0  0  0  0  0
  150.6842  138.6161  154.2329 H   0  0  0  0  0  0  0  0  0  0  0  0
  151.1866  140.2493  153.8703 H   0  0  0  0  0  0  0  0  0  0  0  0
  147.0191  137.2349  156.9501 H   0  0  0  0  0  0  0  0  0  0  0  0
  143.5375  134.0610  152.2905 H   0  0  0  0  0  0  0  0  0  0  0  0
  143.0376  134.8754  150.8309 H   0  0  0  0  0  0  0  0  0  0  0  0
  143.4026  132.4145  150.4904 H   0  0  0  0  0  0  0  0  0  0  0  0
  144.4716  133.3456  149.4624 H   0  0  0  0  0  0  0  0  0  0  0  0
  147.3536  132.6749  151.5228 H   0  0  0  0  0  0  0  0  0  0  0  0
  146.8161  133.4975  150.0738 H   0  0  0  0  0  0  0  0  0  0  0  0
  147.2080  135.1459  151.9031 H   0  0  0  0  0  0  0  0  0  0  0  0
  146.1660  134.2408  152.9725 H   0  0  0  0  0  0  0  0  0  0  0  0
  151.3150  141.8248  155.8872 H   0  0  0  0  0  0  0  0  0  0  0  0
  1  2  1  0  0  0  0
  1 30  1  0  0  0  0
  2 29  1  0  0  0  0
  2  3  1  0  0  0  0
  2 25  1  0  0  0  0
  3  4  1  0  0  0  0
  3 31  1  0  0  0  0
  3 32  1  0  0  0  0
  4 24  1  0  0  0  0
  4  5  1  0  0  0  0
  5  6  2  0  0  0  0
  5 33  1  0  0  0  0
  6  7  1  0  0  0  0
  7 24  2  0  0  0  0
  7  8  1  0  0  0  0
  8  9  1  0  0  0  0
  8 21  2  0  0  0  0
  9 20  1  0  0  0  0
  9 10  1  0  0  0  0
 10 11  1  0  0  0  0
 10 34  1  0  0  0  0
 10 35  1  0  0  0  0
 11 12  1  0  0  0  0
 11 36  1  0  0  0  0
 11 37  1  0  0  0  0
 12 13  1  0  0  0  0
 12 19  1  0  0  0  0
 12 60  1  0  0  0  0
 13 14  1  0  0  0  0
 13 38  1  0  0  0  0
 13 39  1  0  0  0  0
 14 18  1  0  0  0  0
 14 15  1  0  0  0  0
 14 40  1  0  0  0  0
 15 16  1  0  0  0  0
 15 41  1  0  0  0  0
 15 42  1  0  0  0  0
 16 17  1  0  0  0  0
 16 43  1  0  0  0  0
 16 44  1  0  0  0  0
 17 18  1  0  0  0  0
 18 45  1  0  0  0  0
 18 46  1  0  0  0  0
 19 20  1  0  0  0  0
 19 47  1  0  0  0  0
 19 48  1  0  0  0  0
 20 49  1  0  0  0  0
 20 50  1  0  0  0  0
 21 22  1  0  0  0  0
 22 23  2  0  0  0  0
 22 51  1  0  0  0  0
 23 24  1  0  0  0  0
 25 26  1  0  0  0  0
 25 52  1  0  0  0  0
 25 53  1  0  0  0  0
 26 27  1  0  0  0  0
 26 54  1  0  0  0  0
 26 55  1  0  0  0  0
 27 28  1  0  0  0  0
 28 29  1  0  0  0  0
 28 56  1  0  0  0  0
 28 57  1  0  0  0  0
 29 58  1  0  0  0  0
 29 59  1  0  0  0  0
M  CHG  1  12   1
M  END
> <s_m_source_file>
AV-unprocessed.smi

> <i_m_source_file_index>
262

> <i_lp_mmshare_version>
43012

> <i_f3d_flags>
0

> <s_epik_input>
W0NIMl0xW0NIMl1PW0NIMl1bQ0gyXUMxKFtPSF0pW0NIMl1uKFtjSF1uMiljKGMyMyluW2NIXW5jM040W0NIMl1bQ0gyXU4oW0NIMl1bQ0gyXTQpW0NIMl1bQ0BASF01W0NIMl1bQ0gyXU9bQ0gyXTU=

> <s_epik_cmdline>
J2VwaWtfcHl0aG9uJywgJy1waCcsICc3LjAnLCAnLXRuJywgJzgnLCAnLW1hJywgJzIwMCcsICctbWV0YWxfYmluZGluZycsICctaW1hZScsICc8aW5maWxlLm1hZT4nLCAnLW9tYWUnLCAnPG91dGZpbGUubWFlPic=

> <r_lp_tautomer_probability>
1

> <r_epik_Ionization_Penalty>
0.010889

> <r_epik_Ionization_Penalty_Charging>
0.0108222

> <r_epik_Ionization_Penalty_Neutral>
6.6801e-05

> <r_epik_State_Penalty>
0.00829663

> <r_epik_Charging_Adjusted_Penalty>
0.0191189

> <i_epik_Tot_Q>
1

> <i_epik_Tot_abs_Q>
1

> <r_epik_Metal_State_Penalty>
0.00842341

> <b_epik_Metal_Only>
0

> <s_lp_Force_Field>
OPLS_2005

> <r_lp_Energy>
57.8888

> <b_lp_Chiralities_Consistent>
1

> <s_lp_Variant>
AV-unprocessed.smi:262-1

> <Gold.Version>
5.8.1

> <Gold.Id.Protein>
6NUR|6NUR_protein|mol2

> <Gold.PLP.Fitness>
52.4476

> <Gold.PLP.PLP>
-46.6202

> <Gold.PLP.part.hbond>
-2.0000

> <Gold.PLP.part.metal>
0.0000

> <Gold.PLP.part.buried>
-5.6957

> <Gold.PLP.part.nonpolar>
-43.7227

> <Gold.PLP.part.repulsive>
3.6566

> <Gold.PLP.ligand.clash>
0.0000

> <Gold.PLP.ligand.torsion>
0.2626

> <Gold.PLP.Chemscore.Hbond>
0.9600

> <Gold.PLP.Chemscore.CHOScore>
1.0000

> <Gold.PLP.Chemscore.Metal>
0.0000

> <Gold.Chemscore.Hbonds>
donor molecule, donor type, donor heavy atom, donor atom, acceptor molecule, acceptor atom, score
      L1  H     1    30       P1  7921  0.73
      L1  C     5    33       P1 10171  0.99

> <Gold.PLP.Chemscore.Internal.Correction>
0.4726

> <Gold.Rescore>
     Score         DG    S(hbond)    S(metal)    S(lipo)     H(rot)  DE(clash)    DE(int)     intcor
     12.07     -15.46       0.87        0.00     115.78       2.53       2.05       1.35       ----

> <Gold.Chemscore.Fitness>
12.0709

> <Gold.Chemscore.DG>
-15.4634

> <Gold.Chemscore.ZeroCoef>
-5.4800

> <Gold.Chemscore.Hbond>
0.8716

> <Gold.Chemscore.Metal>
0.0000

> <Gold.Chemscore.Lipo>
115.7773

> <Gold.Chemscore.Internal_Hbond>
0.0000

> <Gold.Chemscore.DEClash>
2.0458

> <Gold.Chemscore.DEInternal>
1.3467

> <Gold.Chemscore.Rot>
2.5288

> <Gold.Chemscore.Internal.Correction>
   9.000000E+99

> <Gold.Chemscore.Hbonds>
donor molecule, donor type, donor heavy atom, donor atom, acceptor molecule, acceptor atom, score
      L1  H     1    30       P1  7921  0.69

> <Gold.Chemscore.Hbond.Weighted>
-2.9113

> <Gold.Chemscore.Metal.Weighted>
-0.0000

> <Gold.Chemscore.Lipo.Weighted>
-13.5459

> <Gold.Chemscore.Internal_Hbond.Weighted>
0.0000

> <Gold.Chemscore.DEClash.Weighted>
2.0458

> <Gold.Chemscore.DEInternal.Weighted>
1.3467

> <Gold.Chemscore.Rot.Weighted>
6.4738

> <Gold.Chemscore.Internal.Correction.Weighted>
   9.000000E+99

> <Gold.Protein.RotatedTorsions>
[ 6907 6896 6895 6894 ] final -137.04 input  -60.11 | X-H torsion
[ 7974 7965 7964 7962 ] final  -18.47 input  175.53 | X-H torsion
[ 8008 7997 7996 7995 ] final  -12.91 input   59.86 | X-H torsion
[ 10167 10162 10161 10158 ] final  -70.87 input  -65.29 | X-H torsion
[ 10718 10713 10712 10709 ] final -167.79 input   66.30 | X-H torsion
[ 10763 10752 10751 10750 ] final  165.20 input  -60.55 | X-H torsion
[ 11005 11000 10999 10996 ] final  112.52 input  -57.11 | X-H torsion

> <Gold.Protein.ActiveResidues>
 VAL166  LYS551  ARG553  GLY616  TRP617  ASP618  TYR619  PRO620  LYS621  CYS622 
 ASP623  PHE694  ASN695  SER759  ASP760  ASP761  ALA762  ILE779  LEU786  VAL792 
 PHE793  MET794  SER795  GLU796  ALA797  LYS798  CYS799  TRP800  GLU811  SER814 

> <Gold.Protein.RotatedAtoms>
  151.0175  133.5907  159.2674 H   0  0  0  0  0  0  0  0  0  0  0  0  # atno 6907 bound_to 6896
  151.3036  135.0774  159.9257 H   0  0  0  0  0  0  0  0  0  0  0  0  # atno 6908 bound_to 6896
  152.5315  133.9852  159.7879 H   0  0  0  0  0  0  0  0  0  0  0  0  # atno 6909 bound_to 6896
  146.1890  140.3926  142.8465 H   0  0  0  0  0  0  0  0  0  0  0  0  # atno 7974 bound_to 7965
  154.5337  140.2263  155.8760 H   0  0  0  0  0  0  0  0  0  0  0  0  # atno 8008 bound_to 7997
  156.1790  140.3104  155.9076 H   0  0  0  0  0  0  0  0  0  0  0  0  # atno 8009 bound_to 7997
  155.3398  140.0450  157.3035 H   0  0  0  0  0  0  0  0  0  0  0  0  # atno 8010 bound_to 7997
  140.5318  143.2321  151.7248 H   0  0  0  0  0  0  0  0  0  0  0  0  # atno 10167 bound_to 10162
  156.6875  130.9146  151.3065 H   0  0  0  0  0  0  0  0  0  0  0  0  # atno 10718 bound_to 10713
  154.3204  135.2756  155.2522 H   0  0  0  0  0  0  0  0  0  0  0  0  # atno 10763 bound_to 10752
  154.4878  135.5841  153.6440 H   0  0  0  0  0  0  0  0  0  0  0  0  # atno 10764 bound_to 10752
  152.9877  135.6127  154.3388 H   0  0  0  0  0  0  0  0  0  0  0  0  # atno 10765 bound_to 10752
  139.8929  134.9531  156.6598 H   0  0  0  0  0  0  0  0  0  0  0  0  # atno 11005 bound_to 11000
  144.8451  140.6917  143.6204 LP  0  0  0  0  0  0  0  0  0  0  0  0  # atno 17320 bound_to 7965
  145.3850  139.1628  143.4260 LP  0  0  0  0  0  0  0  0  0  0  0  0  # atno 17321 bound_to 7965
  139.4957  144.4102  152.0089 LP  0  0  0  0  0  0  0  0  0  0  0  0  # atno 17342 bound_to 10162
  140.3205  144.3434  150.6011 LP  0  0  0  0  0  0  0  0  0  0  0  0  # atno 17343 bound_to 10162
  157.7021  130.9344  150.0817 LP  0  0  0  0  0  0  0  0  0  0  0  0  # atno 17370 bound_to 10713
  156.1822  130.3650  149.9021 LP  0  0  0  0  0  0  0  0  0  0  0  0  # atno 17371 bound_to 10713
  140.7455  133.8941  155.8309 LP  0  0  0  0  0  0  0  0  0  0  0  0  # atno 17394 bound_to 11000
  141.0043  134.1108  157.4286 LP  0  0  0  0  0  0  0  0  0  0  0  0  # atno 17395 bound_to 11000

$$$$
