AV-unprocessed.smi:2496|AV-procd|sdf|9827|dock4
  -GOLD-   2272013453D 1   1.00000     0.00000
 Structure written by MMmdl.
 40 40  0  0  0  0  0  0  0  0  1 V2000
  152.0578  138.5408  156.3449 C   0  0  0  0  0  0  0  0  0  0  0  0
  151.0388  139.2961  155.5402 C   0  0  0  0  0  0  0  0  0  0  0  0
  150.8932  139.0152  154.2548 N   0  0  0  0  0  0  0  0  0  0  0  0
  149.9291  139.8579  153.8485 N   0  0  0  0  0  0  0  0  0  0  0  0
  149.4614  140.6715  154.8536 C   0  0  0  0  0  0  0  0  0  0  0  0
  148.3943  141.6857  154.6038 C   0  0  0  0  0  0  0  0  0  0  0  0
  150.1622  140.3340  155.9837 C   0  0  0  0  0  0  0  0  0  0  0  0
  150.0741  140.9080  157.3844 C   0  0  2  0  0  0  0  0  0  0  0  0
  148.8834  141.8741  157.5307 C   0  0  0  0  0  0  0  0  0  0  0  0
  151.4201  141.5449  157.7702 C   0  0  0  0  0  0  0  0  0  0  0  0
  152.4249  140.8514  157.9324 O   0  0  0  0  0  0  0  0  0  0  0  0
  151.4180  142.8798  157.9187 N   0  0  0  0  0  0  0  0  0  0  0  0
  152.5445  143.6978  158.3624 C   0  0  1  0  0  0  0  0  0  0  0  0
  152.7105  144.8753  157.3851 C   0  0  0  0  0  0  0  0  0  0  0  0
  152.3291  144.1408  159.8340 C   0  0  0  0  0  0  0  0  0  0  0  0
  152.3217  142.9494  160.8086 C   0  0  0  0  0  0  0  0  0  0  0  0
  151.0359  144.9609  160.0150 C   0  0  0  0  0  0  0  0  0  0  0  0
  149.6044  139.8687  152.8920 H   0  0  0  0  0  0  0  0  0  0  0  0
  152.7951  139.2202  156.7728 H   0  0  0  0  0  0  0  0  0  0  0  0
  152.5938  137.8092  155.7392 H   0  0  0  0  0  0  0  0  0  0  0  0
  151.5833  138.0044  157.1666 H   0  0  0  0  0  0  0  0  0  0  0  0
  148.6052  142.6149  155.1328 H   0  0  0  0  0  0  0  0  0  0  0  0
  147.4259  141.3165  154.9404 H   0  0  0  0  0  0  0  0  0  0  0  0
  148.3143  141.9201  153.5419 H   0  0  0  0  0  0  0  0  0  0  0  0
  149.9111  140.1045  158.1034 H   0  0  0  0  0  0  0  0  0  0  0  0
  148.9726  142.7362  156.8696 H   0  0  0  0  0  0  0  0  0  0  0  0
  148.7996  142.2475  158.5519 H   0  0  0  0  0  0  0  0  0  0  0  0
  147.9460  141.3710  157.2919 H   0  0  0  0  0  0  0  0  0  0  0  0
  150.5459  143.3639  157.7601 H   0  0  0  0  0  0  0  0  0  0  0  0
  153.4562  143.0985  158.3274 H   0  0  0  0  0  0  0  0  0  0  0  0
  153.6087  145.4542  157.5974 H   0  0  0  0  0  0  0  0  0  0  0  0
  151.8562  145.5514  157.4297 H   0  0  0  0  0  0  0  0  0  0  0  0
  152.7997  144.5214  156.3575 H   0  0  0  0  0  0  0  0  0  0  0  0
  153.1614  144.7868  160.1175 H   0  0  0  0  0  0  0  0  0  0  0  0
  151.5427  142.2316  160.5500 H   0  0  0  0  0  0  0  0  0  0  0  0
  152.1394  143.2812  161.8312 H   0  0  0  0  0  0  0  0  0  0  0  0
  153.2755  142.4228  160.8150 H   0  0  0  0  0  0  0  0  0  0  0  0
  150.1618  144.3959  159.6899 H   0  0  0  0  0  0  0  0  0  0  0  0
  151.0598  145.8925  159.4489 H   0  0  0  0  0  0  0  0  0  0  0  0
  150.8852  145.2317  161.0603 H   0  0  0  0  0  0  0  0  0  0  0  0
  1  2  1  0  0  0  0
  1 19  1  0  0  0  0
  1 20  1  0  0  0  0
  1 21  1  0  0  0  0
  2  7  1  0  0  0  0
  2  3  2  0  0  0  0
  3  4  1  0  0  0  0
  4 18  1  0  0  0  0
  4  5  1  0  0  0  0
  5  6  1  0  0  0  0
  5  7  2  0  0  0  0
  6 22  1  0  0  0  0
  6 23  1  0  0  0  0
  6 24  1  0  0  0  0
  7  8  1  0  0  0  0
  8  9  1  0  0  0  0
  8 10  1  0  0  0  0
  8 25  1  0  0  0  0
  9 26  1  0  0  0  0
  9 27  1  0  0  0  0
  9 28  1  0  0  0  0
 10 11  2  0  0  0  0
 10 12  1  0  0  0  0
 12 13  1  0  0  0  0
 12 29  1  0  0  0  0
 13 14  1  0  0  0  0
 13 15  1  0  0  0  0
 13 30  1  0  0  0  0
 14 31  1  0  0  0  0
 14 32  1  0  0  0  0
 14 33  1  0  0  0  0
 15 16  1  0  0  0  0
 15 17  1  0  0  0  0
 15 34  1  0  0  0  0
 16 35  1  0  0  0  0
 16 36  1  0  0  0  0
 16 37  1  0  0  0  0
 17 38  1  0  0  0  0
 17 39  1  0  0  0  0
 17 40  1  0  0  0  0
M  END
> <s_m_source_file>
AV-unprocessed.smi

> <i_m_source_file_index>
2496

> <i_lp_mmshare_version>
43012

> <i_f3d_flags>
0

> <s_epik_input>
W0NIM11jMW5bbkhdYyhbQ0gzXSljMVtDQEhdKFtDSDNdKUMoPU8pW05IXVtDQEhdKFtDSDNdKVtDSF0oW0NIM10pW0NIM10=

> <s_epik_cmdline>
J2VwaWtfcHl0aG9uJywgJy1waCcsICc3LjAnLCAnLXRuJywgJzgnLCAnLW1hJywgJzIwMCcsICctbWV0YWxfYmluZGluZycsICctaW1hZScsICc8aW5maWxlLm1hZT4nLCAnLW9tYWUnLCAnPG91dGZpbGUubWFlPic=

> <r_lp_tautomer_probability>
1

> <r_epik_Ionization_Penalty>
0.000456212

> <r_epik_Ionization_Penalty_Charging>
0

> <r_epik_Ionization_Penalty_Neutral>
0.000456212

> <r_epik_State_Penalty>
-0

> <r_epik_Charging_Adjusted_Penalty>
0

> <i_epik_Tot_Q>
0

> <i_epik_Tot_abs_Q>
0

> <r_epik_Metal_State_Penalty>
-0

> <b_epik_Metal_Only>
0

> <s_lp_Force_Field>
OPLS_2005

> <r_lp_Energy>
1.42294

> <b_lp_Chiralities_Consistent>
1

> <s_lp_Variant>
AV-unprocessed.smi:2496-3

> <Gold.Version>
5.8.1

> <Gold.Id.Protein>
6NUR|6NUR_protein|mol2

> <Gold.PLP.Fitness>
36.5045

> <Gold.PLP.PLP>
-34.4798

> <Gold.PLP.part.hbond>
-2.8250

> <Gold.PLP.part.metal>
0.0000

> <Gold.PLP.part.buried>
-2.4267

> <Gold.PLP.part.nonpolar>
-29.5713

> <Gold.PLP.part.repulsive>
1.9656

> <Gold.PLP.ligand.clash>
0.8787

> <Gold.PLP.ligand.torsion>
0.4313

> <Gold.PLP.Chemscore.Hbond>
1.2184

> <Gold.PLP.Chemscore.CHOScore>
0.0000

> <Gold.PLP.Chemscore.Metal>
0.0000

> <Gold.Chemscore.Hbonds>
donor molecule, donor type, donor heavy atom, donor atom, acceptor molecule, acceptor atom, score
      L1  H     4    18       P1  7957  1.00
      P1  H  7997  8009       L1    11  0.01

> <Gold.PLP.Chemscore.Internal.Correction>
0.1107

> <Gold.Rescore>
     Score         DG    S(hbond)    S(metal)    S(lipo)     H(rot)  DE(clash)    DE(int)     intcor
     14.62     -17.89       1.24        0.00     102.64       1.47       1.75       1.52       ----

> <Gold.Chemscore.Fitness>
14.6199

> <Gold.Chemscore.DG>
-17.8916

> <Gold.Chemscore.ZeroCoef>
-5.4800

> <Gold.Chemscore.Hbond>
1.2443

> <Gold.Chemscore.Metal>
0.0000

> <Gold.Chemscore.Lipo>
102.6416

> <Gold.Chemscore.Internal_Hbond>
0.0000

> <Gold.Chemscore.DEClash>
1.7527

> <Gold.Chemscore.DEInternal>
1.5191

> <Gold.Chemscore.Rot>
1.4662

> <Gold.Chemscore.Internal.Correction>
   9.000000E+99

> <Gold.Chemscore.Hbonds>
donor molecule, donor type, donor heavy atom, donor atom, acceptor molecule, acceptor atom, score
      L1  H     4    18       P1  7957  1.00
      P1  H  7997  8009       L1    11  0.05

> <Gold.Chemscore.Hbond.Weighted>
-4.1560

> <Gold.Chemscore.Metal.Weighted>
-0.0000

> <Gold.Chemscore.Lipo.Weighted>
-12.0091

> <Gold.Chemscore.Internal_Hbond.Weighted>
0.0000

> <Gold.Chemscore.DEClash.Weighted>
1.7527

> <Gold.Chemscore.DEInternal.Weighted>
1.5191

> <Gold.Chemscore.Rot.Weighted>
3.7534

> <Gold.Chemscore.Internal.Correction.Weighted>
   9.000000E+99

> <Gold.Protein.RotatedTorsions>
[ 6907 6896 6895 6894 ] final  -58.04 input  -60.11 | X-H torsion
[ 7974 7965 7964 7962 ] final -147.20 input  175.53 | X-H torsion
[ 8008 7997 7996 7995 ] final  169.95 input   59.86 | X-H torsion
[ 10167 10162 10161 10158 ] final -155.05 input  -65.29 | X-H torsion
[ 10718 10713 10712 10709 ] final  163.12 input   66.30 | X-H torsion
[ 10763 10752 10751 10750 ] final  -59.27 input  -60.55 | X-H torsion
[ 11005 11000 10999 10996 ] final  -20.81 input  -57.11 | X-H torsion

> <Gold.Protein.ActiveResidues>
 VAL166  LYS551  ARG553  GLY616  TRP617  ASP618  TYR619  PRO620  LYS621  CYS622 
 ASP623  PHE694  ASN695  SER759  ASP760  ASP761  ALA762  ILE779  LEU786  VAL792 
 PHE793  MET794  SER795  GLU796  ALA797  LYS798  CYS799  TRP800  GLU811  SER814 

> <Gold.Protein.RotatedAtoms>
  150.8038  134.7150  159.6624 H   0  0  0  0  0  0  0  0  0  0  0  0  # atno 6907 bound_to 6896
  152.4157  134.6043  160.0018 H   0  0  0  0  0  0  0  0  0  0  0  0  # atno 6908 bound_to 6896
  151.6273  133.3297  159.3137 H   0  0  0  0  0  0  0  0  0  0  0  0  # atno 6909 bound_to 6896
  144.8109  140.5358  143.5643 H   0  0  0  0  0  0  0  0  0  0  0  0  # atno 7974 bound_to 7965
  156.1410  140.1551  156.8920 H   0  0  0  0  0  0  0  0  0  0  0  0  # atno 8008 bound_to 7997
  154.4988  140.0831  156.7792 H   0  0  0  0  0  0  0  0  0  0  0  0  # atno 8009 bound_to 7997
  155.4078  140.3417  155.4263 H   0  0  0  0  0  0  0  0  0  0  0  0  # atno 8010 bound_to 7997
  139.6963  143.9337  152.2408 H   0  0  0  0  0  0  0  0  0  0  0  0  # atno 10167 bound_to 10162
  157.1129  131.0472  151.2449 H   0  0  0  0  0  0  0  0  0  0  0  0  # atno 10718 bound_to 10713
  154.2511  135.6326  153.5240 H   0  0  0  0  0  0  0  0  0  0  0  0  # atno 10763 bound_to 10752
  152.9912  135.5565  154.5807 H   0  0  0  0  0  0  0  0  0  0  0  0  # atno 10764 bound_to 10752
  154.5334  135.2890  155.1135 H   0  0  0  0  0  0  0  0  0  0  0  0  # atno 10765 bound_to 10752
  140.8501  133.7863  155.9956 H   0  0  0  0  0  0  0  0  0  0  0  0  # atno 11005 bound_to 11000
  145.5327  139.1475  143.3491 LP  0  0  0  0  0  0  0  0  0  0  0  0  # atno 17320 bound_to 7965
  146.2407  140.5467  142.8935 LP  0  0  0  0  0  0  0  0  0  0  0  0  # atno 17321 bound_to 7965
  139.9167  144.6824  150.8504 LP  0  0  0  0  0  0  0  0  0  0  0  0  # atno 17342 bound_to 10162
  140.7697  143.3404  151.2220 LP  0  0  0  0  0  0  0  0  0  0  0  0  # atno 17343 bound_to 10162
  157.4543  130.7616  149.7179 LP  0  0  0  0  0  0  0  0  0  0  0  0  # atno 17370 bound_to 10713
  155.9846  130.3990  150.3303 LP  0  0  0  0  0  0  0  0  0  0  0  0  # atno 17371 bound_to 10713
  140.8800  134.2623  157.5149 LP  0  0  0  0  0  0  0  0  0  0  0  0  # atno 17394 bound_to 11000
  139.8704  134.9610  156.4382 LP  0  0  0  0  0  0  0  0  0  0  0  0  # atno 17395 bound_to 11000

$$$$
