AV-unprocessed.smi:1151|AV-procd|sdf|4896|dock10
  -GOLD-   22720 3473D 1   1.00000     0.00000
 Structure written by MMmdl.
 35 36  0  0  0  0  0  0  0  0  1 V2000
  151.9662  145.4921  159.3848 C   0  0  0  0  0  0  0  0  0  0  0  0
  152.3802  144.1951  159.9910 C   0  0  0  0  0  0  0  0  0  0  0  0
  152.8777  143.1761  159.2853 N   0  0  0  0  0  0  0  0  0  0  0  0
  153.1898  142.0710  160.0832 C   0  0  0  0  0  0  0  0  0  0  0  0
  153.7489  140.8257  159.4576 C   0  0  0  0  0  0  0  0  0  0  0  0
  152.7557  139.6456  159.4410 C   0  0  0  0  0  0  0  0  0  0  0  0
  151.6671  139.8327  158.4860 N   0  0  0  0  0  0  0  0  0  0  0  0
  151.7838  139.7409  157.1527 C   0  0  0  0  0  0  0  0  0  0  0  0
  152.8549  139.5322  156.5822 O   0  0  0  0  0  0  0  0  0  0  0  0
  150.4888  139.8906  156.3437 C   0  0  1  0  0  0  0  0  0  0  0  0
  149.8402  141.2661  156.5724 C   0  0  0  0  0  0  0  0  0  0  0  0
  148.5175  141.3876  155.7987 C   0  0  0  0  0  0  0  0  0  0  0  0
  148.6123  140.8987  154.3457 C   0  0  0  0  0  0  0  0  0  0  0  0
  147.7457  141.2287  153.5394 O   0  0  0  0  0  0  0  0  0  0  0  0
  149.6255  140.0874  153.9947 N   0  0  0  0  0  0  0  0  0  0  0  0
  150.7562  139.6958  154.8365 C   0  0  0  0  0  0  0  0  0  0  0  0
  152.9182  142.2703  161.4141 C   0  0  0  0  0  0  0  0  0  0  0  0
  152.2534  143.8521  161.7121 S   0  0  0  0  0  0  0  0  0  0  0  0
  152.4595  145.6397  158.4235 H   0  0  0  0  0  0  0  0  0  0  0  0
  152.2361  146.3170  160.0443 H   0  0  0  0  0  0  0  0  0  0  0  0
  150.8871  145.5036  159.2315 H   0  0  0  0  0  0  0  0  0  0  0  0
  154.0725  141.0335  158.4373 H   0  0  0  0  0  0  0  0  0  0  0  0
  154.6516  140.5246  159.9906 H   0  0  0  0  0  0  0  0  0  0  0  0
  153.2825  138.7351  159.1537 H   0  0  0  0  0  0  0  0  0  0  0  0
  152.3555  139.4684  160.4404 H   0  0  0  0  0  0  0  0  0  0  0  0
  150.7502  140.0076  158.8710 H   0  0  0  0  0  0  0  0  0  0  0  0
  149.7828  139.1248  156.6710 H   0  0  0  0  0  0  0  0  0  0  0  0
  149.6549  141.4258  157.6356 H   0  0  0  0  0  0  0  0  0  0  0  0
  150.5171  142.0614  156.2549 H   0  0  0  0  0  0  0  0  0  0  0  0
  147.7493  140.7946  156.2961 H   0  0  0  0  0  0  0  0  0  0  0  0
  148.1706  142.4215  155.8131 H   0  0  0  0  0  0  0  0  0  0  0  0
  149.6413  139.7553  153.0413 H   0  0  0  0  0  0  0  0  0  0  0  0
  151.6188  140.2831  154.5178 H   0  0  0  0  0  0  0  0  0  0  0  0
  150.9973  138.6523  154.6306 H   0  0  0  0  0  0  0  0  0  0  0  0
  153.0609  141.5800  162.2324 H   0  0  0  0  0  0  0  0  0  0  0  0
  1  2  1  0  0  0  0
  1 19  1  0  0  0  0
  1 20  1  0  0  0  0
  1 21  1  0  0  0  0
  2 18  1  0  0  0  0
  2  3  2  0  0  0  0
  3  4  1  0  0  0  0
  4  5  1  0  0  0  0
  4 17  2  0  0  0  0
  5  6  1  0  0  0  0
  5 22  1  0  0  0  0
  5 23  1  0  0  0  0
  6  7  1  0  0  0  0
  6 24  1  0  0  0  0
  6 25  1  0  0  0  0
  7  8  1  0  0  0  0
  7 26  1  0  0  0  0
  8  9  2  0  0  0  0
  8 10  1  0  0  0  0
 10 16  1  0  0  0  0
 10 11  1  0  0  0  0
 10 27  1  0  0  0  0
 11 12  1  0  0  0  0
 11 28  1  0  0  0  0
 11 29  1  0  0  0  0
 12 13  1  0  0  0  0
 12 30  1  0  0  0  0
 12 31  1  0  0  0  0
 13 14  2  0  0  0  0
 13 15  1  0  0  0  0
 15 16  1  0  0  0  0
 15 32  1  0  0  0  0
 16 33  1  0  0  0  0
 16 34  1  0  0  0  0
 17 18  1  0  0  0  0
 17 35  1  0  0  0  0
M  END
> <s_m_source_file>
AV-unprocessed.smi

> <i_m_source_file_index>
1151

> <i_lp_mmshare_version>
43012

> <i_f3d_flags>
0

> <s_epik_input>
W0NIM11jMW5jKFtjSF1zMSlbQ0gyXVtDSDJdW05IXUMoPU8pW0NAQEhdMltDSDJdW0NIMl1DKD1PKVtOSF1bQ0gyXTI=

> <s_epik_cmdline>
J2VwaWtfcHl0aG9uJywgJy1waCcsICc3LjAnLCAnLXRuJywgJzgnLCAnLW1hJywgJzIwMCcsICctbWV0YWxfYmluZGluZycsICctaW1hZScsICc8aW5maWxlLm1hZT4nLCAnLW9tYWUnLCAnPG91dGZpbGUubWFlPic=

> <r_epik_Ionization_Penalty>
0.00105008

> <r_epik_Ionization_Penalty_Charging>
0

> <r_epik_Ionization_Penalty_Neutral>
0.00105008

> <r_epik_State_Penalty>
0.000686749

> <r_epik_Charging_Adjusted_Penalty>
0.000686749

> <i_epik_Tot_Q>
0

> <i_epik_Tot_abs_Q>
0

> <r_epik_Metal_State_Penalty>
-0

> <b_epik_Metal_Only>
0

> <s_lp_Force_Field>
OPLS_2005

> <r_lp_Energy>
7.51238

> <b_lp_Chiralities_Consistent>
1

> <s_lp_Variant>
AV-unprocessed.smi:1151-2

> <Gold.Version>
5.8.1

> <Gold.Id.Protein>
6NUR|6NUR_protein|mol2

> <Gold.PLP.Fitness>
45.0851

> <Gold.PLP.PLP>
-39.6994

> <Gold.PLP.part.hbond>
-2.0000

> <Gold.PLP.part.metal>
0.0000

> <Gold.PLP.part.buried>
-4.7232

> <Gold.PLP.part.nonpolar>
-33.1545

> <Gold.PLP.part.repulsive>
0.6397

> <Gold.PLP.ligand.clash>
0.0000

> <Gold.PLP.ligand.torsion>
0.2272

> <Gold.PLP.Chemscore.Hbond>
1.9440

> <Gold.PLP.Chemscore.CHOScore>
0.0000

> <Gold.PLP.Chemscore.Metal>
0.0000

> <Gold.Chemscore.Hbonds>
donor molecule, donor type, donor heavy atom, donor atom, acceptor molecule, acceptor atom, score
      L1  H    15    32       P1  7957  1.00
      P1  H  7997  8009       L1     9  1.00

> <Gold.PLP.Chemscore.Internal.Correction>
0.0081

> <Gold.Rescore>
     Score         DG    S(hbond)    S(metal)    S(lipo)     H(rot)  DE(clash)    DE(int)     intcor
     18.83     -19.02       1.95        0.00      97.21       1.70       0.02       0.17       ----

> <Gold.Chemscore.Fitness>
18.8283

> <Gold.Chemscore.DG>
-19.0152

> <Gold.Chemscore.ZeroCoef>
-5.4800

> <Gold.Chemscore.Hbond>
1.9484

> <Gold.Chemscore.Metal>
0.0000

> <Gold.Chemscore.Lipo>
97.2139

> <Gold.Chemscore.Internal_Hbond>
0.0000

> <Gold.Chemscore.DEClash>
0.0199

> <Gold.Chemscore.DEInternal>
0.1670

> <Gold.Chemscore.Rot>
1.6978

> <Gold.Chemscore.Internal.Correction>
   9.000000E+99

> <Gold.Chemscore.Hbonds>
donor molecule, donor type, donor heavy atom, donor atom, acceptor molecule, acceptor atom, score
      L1  H    15    32       P1  7957  0.96
      P1  H  7997  8009       L1     9  0.99

> <Gold.Chemscore.Hbond.Weighted>
-6.5075

> <Gold.Chemscore.Metal.Weighted>
-0.0000

> <Gold.Chemscore.Lipo.Weighted>
-11.3740

> <Gold.Chemscore.Internal_Hbond.Weighted>
0.0000

> <Gold.Chemscore.DEClash.Weighted>
0.0199

> <Gold.Chemscore.DEInternal.Weighted>
0.1670

> <Gold.Chemscore.Rot.Weighted>
4.3463

> <Gold.Chemscore.Internal.Correction.Weighted>
   9.000000E+99

> <Gold.Protein.RotatedTorsions>
[ 6907 6896 6895 6894 ] final    8.69 input  -60.11 | X-H torsion
[ 7974 7965 7964 7962 ] final  163.59 input  175.53 | X-H torsion
[ 8008 7997 7996 7995 ] final -164.35 input   59.86 | X-H torsion
[ 10167 10162 10161 10158 ] final  -93.09 input  -65.29 | X-H torsion
[ 10718 10713 10712 10709 ] final  -23.08 input   66.30 | X-H torsion
[ 10763 10752 10751 10750 ] final  140.80 input  -60.55 | X-H torsion
[ 11005 11000 10999 10996 ] final    4.61 input  -57.11 | X-H torsion

> <Gold.Protein.ActiveResidues>
 VAL166  LYS551  ARG553  GLY616  TRP617  ASP618  TYR619  PRO620  LYS621  CYS622 
 ASP623  PHE694  ASN695  SER759  ASP760  ASP761  ALA762  ILE779  LEU786  VAL792 
 PHE793  MET794  SER795  GLU796  ALA797  LYS798  CYS799  TRP800  GLU811  SER814 

> <Gold.Protein.RotatedAtoms>
  151.7102  135.0914  160.0266 H   0  0  0  0  0  0  0  0  0  0  0  0  # atno 6907 bound_to 6896
  152.3666  133.6361  159.6064 H   0  0  0  0  0  0  0  0  0  0  0  0  # atno 6908 bound_to 6896
  150.7643  133.9254  159.3452 H   0  0  0  0  0  0  0  0  0  0  0  0  # atno 6909 bound_to 6896
  144.7583  139.8204  143.6342 H   0  0  0  0  0  0  0  0  0  0  0  0  # atno 7974 bound_to 7965
  155.8343  140.0938  157.1773 H   0  0  0  0  0  0  0  0  0  0  0  0  # atno 8008 bound_to 7997
  154.3980  140.1413  156.3712 H   0  0  0  0  0  0  0  0  0  0  0  0  # atno 8009 bound_to 7997
  155.8133  140.3449  155.5473 H   0  0  0  0  0  0  0  0  0  0  0  0  # atno 8010 bound_to 7997
  140.3282  143.3010  151.9971 H   0  0  0  0  0  0  0  0  0  0  0  0  # atno 10167 bound_to 10162
  156.4958  130.4577  149.6729 H   0  0  0  0  0  0  0  0  0  0  0  0  # atno 10718 bound_to 10713
  153.9287  135.2992  155.3446 H   0  0  0  0  0  0  0  0  0  0  0  0  # atno 10763 bound_to 10752
  154.7538  135.4967  153.9340 H   0  0  0  0  0  0  0  0  0  0  0  0  # atno 10764 bound_to 10752
  153.1103  135.6757  153.9617 H   0  0  0  0  0  0  0  0  0  0  0  0  # atno 10765 bound_to 10752
  140.5800  134.0022  155.8043 H   0  0  0  0  0  0  0  0  0  0  0  0  # atno 11005 bound_to 11000
  146.1618  139.4735  142.9983 LP  0  0  0  0  0  0  0  0  0  0  0  0  # atno 17320 bound_to 7965
  145.6705  141.0218  143.1660 LP  0  0  0  0  0  0  0  0  0  0  0  0  # atno 17321 bound_to 7965
  139.4861  144.6257  151.7170 LP  0  0  0  0  0  0  0  0  0  0  0  0  # atno 17342 bound_to 10162
  140.5422  144.0561  150.6093 LP  0  0  0  0  0  0  0  0  0  0  0  0  # atno 17343 bound_to 10162
  156.3381  130.7367  151.2308 LP  0  0  0  0  0  0  0  0  0  0  0  0  # atno 17370 bound_to 10713
  157.7468  131.0411  150.4630 LP  0  0  0  0  0  0  0  0  0  0  0  0  # atno 17371 bound_to 10713
  141.1002  133.9779  157.3091 LP  0  0  0  0  0  0  0  0  0  0  0  0  # atno 17394 bound_to 11000
  139.9322  135.0199  156.8437 LP  0  0  0  0  0  0  0  0  0  0  0  0  # atno 17395 bound_to 11000

$$$$
