AV-unprocessed.smi:626|AV-procd|sdf|3109|dock6
  -GOLD-   22720 0 33D 1   1.00000     0.00000
 Structure written by MMmdl.
 34 36  0  0  0  0  0  0  0  0  1 V2000
  144.1255  142.3934  158.9240 C   0  0  0  0  0  0  0  0  0  0  0  0
  144.7783  143.2360  159.9142 N   0  0  0  0  0  0  0  0  0  0  0  0
  145.2514  142.7929  161.0881 C   0  0  0  0  0  0  0  0  0  0  0  0
  145.1751  141.6136  161.4376 O   0  0  0  0  0  0  0  0  0  0  0  0
  145.9117  143.8498  161.9838 C   0  0  0  0  0  0  0  0  0  0  0  0
  147.0738  144.5210  161.3194 C   0  0  0  0  0  0  0  0  0  0  0  0
  147.1818  145.8440  161.2874 N   0  0  0  0  0  0  0  0  0  0  0  0
  148.3727  146.0536  160.5775 O   0  0  0  0  0  0  0  0  0  0  0  0
  148.8614  144.8214  160.2951 C   0  0  0  0  0  0  0  0  0  0  0  0
  150.0978  144.7170  159.4547 C   0  0  2  0  0  0  0  0  0  0  0  0
  150.5717  143.2711  159.1984 C   0  0  0  0  0  0  0  0  0  0  0  0
  152.0645  143.3362  159.5748 C   0  0  1  0  0  0  0  0  0  0  0  0
  152.8237  144.2131  158.5596 C   0  0  0  0  0  0  0  0  0  0  0  0
  152.3643  145.6391  158.9257 C   0  0  0  0  0  0  0  0  0  0  0  0
  151.3537  145.3852  160.0606 C   0  0  2  0  0  0  0  0  0  0  0  0
  152.0319  144.2362  160.8035 C   0  0  0  0  0  0  0  0  0  0  0  0
  148.0652  143.8302  160.6919 N   0  0  0  0  0  0  0  0  0  0  0  0
  143.8524  142.9877  158.0522 H   0  0  0  0  0  0  0  0  0  0  0  0
  143.2169  141.9479  159.3314 H   0  0  0  0  0  0  0  0  0  0  0  0
  144.7895  141.5925  158.5962 H   0  0  0  0  0  0  0  0  0  0  0  0
  144.8796  144.2162  159.6927 H   0  0  0  0  0  0  0  0  0  0  0  0
  145.1680  144.6004  162.2548 H   0  0  0  0  0  0  0  0  0  0  0  0
  146.2457  143.3841  162.9123 H   0  0  0  0  0  0  0  0  0  0  0  0
  149.8654  145.1946  158.5014 H   0  0  0  0  0  0  0  0  0  0  0  0
  150.0559  142.5649  159.8511 H   0  0  0  0  0  0  0  0  0  0  0  0
  150.4069  142.9529  158.1685 H   0  0  0  0  0  0  0  0  0  0  0  0
  152.5173  142.3572  159.7337 H   0  0  0  0  0  0  0  0  0  0  0  0
  153.9023  144.1136  158.6874 H   0  0  0  0  0  0  0  0  0  0  0  0
  152.5823  143.9501  157.5291 H   0  0  0  0  0  0  0  0  0  0  0  0
  153.2066  146.2314  159.2855 H   0  0  0  0  0  0  0  0  0  0  0  0
  151.9250  146.1684  158.0793 H   0  0  0  0  0  0  0  0  0  0  0  0
  151.1451  146.2755  160.6553 H   0  0  0  0  0  0  0  0  0  0  0  0
  151.4351  143.8291  161.6209 H   0  0  0  0  0  0  0  0  0  0  0  0
  153.0238  144.4903  161.1814 H   0  0  0  0  0  0  0  0  0  0  0  0
  1  2  1  0  0  0  0
  1 18  1  0  0  0  0
  1 19  1  0  0  0  0
  1 20  1  0  0  0  0
  2  3  1  0  0  0  0
  2 21  1  0  0  0  0
  3  4  2  0  0  0  0
  3  5  1  0  0  0  0
  5  6  1  0  0  0  0
  5 22  1  0  0  0  0
  5 23  1  0  0  0  0
  6 17  1  0  0  0  0
  6  7  2  0  0  0  0
  7  8  1  0  0  0  0
  8  9  1  0  0  0  0
  9 10  1  0  0  0  0
  9 17  2  0  0  0  0
 10 15  1  0  0  0  0
 10 11  1  0  0  0  0
 10 24  1  0  0  0  0
 11 12  1  0  0  0  0
 11 25  1  0  0  0  0
 11 26  1  0  0  0  0
 12 16  1  0  0  0  0
 12 13  1  0  0  0  0
 12 27  1  0  0  0  0
 13 14  1  0  0  0  0
 13 28  1  0  0  0  0
 13 29  1  0  0  0  0
 14 15  1  0  0  0  0
 14 30  1  0  0  0  0
 14 31  1  0  0  0  0
 15 16  1  0  0  0  0
 15 32  1  0  0  0  0
 16 33  1  0  0  0  0
 16 34  1  0  0  0  0
M  END
> <s_m_source_file>
AV-unprocessed.smi

> <i_m_source_file_index>
626

> <i_lp_mmshare_version>
43012

> <i_f3d_flags>
0

> <s_epik_input>
W0NIM11bTkhdQyg9TylbQ0gyXWMxbm9jKG4xKVtDQEhdKFtDSDJdW0NAQEhdMjMpW0NAQEhdKFtDSDJdMylbQ0gyXVtDSDJdMg==

> <s_epik_cmdline>
J2VwaWtfcHl0aG9uJywgJy1waCcsICc3LjAnLCAnLXRuJywgJzgnLCAnLW1hJywgJzIwMCcsICctbWV0YWxfYmluZGluZycsICctaW1hZScsICc8aW5maWxlLm1hZT4nLCAnLW9tYWUnLCAnPG91dGZpbGUubWFlPic=

> <r_lp_tautomer_probability>
1

> <r_epik_Ionization_Penalty>
1.02916e-07

> <r_epik_Ionization_Penalty_Charging>
0

> <r_epik_Ionization_Penalty_Neutral>
1.02916e-07

> <r_epik_State_Penalty>
-0

> <r_epik_Charging_Adjusted_Penalty>
0

> <i_epik_Tot_Q>
0

> <i_epik_Tot_abs_Q>
0

> <r_epik_Metal_State_Penalty>
-0

> <b_epik_Metal_Only>
0

> <s_lp_Force_Field>
OPLS_2005

> <r_lp_Energy>
49.0538

> <b_lp_Chiralities_Consistent>
1

> <s_lp_Variant>
AV-unprocessed.smi:626-1

> <Gold.Version>
5.8.1

> <Gold.Id.Protein>
6NUR|6NUR_protein|mol2

> <Gold.PLP.Fitness>
44.9475

> <Gold.PLP.PLP>
-40.1426

> <Gold.PLP.part.hbond>
-4.8222

> <Gold.PLP.part.metal>
0.0000

> <Gold.PLP.part.buried>
-7.8312

> <Gold.PLP.part.nonpolar>
-27.3605

> <Gold.PLP.part.repulsive>
0.5987

> <Gold.PLP.ligand.clash>
0.0000

> <Gold.PLP.ligand.torsion>
0.1712

> <Gold.PLP.Chemscore.Hbond>
1.6903

> <Gold.PLP.Chemscore.CHOScore>
0.0000

> <Gold.PLP.Chemscore.Metal>
0.0000

> <Gold.Chemscore.Hbonds>
donor molecule, donor type, donor heavy atom, donor atom, acceptor molecule, acceptor atom, score
      P1  H  6933  6944       L1    17  1.00
      P1  H  6934  6946       L1     4  0.64

> <Gold.PLP.Chemscore.Internal.Correction>
0.0764

> <Gold.Rescore>
     Score         DG    S(hbond)    S(metal)    S(lipo)     H(rot)  DE(clash)    DE(int)     intcor
     15.39     -17.39       1.80        0.00      85.64       1.61       1.68       0.31       ----

> <Gold.Chemscore.Fitness>
15.3938

> <Gold.Chemscore.DG>
-17.3852

> <Gold.Chemscore.ZeroCoef>
-5.4800

> <Gold.Chemscore.Hbond>
1.8001

> <Gold.Chemscore.Metal>
0.0000

> <Gold.Chemscore.Lipo>
85.6359

> <Gold.Chemscore.Internal_Hbond>
0.0000

> <Gold.Chemscore.DEClash>
1.6815

> <Gold.Chemscore.DEInternal>
0.3099

> <Gold.Chemscore.Rot>
1.6119

> <Gold.Chemscore.Internal.Correction>
   9.000000E+99

> <Gold.Chemscore.Hbonds>
donor molecule, donor type, donor heavy atom, donor atom, acceptor molecule, acceptor atom, score
      P1  H  6933  6944       L1    17  0.90
      P1  H  6934  6946       L1     4  0.25

> <Gold.Chemscore.Hbond.Weighted>
-6.0124

> <Gold.Chemscore.Metal.Weighted>
-0.0000

> <Gold.Chemscore.Lipo.Weighted>
-10.0194

> <Gold.Chemscore.Internal_Hbond.Weighted>
0.0000

> <Gold.Chemscore.DEClash.Weighted>
1.6815

> <Gold.Chemscore.DEInternal.Weighted>
0.3099

> <Gold.Chemscore.Rot.Weighted>
4.1266

> <Gold.Chemscore.Internal.Correction.Weighted>
   9.000000E+99

> <Gold.Protein.RotatedTorsions>
[ 6907 6896 6895 6894 ] final -153.64 input  -60.11 | X-H torsion
[ 7974 7965 7964 7962 ] final   69.69 input  175.53 | X-H torsion
[ 8008 7997 7996 7995 ] final  167.13 input   59.86 | X-H torsion
[ 10167 10162 10161 10158 ] final    4.38 input  -65.29 | X-H torsion
[ 10718 10713 10712 10709 ] final   82.96 input   66.30 | X-H torsion
[ 10763 10752 10751 10750 ] final  126.93 input  -60.55 | X-H torsion
[ 11005 11000 10999 10996 ] final  146.92 input  -57.11 | X-H torsion

> <Gold.Protein.ActiveResidues>
 VAL166  LYS551  ARG553  GLY616  TRP617  ASP618  TYR619  PRO620  LYS621  CYS622 
 ASP623  PHE694  ASN695  SER759  ASP760  ASP761  ALA762  ILE779  LEU786  VAL792 
 PHE793  MET794  SER795  GLU796  ALA797  LYS798  CYS799  TRP800  GLU811  SER814 

> <Gold.Protein.RotatedAtoms>
  151.2455  133.4377  159.2608 H   0  0  0  0  0  0  0  0  0  0  0  0  # atno 6907 bound_to 6896
  151.0665  134.9771  159.8297 H   0  0  0  0  0  0  0  0  0  0  0  0  # atno 6908 bound_to 6896
  152.5406  134.2403  159.8912 H   0  0  0  0  0  0  0  0  0  0  0  0  # atno 6909 bound_to 6896
  145.7874  139.2917  143.1230 H   0  0  0  0  0  0  0  0  0  0  0  0  # atno 7974 bound_to 7965
  156.1660  140.1625  156.8531 H   0  0  0  0  0  0  0  0  0  0  0  0  # atno 8008 bound_to 7997
  154.5208  140.0779  156.8202 H   0  0  0  0  0  0  0  0  0  0  0  0  # atno 8009 bound_to 7997
  155.3611  140.3395  155.4243 H   0  0  0  0  0  0  0  0  0  0  0  0  # atno 8010 bound_to 7997
  140.6538  143.7479  150.7618 H   0  0  0  0  0  0  0  0  0  0  0  0  # atno 10167 bound_to 10162
  157.6869  131.0070  150.2453 H   0  0  0  0  0  0  0  0  0  0  0  0  # atno 10718 bound_to 10713
  153.7013  135.3283  155.3225 H   0  0  0  0  0  0  0  0  0  0  0  0  # atno 10763 bound_to 10752
  154.8412  135.4455  154.1408 H   0  0  0  0  0  0  0  0  0  0  0  0  # atno 10764 bound_to 10752
  153.2476  135.6978  153.7793 H   0  0  0  0  0  0  0  0  0  0  0  0  # atno 10765 bound_to 10752
  140.0833  134.9084  157.1535 H   0  0  0  0  0  0  0  0  0  0  0  0  # atno 11005 bound_to 11000
  146.0012  140.8518  143.0017 LP  0  0  0  0  0  0  0  0  0  0  0  0  # atno 17320 bound_to 7965
  144.6787  140.2355  143.7350 LP  0  0  0  0  0  0  0  0  0  0  0  0  # atno 17321 bound_to 7965
  140.1135  143.4677  152.2356 LP  0  0  0  0  0  0  0  0  0  0  0  0  # atno 17342 bound_to 10162
  139.5757  144.7486  151.3772 LP  0  0  0  0  0  0  0  0  0  0  0  0  # atno 17343 bound_to 10162
  156.3060  130.3765  149.7706 LP  0  0  0  0  0  0  0  0  0  0  0  0  # atno 17370 bound_to 10713
  156.5321  130.8262  151.3241 LP  0  0  0  0  0  0  0  0  0  0  0  0  # atno 17371 bound_to 10713
  140.3457  134.2655  155.7205 LP  0  0  0  0  0  0  0  0  0  0  0  0  # atno 17394 bound_to 11000
  141.2054  133.7861  157.0235 LP  0  0  0  0  0  0  0  0  0  0  0  0  # atno 17395 bound_to 11000

$$$$
