AV-unprocessed.smi:1911|AV-procd|sdf|7739|dock9
  -GOLD-   22720 9483D 1   1.00000     0.00000
 Structure written by MMmdl.
 52 54  0  0  0  0  0  0  0  0  2 V2000
  146.2819  135.4197  151.3853 N   0  0  0  0  0  0  0  0  0  0  0  0
  145.8355  134.1941  151.6693 C   0  0  0  0  0  0  0  0  0  0  0  0
  144.8433  133.7151  151.1230 O   0  0  0  0  0  0  0  0  0  0  0  0
  146.6329  133.3905  152.7024 C   0  0  0  0  0  0  0  0  0  0  0  0
  147.6711  134.1976  153.3945 N   0  3  2  0  0  0  0  0  0  0  0  0
  148.6961  133.3656  154.0810 C   0  0  0  0  0  0  0  0  0  0  0  0
  149.8186  134.2385  154.6669 C   0  0  0  0  0  0  0  0  0  0  0  0
  149.2531  135.2946  155.6295 C   0  0  1  0  0  0  0  0  0  0  0  0
  150.3287  136.1546  156.1150 N   0  0  0  0  0  0  0  0  0  0  0  0
  150.1546  137.3495  156.6983 C   0  0  0  0  0  0  0  0  0  0  0  0
  149.0488  137.8600  156.8749 O   0  0  0  0  0  0  0  0  0  0  0  0
  151.3320  137.9042  157.0338 N   0  0  0  0  0  0  0  0  0  0  0  0
  151.5723  139.1505  157.6732 C   0  0  0  0  0  0  0  0  0  0  0  0
  152.6159  139.2206  158.6165 C   0  0  0  0  0  0  0  0  0  0  0  0
  152.8685  140.4374  159.2776 C   0  0  0  0  0  0  0  0  0  0  0  0
  152.0607  141.5607  158.9808 C   0  0  0  0  0  0  0  0  0  0  0  0
  152.2714  142.7996  159.6186 N   0  0  0  0  0  0  0  0  0  0  0  0
  151.5894  144.0143  159.2029 C   0  0  0  0  0  0  0  0  0  0  0  0
  152.0087  145.0658  160.2301 C   0  0  0  0  0  0  0  0  0  0  0  0
  152.2026  144.2482  161.5071 C   0  0  0  0  0  0  0  0  0  0  0  0
  152.7081  142.8907  161.0063 C   0  0  0  0  0  0  0  0  0  0  0  0
  151.0445  141.4891  158.0889 N   0  0  0  0  0  0  0  0  0  0  0  0
  150.8066  140.3208  157.4564 C   0  0  0  0  0  0  0  0  0  0  0  0
  148.1703  136.1180  154.9078 C   0  0  0  0  0  0  0  0  0  0  0  0
  147.0838  135.2067  154.3126 C   0  0  0  0  0  0  0  0  0  0  0  0
  145.7923  135.9860  150.7067 H   0  0  0  0  0  0  0  0  0  0  0  0
  147.1079  135.7791  151.8423 H   0  0  0  0  0  0  0  0  0  0  0  0
  145.9109  133.0198  153.4315 H   0  0  0  0  0  0  0  0  0  0  0  0
  147.0878  132.5135  152.2384 H   0  0  0  0  0  0  0  0  0  0  0  0
  148.2228  132.7837  154.8735 H   0  0  0  0  0  0  0  0  0  0  0  0
  149.1299  132.6496  153.3823 H   0  0  0  0  0  0  0  0  0  0  0  0
  150.5419  133.6081  155.1858 H   0  0  0  0  0  0  0  0  0  0  0  0
  150.3594  134.7256  153.8538 H   0  0  0  0  0  0  0  0  0  0  0  0
  148.8018  134.7769  156.4785 H   0  0  0  0  0  0  0  0  0  0  0  0
  151.2727  135.8132  156.0051 H   0  0  0  0  0  0  0  0  0  0  0  0
  152.1588  137.3983  156.7517 H   0  0  0  0  0  0  0  0  0  0  0  0
  153.2226  138.3530  158.8316 H   0  0  0  0  0  0  0  0  0  0  0  0
  153.6713  140.4884  159.9976 H   0  0  0  0  0  0  0  0  0  0  0  0
  151.8690  144.3105  158.1913 H   0  0  0  0  0  0  0  0  0  0  0  0
  150.5110  143.8536  159.2339 H   0  0  0  0  0  0  0  0  0  0  0  0
  152.9582  145.5140  159.9336 H   0  0  0  0  0  0  0  0  0  0  0  0
  151.2768  145.8665  160.3412 H   0  0  0  0  0  0  0  0  0  0  0  0
  152.8846  144.7189  162.2157 H   0  0  0  0  0  0  0  0  0  0  0  0
  151.2403  144.1181  162.0046 H   0  0  0  0  0  0  0  0  0  0  0  0
  152.3166  142.0788  161.6204 H   0  0  0  0  0  0  0  0  0  0  0  0
  153.7974  142.8474  161.0358 H   0  0  0  0  0  0  0  0  0  0  0  0
  149.9666  140.3396  156.7801 H   0  0  0  0  0  0  0  0  0  0  0  0
  147.7119  136.8280  155.5972 H   0  0  0  0  0  0  0  0  0  0  0  0
  148.6235  136.7102  154.1113 H   0  0  0  0  0  0  0  0  0  0  0  0
  146.3612  135.8201  153.7727 H   0  0  0  0  0  0  0  0  0  0  0  0
  146.5380  134.7006  155.1104 H   0  0  0  0  0  0  0  0  0  0  0  0
  148.1489  134.7162  152.6707 H   0  0  0  0  0  0  0  0  0  0  0  0
  1  2  1  0  0  0  0
  1 26  1  0  0  0  0
  1 27  1  0  0  0  0
  2  3  2  0  0  0  0
  2  4  1  0  0  0  0
  4  5  1  0  0  0  0
  4 28  1  0  0  0  0
  4 29  1  0  0  0  0
  5 25  1  0  0  0  0
  5  6  1  0  0  0  0
  5 52  1  0  0  0  0
  6  7  1  0  0  0  0
  6 30  1  0  0  0  0
  6 31  1  0  0  0  0
  7  8  1  0  0  0  0
  7 32  1  0  0  0  0
  7 33  1  0  0  0  0
  8  9  1  0  0  0  0
  8 24  1  0  0  0  0
  8 34  1  0  0  0  0
  9 10  1  0  0  0  0
  9 35  1  0  0  0  0
 10 11  2  0  0  0  0
 10 12  1  0  0  0  0
 12 13  1  0  0  0  0
 12 36  1  0  0  0  0
 13 23  1  0  0  0  0
 13 14  2  0  0  0  0
 14 15  1  0  0  0  0
 14 37  1  0  0  0  0
 15 16  2  0  0  0  0
 15 38  1  0  0  0  0
 16 17  1  0  0  0  0
 16 22  1  0  0  0  0
 17 21  1  0  0  0  0
 17 18  1  0  0  0  0
 18 19  1  0  0  0  0
 18 39  1  0  0  0  0
 18 40  1  0  0  0  0
 19 20  1  0  0  0  0
 19 41  1  0  0  0  0
 19 42  1  0  0  0  0
 20 21  1  0  0  0  0
 20 43  1  0  0  0  0
 20 44  1  0  0  0  0
 21 45  1  0  0  0  0
 21 46  1  0  0  0  0
 22 23  2  0  0  0  0
 23 47  1  0  0  0  0
 24 25  1  0  0  0  0
 24 48  1  0  0  0  0
 24 49  1  0  0  0  0
 25 50  1  0  0  0  0
 25 51  1  0  0  0  0
M  CHG  1   5   1
M  END
> <s_m_source_file>
AV-unprocessed.smi

> <i_m_source_file_index>
1911

> <i_lp_mmshare_version>
43012

> <i_f3d_flags>
0

> <s_epik_input>
W05IMl1DKD1PKVtDSDJdTjFbQ0gyXVtDSDJdW0NIXShbQ0gyXVtDSDJdMSlbTkhdQyg9TylbTkhdYzJbY0hdW2NIXWMobltjSF0yKU4zW0NIMl1bQ0gyXVtDSDJdW0NIMl0z

> <s_epik_cmdline>
J2VwaWtfcHl0aG9uJywgJy1waCcsICc3LjAnLCAnLXRuJywgJzgnLCAnLW1hJywgJzIwMCcsICctbWV0YWxfYmluZGluZycsICctaW1hZScsICc8aW5maWxlLm1hZT4nLCAnLW9tYWUnLCAnPG91dGZpbGUubWFlPic=

> <r_lp_tautomer_probability>
1

> <r_epik_Ionization_Penalty>
0.91661

> <r_epik_Ionization_Penalty_Charging>
0.838844

> <r_epik_Ionization_Penalty_Neutral>
0.0777665

> <r_epik_State_Penalty>
0.927046

> <r_epik_Charging_Adjusted_Penalty>
1.76589

> <i_epik_Tot_Q>
1

> <i_epik_Tot_abs_Q>
1

> <r_epik_Metal_State_Penalty>
0.950553

> <b_epik_Metal_Only>
0

> <s_lp_Force_Field>
OPLS_2005

> <r_lp_Energy>
39.0232

> <b_lp_Chiralities_Consistent>
1

> <s_lp_Variant>
AV-unprocessed.smi:1911-2

> <Gold.Version>
5.8.1

> <Gold.Id.Protein>
6NUR|6NUR_protein|mol2

> <Gold.PLP.Fitness>
48.6435

> <Gold.PLP.PLP>
-41.3880

> <Gold.PLP.part.hbond>
-2.0000

> <Gold.PLP.part.metal>
0.0000

> <Gold.PLP.part.buried>
-5.8661

> <Gold.PLP.part.nonpolar>
-33.3781

> <Gold.PLP.part.repulsive>
0.3412

> <Gold.PLP.ligand.clash>
0.0000

> <Gold.PLP.ligand.torsion>
0.9482

> <Gold.PLP.Chemscore.Hbond>
2.9920

> <Gold.PLP.Chemscore.CHOScore>
0.0000

> <Gold.PLP.Chemscore.Metal>
0.0000

> <Gold.Chemscore.Hbonds>
donor molecule, donor type, donor heavy atom, donor atom, acceptor molecule, acceptor atom, score
      L1  H     1    27       P1  7948  1.00
      L1  H     5    52       P1  7948  2.00

> <Gold.PLP.Chemscore.Internal.Correction>
0.1759

> <Gold.Rescore>
     Score         DG    S(hbond)    S(metal)    S(lipo)     H(rot)  DE(clash)    DE(int)     intcor
     15.26     -18.09       1.88        0.00      95.84       1.91       0.03       2.81       ----

> <Gold.Chemscore.Fitness>
15.2565

> <Gold.Chemscore.DG>
-18.0903

> <Gold.Chemscore.ZeroCoef>
-5.4800

> <Gold.Chemscore.Hbond>
1.8802

> <Gold.Chemscore.Metal>
0.0000

> <Gold.Chemscore.Lipo>
95.8420

> <Gold.Chemscore.Internal_Hbond>
0.0000

> <Gold.Chemscore.DEClash>
0.0251

> <Gold.Chemscore.DEInternal>
2.8087

> <Gold.Chemscore.Rot>
1.9074

> <Gold.Chemscore.Internal.Correction>
   9.000000E+99

> <Gold.Chemscore.Hbonds>
donor molecule, donor type, donor heavy atom, donor atom, acceptor molecule, acceptor atom, score
      L1  H     1    27       P1  7948  0.94
      L1  H     5    52       P1  7948  0.60

> <Gold.Chemscore.Hbond.Weighted>
-6.2797

> <Gold.Chemscore.Metal.Weighted>
-0.0000

> <Gold.Chemscore.Lipo.Weighted>
-11.2135

> <Gold.Chemscore.Internal_Hbond.Weighted>
0.0000

> <Gold.Chemscore.DEClash.Weighted>
0.0251

> <Gold.Chemscore.DEInternal.Weighted>
2.8087

> <Gold.Chemscore.Rot.Weighted>
4.8829

> <Gold.Chemscore.Internal.Correction.Weighted>
   9.000000E+99

> <Gold.Protein.RotatedTorsions>
[ 6907 6896 6895 6894 ] final   26.79 input  -60.11 | X-H torsion
[ 7974 7965 7964 7962 ] final   95.22 input  175.53 | X-H torsion
[ 8008 7997 7996 7995 ] final  163.84 input   59.86 | X-H torsion
[ 10167 10162 10161 10158 ] final   41.23 input  -65.29 | X-H torsion
[ 10718 10713 10712 10709 ] final  -34.60 input   66.30 | X-H torsion
[ 10763 10752 10751 10750 ] final  -19.46 input  -60.55 | X-H torsion
[ 11005 11000 10999 10996 ] final  167.19 input  -57.11 | X-H torsion

> <Gold.Protein.ActiveResidues>
 VAL166  LYS551  ARG553  GLY616  TRP617  ASP618  TYR619  PRO620  LYS621  CYS622 
 ASP623  PHE694  ASN695  SER759  ASP760  ASP761  ALA762  ILE779  LEU786  VAL792 
 PHE793  MET794  SER795  GLU796  ALA797  LYS798  CYS799  TRP800  GLU811  SER814 

> <Gold.Protein.RotatedAtoms>
  151.9926  134.9971  160.0561 H   0  0  0  0  0  0  0  0  0  0  0  0  # atno 6907 bound_to 6896
  152.1594  133.4567  159.4861 H   0  0  0  0  0  0  0  0  0  0  0  0  # atno 6908 bound_to 6896
  150.6885  134.2008  159.4364 H   0  0  0  0  0  0  0  0  0  0  0  0  # atno 6909 bound_to 6896
  145.4550  139.2290  143.3018 H   0  0  0  0  0  0  0  0  0  0  0  0  # atno 7974 bound_to 7965
  156.1926  140.1713  156.8061 H   0  0  0  0  0  0  0  0  0  0  0  0  # atno 8008 bound_to 7997
  154.5490  140.0721  156.8668 H   0  0  0  0  0  0  0  0  0  0  0  0  # atno 8009 bound_to 7997
  155.3065  140.3365  155.4248 H   0  0  0  0  0  0  0  0  0  0  0  0  # atno 8010 bound_to 7997
  140.3663  144.2163  150.6135 H   0  0  0  0  0  0  0  0  0  0  0  0  # atno 10167 bound_to 10162
  156.3486  130.4305  149.7724 H   0  0  0  0  0  0  0  0  0  0  0  0  # atno 10718 bound_to 10713
  153.6052  135.6998  153.5368 H   0  0  0  0  0  0  0  0  0  0  0  0  # atno 10763 bound_to 10752
  153.3063  135.4114  155.1296 H   0  0  0  0  0  0  0  0  0  0  0  0  # atno 10764 bound_to 10752
  154.8574  135.3661  154.5589 H   0  0  0  0  0  0  0  0  0  0  0  0  # atno 10765 bound_to 10752
  140.2742  134.7802  157.3702 H   0  0  0  0  0  0  0  0  0  0  0  0  # atno 11005 bound_to 11000
  146.2483  140.5314  142.8904 LP  0  0  0  0  0  0  0  0  0  0  0  0  # atno 17320 bound_to 7965
  144.8038  140.6261  143.6461 LP  0  0  0  0  0  0  0  0  0  0  0  0  # atno 17321 bound_to 7965
  140.5077  143.2299  151.8583 LP  0  0  0  0  0  0  0  0  0  0  0  0  # atno 17342 bound_to 10162
  139.4808  144.4986  151.9091 LP  0  0  0  0  0  0  0  0  0  0  0  0  # atno 17343 bound_to 10162
  156.4933  130.8095  151.3103 LP  0  0  0  0  0  0  0  0  0  0  0  0  # atno 17370 bound_to 10713
  157.7458  130.9968  150.2793 LP  0  0  0  0  0  0  0  0  0  0  0  0  # atno 17371 bound_to 10713
  140.1344  134.5053  155.8080 LP  0  0  0  0  0  0  0  0  0  0  0  0  # atno 17394 bound_to 11000
  141.2173  133.6802  156.7097 LP  0  0  0  0  0  0  0  0  0  0  0  0  # atno 17395 bound_to 11000

$$$$
