AV-unprocessed.smi:3175|AV-procd|sdf|12122|dock7
  -GOLD-   2272017563D 1   1.00000     0.00000
 Structure written by MMmdl.
 37 38  0  0  0  0  0  0  0  0  1 V2000
  150.0033  140.0735  154.3827 O   0  0  0  0  0  0  0  0  0  0  0  0
  149.3590  141.1035  154.5813 C   0  0  0  0  0  0  0  0  0  0  0  0
  148.0515  141.3566  153.8239 C   0  0  0  0  0  0  0  0  0  0  0  0
  147.1089  142.3430  154.5441 C   0  0  0  0  0  0  0  0  0  0  0  0
  146.1742  141.6675  155.5503 C   0  0  0  0  0  0  0  0  0  0  0  0
  145.0414  142.6741  155.7800 C   0  0  0  0  0  0  0  0  0  0  0  0
  145.0176  143.5865  154.5437 C   0  0  0  0  0  0  0  0  0  0  0  0
  146.1394  143.0931  153.6236 C   0  0  0  0  0  0  0  0  0  0  0  0
  149.7465  142.0591  155.4393 N   0  0  0  0  0  0  0  0  0  0  0  0
  150.9710  142.0251  156.2329 C   0  0  0  0  0  0  0  0  0  0  0  0
  150.7065  141.6817  157.7112 C   0  0  0  0  0  0  0  0  0  0  0  0
  151.2599  142.7155  158.6768 C   0  0  0  0  0  0  0  0  0  0  0  0
  152.1971  142.3513  159.6653 C   0  0  0  0  0  0  0  0  0  0  0  0
  152.6756  143.3419  160.5441 C   0  0  0  0  0  0  0  0  0  0  0  0
  152.1952  144.6585  160.3959 C   0  0  0  0  0  0  0  0  0  0  0  0
  151.2986  145.0191  159.4529 N   0  0  0  0  0  0  0  0  0  0  0  0
  150.8457  144.0634  158.6131 C   0  0  0  0  0  0  0  0  0  0  0  0
  148.2723  141.7211  152.8193 H   0  0  0  0  0  0  0  0  0  0  0  0
  147.5489  140.3970  153.6981 H   0  0  0  0  0  0  0  0  0  0  0  0
  147.7033  143.0798  155.0878 H   0  0  0  0  0  0  0  0  0  0  0  0
  145.7631  140.7530  155.1202 H   0  0  0  0  0  0  0  0  0  0  0  0
  146.6834  141.3960  156.4755 H   0  0  0  0  0  0  0  0  0  0  0  0
  144.0872  142.1694  155.9337 H   0  0  0  0  0  0  0  0  0  0  0  0
  145.2423  143.2689  156.6720 H   0  0  0  0  0  0  0  0  0  0  0  0
  144.0514  143.5647  154.0388 H   0  0  0  0  0  0  0  0  0  0  0  0
  145.2050  144.6182  154.8439 H   0  0  0  0  0  0  0  0  0  0  0  0
  146.6194  143.9097  153.0830 H   0  0  0  0  0  0  0  0  0  0  0  0
  145.7251  142.4068  152.8836 H   0  0  0  0  0  0  0  0  0  0  0  0
  149.1609  142.8759  155.5375 H   0  0  0  0  0  0  0  0  0  0  0  0
  151.6262  141.2716  155.7951 H   0  0  0  0  0  0  0  0  0  0  0  0
  151.5007  142.9757  156.1531 H   0  0  0  0  0  0  0  0  0  0  0  0
  149.6335  141.5820  157.8783 H   0  0  0  0  0  0  0  0  0  0  0  0
  151.1388  140.7082  157.9474 H   0  0  0  0  0  0  0  0  0  0  0  0
  152.5417  141.3311  159.7512 H   0  0  0  0  0  0  0  0  0  0  0  0
  153.3932  143.0991  161.3138 H   0  0  0  0  0  0  0  0  0  0  0  0
  152.5405  145.4429  161.0529 H   0  0  0  0  0  0  0  0  0  0  0  0
  150.1261  144.3833  157.8737 H   0  0  0  0  0  0  0  0  0  0  0  0
  1  2  2  0  0  0  0
  2  3  1  0  0  0  0
  2  9  1  0  0  0  0
  3  4  1  0  0  0  0
  3 18  1  0  0  0  0
  3 19  1  0  0  0  0
  4  8  1  0  0  0  0
  4  5  1  0  0  0  0
  4 20  1  0  0  0  0
  5  6  1  0  0  0  0
  5 21  1  0  0  0  0
  5 22  1  0  0  0  0
  6  7  1  0  0  0  0
  6 23  1  0  0  0  0
  6 24  1  0  0  0  0
  7  8  1  0  0  0  0
  7 25  1  0  0  0  0
  7 26  1  0  0  0  0
  8 27  1  0  0  0  0
  8 28  1  0  0  0  0
  9 10  1  0  0  0  0
  9 29  1  0  0  0  0
 10 11  1  0  0  0  0
 10 30  1  0  0  0  0
 10 31  1  0  0  0  0
 11 12  1  0  0  0  0
 11 32  1  0  0  0  0
 11 33  1  0  0  0  0
 12 17  1  0  0  0  0
 12 13  2  0  0  0  0
 13 14  1  0  0  0  0
 13 34  1  0  0  0  0
 14 15  2  0  0  0  0
 14 35  1  0  0  0  0
 15 16  1  0  0  0  0
 15 36  1  0  0  0  0
 16 17  2  0  0  0  0
 17 37  1  0  0  0  0
M  END
> <s_m_source_file>
AV-unprocessed.smi

> <i_m_source_file_index>
3175

> <i_lp_mmshare_version>
43012

> <i_f3d_flags>
0

> <s_epik_input>
W0NIMl0xW0NIMl1bQ0gyXVtDSDJdW0NIXTFbQ0gyXUMoPU8pW05IXVtDSDJdW0NIMl1jMltjSF1bY0hdW2NIXW5bY0hdMg==

> <s_epik_cmdline>
J2VwaWtfcHl0aG9uJywgJy1waCcsICc3LjAnLCAnLXRuJywgJzgnLCAnLW1hJywgJzIwMCcsICctbWV0YWxfYmluZGluZycsICctaW1hZScsICc8aW5maWxlLm1hZT4nLCAnLW9tYWUnLCAnPG91dGZpbGUubWFlPic=

> <r_epik_Ionization_Penalty>
0.013409

> <r_epik_Ionization_Penalty_Charging>
0

> <r_epik_Ionization_Penalty_Neutral>
0.013409

> <r_epik_State_Penalty>
0.010434

> <r_epik_Charging_Adjusted_Penalty>
0.010434

> <i_epik_Tot_Q>
0

> <i_epik_Tot_abs_Q>
0

> <r_epik_Metal_State_Penalty>
0.0102027

> <b_epik_Metal_Only>
0

> <s_lp_Force_Field>
OPLS_2005

> <r_lp_Energy>
19.7305

> <b_lp_Chiralities_Consistent>
1

> <s_lp_Variant>
AV-unprocessed.smi:3175-1

> <Gold.Version>
5.8.1

> <Gold.Id.Protein>
6NUR|6NUR_protein|mol2

> <Gold.PLP.Fitness>
47.7407

> <Gold.PLP.PLP>
-40.6964

> <Gold.PLP.part.hbond>
-2.0000

> <Gold.PLP.part.metal>
0.0000

> <Gold.PLP.part.buried>
-6.3512

> <Gold.PLP.part.nonpolar>
-32.5232

> <Gold.PLP.part.repulsive>
0.4339

> <Gold.PLP.ligand.clash>
0.0000

> <Gold.PLP.ligand.torsion>
1.1128

> <Gold.PLP.Chemscore.Hbond>
2.0000

> <Gold.PLP.Chemscore.CHOScore>
1.0846

> <Gold.PLP.Chemscore.Metal>
0.0000

> <Gold.Chemscore.Hbonds>
donor molecule, donor type, donor heavy atom, donor atom, acceptor molecule, acceptor atom, score
      L1  H     9    29       P1  8028  1.00
      P1  H  7989  7998       L1     1  0.95
      L1  C    17    37       P1  8028  0.94
      L1  C    17    37       P1  8029  0.15

> <Gold.PLP.Chemscore.Internal.Correction>
0.0160

> <Gold.Rescore>
     Score         DG    S(hbond)    S(metal)    S(lipo)     H(rot)  DE(clash)    DE(int)     intcor
     16.99     -18.16       1.39        0.00     101.27       1.48       0.11       1.05       ----

> <Gold.Chemscore.Fitness>
16.9882

> <Gold.Chemscore.DG>
-18.1563

> <Gold.Chemscore.ZeroCoef>
-5.4800

> <Gold.Chemscore.Hbond>
1.3858

> <Gold.Chemscore.Metal>
0.0000

> <Gold.Chemscore.Lipo>
101.2729

> <Gold.Chemscore.Internal_Hbond>
0.0000

> <Gold.Chemscore.DEClash>
0.1144

> <Gold.Chemscore.DEInternal>
1.0537

> <Gold.Chemscore.Rot>
1.4848

> <Gold.Chemscore.Internal.Correction>
   9.000000E+99

> <Gold.Chemscore.Hbonds>
donor molecule, donor type, donor heavy atom, donor atom, acceptor molecule, acceptor atom, score
      L1  H     9    29       P1  8028  0.97
      P1  H  7989  7998       L1     1  0.20

> <Gold.Chemscore.Hbond.Weighted>
-4.6285

> <Gold.Chemscore.Metal.Weighted>
-0.0000

> <Gold.Chemscore.Lipo.Weighted>
-11.8489

> <Gold.Chemscore.Internal_Hbond.Weighted>
0.0000

> <Gold.Chemscore.DEClash.Weighted>
0.1144

> <Gold.Chemscore.DEInternal.Weighted>
1.0537

> <Gold.Chemscore.Rot.Weighted>
3.8012

> <Gold.Chemscore.Internal.Correction.Weighted>
   9.000000E+99

> <Gold.Protein.RotatedTorsions>
[ 6907 6896 6895 6894 ] final    6.20 input  -60.11 | X-H torsion
[ 7974 7965 7964 7962 ] final   51.22 input  175.53 | X-H torsion
[ 8008 7997 7996 7995 ] final  -83.45 input   59.86 | X-H torsion
[ 10167 10162 10161 10158 ] final   41.05 input  -65.29 | X-H torsion
[ 10718 10713 10712 10709 ] final   71.92 input   66.30 | X-H torsion
[ 10763 10752 10751 10750 ] final  163.45 input  -60.55 | X-H torsion
[ 11005 11000 10999 10996 ] final -106.30 input  -57.11 | X-H torsion

> <Gold.Protein.ActiveResidues>
 VAL166  LYS551  ARG553  GLY616  TRP617  ASP618  TYR619  PRO620  LYS621  CYS622 
 ASP623  PHE694  ASN695  SER759  ASP760  ASP761  ALA762  ILE779  LEU786  VAL792 
 PHE793  MET794  SER795  GLU796  ALA797  LYS798  CYS799  TRP800  GLU811  SER814 

> <Gold.Protein.RotatedAtoms>
  151.6699  135.0977  160.0195 H   0  0  0  0  0  0  0  0  0  0  0  0  # atno 6907 bound_to 6896
  152.3898  133.6658  159.6236 H   0  0  0  0  0  0  0  0  0  0  0  0  # atno 6908 bound_to 6896
  150.7816  133.8891  159.3349 H   0  0  0  0  0  0  0  0  0  0  0  0  # atno 6909 bound_to 6896
  145.9935  139.4364  143.0059 H   0  0  0  0  0  0  0  0  0  0  0  0  # atno 7974 bound_to 7965
  154.6192  140.0619  156.9593 H   0  0  0  0  0  0  0  0  0  0  0  0  # atno 8008 bound_to 7997
  155.1845  140.3302  155.4351 H   0  0  0  0  0  0  0  0  0  0  0  0  # atno 8009 bound_to 7997
  156.2422  140.1892  156.6939 H   0  0  0  0  0  0  0  0  0  0  0  0  # atno 8010 bound_to 7997
  140.3681  144.2141  150.6134 H   0  0  0  0  0  0  0  0  0  0  0  0  # atno 10167 bound_to 10162
  157.6475  130.9552  150.0856 H   0  0  0  0  0  0  0  0  0  0  0  0  # atno 10718 bound_to 10713
  154.2938  135.2760  155.2642 H   0  0  0  0  0  0  0  0  0  0  0  0  # atno 10763 bound_to 10752
  154.5109  135.5782  153.6608 H   0  0  0  0  0  0  0  0  0  0  0  0  # atno 10764 bound_to 10752
  152.9910  135.6181  154.3105 H   0  0  0  0  0  0  0  0  0  0  0  0  # atno 10765 bound_to 10752
  141.1011  133.8882  157.1839 H   0  0  0  0  0  0  0  0  0  0  0  0  # atno 11005 bound_to 11000
  145.7594  140.9941  143.1208 LP  0  0  0  0  0  0  0  0  0  0  0  0  # atno 17320 bound_to 7965
  144.6896  139.9312  143.7472 LP  0  0  0  0  0  0  0  0  0  0  0  0  # atno 17321 bound_to 7965
  140.5060  143.2304  151.8607 LP  0  0  0  0  0  0  0  0  0  0  0  0  # atno 17342 bound_to 10162
  139.4806  144.5004  151.9067 LP  0  0  0  0  0  0  0  0  0  0  0  0  # atno 17343 bound_to 10162
  156.1820  130.3650  149.9023 LP  0  0  0  0  0  0  0  0  0  0  0  0  # atno 17370 bound_to 10713
  156.6973  130.8919  151.3595 LP  0  0  0  0  0  0  0  0  0  0  0  0  # atno 17371 bound_to 10713
  139.9863  135.0081  156.9870 LP  0  0  0  0  0  0  0  0  0  0  0  0  # atno 17394 bound_to 11000
  140.5019  134.1089  155.7252 LP  0  0  0  0  0  0  0  0  0  0  0  0  # atno 17395 bound_to 11000

$$$$
