AV-unprocessed.smi:2035|AV-procd|sdf|8271|dock7
  -GOLD-   2272010543D 1   1.00000     0.00000
 Structure written by MMmdl.
 35 36  0  0  0  0  0  0  0  0  2 V2000
  149.3923  136.8896  156.3217 O   0  0  0  0  0  0  0  0  0  0  0  0
  149.1796  136.8322  155.1106 C   0  0  0  0  0  0  0  0  0  0  0  0
  149.0081  137.8933  154.3034 N   0  0  0  0  0  0  0  0  0  0  0  0
  149.0382  139.2716  154.6476 C   0  0  0  0  0  0  0  0  0  0  0  0
  148.1856  140.1451  153.9369 C   0  0  0  0  0  0  0  0  0  0  0  0
  148.1763  141.5186  154.2549 C   0  0  0  0  0  0  0  0  0  0  0  0
  148.9712  141.9859  155.2414 N   0  3  0  0  0  0  0  0  0  0  0  0
  149.7895  141.1872  155.9599 C   0  0  0  0  0  0  0  0  0  0  0  0
  149.8423  139.8050  155.6868 C   0  0  0  0  0  0  0  0  0  0  0  0
  149.1152  135.6830  154.4229 N   0  0  0  0  0  0  0  0  0  0  0  0
  149.2772  134.3420  154.9848 C   0  0  2  0  0  0  0  0  0  0  0  0
  149.3668  133.2847  153.8539 C   0  0  0  0  0  0  0  0  0  0  0  0
  148.9508  131.8481  154.2329 C   0  0  0  0  0  0  0  0  0  0  0  0
  149.6657  131.2528  155.4628 C   0  0  0  0  0  0  0  0  0  0  0  0
  149.5826  132.0666  156.7763 C   0  0  0  0  0  0  0  0  0  0  0  0
  148.4333  132.9673  156.8577 N   0  0  0  0  0  0  0  0  0  0  0  0
  148.2370  134.0483  156.0831 C   0  0  0  0  0  0  0  0  0  0  0  0
  147.2516  134.7711  156.2266 O   0  0  0  0  0  0  0  0  0  0  0  0
  148.9281  137.6917  153.3174 H   0  0  0  0  0  0  0  0  0  0  0  0
  147.5491  139.7707  153.1480 H   0  0  0  0  0  0  0  0  0  0  0  0
  147.5607  142.2515  153.7540 H   0  0  0  0  0  0  0  0  0  0  0  0
  150.3697  141.6731  156.7308 H   0  0  0  0  0  0  0  0  0  0  0  0
  150.4879  139.1797  156.2848 H   0  0  0  0  0  0  0  0  0  0  0  0
  148.9325  135.7295  153.4308 H   0  0  0  0  0  0  0  0  0  0  0  0
  150.2376  134.3477  155.5021 H   0  0  0  0  0  0  0  0  0  0  0  0
  148.7380  133.5959  153.0184 H   0  0  0  0  0  0  0  0  0  0  0  0
  150.3853  133.2714  153.4638 H   0  0  0  0  0  0  0  0  0  0  0  0
  147.8722  131.8136  154.3917 H   0  0  0  0  0  0  0  0  0  0  0  0
  149.1296  131.1972  153.3767 H   0  0  0  0  0  0  0  0  0  0  0  0
  149.2391  130.2655  155.6435 H   0  0  0  0  0  0  0  0  0  0  0  0
  150.7148  131.0757  155.2240 H   0  0  0  0  0  0  0  0  0  0  0  0
  149.5448  131.3834  157.6250 H   0  0  0  0  0  0  0  0  0  0  0  0
  150.4972  132.6439  156.9158 H   0  0  0  0  0  0  0  0  0  0  0  0
  147.7440  132.7647  157.5675 H   0  0  0  0  0  0  0  0  0  0  0  0
  148.9491  142.9832  155.4568 H   0  0  0  0  0  0  0  0  0  0  0  0
  1  2  2  0  0  0  0
  2  3  1  0  0  0  0
  2 10  1  0  0  0  0
  3  4  1  0  0  0  0
  3 19  1  0  0  0  0
  4  9  1  0  0  0  0
  4  5  2  0  0  0  0
  5  6  1  0  0  0  0
  5 20  1  0  0  0  0
  6  7  2  0  0  0  0
  6 21  1  0  0  0  0
  7  8  1  0  0  0  0
  7 35  1  0  0  0  0
  8  9  2  0  0  0  0
  8 22  1  0  0  0  0
  9 23  1  0  0  0  0
 10 11  1  0  0  0  0
 10 24  1  0  0  0  0
 11 17  1  0  0  0  0
 11 12  1  0  0  0  0
 11 25  1  0  0  0  0
 12 13  1  0  0  0  0
 12 26  1  0  0  0  0
 12 27  1  0  0  0  0
 13 14  1  0  0  0  0
 13 28  1  0  0  0  0
 13 29  1  0  0  0  0
 14 15  1  0  0  0  0
 14 30  1  0  0  0  0
 14 31  1  0  0  0  0
 15 16  1  0  0  0  0
 15 32  1  0  0  0  0
 15 33  1  0  0  0  0
 16 17  1  0  0  0  0
 16 34  1  0  0  0  0
 17 18  2  0  0  0  0
M  CHG  1   7   1
M  END
> <s_m_source_file>
AV-unprocessed.smi

> <i_m_source_file_index>
2035

> <i_lp_mmshare_version>
43012

> <i_f3d_flags>
0

> <s_epik_input>
W2NIXTFbY0hdbltjSF1bY0hdYzFbTkhdQyg9TylbTkhdW0NAQEhdMltDSDJdW0NIMl1bQ0gyXVtDSDJdW05IXUMyPU8=

> <s_epik_cmdline>
J2VwaWtfcHl0aG9uJywgJy1waCcsICc3LjAnLCAnLXRuJywgJzgnLCAnLW1hJywgJzIwMCcsICctbWV0YWxfYmluZGluZycsICctaW1hZScsICc8aW5maWxlLm1hZT4nLCAnLW9tYWUnLCAnPG91dGZpbGUubWFlPic=

> <r_epik_Ionization_Penalty>
1.10339

> <r_epik_Ionization_Penalty_Charging>
1.10337

> <r_epik_Ionization_Penalty_Neutral>
1.85869e-05

> <r_epik_State_Penalty>
1.16071

> <r_epik_Charging_Adjusted_Penalty>
2.26408

> <i_epik_Tot_Q>
1

> <i_epik_Tot_abs_Q>
1

> <r_epik_Metal_State_Penalty>
1.24751

> <b_epik_Metal_Only>
0

> <s_lp_Force_Field>
OPLS_2005

> <r_lp_Energy>
25.3939

> <b_lp_Chiralities_Consistent>
1

> <s_lp_Variant>
AV-unprocessed.smi:2035-3

> <Gold.Version>
5.8.1

> <Gold.Id.Protein>
6NUR|6NUR_protein|mol2

> <Gold.PLP.Fitness>
39.5029

> <Gold.PLP.PLP>
-28.6913

> <Gold.PLP.part.hbond>
-3.0000

> <Gold.PLP.part.metal>
0.0000

> <Gold.PLP.part.buried>
-2.2015

> <Gold.PLP.part.nonpolar>
-23.3242

> <Gold.PLP.part.repulsive>
0.3404

> <Gold.PLP.ligand.clash>
0.0000

> <Gold.PLP.ligand.torsion>
0.2572

> <Gold.PLP.Chemscore.Hbond>
3.7579

> <Gold.PLP.Chemscore.CHOScore>
0.0000

> <Gold.PLP.Chemscore.Metal>
0.0000

> <Gold.Chemscore.Hbonds>
donor molecule, donor type, donor heavy atom, donor atom, acceptor molecule, acceptor atom, score
      L1  H     3    19       P1  7948  0.90
      L1  H     7    35       P1  8028  2.00
      L1  H    10    24       P1  7948  1.00

> <Gold.PLP.Chemscore.Internal.Correction>
0.0523

> <Gold.Rescore>
     Score         DG    S(hbond)    S(metal)    S(lipo)     H(rot)  DE(clash)    DE(int)     intcor
     17.82     -19.12       2.63        0.00      63.28       1.00       0.04       1.26       ----

> <Gold.Chemscore.Fitness>
17.8244

> <Gold.Chemscore.DG>
-19.1241

> <Gold.Chemscore.ZeroCoef>
-5.4800

> <Gold.Chemscore.Hbond>
2.6347

> <Gold.Chemscore.Metal>
0.0000

> <Gold.Chemscore.Lipo>
63.2849

> <Gold.Chemscore.Internal_Hbond>
0.0000

> <Gold.Chemscore.DEClash>
0.0416

> <Gold.Chemscore.DEInternal>
1.2581

> <Gold.Chemscore.Rot>
1.0000

> <Gold.Chemscore.Internal.Correction>
   9.000000E+99

> <Gold.Chemscore.Hbonds>
donor molecule, donor type, donor heavy atom, donor atom, acceptor molecule, acceptor atom, score
      L1  H     3    19       P1  7948  0.83
      L1  H     7    35       P1  8028  1.00
      L1  H    10    24       P1  7948  0.90

> <Gold.Chemscore.Hbond.Weighted>
-8.7998

> <Gold.Chemscore.Metal.Weighted>
-0.0000

> <Gold.Chemscore.Lipo.Weighted>
-7.4043

> <Gold.Chemscore.Internal_Hbond.Weighted>
0.0000

> <Gold.Chemscore.DEClash.Weighted>
0.0416

> <Gold.Chemscore.DEInternal.Weighted>
1.2581

> <Gold.Chemscore.Rot.Weighted>
2.5600

> <Gold.Chemscore.Internal.Correction.Weighted>
   9.000000E+99

> <Gold.Protein.RotatedTorsions>
[ 6907 6896 6895 6894 ] final  -34.21 input  -60.11 | X-H torsion
[ 7974 7965 7964 7962 ] final  -76.50 input  175.53 | X-H torsion
[ 8008 7997 7996 7995 ] final    2.65 input   59.86 | X-H torsion
[ 10167 10162 10161 10158 ] final  -62.29 input  -65.29 | X-H torsion
[ 10718 10713 10712 10709 ] final -160.50 input   66.30 | X-H torsion
[ 10763 10752 10751 10750 ] final  -60.68 input  -60.55 | X-H torsion
[ 11005 11000 10999 10996 ] final   89.06 input  -57.11 | X-H torsion

> <Gold.Protein.ActiveResidues>
 VAL166  LYS551  ARG553  GLY616  TRP617  ASP618  TYR619  PRO620  LYS621  CYS622 
 ASP623  PHE694  ASN695  SER759  ASP760  ASP761  ALA762  ILE779  LEU786  VAL792 
 PHE793  MET794  SER795  GLU796  ALA797  LYS798  CYS799  TRP800  GLU811  SER814 

> <Gold.Protein.RotatedAtoms>
  151.0556  134.9702  159.8233 H   0  0  0  0  0  0  0  0  0  0  0  0  # atno 6907 bound_to 6896
  152.5387  134.2482  159.8898 H   0  0  0  0  0  0  0  0  0  0  0  0  # atno 6908 bound_to 6896
  151.2500  133.4312  159.2645 H   0  0  0  0  0  0  0  0  0  0  0  0  # atno 6909 bound_to 6896
  145.6120  140.9384  143.1184 H   0  0  0  0  0  0  0  0  0  0  0  0  # atno 7974 bound_to 7965
  154.6941  140.2659  155.6783 H   0  0  0  0  0  0  0  0  0  0  0  0  # atno 8008 bound_to 7997
  156.2742  140.2785  156.1453 H   0  0  0  0  0  0  0  0  0  0  0  0  # atno 8009 bound_to 7997
  155.0855  140.0373  157.2642 H   0  0  0  0  0  0  0  0  0  0  0  0  # atno 8010 bound_to 7997
  140.5949  143.2349  151.6059 H   0  0  0  0  0  0  0  0  0  0  0  0  # atno 10167 bound_to 10162
  156.5830  130.8737  151.2869 H   0  0  0  0  0  0  0  0  0  0  0  0  # atno 10718 bound_to 10713
  154.2730  135.6286  153.5317 H   0  0  0  0  0  0  0  0  0  0  0  0  # atno 10763 bound_to 10752
  152.9877  135.5615  154.5579 H   0  0  0  0  0  0  0  0  0  0  0  0  # atno 10764 bound_to 10752
  154.5153  135.2879  155.1283 H   0  0  0  0  0  0  0  0  0  0  0  0  # atno 10765 bound_to 10752
  139.8883  134.8527  156.3088 H   0  0  0  0  0  0  0  0  0  0  0  0  # atno 11005 bound_to 11000
  144.7266  139.7856  143.7362 LP  0  0  0  0  0  0  0  0  0  0  0  0  # atno 17320 bound_to 7965
  146.1497  139.4577  143.0056 LP  0  0  0  0  0  0  0  0  0  0  0  0  # atno 17321 bound_to 7965
  139.5251  144.3084  152.1014 LP  0  0  0  0  0  0  0  0  0  0  0  0  # atno 17342 bound_to 10162
  140.2254  144.4423  150.6323 LP  0  0  0  0  0  0  0  0  0  0  0  0  # atno 17343 bound_to 10162
  157.7322  130.9711  150.1916 LP  0  0  0  0  0  0  0  0  0  0  0  0  # atno 17370 bound_to 10713
  156.2615  130.3711  149.8125 LP  0  0  0  0  0  0  0  0  0  0  0  0  # atno 17371 bound_to 10713
  140.9864  133.7236  156.0748 LP  0  0  0  0  0  0  0  0  0  0  0  0  # atno 17394 bound_to 11000
  140.7683  134.3862  157.5513 LP  0  0  0  0  0  0  0  0  0  0  0  0  # atno 17395 bound_to 11000

$$$$
