AV-unprocessed.smi:3231|AV-procd|sdf|12338|dock2
  -GOLD-   2272018193D 1   1.00000     0.00000
 Structure written by MMmdl.
 40 41  0  0  0  0  0  0  0  0  1 V2000
  149.7929  140.7406  153.5888 O   0  0  0  0  0  0  0  0  0  0  0  0
  148.7878  141.1965  154.4730 C   0  0  1  0  0  0  0  0  0  0  0  0
  149.4987  141.9447  155.6153 C   0  0  0  0  0  0  0  0  0  0  0  0
  150.4694  141.0866  156.2897 N   0  0  0  0  0  0  0  0  0  0  0  0
  150.9628  141.6461  157.5436 C   0  0  0  0  0  0  0  0  0  0  0  0
  151.3773  143.1134  157.3672 C   0  0  0  0  0  0  0  0  0  0  0  0
  151.6372  143.7510  158.6433 N   0  0  0  0  0  0  0  0  0  0  0  0
  151.9101  145.0783  158.8986 C   0  0  0  0  0  0  0  0  0  0  0  0
  152.0807  145.2055  160.2475 C   0  0  0  0  0  0  0  0  0  0  0  0
  151.8899  143.8836  160.7386 C   0  0  0  0  0  0  0  0  0  0  0  0
  151.6246  143.0152  159.7759 N   0  0  0  0  0  0  0  0  0  0  0  0
  147.8313  142.1202  153.6866 C   0  0  0  0  0  0  0  0  0  0  0  0
  146.8420  142.8336  154.4962 N   0  0  0  0  0  0  0  0  0  0  0  0
  145.8812  141.9354  155.1331 C   0  0  0  0  0  0  0  0  0  0  0  0
  144.8303  142.7042  155.9534 C   0  0  0  0  0  0  0  0  0  0  0  0
  144.1686  143.6505  155.1205 O   0  0  0  0  0  0  0  0  0  0  0  0
  145.0690  144.5756  154.5203 C   0  0  0  0  0  0  0  0  0  0  0  0
  146.1151  143.8102  153.6917 C   0  0  0  0  0  0  0  0  0  0  0  0
  149.4369  140.0299  153.0773 H   0  0  0  0  0  0  0  0  0  0  0  0
  148.2332  140.3482  154.8779 H   0  0  0  0  0  0  0  0  0  0  0  0
  149.9748  142.8525  155.2420 H   0  0  0  0  0  0  0  0  0  0  0  0
  148.7561  142.2663  156.3464 H   0  0  0  0  0  0  0  0  0  0  0  0
  150.0569  140.1750  156.4616 H   0  0  0  0  0  0  0  0  0  0  0  0
  150.1933  141.5720  158.3129 H   0  0  0  0  0  0  0  0  0  0  0  0
  151.8171  141.0675  157.8975 H   0  0  0  0  0  0  0  0  0  0  0  0
  152.2742  143.1886  156.7504 H   0  0  0  0  0  0  0  0  0  0  0  0
  150.5924  143.6718  156.8551 H   0  0  0  0  0  0  0  0  0  0  0  0
  151.9592  145.8134  158.1087 H   0  0  0  0  0  0  0  0  0  0  0  0
  152.3072  146.1054  160.7998 H   0  0  0  0  0  0  0  0  0  0  0  0
  151.9356  143.5321  161.7589 H   0  0  0  0  0  0  0  0  0  0  0  0
  148.4418  142.8731  153.1867 H   0  0  0  0  0  0  0  0  0  0  0  0
  147.3422  141.5686  152.8817 H   0  0  0  0  0  0  0  0  0  0  0  0
  145.3785  141.3334  154.3747 H   0  0  0  0  0  0  0  0  0  0  0  0
  146.3966  141.2398  155.7947 H   0  0  0  0  0  0  0  0  0  0  0  0
  144.0932  142.0152  156.3659 H   0  0  0  0  0  0  0  0  0  0  0  0
  145.2976  143.2160  156.7961 H   0  0  0  0  0  0  0  0  0  0  0  0
  144.5068  145.2590  153.8835 H   0  0  0  0  0  0  0  0  0  0  0  0
  145.5513  145.1782  155.2913 H   0  0  0  0  0  0  0  0  0  0  0  0
  146.8146  144.5221  153.2516 H   0  0  0  0  0  0  0  0  0  0  0  0
  145.6173  143.3078  152.8607 H   0  0  0  0  0  0  0  0  0  0  0  0
  1  2  1  0  0  0  0
  1 19  1  0  0  0  0
  2  3  1  0  0  0  0
  2 12  1  0  0  0  0
  2 20  1  0  0  0  0
  3  4  1  0  0  0  0
  3 21  1  0  0  0  0
  3 22  1  0  0  0  0
  4  5  1  0  0  0  0
  4 23  1  0  0  0  0
  5  6  1  0  0  0  0
  5 24  1  0  0  0  0
  5 25  1  0  0  0  0
  6  7  1  0  0  0  0
  6 26  1  0  0  0  0
  6 27  1  0  0  0  0
  7 11  1  0  0  0  0
  7  8  1  0  0  0  0
  8  9  2  0  0  0  0
  8 28  1  0  0  0  0
  9 10  1  0  0  0  0
  9 29  1  0  0  0  0
 10 11  2  0  0  0  0
 10 30  1  0  0  0  0
 12 13  1  0  0  0  0
 12 31  1  0  0  0  0
 12 32  1  0  0  0  0
 13 18  1  0  0  0  0
 13 14  1  0  0  0  0
 14 15  1  0  0  0  0
 14 33  1  0  0  0  0
 14 34  1  0  0  0  0
 15 16  1  0  0  0  0
 15 35  1  0  0  0  0
 15 36  1  0  0  0  0
 16 17  1  0  0  0  0
 17 18  1  0  0  0  0
 17 37  1  0  0  0  0
 17 38  1  0  0  0  0
 18 39  1  0  0  0  0
 18 40  1  0  0  0  0
M  END
> <s_m_source_file>
AV-unprocessed.smi

> <i_m_source_file_index>
3231

> <i_lp_mmshare_version>
43012

> <i_f3d_flags>
0

> <s_epik_input>
W0NIMl0xW0NIMl1PW0NIMl1bQ0gyXU4xW0NIMl1bQ0BIXShbT0hdKVtDSDJdW05IXVtDSDJdW0NIMl1uMltjSF1bY0hdW2NIXW4y

> <s_epik_cmdline>
J2VwaWtfcHl0aG9uJywgJy1waCcsICc3LjAnLCAnLXRuJywgJzgnLCAnLW1hJywgJzIwMCcsICctbWV0YWxfYmluZGluZycsICctaW1hZScsICc8aW5maWxlLm1hZT4nLCAnLW9tYWUnLCAnPG91dGZpbGUubWFlPic=

> <r_lp_tautomer_probability>
1

> <r_epik_Ionization_Penalty>
2.37071

> <r_epik_Ionization_Penalty_Charging>
0

> <r_epik_Ionization_Penalty_Neutral>
2.37071

> <r_epik_State_Penalty>
1.72455

> <r_epik_Charging_Adjusted_Penalty>
1.72455

> <i_epik_Tot_Q>
0

> <i_epik_Tot_abs_Q>
0

> <r_epik_Metal_State_Penalty>
1.72366

> <b_epik_Metal_Only>
0

> <s_lp_Force_Field>
OPLS_2005

> <r_lp_Energy>
35.5688

> <b_lp_Chiralities_Consistent>
1

> <s_lp_Variant>
AV-unprocessed.smi:3231-8

> <Gold.Version>
5.8.1

> <Gold.Id.Protein>
6NUR|6NUR_protein|mol2

> <Gold.PLP.Fitness>
45.1620

> <Gold.PLP.PLP>
-39.8952

> <Gold.PLP.part.hbond>
-2.6725

> <Gold.PLP.part.metal>
0.0000

> <Gold.PLP.part.buried>
-4.1881

> <Gold.PLP.part.nonpolar>
-31.8062

> <Gold.PLP.part.repulsive>
0.3085

> <Gold.PLP.ligand.clash>
0.0000

> <Gold.PLP.ligand.torsion>
0.1967

> <Gold.PLP.Chemscore.Hbond>
1.8320

> <Gold.PLP.Chemscore.CHOScore>
0.0000

> <Gold.PLP.Chemscore.Metal>
0.0000

> <Gold.Chemscore.Hbonds>
donor molecule, donor type, donor heavy atom, donor atom, acceptor molecule, acceptor atom, score
      L1  H     1    19       P1  7957  0.40
      P1  H  7989  7998       L1     1  0.42
      P1  H  8011  8017       L1     1  0.73

> <Gold.PLP.Chemscore.Internal.Correction>
0.1643

> <Gold.Rescore>
     Score         DG    S(hbond)    S(metal)    S(lipo)     H(rot)  DE(clash)    DE(int)     intcor
     12.00     -13.18       1.20        0.00      90.90       2.72       0.99       0.19       ----

> <Gold.Chemscore.Fitness>
12.0048

> <Gold.Chemscore.DG>
-13.1781

> <Gold.Chemscore.ZeroCoef>
-5.4800

> <Gold.Chemscore.Hbond>
1.2041

> <Gold.Chemscore.Metal>
0.0000

> <Gold.Chemscore.Lipo>
90.9001

> <Gold.Chemscore.Internal_Hbond>
0.0000

> <Gold.Chemscore.DEClash>
0.9881

> <Gold.Chemscore.DEInternal>
0.1851

> <Gold.Chemscore.Rot>
2.7183

> <Gold.Chemscore.Internal.Correction>
   9.000000E+99

> <Gold.Chemscore.Hbonds>
donor molecule, donor type, donor heavy atom, donor atom, acceptor molecule, acceptor atom, score
      L1  H     1    19       P1  7957  0.40
      P1  H  7989  7998       L1     1  0.36
      P1  H  8011  8017       L1     1  0.07

> <Gold.Chemscore.Hbond.Weighted>
-4.0216

> <Gold.Chemscore.Metal.Weighted>
-0.0000

> <Gold.Chemscore.Lipo.Weighted>
-10.6353

> <Gold.Chemscore.Internal_Hbond.Weighted>
0.0000

> <Gold.Chemscore.DEClash.Weighted>
0.9881

> <Gold.Chemscore.DEInternal.Weighted>
0.1851

> <Gold.Chemscore.Rot.Weighted>
6.9589

> <Gold.Chemscore.Internal.Correction.Weighted>
   9.000000E+99

> <Gold.Protein.RotatedTorsions>
[ 6907 6896 6895 6894 ] final   77.88 input  -60.11 | X-H torsion
[ 7974 7965 7964 7962 ] final   41.22 input  175.53 | X-H torsion
[ 8008 7997 7996 7995 ] final   60.95 input   59.86 | X-H torsion
[ 10167 10162 10161 10158 ] final  -13.27 input  -65.29 | X-H torsion
[ 10718 10713 10712 10709 ] final  -92.34 input   66.30 | X-H torsion
[ 10763 10752 10751 10750 ] final   60.89 input  -60.55 | X-H torsion
[ 11005 11000 10999 10996 ] final -121.51 input  -57.11 | X-H torsion

> <Gold.Protein.ActiveResidues>
 VAL166  LYS551  ARG553  GLY616  TRP617  ASP618  TYR619  PRO620  LYS621  CYS622 
 ASP623  PHE694  ASN695  SER759  ASP760  ASP761  ALA762  ILE779  LEU786  VAL792 
 PHE793  MET794  SER795  GLU796  ALA797  LYS798  CYS799  TRP800  GLU811  SER814 

> <Gold.Protein.RotatedAtoms>
  152.5136  134.3749  159.9330 H   0  0  0  0  0  0  0  0  0  0  0  0  # atno 6907 bound_to 6896
  151.3704  133.3850  159.2707 H   0  0  0  0  0  0  0  0  0  0  0  0  # atno 6908 bound_to 6896
  150.9582  134.8993  159.7772 H   0  0  0  0  0  0  0  0  0  0  0  0  # atno 6909 bound_to 6896
  146.0841  139.5442  142.9518 H   0  0  0  0  0  0  0  0  0  0  0  0  # atno 7974 bound_to 7965
  155.5905  140.3492  155.4565 H   0  0  0  0  0  0  0  0  0  0  0  0  # atno 8008 bound_to 7997
  156.0305  140.1273  157.0288 H   0  0  0  0  0  0  0  0  0  0  0  0  # atno 8009 bound_to 7997
  154.4350  140.1044  156.6078 H   0  0  0  0  0  0  0  0  0  0  0  0  # atno 8010 bound_to 7997
  140.7179  143.5444  150.9372 H   0  0  0  0  0  0  0  0  0  0  0  0  # atno 10167 bound_to 10162
  156.0001  130.4983  150.5610 H   0  0  0  0  0  0  0  0  0  0  0  0  # atno 10718 bound_to 10713
  152.9934  135.5520  154.5947 H   0  0  0  0  0  0  0  0  0  0  0  0  # atno 10763 bound_to 10752
  154.5301  135.2813  155.1190 H   0  0  0  0  0  0  0  0  0  0  0  0  # atno 10764 bound_to 10752
  154.2508  135.6399  153.5292 H   0  0  0  0  0  0  0  0  0  0  0  0  # atno 10765 bound_to 10752
  141.0065  134.0327  157.3470 H   0  0  0  0  0  0  0  0  0  0  0  0  # atno 11005 bound_to 11000
  145.6162  141.0331  143.1940 LP  0  0  0  0  0  0  0  0  0  0  0  0  # atno 17320 bound_to 7965
  144.7314  139.7715  143.7346 LP  0  0  0  0  0  0  0  0  0  0  0  0  # atno 17321 bound_to 7965
  139.9167  143.6654  152.3105 LP  0  0  0  0  0  0  0  0  0  0  0  0  # atno 17342 bound_to 10162
  139.7057  144.7628  151.1197 LP  0  0  0  0  0  0  0  0  0  0  0  0  # atno 17343 bound_to 10162
  157.3520  131.0735  151.1706 LP  0  0  0  0  0  0  0  0  0  0  0  0  # atno 17370 bound_to 10713
  157.2519  130.6618  149.5935 LP  0  0  0  0  0  0  0  0  0  0  0  0  # atno 17371 bound_to 10713
  139.9066  135.0181  156.7512 LP  0  0  0  0  0  0  0  0  0  0  0  0  # atno 17394 bound_to 11000
  140.6804  133.9479  155.7907 LP  0  0  0  0  0  0  0  0  0  0  0  0  # atno 17395 bound_to 11000

$$$$
