#       Name:                AV-unprocessed.smi:1797
#       Creating user name   scv26
#       Creation time:       Fri Mar 27 08:51:00 2020


#       File generated by GOLD software.
#

@<TRIPOS>MOLECULE
AV-unprocessed.smi:1797
    36    37     1
SMALL
NO_CHARGES


@<TRIPOS>ATOM
      1 ****        -4.2492   3.1404   0.6670 C.3            1 S1                 0.0000
      2 ****        -2.8512   3.0380   0.1609 C.2            1 S1                 0.0000
      3 ****        -2.5592   2.9166  -1.1363 N.2            1 S1                 0.0000
      4 ****        -1.1921   2.8397  -1.3595 N.2            1 S1                 0.0000
      5 ****        -0.4715   2.8896  -0.2299 C.2            1 S1                 0.0000
      6 ****         0.8729   2.8247  -0.2241 N.pl3          1 S1                -1.0000
      7 ****         1.5497   1.6563  -0.0699 C.2            1 S1                 0.0000
      8 ****         2.7775   1.5895  -0.0274 O.2            1 S1                 0.0000
      9 ****         0.8306   0.5220   0.0390 N.am           1 S1                 0.0000
     10 ****         1.3604  -0.8258   0.2221 C.3            1 S1                 0.0000
     11 ****         1.8076  -1.4284  -1.1184 C.3            1 S1                 0.0000
     12 ****         2.3672  -2.8471  -0.9266 C.3            1 S1                 0.0000
     13 ****         1.5018  -3.7302  -0.0149 C.2            1 S1                 0.0000
     14 ****         1.6558  -4.9495  -0.0318 O.2            1 S1                 0.0000
     15 ****         0.6166  -3.1456   0.8115 N.am           1 S1                 0.0000
     16 ****         0.2831  -1.7223   0.8582 C.3            1 S1                 0.0000
     17 ****        -1.4543   3.0615   1.2238 S.3            1 S1                 0.0000
     18 ****        -4.7014   2.1498   0.7138 H              1 S1                 0.0000
     19 ****        -4.8460   3.7692   0.0057 H              1 S1                 0.0000
     20 ****        -4.2588   3.5781   1.6653 H              1 S1                 0.0000
     21 ****        -0.1740   0.6082  -0.0094 H              1 S1                 0.0000
     22 ****         2.2173  -0.7863   0.8978 H              1 S1                 0.0000
     23 ****         0.9663  -1.4559  -1.8127 H              1 S1                 0.0000
     24 ****         2.5685  -0.7999  -1.5826 H              1 S1                 0.0000
     25 ****         2.4911  -3.3335  -1.8946 H              1 S1                 0.0000
     26 ****         3.3598  -2.7869  -0.4789 H              1 S1                 0.0000
     27 ****         0.0867  -3.7495   1.4230 H              1 S1                 0.0000
     28 ****         0.1113  -1.4297   1.8945 H              1 S1                 0.0000
     29 ****        -0.6662  -1.5944   0.3358 H              1 S1                 0.0000
     30 ****        -3.2460   2.8849  -1.8625 LP             1 S1                 0.0000
     31 ****        -0.7859   2.7557  -2.2694 LP             1 S1                 0.0000
     32 ****         1.3947   3.6702  -0.3379 LP             1 S1                 0.0000
     33 ****         3.3266   2.4214  -0.1080 LP             1 S1                 0.0000
     34 ****         3.2263   0.7034   0.0877 LP             1 S1                 0.0000
     35 ****         2.3399  -5.3587  -0.6356 LP             1 S1                 0.0000
     36 ****         1.0970  -5.5322   0.5582 LP             1 S1                 0.0000
@<TRIPOS>BOND
    1    1    2 1     
    2    1   18 1     
    3    1   19 1     
    4    1   20 1     
    5    2   17 1     
    6    2    3 2     
    7    3    4 1     
    8    4    5 2     
    9    5    6 1     
   10    5   17 1     
   11    6    7 1     
   12    7    8 2     
   13    7    9 am    
   14    9   10 1     
   15    9   21 1     
   16   10   16 1     
   17   10   11 1     
   18   10   22 1     
   19   11   12 1     
   20   11   23 1     
   21   11   24 1     
   22   12   13 1     
   23   12   25 1     
   24   12   26 1     
   25   13   14 2     
   26   13   15 am    
   27   15   16 1     
   28   15   27 1     
   29   16   28 1     
   30   16   29 1     
   31    3   30 1     
   32    4   31 1     
   33    6   32 1     
   34    8   33 1     
   35    8   34 1     
   36   14   35 1     
   37   14   36 1     
@<TRIPOS>SUBSTRUCTURE
      1 S1             1
@<TRIPOS>SET
LONE_PAIRS      STATIC     ATOMS    <user>   **** ""
7 30 31 32 33 34 35 36
DONOR_HYDROGENS      STATIC     ATOMS    <user>   **** ""
2 21 27
ATOM$BLUE        STATIC     ATOMS    COLORGROUP SYSTEM
7 30 31 32 33 34 35 36
ATOM$RED        STATIC     ATOMS    COLORGROUP SYSTEM
2 21 27
