#       Name:                AV-unprocessed.smi:1080
#       Creating user name   scv26
#       Creation time:       Fri Mar 27 03:23:26 2020


#       File generated by GOLD software.
#

@<TRIPOS>MOLECULE
AV-unprocessed.smi:1080
    53    55     1
SMALL
NO_CHARGES


@<TRIPOS>ATOM
      1 ****        -2.1051   2.8965  -0.3848 O.2            1 S1                 0.0000
      2 ****        -2.5598   1.9194   0.2095 C.2            1 S1                 0.0000
      3 ****        -3.8617   1.7017   0.4654 N.am           1 S1                 0.0000
      4 ****        -4.9788   2.5259   0.1575 C.ar           1 S1                 0.0000
      5 ****        -6.2540   1.9178   0.1493 C.ar           1 S1                 0.0000
      6 ****        -7.3948   2.6956  -0.1352 C.ar           1 S1                 0.0000
      7 ****        -7.2627   4.0151  -0.3888 N.pl3          1 S1                 1.0000
      8 ****        -6.0679   4.6439  -0.3792 C.ar           1 S1                 0.0000
      9 ****        -4.8917   3.9181  -0.1006 C.ar           1 S1                 0.0000
     10 ****        -1.8001   0.9152   0.6709 N.am           1 S1                 0.0000
     11 ****        -0.3462   0.8386   0.5605 C.3            1 S1                 0.0000
     12 ****         0.0709   0.3107  -0.8273 C.3            1 S1                 0.0000
     13 ****         1.5960   0.1478  -0.9323 C.3            1 S1                 0.0000
     14 ****         2.1440  -0.7712   0.1792 C.3            1 S1                 0.0000
     15 ****         3.6755  -0.9262   0.0508 C.2            1 S1                 0.0000
     16 ****         4.3938  -0.1029   0.6207 O.2            1 S1                 0.0000
     17 ****         4.1972  -1.9665  -0.6478 N.am           1 S1                 0.0000
     18 ****         5.6290  -2.2906  -0.6173 C.3            1 S1                 0.0000
     19 ****         5.8512  -3.4714   0.3439 C.3            1 S1                 0.0000
     20 ****         4.9707  -4.9604  -0.2266 S.3            1 S1                 0.0000
     21 ****         3.3236  -4.2485  -0.5366 C.3            1 S1                 0.0000
     22 ****         3.4325  -2.9753  -1.3910 C.3            1 S1                 0.0000
     23 ****         1.7349  -0.2185   1.5635 C.3            1 S1                 0.0000
     24 ****         0.2095  -0.0662   1.6754 C.3            1 S1                 0.0000
     25 ****        -4.0841   0.8134   0.8905 H              1 S1                 0.0000
     26 ****        -6.3607   0.8622   0.3542 H              1 S1                 0.0000
     27 ****        -8.4015   2.3051  -0.1657 H              1 S1                 0.0000
     28 ****        -6.0880   5.7038  -0.5872 H              1 S1                 0.0000
     29 ****        -3.9514   4.4470  -0.0794 H              1 S1                 0.0000
     30 ****        -2.2578   0.1482   1.1414 H              1 S1                 0.0000
     31 ****         0.0725   1.8377   0.6975 H              1 S1                 0.0000
     32 ****        -0.4088  -0.6504  -1.0177 H              1 S1                 0.0000
     33 ****        -0.2757   0.9883  -1.6084 H              1 S1                 0.0000
     34 ****         1.8491  -0.2521  -1.9149 H              1 S1                 0.0000
     35 ****         2.0683   1.1296  -0.8710 H              1 S1                 0.0000
     36 ****         1.6700  -1.7487   0.1030 H              1 S1                 0.0000
     37 ****         5.9811  -2.5464  -1.6177 H              1 S1                 0.0000
     38 ****         6.2400  -1.4425  -0.3057 H              1 S1                 0.0000
     39 ****         6.9135  -3.7022   0.4243 H              1 S1                 0.0000
     40 ****         5.5036  -3.2152   1.3454 H              1 S1                 0.0000
     41 ****         2.7095  -4.9949  -1.0404 H              1 S1                 0.0000
     42 ****         2.8436  -4.0294   0.4179 H              1 S1                 0.0000
     43 ****         2.4470  -2.6236  -1.6922 H              1 S1                 0.0000
     44 ****         3.9370  -3.2052  -2.3307 H              1 S1                 0.0000
     45 ****         2.0935  -0.8808   2.3527 H              1 S1                 0.0000
     46 ****         2.1989   0.7533   1.7404 H              1 S1                 0.0000
     47 ****        -0.0461   0.3451   2.6526 H              1 S1                 0.0000
     48 ****        -0.2570  -1.0511   1.6228 H              1 S1                 0.0000
     49 ****        -8.1009   4.5608  -0.5914 H              1 S1                 0.0000
     50 ****        -2.7214   3.6088  -0.7206 LP             1 S1                 0.0000
     51 ****        -1.1194   2.9781  -0.5319 LP             1 S1                 0.0000
     52 ****         3.9816   0.6399   1.1483 LP             1 S1                 0.0000
     53 ****         5.3888  -0.1776   0.5556 LP             1 S1                 0.0000
@<TRIPOS>BOND
    1    1    2 2     
    2    2    3 am    
    3    2   10 am    
    4    3    4 1     
    5    3   25 1     
    6    4    9 ar    
    7    4    5 ar    
    8    5    6 ar    
    9    5   26 1     
   10    6    7 ar    
   11    6   27 1     
   12    7    8 ar    
   13    7   49 1     
   14    8    9 ar    
   15    8   28 1     
   16    9   29 1     
   17   10   11 1     
   18   10   30 1     
   19   11   24 1     
   20   11   12 1     
   21   11   31 1     
   22   12   13 1     
   23   12   32 1     
   24   12   33 1     
   25   13   14 1     
   26   13   34 1     
   27   13   35 1     
   28   14   15 1     
   29   14   23 1     
   30   14   36 1     
   31   15   16 2     
   32   15   17 am    
   33   17   22 1     
   34   17   18 1     
   35   18   19 1     
   36   18   37 1     
   37   18   38 1     
   38   19   20 1     
   39   19   39 1     
   40   19   40 1     
   41   20   21 1     
   42   21   22 1     
   43   21   41 1     
   44   21   42 1     
   45   22   43 1     
   46   22   44 1     
   47   23   24 1     
   48   23   45 1     
   49   23   46 1     
   50   24   47 1     
   51   24   48 1     
   52    1   50 1     
   53    1   51 1     
   54   16   52 1     
   55   16   53 1     
@<TRIPOS>SUBSTRUCTURE
      1 S1             1
@<TRIPOS>SET
LONE_PAIRS      STATIC     ATOMS    <user>   **** ""
4 50 51 52 53
DONOR_HYDROGENS      STATIC     ATOMS    <user>   **** ""
3 25 49 30
ATOM$BLUE        STATIC     ATOMS    COLORGROUP SYSTEM
4 50 51 52 53
ATOM$RED        STATIC     ATOMS    COLORGROUP SYSTEM
3 25 49 30
