AV-unprocessed.smi:3095|AV-procd|sdf|11794|dock5
  -GOLD-   2272017173D 1   1.00000     0.00000
 Structure written by MMmdl.
 24 25  0  0  0  0  0  0  0  0  1 V2000
  154.0438  140.2427  160.5509 C   0  0  0  0  0  0  0  0  0  0  0  0
  153.0190  140.6738  159.5492 C   0  0  0  0  0  0  0  0  0  0  0  0
  152.0393  141.6189  159.7247 C   0  0  0  0  0  0  0  0  0  0  0  0
  151.0561  141.8067  158.2990 S   0  0  0  0  0  0  0  0  0  0  0  0
  152.0376  140.5862  157.4956 C   0  0  0  0  0  0  0  0  0  0  0  0
  151.7644  140.1173  156.1018 C   0  0  2  0  0  0  0  0  0  0  0  0
  150.5851  140.8677  155.4536 C   0  0  0  0  0  0  0  0  0  0  0  0
  150.3085  140.3242  154.1249 N   0  0  0  0  0  0  0  0  0  0  0  0
  150.0768  138.8817  154.1826 C   0  0  0  0  0  0  0  0  0  0  0  0
  151.2608  138.1755  154.8680 C   0  0  0  0  0  0  0  0  0  0  0  0
  151.4605  138.7257  156.1661 O   0  0  0  0  0  0  0  0  0  0  0  0
  152.9995  140.0885  158.2800 N   0  0  0  0  0  0  0  0  0  0  0  0
  153.8935  140.7348  161.5122 H   0  0  0  0  0  0  0  0  0  0  0  0
  155.0515  140.4834  160.2112 H   0  0  0  0  0  0  0  0  0  0  0  0
  153.9996  139.1669  160.7214 H   0  0  0  0  0  0  0  0  0  0  0  0
  151.8345  142.2122  160.6036 H   0  0  0  0  0  0  0  0  0  0  0  0
  152.6724  140.2631  155.5138 H   0  0  0  0  0  0  0  0  0  0  0  0
  149.6984  140.7742  156.0823 H   0  0  0  0  0  0  0  0  0  0  0  0
  150.8094  141.9323  155.3833 H   0  0  0  0  0  0  0  0  0  0  0  0
  149.4931  140.7841  153.7324 H   0  0  0  0  0  0  0  0  0  0  0  0
  149.1591  138.6751  154.7345 H   0  0  0  0  0  0  0  0  0  0  0  0
  149.9340  138.4848  153.1774 H   0  0  0  0  0  0  0  0  0  0  0  0
  151.0556  137.1094  154.9652 H   0  0  0  0  0  0  0  0  0  0  0  0
  152.1707  138.2711  154.2730 H   0  0  0  0  0  0  0  0  0  0  0  0
  1  2  1  0  0  0  0
  1 13  1  0  0  0  0
  1 14  1  0  0  0  0
  1 15  1  0  0  0  0
  2 12  1  0  0  0  0
  2  3  2  0  0  0  0
  3  4  1  0  0  0  0
  3 16  1  0  0  0  0
  4  5  1  0  0  0  0
  5  6  1  0  0  0  0
  5 12  2  0  0  0  0
  6 11  1  0  0  0  0
  6  7  1  0  0  0  0
  6 17  1  0  0  0  0
  7  8  1  0  0  0  0
  7 18  1  0  0  0  0
  7 19  1  0  0  0  0
  8  9  1  0  0  0  0
  8 20  1  0  0  0  0
  9 10  1  0  0  0  0
  9 21  1  0  0  0  0
  9 22  1  0  0  0  0
 10 11  1  0  0  0  0
 10 23  1  0  0  0  0
 10 24  1  0  0  0  0
M  END
> <s_m_source_file>
AV-unprocessed.smi

> <i_m_source_file_index>
3095

> <i_lp_mmshare_version>
43012

> <i_f3d_flags>
0

> <s_epik_input>
W0NIM11jMVtjSF1zYyhuMSlbQ0BASF0yW0NIMl1bTkhdW0NIMl1bQ0gyXU8y

> <s_epik_cmdline>
J2VwaWtfcHl0aG9uJywgJy1waCcsICc3LjAnLCAnLXRuJywgJzgnLCAnLW1hJywgJzIwMCcsICctbWV0YWxfYmluZGluZycsICctaW1hZScsICc8aW5maWxlLm1hZT4nLCAnLW9tYWUnLCAnPG91dGZpbGUubWFlPic=

> <r_epik_Ionization_Penalty>
0.982843

> <r_epik_Ionization_Penalty_Charging>
0

> <r_epik_Ionization_Penalty_Neutral>
0.982843

> <r_epik_State_Penalty>
2.16535

> <r_epik_Charging_Adjusted_Penalty>
2.16535

> <i_epik_Tot_Q>
0

> <i_epik_Tot_abs_Q>
0

> <r_epik_Metal_State_Penalty>
2.16288

> <b_epik_Metal_Only>
0

> <s_lp_Force_Field>
OPLS_2005

> <r_lp_Energy>
7.28811

> <b_lp_Chiralities_Consistent>
1

> <s_lp_Variant>
AV-unprocessed.smi:3095-3

> <Gold.Version>
5.8.1

> <Gold.Id.Protein>
6NUR|6NUR_protein|mol2

> <Gold.PLP.Fitness>
30.5299

> <Gold.PLP.PLP>
-24.5569

> <Gold.PLP.part.hbond>
-2.3344

> <Gold.PLP.part.metal>
0.0000

> <Gold.PLP.part.buried>
-1.4694

> <Gold.PLP.part.nonpolar>
-19.2114

> <Gold.PLP.part.repulsive>
0.0000

> <Gold.PLP.ligand.clash>
0.0000

> <Gold.PLP.ligand.torsion>
0.0070

> <Gold.PLP.Chemscore.Hbond>
1.9920

> <Gold.PLP.Chemscore.CHOScore>
0.0000

> <Gold.PLP.Chemscore.Metal>
0.0000

> <Gold.Chemscore.Hbonds>
donor molecule, donor type, donor heavy atom, donor atom, acceptor molecule, acceptor atom, score
      P1  H  7989  7998       L1     8  0.71
      P1  H  7997  8009       L1    12  1.00

> <Gold.PLP.Chemscore.Internal.Correction>
0.0110

> <Gold.Rescore>
     Score         DG    S(hbond)    S(metal)    S(lipo)     H(rot)  DE(clash)    DE(int)     intcor
     13.70     -13.74       0.92        0.00      66.20       1.00       0.03       0.01       ----

> <Gold.Chemscore.Fitness>
13.6953

> <Gold.Chemscore.DG>
-13.7374

> <Gold.Chemscore.ZeroCoef>
-5.4800

> <Gold.Chemscore.Hbond>
0.9199

> <Gold.Chemscore.Metal>
0.0000

> <Gold.Chemscore.Lipo>
66.1959

> <Gold.Chemscore.Internal_Hbond>
0.0000

> <Gold.Chemscore.DEClash>
0.0310

> <Gold.Chemscore.DEInternal>
0.0111

> <Gold.Chemscore.Rot>
1.0000

> <Gold.Chemscore.Internal.Correction>
   9.000000E+99

> <Gold.Chemscore.Hbonds>
donor molecule, donor type, donor heavy atom, donor atom, acceptor molecule, acceptor atom, score
      P1  H  7989  7998       L1     8  0.06
      P1  H  7997  8009       L1    12  0.27

> <Gold.Chemscore.Hbond.Weighted>
-3.0725

> <Gold.Chemscore.Metal.Weighted>
-0.0000

> <Gold.Chemscore.Lipo.Weighted>
-7.7449

> <Gold.Chemscore.Internal_Hbond.Weighted>
0.0000

> <Gold.Chemscore.DEClash.Weighted>
0.0310

> <Gold.Chemscore.DEInternal.Weighted>
0.0111

> <Gold.Chemscore.Rot.Weighted>
2.5600

> <Gold.Chemscore.Internal.Correction.Weighted>
   9.000000E+99

> <Gold.Protein.RotatedTorsions>
[ 6907 6896 6895 6894 ] final  -98.55 input  -60.11 | X-H torsion
[ 7974 7965 7964 7962 ] final  -51.92 input  175.53 | X-H torsion
[ 8008 7997 7996 7995 ] final  156.89 input   59.86 | X-H torsion
[ 10167 10162 10161 10158 ] final   98.31 input  -65.29 | X-H torsion
[ 10718 10713 10712 10709 ] final -124.63 input   66.30 | X-H torsion
[ 10763 10752 10751 10750 ] final   19.33 input  -60.55 | X-H torsion
[ 11005 11000 10999 10996 ] final  107.75 input  -57.11 | X-H torsion

> <Gold.Protein.ActiveResidues>
 VAL166  LYS551  ARG553  GLY616  TRP617  ASP618  TYR619  PRO620  LYS621  CYS622 
 ASP623  PHE694  ASN695  SER759  ASP760  ASP761  ALA762  ILE779  LEU786  VAL792 
 PHE793  MET794  SER795  GLU796  ALA797  LYS798  CYS799  TRP800  GLU811  SER814 

> <Gold.Protein.RotatedAtoms>
  150.7050  134.1177  159.4023 H   0  0  0  0  0  0  0  0  0  0  0  0  # atno 6907 bound_to 6896
  151.9164  135.0315  160.0528 H   0  0  0  0  0  0  0  0  0  0  0  0  # atno 6908 bound_to 6896
  152.2293  133.5010  159.5243 H   0  0  0  0  0  0  0  0  0  0  0  0  # atno 6909 bound_to 6896
  145.9137  140.7893  142.9682 H   0  0  0  0  0  0  0  0  0  0  0  0  # atno 7974 bound_to 7965
  156.2396  140.1900  156.7024 H   0  0  0  0  0  0  0  0  0  0  0  0  # atno 8008 bound_to 7997
  154.6172  140.0613  156.9596 H   0  0  0  0  0  0  0  0  0  0  0  0  # atno 8009 bound_to 7997
  155.1920  140.3285  155.4359 H   0  0  0  0  0  0  0  0  0  0  0  0  # atno 8010 bound_to 7997
  139.7720  144.6919  151.0142 H   0  0  0  0  0  0  0  0  0  0  0  0  # atno 10167 bound_to 10162
  156.1604  130.6598  151.0041 H   0  0  0  0  0  0  0  0  0  0  0  0  # atno 10718 bound_to 10713
  153.1172  135.6710  153.9398 H   0  0  0  0  0  0  0  0  0  0  0  0  # atno 10763 bound_to 10752
  153.8924  135.3045  155.3449 H   0  0  0  0  0  0  0  0  0  0  0  0  # atno 10764 bound_to 10752
  154.7587  135.4999  153.9501 H   0  0  0  0  0  0  0  0  0  0  0  0  # atno 10765 bound_to 10752
  139.8833  134.9410  156.5867 H   0  0  0  0  0  0  0  0  0  0  0  0  # atno 11005 bound_to 11000
  144.6745  140.1865  143.7401 LP  0  0  0  0  0  0  0  0  0  0  0  0  # atno 17320 bound_to 7965
  145.8639  139.2237  143.1700 LP  0  0  0  0  0  0  0  0  0  0  0  0  # atno 17321 bound_to 7965
  140.7814  143.4577  151.0321 LP  0  0  0  0  0  0  0  0  0  0  0  0  # atno 17342 bound_to 10162
  139.8261  143.7754  152.3178 LP  0  0  0  0  0  0  0  0  0  0  0  0  # atno 17343 bound_to 10162
  157.6728  131.0857  150.7570 LP  0  0  0  0  0  0  0  0  0  0  0  0  # atno 17370 bound_to 10713
  156.7633  130.4805  149.5432 LP  0  0  0  0  0  0  0  0  0  0  0  0  # atno 17371 bound_to 10713
  140.7986  133.8524  155.8707 LP  0  0  0  0  0  0  0  0  0  0  0  0  # atno 17394 bound_to 11000
  140.9613  134.1652  157.4652 LP  0  0  0  0  0  0  0  0  0  0  0  0  # atno 17395 bound_to 11000

$$$$
