AV-unprocessed.smi:485|AV-procd|sdf|2693|dock1
  -GOLD-   2262023123D 1   1.00000     0.00000
 Structure written by MMmdl.
 37 39  0  0  0  0  0  0  0  0  2 V2000
  151.8361  136.6972  153.9691 O   0  0  0  0  0  0  0  0  0  0  0  0
  151.9631  137.9568  154.5911 C   0  0  0  0  0  0  0  0  0  0  0  0
  150.7516  138.8086  154.3979 C   0  0  0  0  0  0  0  0  0  0  0  0
  149.7192  138.5376  153.5510 N   0  3  0  0  0  0  0  0  0  0  0  0
  148.7746  139.5619  153.6130 C   0  0  0  0  0  0  0  0  0  0  0  0
  147.5708  139.7304  152.9356 C   0  0  0  0  0  0  0  0  0  0  0  0
  146.8405  140.9015  153.2245 C   0  0  0  0  0  0  0  0  0  0  0  0
  147.3127  141.8496  154.1546 C   0  0  0  0  0  0  0  0  0  0  0  0
  148.5329  141.6661  154.8370 C   0  0  0  0  0  0  0  0  0  0  0  0
  149.2512  140.5054  154.5465 C   0  0  0  0  0  0  0  0  0  0  0  0
  150.4754  139.9996  155.0047 N   0  0  0  0  0  0  0  0  0  0  0  0
  151.2585  140.7647  155.9900 C   0  0  0  0  0  0  0  0  0  0  0  0
  151.1043  140.2137  157.4217 C   0  0  2  0  0  0  0  0  0  0  0  0
  149.7273  140.1789  157.7344 O   0  0  0  0  0  0  0  0  0  0  0  0
  151.9095  141.0102  158.4389 C   0  0  0  0  0  0  0  0  0  0  0  0
  151.6631  142.3905  158.6035 C   0  0  0  0  0  0  0  0  0  0  0  0
  152.3804  143.1306  159.5629 C   0  0  0  0  0  0  0  0  0  0  0  0
  153.3493  142.4950  160.3630 C   0  0  0  0  0  0  0  0  0  0  0  0
  153.6005  141.1188  160.2029 C   0  0  0  0  0  0  0  0  0  0  0  0
  152.8828  140.3780  159.2440 C   0  0  0  0  0  0  0  0  0  0  0  0
  151.4432  136.8201  153.1182 H   0  0  0  0  0  0  0  0  0  0  0  0
  152.1343  137.8101  155.6577 H   0  0  0  0  0  0  0  0  0  0  0  0
  152.8420  138.4645  154.1948 H   0  0  0  0  0  0  0  0  0  0  0  0
  147.2084  139.0066  152.2204 H   0  0  0  0  0  0  0  0  0  0  0  0
  145.9005  141.0771  152.7215 H   0  0  0  0  0  0  0  0  0  0  0  0
  146.7280  142.7372  154.3485 H   0  0  0  0  0  0  0  0  0  0  0  0
  148.8829  142.4050  155.5421 H   0  0  0  0  0  0  0  0  0  0  0  0
  152.3047  140.7981  155.6870 H   0  0  0  0  0  0  0  0  0  0  0  0
  150.9039  141.7948  155.9470 H   0  0  0  0  0  0  0  0  0  0  0  0
  151.4475  139.1789  157.4432 H   0  0  0  0  0  0  0  0  0  0  0  0
  149.4855  139.2845  157.9217 H   0  0  0  0  0  0  0  0  0  0  0  0
  150.9154  142.8841  157.9997 H   0  0  0  0  0  0  0  0  0  0  0  0
  152.1861  144.1858  159.6859 H   0  0  0  0  0  0  0  0  0  0  0  0
  153.8994  143.0626  161.0992 H   0  0  0  0  0  0  0  0  0  0  0  0
  154.3424  140.6300  160.8172 H   0  0  0  0  0  0  0  0  0  0  0  0
  153.0754  139.3206  159.1355 H   0  0  0  0  0  0  0  0  0  0  0  0
  149.6720  137.7128  152.9665 H   0  0  0  0  0  0  0  0  0  0  0  0
  1  2  1  0  0  0  0
  1 21  1  0  0  0  0
  2  3  1  0  0  0  0
  2 22  1  0  0  0  0
  2 23  1  0  0  0  0
  3 11  1  0  0  0  0
  3  4  2  0  0  0  0
  4  5  1  0  0  0  0
  4 37  1  0  0  0  0
  5 10  2  0  0  0  0
  5  6  1  0  0  0  0
  6  7  2  0  0  0  0
  6 24  1  0  0  0  0
  7  8  1  0  0  0  0
  7 25  1  0  0  0  0
  8  9  2  0  0  0  0
  8 26  1  0  0  0  0
  9 10  1  0  0  0  0
  9 27  1  0  0  0  0
 10 11  1  0  0  0  0
 11 12  1  0  0  0  0
 12 13  1  0  0  0  0
 12 28  1  0  0  0  0
 12 29  1  0  0  0  0
 13 14  1  0  0  0  0
 13 15  1  0  0  0  0
 13 30  1  0  0  0  0
 14 31  1  0  0  0  0
 15 20  1  0  0  0  0
 15 16  2  0  0  0  0
 16 17  1  0  0  0  0
 16 32  1  0  0  0  0
 17 18  2  0  0  0  0
 17 33  1  0  0  0  0
 18 19  1  0  0  0  0
 18 34  1  0  0  0  0
 19 20  2  0  0  0  0
 19 35  1  0  0  0  0
 20 36  1  0  0  0  0
M  CHG  1   4   1
M  END
> <s_m_source_file>
AV-unprocessed.smi

> <i_m_source_file_index>
485

> <i_lp_mmshare_version>
43012

> <i_f3d_flags>
0

> <s_epik_input>
W2NIXTFbY0hdW2NIXVtjSF1jKGMxMiluKGMobjIpW0NIMl1bT0hdKVtDSDJdW0NASF0oW09IXSljM1tjSF1bY0hdW2NIXVtjSF1bY0hdMw==

> <s_epik_cmdline>
J2VwaWtfcHl0aG9uJywgJy1waCcsICc3LjAnLCAnLXRuJywgJzgnLCAnLW1hJywgJzIwMCcsICctbWV0YWxfYmluZGluZycsICctaW1hZScsICc8aW5maWxlLm1hZT4nLCAnLW9tYWUnLCAnPG91dGZpbGUubWFlPic=

> <r_epik_Ionization_Penalty>
1.35643

> <r_epik_Ionization_Penalty_Charging>
1.35557

> <r_epik_Ionization_Penalty_Neutral>
0.000857128

> <r_epik_State_Penalty>
1.43401

> <r_epik_Charging_Adjusted_Penalty>
2.78958

> <i_epik_Tot_Q>
1

> <i_epik_Tot_abs_Q>
1

> <r_epik_Metal_State_Penalty>
5.47166

> <b_epik_Metal_Only>
0

> <s_lp_Force_Field>
OPLS_2005

> <r_lp_Energy>
15.2591

> <b_lp_Chiralities_Consistent>
1

> <s_lp_Variant>
AV-unprocessed.smi:485-3

> <Gold.Version>
5.8.1

> <Gold.Id.Protein>
6NUR|6NUR_protein|mol2

> <Gold.PLP.Fitness>
57.4010

> <Gold.PLP.PLP>
-46.4336

> <Gold.PLP.part.hbond>
-4.0000

> <Gold.PLP.part.metal>
0.0000

> <Gold.PLP.part.buried>
2.5186

> <Gold.PLP.part.nonpolar>
-45.6154

> <Gold.PLP.part.repulsive>
0.0789

> <Gold.PLP.ligand.clash>
0.0000

> <Gold.PLP.ligand.torsion>
0.3864

> <Gold.PLP.Chemscore.Hbond>
3.8960

> <Gold.PLP.Chemscore.CHOScore>
0.0000

> <Gold.PLP.Chemscore.Metal>
0.0000

> <Gold.Chemscore.Hbonds>
donor molecule, donor type, donor heavy atom, donor atom, acceptor molecule, acceptor atom, score
      L1  H     1    21       P1  7949  0.85
      L1  H     4    37       P1  7948  2.00
      P1  H 10752 10763       L1     1  1.00

> <Gold.PLP.Chemscore.Internal.Correction>
0.0523

> <Gold.Rescore>
     Score         DG    S(hbond)    S(metal)    S(lipo)     H(rot)  DE(clash)    DE(int)     intcor
     20.03     -20.74       2.49        0.00     118.42       2.70       0.34       0.37       ----

> <Gold.Chemscore.Fitness>
20.0327

> <Gold.Chemscore.DG>
-20.7362

> <Gold.Chemscore.ZeroCoef>
-5.4800

> <Gold.Chemscore.Hbond>
2.4861

> <Gold.Chemscore.Metal>
0.0000

> <Gold.Chemscore.Lipo>
118.4185

> <Gold.Chemscore.Internal_Hbond>
0.0000

> <Gold.Chemscore.DEClash>
0.3364

> <Gold.Chemscore.DEInternal>
0.3671

> <Gold.Chemscore.Rot>
2.6963

> <Gold.Chemscore.Internal.Correction>
   9.000000E+99

> <Gold.Chemscore.Hbonds>
donor molecule, donor type, donor heavy atom, donor atom, acceptor molecule, acceptor atom, score
      L1  H     1    21       P1  7949  0.72
      L1  H     4    37       P1  7948  0.65
      P1  H 10752 10763       L1     1  0.85

> <Gold.Chemscore.Hbond.Weighted>
-8.3036

> <Gold.Chemscore.Metal.Weighted>
-0.0000

> <Gold.Chemscore.Lipo.Weighted>
-13.8550

> <Gold.Chemscore.Internal_Hbond.Weighted>
0.0000

> <Gold.Chemscore.DEClash.Weighted>
0.3364

> <Gold.Chemscore.DEInternal.Weighted>
0.3671

> <Gold.Chemscore.Rot.Weighted>
6.9024

> <Gold.Chemscore.Internal.Correction.Weighted>
   9.000000E+99

> <Gold.Protein.RotatedTorsions>
[ 6907 6896 6895 6894 ] final -163.19 input  -60.11 | X-H torsion
[ 7974 7965 7964 7962 ] final  -29.60 input  175.53 | X-H torsion
[ 8008 7997 7996 7995 ] final  128.45 input   59.86 | X-H torsion
[ 10167 10162 10161 10158 ] final  123.74 input  -65.29 | X-H torsion
[ 10718 10713 10712 10709 ] final -105.07 input   66.30 | X-H torsion
[ 10763 10752 10751 10750 ] final   28.77 input  -60.55 | X-H torsion
[ 11005 11000 10999 10996 ] final  -99.35 input  -57.11 | X-H torsion

> <Gold.Protein.ActiveResidues>
 VAL166  LYS551  ARG553  GLY616  TRP617  ASP618  TYR619  PRO620  LYS621  CYS622 
 ASP623  PHE694  ASN695  SER759  ASP760  ASP761  ALA762  ILE779  LEU786  VAL792 
 PHE793  MET794  SER795  GLU796  ALA797  LYS798  CYS799  TRP800  GLU811  SER814 

> <Gold.Protein.RotatedAtoms>
  151.3921  133.3785  159.2721 H   0  0  0  0  0  0  0  0  0  0  0  0  # atno 6907 bound_to 6896
  150.9497  134.8900  159.7675 H   0  0  0  0  0  0  0  0  0  0  0  0  # atno 6908 bound_to 6896
  152.5106  134.3875  159.9425 H   0  0  0  0  0  0  0  0  0  0  0  0  # atno 6909 bound_to 6896
  146.1205  140.5432  142.8737 H   0  0  0  0  0  0  0  0  0  0  0  0  # atno 7974 bound_to 7965
  156.2915  140.2644  156.2438 H   0  0  0  0  0  0  0  0  0  0  0  0  # atno 8008 bound_to 7997
  154.9950  140.0388  157.2354 H   0  0  0  0  0  0  0  0  0  0  0  0  # atno 8009 bound_to 7997
  154.7652  140.2768  155.6187 H   0  0  0  0  0  0  0  0  0  0  0  0  # atno 8010 bound_to 7997
  139.5782  144.6973  151.3598 H   0  0  0  0  0  0  0  0  0  0  0  0  # atno 10167 bound_to 10162
  156.0330  130.5546  150.7486 H   0  0  0  0  0  0  0  0  0  0  0  0  # atno 10718 bound_to 10713
  153.0471  135.6505  154.0788 H   0  0  0  0  0  0  0  0  0  0  0  0  # atno 10763 bound_to 10752
  154.0484  135.2897  155.3346 H   0  0  0  0  0  0  0  0  0  0  0  0  # atno 10764 bound_to 10752
  154.6736  135.5347  153.8236 H   0  0  0  0  0  0  0  0  0  0  0  0  # atno 10765 bound_to 10752
  141.1312  133.8315  157.0960 H   0  0  0  0  0  0  0  0  0  0  0  0  # atno 11005 bound_to 11000
  144.7592  140.5382  143.6747 LP  0  0  0  0  0  0  0  0  0  0  0  0  # atno 17320 bound_to 7965
  145.5476  139.1476  143.3412 LP  0  0  0  0  0  0  0  0  0  0  0  0  # atno 17321 bound_to 7965
  140.7062  143.7506  150.7487 LP  0  0  0  0  0  0  0  0  0  0  0  0  # atno 17342 bound_to 10162
  140.1032  143.4768  152.2413 LP  0  0  0  0  0  0  0  0  0  0  0  0  # atno 17343 bound_to 10162
  157.5037  131.0920  151.0284 LP  0  0  0  0  0  0  0  0  0  0  0  0  # atno 17370 bound_to 10713
  157.0658  130.5844  149.5393 LP  0  0  0  0  0  0  0  0  0  0  0  0  # atno 17371 bound_to 10713
  140.0363  134.9877  157.0876 LP  0  0  0  0  0  0  0  0  0  0  0  0  # atno 17394 bound_to 11000
  140.4206  134.1885  155.7164 LP  0  0  0  0  0  0  0  0  0  0  0  0  # atno 17395 bound_to 11000

$$$$
