AV-unprocessed.smi:2757|AV-procd|sdf|10621|dock7
  -GOLD-   2272015 63D 1   1.00000     0.00000
 Structure written by MMmdl.
 32 33  0  0  0  0  0  0  0  0  2 V2000
  150.0917  135.9535  155.7437 C   0  0  0  0  0  0  0  0  0  0  0  0
  150.6098  137.0920  156.4862 N   0  0  0  0  0  0  0  0  0  0  0  0
  151.8391  137.1502  157.0196 C   0  0  0  0  0  0  0  0  0  0  0  0
  152.6623  136.2378  156.9395 O   0  0  0  0  0  0  0  0  0  0  0  0
  152.1667  138.4341  157.7239 C   0  0  0  0  0  0  0  0  0  0  0  0
  153.3879  138.5797  158.4451 C   0  0  0  0  0  0  0  0  0  0  0  0
  153.3331  139.8541  158.9318 C   0  0  0  0  0  0  0  0  0  0  0  0
  152.1417  140.4067  158.5108 N   0  0  0  0  0  0  0  0  0  0  0  0
  151.6271  141.7417  158.7762 C   0  0  1  0  0  0  0  0  0  0  0  0
  152.6604  142.6141  159.5180 C   0  0  0  0  0  0  0  0  0  0  0  0
  152.0921  144.0198  159.7649 C   0  0  0  0  0  0  0  0  0  0  0  0
  151.6174  144.6596  158.4491 C   0  0  0  0  0  0  0  0  0  0  0  0
  150.6348  143.7891  157.7668 N   0  3  0  0  0  0  0  0  0  0  0  0
  151.1625  142.4371  157.4787 C   0  0  0  0  0  0  0  0  0  0  0  0
  151.4222  139.5313  157.7734 N   0  0  0  0  0  0  0  0  0  0  0  0
  149.0600  136.1415  155.4465 H   0  0  0  0  0  0  0  0  0  0  0  0
  150.1119  135.0489  156.3530 H   0  0  0  0  0  0  0  0  0  0  0  0
  150.6801  135.7798  154.8420 H   0  0  0  0  0  0  0  0  0  0  0  0
  150.0028  137.8912  156.5975 H   0  0  0  0  0  0  0  0  0  0  0  0
  154.1834  137.8619  158.5824 H   0  0  0  0  0  0  0  0  0  0  0  0
  154.0376  140.4067  159.5360 H   0  0  0  0  0  0  0  0  0  0  0  0
  150.7580  141.6248  159.4260 H   0  0  0  0  0  0  0  0  0  0  0  0
  152.9352  142.1511  160.4663 H   0  0  0  0  0  0  0  0  0  0  0  0
  153.5778  142.6953  158.9333 H   0  0  0  0  0  0  0  0  0  0  0  0
  151.2592  143.9602  160.4666 H   0  0  0  0  0  0  0  0  0  0  0  0
  152.8482  144.6498  160.2347 H   0  0  0  0  0  0  0  0  0  0  0  0
  151.1598  145.6300  158.6434 H   0  0  0  0  0  0  0  0  0  0  0  0
  152.4646  144.8334  157.7842 H   0  0  0  0  0  0  0  0  0  0  0  0
  149.8212  143.6972  158.3583 H   0  0  0  0  0  0  0  0  0  0  0  0
  151.9855  142.5250  156.7678 H   0  0  0  0  0  0  0  0  0  0  0  0
  150.3827  141.8509  156.9915 H   0  0  0  0  0  0  0  0  0  0  0  0
  150.3585  144.2247  156.8984 H   0  0  0  0  0  0  0  0  0  0  0  0
  1  2  1  0  0  0  0
  1 16  1  0  0  0  0
  1 17  1  0  0  0  0
  1 18  1  0  0  0  0
  2  3  1  0  0  0  0
  2 19  1  0  0  0  0
  3  4  2  0  0  0  0
  3  5  1  0  0  0  0
  5 15  2  0  0  0  0
  5  6  1  0  0  0  0
  6  7  2  0  0  0  0
  6 20  1  0  0  0  0
  7  8  1  0  0  0  0
  7 21  1  0  0  0  0
  8  9  1  0  0  0  0
  8 15  1  0  0  0  0
  9 14  1  0  0  0  0
  9 10  1  0  0  0  0
  9 22  1  0  0  0  0
 10 11  1  0  0  0  0
 10 23  1  0  0  0  0
 10 24  1  0  0  0  0
 11 12  1  0  0  0  0
 11 25  1  0  0  0  0
 11 26  1  0  0  0  0
 12 13  1  0  0  0  0
 12 27  1  0  0  0  0
 12 28  1  0  0  0  0
 13 14  1  0  0  0  0
 13 29  1  0  0  0  0
 13 32  1  0  0  0  0
 14 30  1  0  0  0  0
 14 31  1  0  0  0  0
M  CHG  1  13   1
M  END
> <s_m_source_file>
AV-unprocessed.smi

> <i_m_source_file_index>
2757

> <i_lp_mmshare_version>
43012

> <i_f3d_flags>
0

> <s_epik_input>
W0NIM11bTkhdQyg9TyljMVtjSF1bY0hdbihuMSlbQ0BASF0yW0NIMl1bQ0gyXVtDSDJdW05IXVtDSDJdMg==

> <s_epik_cmdline>
J2VwaWtfcHl0aG9uJywgJy1waCcsICc3LjAnLCAnLXRuJywgJzgnLCAnLW1hJywgJzIwMCcsICctbWV0YWxfYmluZGluZycsICctaW1hZScsICc8aW5maWxlLm1hZT4nLCAnLW9tYWUnLCAnPG91dGZpbGUubWFlPic=

> <r_lp_tautomer_probability>
1

> <r_epik_Ionization_Penalty>
0.000652722

> <r_epik_Ionization_Penalty_Charging>
0.000651447

> <r_epik_Ionization_Penalty_Neutral>
1.27533e-06

> <r_epik_State_Penalty>
0.000412577

> <r_epik_Charging_Adjusted_Penalty>
0.00106402

> <i_epik_Tot_Q>
1

> <i_epik_Tot_abs_Q>
1

> <r_epik_Metal_State_Penalty>
-0

> <b_epik_Metal_Only>
0

> <s_lp_Force_Field>
OPLS_2005

> <r_lp_Energy>
20.0976

> <b_lp_Chiralities_Consistent>
1

> <s_lp_Variant>
AV-unprocessed.smi:2757-2

> <Gold.Version>
5.8.1

> <Gold.Id.Protein>
6NUR|6NUR_protein|mol2

> <Gold.PLP.Fitness>
34.6481

> <Gold.PLP.PLP>
-25.9562

> <Gold.PLP.part.hbond>
-2.0000

> <Gold.PLP.part.metal>
0.0000

> <Gold.PLP.part.buried>
-3.1345

> <Gold.PLP.part.nonpolar>
-20.8755

> <Gold.PLP.part.repulsive>
0.0753

> <Gold.PLP.ligand.clash>
0.0000

> <Gold.PLP.ligand.torsion>
0.1395

> <Gold.PLP.Chemscore.Hbond>
2.9840

> <Gold.PLP.Chemscore.CHOScore>
0.0000

> <Gold.PLP.Chemscore.Metal>
0.0000

> <Gold.Chemscore.Hbonds>
donor molecule, donor type, donor heavy atom, donor atom, acceptor molecule, acceptor atom, score
      L1  H    13    32       P1  8028  1.92
      P1  H 10752 10764       L1     4  0.99

> <Gold.PLP.Chemscore.Internal.Correction>
0.0189

> <Gold.Rescore>
     Score         DG    S(hbond)    S(metal)    S(lipo)     H(rot)  DE(clash)    DE(int)     intcor
     17.49     -17.64       1.98        0.00      69.36       1.00       0.01       0.15       ----

> <Gold.Chemscore.Fitness>
17.4863

> <Gold.Chemscore.DG>
-17.6419

> <Gold.Chemscore.ZeroCoef>
-5.4800

> <Gold.Chemscore.Hbond>
1.9781

> <Gold.Chemscore.Metal>
0.0000

> <Gold.Chemscore.Lipo>
69.3584

> <Gold.Chemscore.Internal_Hbond>
0.0000

> <Gold.Chemscore.DEClash>
0.0073

> <Gold.Chemscore.DEInternal>
0.1483

> <Gold.Chemscore.Rot>
1.0000

> <Gold.Chemscore.Internal.Correction>
   9.000000E+99

> <Gold.Chemscore.Hbonds>
donor molecule, donor type, donor heavy atom, donor atom, acceptor molecule, acceptor atom, score
      L1  H    13    32       P1  8028  0.87
      P1  H 10752 10764       L1     4  0.92

> <Gold.Chemscore.Hbond.Weighted>
-6.6070

> <Gold.Chemscore.Metal.Weighted>
-0.0000

> <Gold.Chemscore.Lipo.Weighted>
-8.1149

> <Gold.Chemscore.Internal_Hbond.Weighted>
0.0000

> <Gold.Chemscore.DEClash.Weighted>
0.0073

> <Gold.Chemscore.DEInternal.Weighted>
0.1483

> <Gold.Chemscore.Rot.Weighted>
2.5600

> <Gold.Chemscore.Internal.Correction.Weighted>
   9.000000E+99

> <Gold.Protein.RotatedTorsions>
[ 6907 6896 6895 6894 ] final  -59.05 input  -60.11 | X-H torsion
[ 7974 7965 7964 7962 ] final  -56.17 input  175.53 | X-H torsion
[ 8008 7997 7996 7995 ] final  -66.27 input   59.86 | X-H torsion
[ 10167 10162 10161 10158 ] final   -0.27 input  -65.29 | X-H torsion
[ 10718 10713 10712 10709 ] final -160.43 input   66.30 | X-H torsion
[ 10763 10752 10751 10750 ] final    4.14 input  -60.55 | X-H torsion
[ 11005 11000 10999 10996 ] final   29.84 input  -57.11 | X-H torsion

> <Gold.Protein.ActiveResidues>
 VAL166  LYS551  ARG553  GLY616  TRP617  ASP618  TYR619  PRO620  LYS621  CYS622 
 ASP623  PHE694  ASN695  SER759  ASP760  ASP761  ALA762  ILE779  LEU786  VAL792 
 PHE793  MET794  SER795  GLU796  ALA797  LYS798  CYS799  TRP800  GLU811  SER814 

> <Gold.Protein.RotatedAtoms>
  150.7959  134.7018  159.6554 H   0  0  0  0  0  0  0  0  0  0  0  0  # atno 6907 bound_to 6896
  152.4071  134.6184  160.0054 H   0  0  0  0  0  0  0  0  0  0  0  0  # atno 6908 bound_to 6896
  151.6438  133.3287  159.3172 H   0  0  0  0  0  0  0  0  0  0  0  0  # atno 6909 bound_to 6896
  145.8658  140.8252  142.9913 H   0  0  0  0  0  0  0  0  0  0  0  0  # atno 7974 bound_to 7965
  154.4724  140.0916  156.7178 H   0  0  0  0  0  0  0  0  0  0  0  0  # atno 8008 bound_to 7997
  155.4688  140.3463  155.4304 H   0  0  0  0  0  0  0  0  0  0  0  0  # atno 8009 bound_to 7997
  156.1061  140.1435  156.9390 H   0  0  0  0  0  0  0  0  0  0  0  0  # atno 8010 bound_to 7997
  140.6760  143.6914  150.8025 H   0  0  0  0  0  0  0  0  0  0  0  0  # atno 10167 bound_to 10162
  156.5820  130.8733  151.2867 H   0  0  0  0  0  0  0  0  0  0  0  0  # atno 10718 bound_to 10713
  153.2749  135.6935  153.7443 H   0  0  0  0  0  0  0  0  0  0  0  0  # atno 10763 bound_to 10752
  153.6453  135.3386  155.3084 H   0  0  0  0  0  0  0  0  0  0  0  0  # atno 10764 bound_to 10752
  154.8476  135.4441  154.1783 H   0  0  0  0  0  0  0  0  0  0  0  0  # atno 10765 bound_to 10752
  140.3007  134.2759  155.7754 H   0  0  0  0  0  0  0  0  0  0  0  0  # atno 11005 bound_to 11000
  144.6726  140.1164  143.7452 LP  0  0  0  0  0  0  0  0  0  0  0  0  # atno 17320 bound_to 7965
  145.9195  139.2537  143.1390 LP  0  0  0  0  0  0  0  0  0  0  0  0  # atno 17321 bound_to 7965
  140.0607  143.5158  152.2629 LP  0  0  0  0  0  0  0  0  0  0  0  0  # atno 17342 bound_to 10162
  139.6053  144.7594  151.3076 LP  0  0  0  0  0  0  0  0  0  0  0  0  # atno 17343 bound_to 10162
  157.7324  130.9715  150.1927 LP  0  0  0  0  0  0  0  0  0  0  0  0  # atno 17370 bound_to 10713
  156.2623  130.3712  149.8117 LP  0  0  0  0  0  0  0  0  0  0  0  0  # atno 17371 bound_to 10713
  141.2128  133.7644  156.9763 LP  0  0  0  0  0  0  0  0  0  0  0  0  # atno 17394 bound_to 11000
  140.1111  134.9476  157.2067 LP  0  0  0  0  0  0  0  0  0  0  0  0  # atno 17395 bound_to 11000

$$$$
