AV-unprocessed.smi:1928|AV-procd|sdf|7798|dock1
  -GOLD-   22720 9543D 1   1.00000     0.00000
 Structure written by MMmdl.
 34 35  0  0  0  0  0  0  0  0  1 V2000
  145.7290  138.2397  156.6513 C   0  0  0  0  0  0  0  0  0  0  0  0
  146.3910  138.9395  155.5143 C   0  0  0  0  0  0  0  0  0  0  0  0
  147.1725  140.0126  155.6604 N   0  0  0  0  0  0  0  0  0  0  0  0
  147.6774  140.4824  154.4429 C   0  0  0  0  0  0  0  0  0  0  0  0
  148.5850  141.6805  154.4143 C   0  0  0  0  0  0  0  0  0  0  0  0
  149.8353  141.4472  155.2680 C   0  0  0  0  0  0  0  0  0  0  0  0
  150.5194  140.4394  155.0910 O   0  0  0  0  0  0  0  0  0  0  0  0
  150.1131  142.3738  156.1997 N   0  0  0  0  0  0  0  0  0  0  0  0
  151.2552  142.3523  157.1072 C   0  0  0  0  0  0  0  0  0  0  0  0
  150.9854  141.3954  158.2861 C   0  0  0  0  0  0  0  0  0  0  0  0
  152.1319  141.4251  159.3098 C   0  0  0  0  0  0  0  0  0  0  0  0
  152.4003  142.8542  159.8073 C   0  0  0  0  0  0  0  0  0  0  0  0
  152.6802  143.8058  158.6338 C   0  0  0  0  0  0  0  0  0  0  0  0
  151.5332  143.7809  157.6109 C   0  0  0  0  0  0  0  0  0  0  0  0
  147.2523  139.7473  153.3634 C   0  0  0  0  0  0  0  0  0  0  0  0
  146.2148  138.4316  153.8394 S   0  0  0  0  0  0  0  0  0  0  0  0
  146.1637  138.5526  157.6012 H   0  0  0  0  0  0  0  0  0  0  0  0
  145.8539  137.1614  156.5496 H   0  0  0  0  0  0  0  0  0  0  0  0
  144.6635  138.4697  156.6599 H   0  0  0  0  0  0  0  0  0  0  0  0
  148.8964  141.9034  153.3932 H   0  0  0  0  0  0  0  0  0  0  0  0
  148.0605  142.5661  154.7761 H   0  0  0  0  0  0  0  0  0  0  0  0
  149.4903  143.1647  156.2761 H   0  0  0  0  0  0  0  0  0  0  0  0
  152.1404  142.0069  156.5691 H   0  0  0  0  0  0  0  0  0  0  0  0
  150.0534  141.6730  158.7809 H   0  0  0  0  0  0  0  0  0  0  0  0
  150.8488  140.3772  157.9199 H   0  0  0  0  0  0  0  0  0  0  0  0
  151.8930  140.7766  160.1531 H   0  0  0  0  0  0  0  0  0  0  0  0
  153.0369  141.0203  158.8550 H   0  0  0  0  0  0  0  0  0  0  0  0
  151.5388  143.2130  160.3720 H   0  0  0  0  0  0  0  0  0  0  0  0
  153.2447  142.8558  160.4970 H   0  0  0  0  0  0  0  0  0  0  0  0
  152.8253  144.8210  159.0042 H   0  0  0  0  0  0  0  0  0  0  0  0
  153.6116  143.5188  158.1443 H   0  0  0  0  0  0  0  0  0  0  0  0
  151.7771  144.4319  156.7704 H   0  0  0  0  0  0  0  0  0  0  0  0
  150.6329  144.1928  158.0696 H   0  0  0  0  0  0  0  0  0  0  0  0
  147.4900  139.8965  152.3206 H   0  0  0  0  0  0  0  0  0  0  0  0
  1  2  1  0  0  0  0
  1 17  1  0  0  0  0
  1 18  1  0  0  0  0
  1 19  1  0  0  0  0
  2 16  1  0  0  0  0
  2  3  2  0  0  0  0
  3  4  1  0  0  0  0
  4  5  1  0  0  0  0
  4 15  2  0  0  0  0
  5  6  1  0  0  0  0
  5 20  1  0  0  0  0
  5 21  1  0  0  0  0
  6  7  2  0  0  0  0
  6  8  1  0  0  0  0
  8  9  1  0  0  0  0
  8 22  1  0  0  0  0
  9 14  1  0  0  0  0
  9 10  1  0  0  0  0
  9 23  1  0  0  0  0
 10 11  1  0  0  0  0
 10 24  1  0  0  0  0
 10 25  1  0  0  0  0
 11 12  1  0  0  0  0
 11 26  1  0  0  0  0
 11 27  1  0  0  0  0
 12 13  1  0  0  0  0
 12 28  1  0  0  0  0
 12 29  1  0  0  0  0
 13 14  1  0  0  0  0
 13 30  1  0  0  0  0
 13 31  1  0  0  0  0
 14 32  1  0  0  0  0
 14 33  1  0  0  0  0
 15 16  1  0  0  0  0
 15 34  1  0  0  0  0
M  END
> <s_m_source_file>
AV-unprocessed.smi

> <i_m_source_file_index>
1928

> <i_lp_mmshare_version>
43012

> <i_f3d_flags>
0

> <s_epik_input>
W0NIM11jMW5jKFtjSF1zMSlbQ0gyXUMoPU8pW05IXVtDSF0yW0NIMl1bQ0gyXVtDSDJdW0NIMl1bQ0gyXTI=

> <s_epik_cmdline>
J2VwaWtfcHl0aG9uJywgJy1waCcsICc3LjAnLCAnLXRuJywgJzgnLCAnLW1hJywgJzIwMCcsICctbWV0YWxfYmluZGluZycsICctaW1hZScsICc8aW5maWxlLm1hZT4nLCAnLW9tYWUnLCAnPG91dGZpbGUubWFlPic=

> <r_lp_tautomer_probability>
1

> <r_epik_Ionization_Penalty>
6.58409e-05

> <r_epik_Ionization_Penalty_Charging>
0

> <r_epik_Ionization_Penalty_Neutral>
6.58409e-05

> <r_epik_State_Penalty>
-0

> <r_epik_Charging_Adjusted_Penalty>
0

> <i_epik_Tot_Q>
0

> <i_epik_Tot_abs_Q>
0

> <r_epik_Metal_State_Penalty>
-0

> <b_epik_Metal_Only>
0

> <s_lp_Force_Field>
OPLS_2005

> <r_lp_Energy>
7.15539

> <b_lp_Chiralities_Consistent>
1

> <s_lp_Variant>
AV-unprocessed.smi:1928-1

> <Gold.Version>
5.8.1

> <Gold.Id.Protein>
6NUR|6NUR_protein|mol2

> <Gold.PLP.Fitness>
39.1966

> <Gold.PLP.PLP>
-30.8864

> <Gold.PLP.part.hbond>
-2.0000

> <Gold.PLP.part.metal>
0.0000

> <Gold.PLP.part.buried>
-3.0286

> <Gold.PLP.part.nonpolar>
-25.6143

> <Gold.PLP.part.repulsive>
0.1839

> <Gold.PLP.ligand.clash>
0.0000

> <Gold.PLP.ligand.torsion>
0.3466

> <Gold.PLP.Chemscore.Hbond>
2.0000

> <Gold.PLP.Chemscore.CHOScore>
1.0000

> <Gold.PLP.Chemscore.Metal>
0.0000

> <Gold.Chemscore.Hbonds>
donor molecule, donor type, donor heavy atom, donor atom, acceptor molecule, acceptor atom, score
      L1  H     8    22       P1  8028  1.00
      P1  H  7989  7998       L1     7  1.00
      L1  C    15    34       P1  7957  1.00

> <Gold.PLP.Chemscore.Internal.Correction>
0.0035

> <Gold.Rescore>
     Score         DG    S(hbond)    S(metal)    S(lipo)     H(rot)  DE(clash)    DE(int)     intcor
     17.38     -17.71       1.65        0.00      85.31       1.28       0.03       0.31       ----

> <Gold.Chemscore.Fitness>
17.3764

> <Gold.Chemscore.DG>
-17.7132

> <Gold.Chemscore.ZeroCoef>
-5.4800

> <Gold.Chemscore.Hbond>
1.6523

> <Gold.Chemscore.Metal>
0.0000

> <Gold.Chemscore.Lipo>
85.3098

> <Gold.Chemscore.Internal_Hbond>
0.0000

> <Gold.Chemscore.DEClash>
0.0262

> <Gold.Chemscore.DEInternal>
0.3106

> <Gold.Chemscore.Rot>
1.2761

> <Gold.Chemscore.Internal.Correction>
   9.000000E+99

> <Gold.Chemscore.Hbonds>
donor molecule, donor type, donor heavy atom, donor atom, acceptor molecule, acceptor atom, score
      L1  H     8    22       P1  8028  0.94
      P1  H  7989  7998       L1     7  0.42

> <Gold.Chemscore.Hbond.Weighted>
-5.5186

> <Gold.Chemscore.Metal.Weighted>
-0.0000

> <Gold.Chemscore.Lipo.Weighted>
-9.9812

> <Gold.Chemscore.Internal_Hbond.Weighted>
0.0000

> <Gold.Chemscore.DEClash.Weighted>
0.0262

> <Gold.Chemscore.DEInternal.Weighted>
0.3106

> <Gold.Chemscore.Rot.Weighted>
3.2667

> <Gold.Chemscore.Internal.Correction.Weighted>
   9.000000E+99

> <Gold.Protein.RotatedTorsions>
[ 6907 6896 6895 6894 ] final   98.61 input  -60.11 | X-H torsion
[ 7974 7965 7964 7962 ] final -119.90 input  175.53 | X-H torsion
[ 8008 7997 7996 7995 ] final -159.28 input   59.86 | X-H torsion
[ 10167 10162 10161 10158 ] final   85.35 input  -65.29 | X-H torsion
[ 10718 10713 10712 10709 ] final  -17.86 input   66.30 | X-H torsion
[ 10763 10752 10751 10750 ] final -116.59 input  -60.55 | X-H torsion
[ 11005 11000 10999 10996 ] final  124.44 input  -57.11 | X-H torsion

> <Gold.Protein.ActiveResidues>
 VAL166  LYS551  ARG553  GLY616  TRP617  ASP618  TYR619  PRO620  LYS621  CYS622 
 ASP623  PHE694  ASN695  SER759  ASP760  ASP761  ALA762  ILE779  LEU786  VAL792 
 PHE793  MET794  SER795  GLU796  ALA797  LYS798  CYS799  TRP800  GLU811  SER814 

> <Gold.Protein.RotatedAtoms>
  152.5406  134.0554  159.8128 H   0  0  0  0  0  0  0  0  0  0  0  0  # atno 6907 bound_to 6896
  151.0690  133.5474  159.2636 H   0  0  0  0  0  0  0  0  0  0  0  0  # atno 6908 bound_to 6896
  151.2344  135.0574  159.9054 H   0  0  0  0  0  0  0  0  0  0  0  0  # atno 6909 bound_to 6896
  145.0574  140.8264  143.4173 H   0  0  0  0  0  0  0  0  0  0  0  0  # atno 7974 bound_to 7965
  155.7602  140.0838  157.2159 H   0  0  0  0  0  0  0  0  0  0  0  0  # atno 8008 bound_to 7997
  154.4004  140.1544  156.2881 H   0  0  0  0  0  0  0  0  0  0  0  0  # atno 8009 bound_to 7997
  155.8846  140.3418  155.5915 H   0  0  0  0  0  0  0  0  0  0  0  0  # atno 8010 bound_to 7997
  139.8987  144.6342  150.8660 H   0  0  0  0  0  0  0  0  0  0  0  0  # atno 10167 bound_to 10162
  156.5676  130.4741  149.6377 H   0  0  0  0  0  0  0  0  0  0  0  0  # atno 10718 bound_to 10713
  154.8525  135.4340  154.1845 H   0  0  0  0  0  0  0  0  0  0  0  0  # atno 10763 bound_to 10752
  153.2927  135.6963  153.7283 H   0  0  0  0  0  0  0  0  0  0  0  0  # atno 10764 bound_to 10752
  153.6444  135.3462  155.3055 H   0  0  0  0  0  0  0  0  0  0  0  0  # atno 10765 bound_to 10752
  139.9359  134.9639  156.8409 H   0  0  0  0  0  0  0  0  0  0  0  0  # atno 11005 bound_to 11000
  145.1452  139.2548  143.5470 LP  0  0  0  0  0  0  0  0  0  0  0  0  # atno 17320 bound_to 7965
  146.3522  140.1139  142.8603 LP  0  0  0  0  0  0  0  0  0  0  0  0  # atno 17321 bound_to 7965
  140.7711  143.3453  151.2123 LP  0  0  0  0  0  0  0  0  0  0  0  0  # atno 17342 bound_to 10162
  139.7045  143.9479  152.2920 LP  0  0  0  0  0  0  0  0  0  0  0  0  # atno 17343 bound_to 10162
  156.2743  130.7034  151.1841 LP  0  0  0  0  0  0  0  0  0  0  0  0  # atno 17370 bound_to 10713
  157.7355  131.0571  150.5466 LP  0  0  0  0  0  0  0  0  0  0  0  0  # atno 17371 bound_to 10713
  140.6078  134.0111  155.7564 LP  0  0  0  0  0  0  0  0  0  0  0  0  # atno 17394 bound_to 11000
  141.0972  133.9825  157.3140 LP  0  0  0  0  0  0  0  0  0  0  0  0  # atno 17395 bound_to 11000

$$$$
