AV-unprocessed.smi:63|AV-procd|sdf|607|dock8
  -GOLD-   2262016503D 1   1.00000     0.00000
 Structure written by MMmdl.
 29 30  0  0  0  0  0  0  0  0  1 V2000
  151.9900  145.2744  159.4948 C   0  0  0  0  0  0  0  0  0  0  0  0
  151.8440  143.9318  158.8097 C   0  0  0  0  0  0  0  0  0  0  0  0
  152.4113  142.7725  159.3696 C   0  0  0  0  0  0  0  0  0  0  0  0
  152.2351  141.5667  158.6698 C   0  0  0  0  0  0  0  0  0  0  0  0
  151.5059  141.6015  157.4591 C   0  0  0  0  0  0  0  0  0  0  0  0
  151.3078  140.4181  156.7161 N   0  0  0  0  0  0  0  0  0  0  0  0
  152.2307  139.3168  156.9725 C   0  0  0  0  0  0  0  0  0  0  0  0
  152.4636  138.6291  155.6249 C   0  0  0  0  0  0  0  0  0  0  0  0
  151.2502  139.0378  154.7971 C   0  0  0  0  0  0  0  0  0  0  0  0
  150.9584  140.4566  155.2966 C   0  0  1  0  0  0  0  0  0  0  0  0
  149.5028  140.8989  155.0443 C   0  0  0  0  0  0  0  0  0  0  0  0
  149.2940  141.1180  153.6656 O   0  0  0  0  0  0  0  0  0  0  0  0
  150.9881  142.7639  156.9854 N   0  0  0  0  0  0  0  0  0  0  0  0
  151.1530  143.9137  157.6478 N   0  0  0  0  0  0  0  0  0  0  0  0
  151.7264  145.1928  160.5496 H   0  0  0  0  0  0  0  0  0  0  0  0
  151.3435  146.0266  159.0406 H   0  0  0  0  0  0  0  0  0  0  0  0
  153.0209  145.6220  159.4238 H   0  0  0  0  0  0  0  0  0  0  0  0
  152.9600  142.8051  160.2993 H   0  0  0  0  0  0  0  0  0  0  0  0
  152.6452  140.6464  159.0588 H   0  0  0  0  0  0  0  0  0  0  0  0
  153.1744  139.6525  157.4045 H   0  0  0  0  0  0  0  0  0  0  0  0
  151.7623  138.6282  157.6766 H   0  0  0  0  0  0  0  0  0  0  0  0
  153.3698  139.0240  155.1634 H   0  0  0  0  0  0  0  0  0  0  0  0
  152.5751  137.5482  155.7141 H   0  0  0  0  0  0  0  0  0  0  0  0
  151.4359  138.9962  153.7236 H   0  0  0  0  0  0  0  0  0  0  0  0
  150.4142  138.3734  155.0215 H   0  0  0  0  0  0  0  0  0  0  0  0
  151.6413  141.1465  154.7977 H   0  0  0  0  0  0  0  0  0  0  0  0
  148.8000  140.1447  155.3998 H   0  0  0  0  0  0  0  0  0  0  0  0
  149.2694  141.8244  155.5696 H   0  0  0  0  0  0  0  0  0  0  0  0
  149.5150  140.3261  153.1996 H   0  0  0  0  0  0  0  0  0  0  0  0
  1  2  1  0  0  0  0
  1 15  1  0  0  0  0
  1 16  1  0  0  0  0
  1 17  1  0  0  0  0
  2 14  1  0  0  0  0
  2  3  2  0  0  0  0
  3  4  1  0  0  0  0
  3 18  1  0  0  0  0
  4  5  2  0  0  0  0
  4 19  1  0  0  0  0
  5  6  1  0  0  0  0
  5 13  1  0  0  0  0
  6 10  1  0  0  0  0
  6  7  1  0  0  0  0
  7  8  1  0  0  0  0
  7 20  1  0  0  0  0
  7 21  1  0  0  0  0
  8  9  1  0  0  0  0
  8 22  1  0  0  0  0
  8 23  1  0  0  0  0
  9 10  1  0  0  0  0
  9 24  1  0  0  0  0
  9 25  1  0  0  0  0
 10 11  1  0  0  0  0
 10 26  1  0  0  0  0
 11 12  1  0  0  0  0
 11 27  1  0  0  0  0
 11 28  1  0  0  0  0
 12 29  1  0  0  0  0
 13 14  2  0  0  0  0
M  END
> <s_m_source_file>
AV-unprocessed.smi

> <i_m_source_file_index>
63

> <i_lp_mmshare_version>
43012

> <i_f3d_flags>
0

> <s_epik_input>
W0NIM11jMVtjSF1bY0hdYyhubjEpTjJbQ0gyXVtDSDJdW0NIMl1bQ0BIXTJbQ0gyXVtPSF0=

> <s_epik_cmdline>
J2VwaWtfcHl0aG9uJywgJy1waCcsICc3LjAnLCAnLXRuJywgJzgnLCAnLW1hJywgJzIwMCcsICctbWV0YWxfYmluZGluZycsICctaW1hZScsICc8aW5maWxlLm1hZT4nLCAnLW9tYWUnLCAnPG91dGZpbGUubWFlPic=

> <r_lp_tautomer_probability>
1

> <r_epik_Ionization_Penalty>
4.30639e-05

> <r_epik_Ionization_Penalty_Charging>
0

> <r_epik_Ionization_Penalty_Neutral>
4.30639e-05

> <r_epik_State_Penalty>
-0

> <r_epik_Charging_Adjusted_Penalty>
0

> <i_epik_Tot_Q>
0

> <i_epik_Tot_abs_Q>
0

> <r_epik_Metal_State_Penalty>
-0

> <b_epik_Metal_Only>
0

> <s_lp_Force_Field>
OPLS_2005

> <r_lp_Energy>
32.9321

> <b_lp_Chiralities_Consistent>
1

> <s_lp_Variant>
AV-unprocessed.smi:63-1

> <Gold.Version>
5.8.1

> <Gold.Id.Protein>
6NUR|6NUR_protein|mol2

> <Gold.PLP.Fitness>
35.5972

> <Gold.PLP.PLP>
-31.8367

> <Gold.PLP.part.hbond>
-3.0000

> <Gold.PLP.part.metal>
0.0000

> <Gold.PLP.part.buried>
-2.6784

> <Gold.PLP.part.nonpolar>
-26.9289

> <Gold.PLP.part.repulsive>
0.4042

> <Gold.PLP.ligand.clash>
0.0000

> <Gold.PLP.ligand.torsion>
0.6250

> <Gold.PLP.Chemscore.Hbond>
1.5520

> <Gold.PLP.Chemscore.CHOScore>
0.0000

> <Gold.PLP.Chemscore.Metal>
0.0000

> <Gold.Chemscore.Hbonds>
donor molecule, donor type, donor heavy atom, donor atom, acceptor molecule, acceptor atom, score
      L1  H    12    29       P1  7957  0.52
      P1  H  8011  8017       L1    12  0.93

> <Gold.PLP.Chemscore.Internal.Correction>
0.3545

> <Gold.Rescore>
     Score         DG    S(hbond)    S(metal)    S(lipo)     H(rot)  DE(clash)    DE(int)     intcor
     13.23     -14.47       1.23        0.00      79.27       1.71       0.68       0.57       ----

> <Gold.Chemscore.Fitness>
13.2268

> <Gold.Chemscore.DG>
-14.4733

> <Gold.Chemscore.ZeroCoef>
-5.4800

> <Gold.Chemscore.Hbond>
1.2294

> <Gold.Chemscore.Metal>
0.0000

> <Gold.Chemscore.Lipo>
79.2678

> <Gold.Chemscore.Internal_Hbond>
0.0000

> <Gold.Chemscore.DEClash>
0.6775

> <Gold.Chemscore.DEInternal>
0.5691

> <Gold.Chemscore.Rot>
1.7138

> <Gold.Chemscore.Internal.Correction>
   9.000000E+99

> <Gold.Chemscore.Hbonds>
donor molecule, donor type, donor heavy atom, donor atom, acceptor molecule, acceptor atom, score
      L1  H    12    29       P1  7957  0.50
      P1  H  8011  8017       L1    12  0.20

> <Gold.Chemscore.Hbond.Weighted>
-4.1062

> <Gold.Chemscore.Metal.Weighted>
-0.0000

> <Gold.Chemscore.Lipo.Weighted>
-9.2743

> <Gold.Chemscore.Internal_Hbond.Weighted>
0.0000

> <Gold.Chemscore.DEClash.Weighted>
0.6775

> <Gold.Chemscore.DEInternal.Weighted>
0.5691

> <Gold.Chemscore.Rot.Weighted>
4.3872

> <Gold.Chemscore.Internal.Correction.Weighted>
   9.000000E+99

> <Gold.Protein.RotatedTorsions>
[ 6907 6896 6895 6894 ] final   73.50 input  -60.11 | X-H torsion
[ 7974 7965 7964 7962 ] final  153.40 input  175.53 | X-H torsion
[ 8008 7997 7996 7995 ] final  -25.38 input   59.86 | X-H torsion
[ 10167 10162 10161 10158 ] final -136.11 input  -65.29 | X-H torsion
[ 10718 10713 10712 10709 ] final -106.22 input   66.30 | X-H torsion
[ 10763 10752 10751 10750 ] final -173.97 input  -60.55 | X-H torsion
[ 11005 11000 10999 10996 ] final -135.82 input  -57.11 | X-H torsion

> <Gold.Protein.ActiveResidues>
 VAL166  LYS551  ARG553  GLY616  TRP617  ASP618  TYR619  PRO620  LYS621  CYS622 
 ASP623  PHE694  ASN695  SER759  ASP760  ASP761  ALA762  ILE779  LEU786  VAL792 
 PHE793  MET794  SER795  GLU796  ALA797  LYS798  CYS799  TRP800  GLU811  SER814 

> <Gold.Protein.RotatedAtoms>
  152.4926  134.4412  159.9543 H   0  0  0  0  0  0  0  0  0  0  0  0  # atno 6907 bound_to 6896
  151.4396  133.3641  159.2788 H   0  0  0  0  0  0  0  0  0  0  0  0  # atno 6908 bound_to 6896
  150.9097  134.8536  159.7476 H   0  0  0  0  0  0  0  0  0  0  0  0  # atno 6909 bound_to 6896
  144.8157  139.6796  143.6122 H   0  0  0  0  0  0  0  0  0  0  0  0  # atno 7974 bound_to 7965
  154.4479  140.1928  156.0611 H   0  0  0  0  0  0  0  0  0  0  0  0  # atno 8008 bound_to 7997
  156.0582  140.3300  155.7403 H   0  0  0  0  0  0  0  0  0  0  0  0  # atno 8009 bound_to 7997
  155.5453  140.0590  157.2852 H   0  0  0  0  0  0  0  0  0  0  0  0  # atno 8010 bound_to 7997
  139.8711  143.6956  152.2639 H   0  0  0  0  0  0  0  0  0  0  0  0  # atno 10167 bound_to 10162
  156.0380  130.5602  150.7650 H   0  0  0  0  0  0  0  0  0  0  0  0  # atno 10718 bound_to 10713
  154.6016  135.2855  155.0529 H   0  0  0  0  0  0  0  0  0  0  0  0  # atno 10763 bound_to 10752
  154.1791  135.6459  153.5033 H   0  0  0  0  0  0  0  0  0  0  0  0  # atno 10764 bound_to 10752
  153.0159  135.5419  154.6738 H   0  0  0  0  0  0  0  0  0  0  0  0  # atno 10765 bound_to 10752
  140.8863  134.1869  157.4558 H   0  0  0  0  0  0  0  0  0  0  0  0  # atno 11005 bound_to 11000
  146.2460  139.6098  142.9459 LP  0  0  0  0  0  0  0  0  0  0  0  0  # atno 17320 bound_to 7965
  145.5220  141.0431  143.2430 LP  0  0  0  0  0  0  0  0  0  0  0  0  # atno 17321 bound_to 7965
  139.7283  144.7588  151.0843 LP  0  0  0  0  0  0  0  0  0  0  0  0  # atno 17342 bound_to 10162
  140.7760  143.5120  150.9641 LP  0  0  0  0  0  0  0  0  0  0  0  0  # atno 17343 bound_to 10162
  157.5160  131.0928  151.0139 LP  0  0  0  0  0  0  0  0  0  0  0  0  # atno 17370 bound_to 10713
  157.0482  130.5776  149.5366 LP  0  0  0  0  0  0  0  0  0  0  0  0  # atno 17371 bound_to 10713
  139.8724  134.9839  156.5217 LP  0  0  0  0  0  0  0  0  0  0  0  0  # atno 17394 bound_to 11000
  140.8401  133.8211  155.9067 LP  0  0  0  0  0  0  0  0  0  0  0  0  # atno 17395 bound_to 11000

$$$$
