AV-unprocessed.smi:690|AV-procd|sdf|3363|dock2
  -GOLD-   22720 0343D 1   1.00000     0.00000
 Structure written by MMmdl.
 46 48  0  0  0  0  0  0  0  0  1 V2000
  147.0350  140.2282  152.9304 C   0  0  0  0  0  0  0  0  0  0  0  0
  147.9775  141.0321  153.8281 C   0  0  0  0  0  0  0  0  0  0  0  0
  149.0899  140.2220  154.1680 O   0  0  0  0  0  0  0  0  0  0  0  0
  149.7519  140.6624  155.3432 C   0  0  1  0  0  0  0  0  0  0  0  0
  148.9000  140.6113  156.6156 C   0  0  0  0  0  0  0  0  0  0  0  0
  150.1452  140.0921  157.3438 C   0  0  2  0  0  0  0  0  0  0  0  0
  150.9246  141.1980  157.8978 N   0  0  0  0  0  0  0  0  0  0  0  0
  152.1963  141.1167  158.3210 C   0  0  0  0  0  0  0  0  0  0  0  0
  152.8359  140.0660  158.3087 O   0  0  0  0  0  0  0  0  0  0  0  0
  152.8787  142.4027  158.8188 C   0  0  0  0  0  0  0  0  0  0  0  0
  153.0260  142.4956  160.2827 N   0  0  0  0  0  0  0  0  0  0  0  0
  152.3337  143.5412  160.9257 C   0  0  0  0  0  0  0  0  0  0  0  0
  152.3816  143.7125  162.2560 C   0  0  0  0  0  0  0  0  0  0  0  0
  153.1731  142.7895  163.0343 C   0  0  0  0  0  0  0  0  0  0  0  0
  153.8358  141.7831  162.4302 C   0  0  0  0  0  0  0  0  0  0  0  0
  153.7801  141.5879  160.9768 C   0  0  0  0  0  0  0  0  0  0  0  0
  154.3674  140.6609  160.4192 O   0  0  0  0  0  0  0  0  0  0  0  0
  150.6803  139.5961  155.9746 C   0  0  0  0  0  0  0  0  0  0  0  0
  152.1713  139.6945  155.6581 C   0  0  0  0  0  0  0  0  0  0  0  0
  152.4230  138.8131  154.4335 C   0  0  0  0  0  0  0  0  0  0  0  0
  151.3044  137.7666  154.4420 C   0  0  0  0  0  0  0  0  0  0  0  0
  150.3987  138.1332  155.6223 C   0  0  0  0  0  0  0  0  0  0  0  0
  146.1683  140.8237  152.6430 H   0  0  0  0  0  0  0  0  0  0  0  0
  146.6735  139.3362  153.4427 H   0  0  0  0  0  0  0  0  0  0  0  0
  147.5403  139.9100  152.0184 H   0  0  0  0  0  0  0  0  0  0  0  0
  148.3134  141.9298  153.3066 H   0  0  0  0  0  0  0  0  0  0  0  0
  147.4500  141.3504  154.7284 H   0  0  0  0  0  0  0  0  0  0  0  0
  150.2569  141.6226  155.2141 H   0  0  0  0  0  0  0  0  0  0  0  0
  148.5269  141.5782  156.9551 H   0  0  0  0  0  0  0  0  0  0  0  0
  148.1017  139.8691  156.5638 H   0  0  0  0  0  0  0  0  0  0  0  0
  149.9227  139.2943  158.0543 H   0  0  0  0  0  0  0  0  0  0  0  0
  150.4690  142.0978  157.9411 H   0  0  0  0  0  0  0  0  0  0  0  0
  153.8482  142.4925  158.3259 H   0  0  0  0  0  0  0  0  0  0  0  0
  152.3009  143.2531  158.4537 H   0  0  0  0  0  0  0  0  0  0  0  0
  151.7601  144.1822  160.2716 H   0  0  0  0  0  0  0  0  0  0  0  0
  151.8400  144.5170  162.7318 H   0  0  0  0  0  0  0  0  0  0  0  0
  153.2340  142.9064  164.1063 H   0  0  0  0  0  0  0  0  0  0  0  0
  154.4225  141.1022  163.0293 H   0  0  0  0  0  0  0  0  0  0  0  0
  152.4973  140.7203  155.4823 H   0  0  0  0  0  0  0  0  0  0  0  0
  152.7553  139.3167  156.4985 H   0  0  0  0  0  0  0  0  0  0  0  0
  152.3578  139.4122  153.5244 H   0  0  0  0  0  0  0  0  0  0  0  0
  153.4144  138.3601  154.4595 H   0  0  0  0  0  0  0  0  0  0  0  0
  150.7473  137.8098  153.5055 H   0  0  0  0  0  0  0  0  0  0  0  0
  151.6953  136.7537  154.5445 H   0  0  0  0  0  0  0  0  0  0  0  0
  150.6458  137.4958  156.4723 H   0  0  0  0  0  0  0  0  0  0  0  0
  149.3497  137.9456  155.3912 H   0  0  0  0  0  0  0  0  0  0  0  0
  1  2  1  0  0  0  0
  1 23  1  0  0  0  0
  1 24  1  0  0  0  0
  1 25  1  0  0  0  0
  2  3  1  0  0  0  0
  2 26  1  0  0  0  0
  2 27  1  0  0  0  0
  3  4  1  0  0  0  0
  4 18  1  0  0  0  0
  4  5  1  0  0  0  0
  4 28  1  0  0  0  0
  5  6  1  0  0  0  0
  5 29  1  0  0  0  0
  5 30  1  0  0  0  0
  6  7  1  0  0  0  0
  6 18  1  0  0  0  0
  6 31  1  0  0  0  0
  7  8  1  0  0  0  0
  7 32  1  0  0  0  0
  8  9  2  0  0  0  0
  8 10  1  0  0  0  0
 10 11  1  0  0  0  0
 10 33  1  0  0  0  0
 10 34  1  0  0  0  0
 11 16  1  0  0  0  0
 11 12  1  0  0  0  0
 12 13  2  0  0  0  0
 12 35  1  0  0  0  0
 13 14  1  0  0  0  0
 13 36  1  0  0  0  0
 14 15  2  0  0  0  0
 14 37  1  0  0  0  0
 15 16  1  0  0  0  0
 15 38  1  0  0  0  0
 16 17  2  0  0  0  0
 18 22  1  0  0  0  0
 18 19  1  0  0  0  0
 19 20  1  0  0  0  0
 19 39  1  0  0  0  0
 19 40  1  0  0  0  0
 20 21  1  0  0  0  0
 20 41  1  0  0  0  0
 20 42  1  0  0  0  0
 21 22  1  0  0  0  0
 21 43  1  0  0  0  0
 21 44  1  0  0  0  0
 22 45  1  0  0  0  0
 22 46  1  0  0  0  0
M  END
> <s_m_source_file>
AV-unprocessed.smi

> <i_m_source_file_index>
690

> <i_lp_mmshare_version>
43012

> <i_f3d_flags>
0

> <s_epik_input>
W0NIMl0xW0NIMl1bQ0gyXVtDSDJdQzEyW0NASF0oT1tDSDJdW0NIM10pW0NIMl1bQ0BIXTJbTkhdQyg9TylbQ0gyXW4zW2NIXVtjSF1bY0hdW2NIXWMzPU8=

> <s_epik_cmdline>
J2VwaWtfcHl0aG9uJywgJy1waCcsICc3LjAnLCAnLXRuJywgJzgnLCAnLW1hJywgJzIwMCcsICctbWV0YWxfYmluZGluZycsICctaW1hZScsICc8aW5maWxlLm1hZT4nLCAnLW9tYWUnLCAnPG91dGZpbGUubWFlPic=

> <r_lp_tautomer_probability>
1

> <r_epik_Ionization_Penalty>
4.11691e-07

> <r_epik_Ionization_Penalty_Charging>
3.92797e-07

> <r_epik_Ionization_Penalty_Neutral>
1.88943e-08

> <r_epik_State_Penalty>
-0

> <r_epik_Charging_Adjusted_Penalty>
3.92797e-07

> <i_epik_Tot_Q>
0

> <i_epik_Tot_abs_Q>
0

> <r_epik_Metal_State_Penalty>
-0

> <b_epik_Metal_Only>
0

> <s_lp_Force_Field>
OPLS_2005

> <r_lp_Energy>
47.2811

> <b_lp_Chiralities_Consistent>
1

> <s_lp_Variant>
AV-unprocessed.smi:690-4

> <Gold.Version>
5.8.1

> <Gold.Id.Protein>
6NUR|6NUR_protein|mol2

> <Gold.PLP.Fitness>
49.3884

> <Gold.PLP.PLP>
-47.8733

> <Gold.PLP.part.hbond>
-0.8977

> <Gold.PLP.part.metal>
0.0000

> <Gold.PLP.part.buried>
-3.1653

> <Gold.PLP.part.nonpolar>
-42.2259

> <Gold.PLP.part.repulsive>
0.7658

> <Gold.PLP.ligand.clash>
0.0000

> <Gold.PLP.ligand.torsion>
0.5134

> <Gold.PLP.Chemscore.Hbond>
0.7313

> <Gold.PLP.Chemscore.CHOScore>
0.0000

> <Gold.PLP.Chemscore.Metal>
0.0000

> <Gold.Chemscore.Hbonds>
donor molecule, donor type, donor heavy atom, donor atom, acceptor molecule, acceptor atom, score
      P1  H  7997  8008       L1     9  0.63

> <Gold.PLP.Chemscore.Internal.Correction>
0.3481

> <Gold.Rescore>
     Score         DG    S(hbond)    S(metal)    S(lipo)     H(rot)  DE(clash)    DE(int)     intcor
     12.16     -17.08       0.68        0.00     116.62       1.69       0.42       4.50       ----

> <Gold.Chemscore.Fitness>
12.1583

> <Gold.Chemscore.DG>
-17.0779

> <Gold.Chemscore.ZeroCoef>
-5.4800

> <Gold.Chemscore.Hbond>
0.6825

> <Gold.Chemscore.Metal>
0.0000

> <Gold.Chemscore.Lipo>
116.6231

> <Gold.Chemscore.Internal_Hbond>
0.0000

> <Gold.Chemscore.DEClash>
0.4165

> <Gold.Chemscore.DEInternal>
4.5031

> <Gold.Chemscore.Rot>
1.6900

> <Gold.Chemscore.Internal.Correction>
   9.000000E+99

> <Gold.Chemscore.Hbonds>
donor molecule, donor type, donor heavy atom, donor atom, acceptor molecule, acceptor atom, score
      P1  H  7997  8008       L1     9  0.55

> <Gold.Chemscore.Hbond.Weighted>
-2.2795

> <Gold.Chemscore.Metal.Weighted>
-0.0000

> <Gold.Chemscore.Lipo.Weighted>
-13.6449

> <Gold.Chemscore.Internal_Hbond.Weighted>
0.0000

> <Gold.Chemscore.DEClash.Weighted>
0.4165

> <Gold.Chemscore.DEInternal.Weighted>
4.5031

> <Gold.Chemscore.Rot.Weighted>
4.3265

> <Gold.Chemscore.Internal.Correction.Weighted>
   9.000000E+99

> <Gold.Protein.RotatedTorsions>
[ 6907 6896 6895 6894 ] final -109.44 input  -60.11 | X-H torsion
[ 7974 7965 7964 7962 ] final  132.08 input  175.53 | X-H torsion
[ 8008 7997 7996 7995 ] final  -88.62 input   59.86 | X-H torsion
[ 10167 10162 10161 10158 ] final  -32.47 input  -65.29 | X-H torsion
[ 10718 10713 10712 10709 ] final  158.07 input   66.30 | X-H torsion
[ 10763 10752 10751 10750 ] final  173.63 input  -60.55 | X-H torsion
[ 11005 11000 10999 10996 ] final    8.89 input  -57.11 | X-H torsion

> <Gold.Protein.ActiveResidues>
 VAL166  LYS551  ARG553  GLY616  TRP617  ASP618  TYR619  PRO620  LYS621  CYS622 
 ASP623  PHE694  ASN695  SER759  ASP760  ASP761  ALA762  ILE779  LEU786  VAL792 
 PHE793  MET794  SER795  GLU796  ALA797  LYS798  CYS799  TRP800  GLU811  SER814 

> <Gold.Protein.RotatedAtoms>
  150.7562  133.9529  159.3490 H   0  0  0  0  0  0  0  0  0  0  0  0  # atno 6907 bound_to 6896
  151.7447  135.0844  160.0331 H   0  0  0  0  0  0  0  0  0  0  0  0  # atno 6908 bound_to 6896
  152.3505  133.6137  159.5977 H   0  0  0  0  0  0  0  0  0  0  0  0  # atno 6909 bound_to 6896
  145.0006  139.4316  143.5294 H   0  0  0  0  0  0  0  0  0  0  0  0  # atno 7974 bound_to 7965
  154.6770  140.0551  157.0226 H   0  0  0  0  0  0  0  0  0  0  0  0  # atno 8008 bound_to 7997
  155.1006  140.3228  155.4529 H   0  0  0  0  0  0  0  0  0  0  0  0  # atno 8009 bound_to 7997
  156.2679  140.2032  156.6132 H   0  0  0  0  0  0  0  0  0  0  0  0  # atno 8010 bound_to 7997
  140.7221  143.3692  151.1810 H   0  0  0  0  0  0  0  0  0  0  0  0  # atno 10167 bound_to 10162
  157.1829  131.0636  151.2122 H   0  0  0  0  0  0  0  0  0  0  0  0  # atno 10718 bound_to 10713
  154.4427  135.2762  155.1836 H   0  0  0  0  0  0  0  0  0  0  0  0  # atno 10763 bound_to 10752
  154.3696  135.6111  153.5736 H   0  0  0  0  0  0  0  0  0  0  0  0  # atno 10764 bound_to 10752
  152.9842  135.5854  154.4758 H   0  0  0  0  0  0  0  0  0  0  0  0  # atno 10765 bound_to 10752
  140.5319  134.0458  155.7876 H   0  0  0  0  0  0  0  0  0  0  0  0  # atno 11005 bound_to 11000
  146.3451  139.9392  142.8743 LP  0  0  0  0  0  0  0  0  0  0  0  0  # atno 17320 bound_to 7965
  145.2158  140.9915  143.4074 LP  0  0  0  0  0  0  0  0  0  0  0  0  # atno 17321 bound_to 7965
  139.7260  143.9147  152.3003 LP  0  0  0  0  0  0  0  0  0  0  0  0  # atno 17342 bound_to 10162
  139.8920  144.6960  150.8760 LP  0  0  0  0  0  0  0  0  0  0  0  0  # atno 17343 bound_to 10162
  157.3935  130.7295  149.6715 LP  0  0  0  0  0  0  0  0  0  0  0  0  # atno 17370 bound_to 10713
  155.9722  130.4140  150.4109 LP  0  0  0  0  0  0  0  0  0  0  0  0  # atno 17371 bound_to 10713
  141.1277  133.9356  157.2602 LP  0  0  0  0  0  0  0  0  0  0  0  0  # atno 17394 bound_to 11000
  139.9550  135.0167  156.9102 LP  0  0  0  0  0  0  0  0  0  0  0  0  # atno 17395 bound_to 11000

$$$$
