AV-unprocessed.smi:672|AV-procd|sdf|3294|dock9
  -GOLD-   22720 0253D 1   1.00000     0.00000
 Structure written by MMmdl.
 35 36  0  0  0  0  0  0  0  0  2 V2000
  145.4690  134.8836  162.6510 C   0  0  0  0  0  0  0  0  0  0  0  0
  146.7959  135.6268  162.8394 C   0  0  0  0  0  0  0  0  0  0  0  0
  147.4724  135.9284  161.5440 C   0  0  0  0  0  0  0  0  0  0  0  0
  147.7332  137.1729  161.1349 N   0  0  0  0  0  0  0  0  0  0  0  0
  148.3405  137.1966  159.8879 N   0  0  0  0  0  0  0  0  0  0  0  0
  148.5069  135.9754  159.3604 C   0  0  0  0  0  0  0  0  0  0  0  0
  149.0745  135.7810  158.1587 N   0  5  0  0  0  0  0  0  0  0  0  0
  150.1380  136.5285  157.7852 C   0  0  0  0  0  0  0  0  0  0  0  0
  151.1034  136.8293  158.4915 O   0  0  0  0  0  0  0  0  0  0  0  0
  150.0811  136.9532  156.5147 N   0  0  0  0  0  0  0  0  0  0  0  0
  151.0836  137.7764  155.8416 C   0  0  1  0  0  0  0  0  0  0  0  0
  150.6405  138.1593  154.4147 C   0  0  0  0  0  0  0  0  0  0  0  0
  150.3652  139.6633  154.4447 C   0  0  0  0  0  0  0  0  0  0  0  0
  151.3140  140.1950  155.5174 C   0  0  1  0  0  0  0  0  0  0  0  0
  150.8275  141.8212  156.1643 S   0  0  0  0  0  0  0  0  0  0  0  0
  151.6299  141.7759  157.7886 C   0  0  0  0  0  0  0  0  0  0  0  0
  151.2972  139.1045  156.5919 C   0  0  0  0  0  0  0  0  0  0  0  0
  147.9313  134.6750  160.4033 S   0  0  0  0  0  0  0  0  0  0  0  0
  145.0004  134.6753  163.6128 H   0  0  0  0  0  0  0  0  0  0  0  0
  145.6206  133.9321  162.1406 H   0  0  0  0  0  0  0  0  0  0  0  0
  144.7687  135.4738  162.0590 H   0  0  0  0  0  0  0  0  0  0  0  0
  146.6264  136.5613  163.3755 H   0  0  0  0  0  0  0  0  0  0  0  0
  147.4710  135.0320  163.4554 H   0  0  0  0  0  0  0  0  0  0  0  0
  149.2745  136.6816  155.9719 H   0  0  0  0  0  0  0  0  0  0  0  0
  152.0305  137.2350  155.7944 H   0  0  0  0  0  0  0  0  0  0  0  0
  151.4562  137.9552  153.7201 H   0  0  0  0  0  0  0  0  0  0  0  0
  149.7747  137.5969  154.0625 H   0  0  0  0  0  0  0  0  0  0  0  0
  150.5192  140.1317  153.4724 H   0  0  0  0  0  0  0  0  0  0  0  0
  149.3299  139.8383  154.7410 H   0  0  0  0  0  0  0  0  0  0  0  0
  152.3215  140.2654  155.1046 H   0  0  0  0  0  0  0  0  0  0  0  0
  151.4045  142.6870  158.3426 H   0  0  0  0  0  0  0  0  0  0  0  0
  152.7117  141.6974  157.6816 H   0  0  0  0  0  0  0  0  0  0  0  0
  151.2727  140.9234  158.3662 H   0  0  0  0  0  0  0  0  0  0  0  0
  150.4702  139.2867  157.2807 H   0  0  0  0  0  0  0  0  0  0  0  0
  152.2127  139.0997  157.1844 H   0  0  0  0  0  0  0  0  0  0  0  0
  1  2  1  0  0  0  0
  1 19  1  0  0  0  0
  1 20  1  0  0  0  0
  1 21  1  0  0  0  0
  2  3  1  0  0  0  0
  2 22  1  0  0  0  0
  2 23  1  0  0  0  0
  3 18  1  0  0  0  0
  3  4  2  0  0  0  0
  4  5  1  0  0  0  0
  5  6  2  0  0  0  0
  6  7  1  0  0  0  0
  6 18  1  0  0  0  0
  7  8  1  0  0  0  0
  8  9  2  0  0  0  0
  8 10  1  0  0  0  0
 10 11  1  0  0  0  0
 10 24  1  0  0  0  0
 11 17  1  0  0  0  0
 11 12  1  0  0  0  0
 11 25  1  0  0  0  0
 12 13  1  0  0  0  0
 12 26  1  0  0  0  0
 12 27  1  0  0  0  0
 13 14  1  0  0  0  0
 13 28  1  0  0  0  0
 13 29  1  0  0  0  0
 14 15  1  0  0  0  0
 14 17  1  0  0  0  0
 14 30  1  0  0  0  0
 15 16  1  0  0  0  0
 16 31  1  0  0  0  0
 16 32  1  0  0  0  0
 16 33  1  0  0  0  0
 17 34  1  0  0  0  0
 17 35  1  0  0  0  0
M  CHG  1   7  -1
M  END
> <s_m_source_file>
AV-unprocessed.smi

> <i_m_source_file_index>
672

> <i_lp_mmshare_version>
43012

> <i_f3d_flags>
0

> <s_epik_input>
W0NIM11bQ0gyXWMxbm5jKHMxKVtOSF1DKD1PKVtOSF1bQ0BASF0yW0NIMl1bQ0gyXVtDQEhdKFtDSDJdMilTW0NIM10=

> <s_epik_cmdline>
J2VwaWtfcHl0aG9uJywgJy1waCcsICc3LjAnLCAnLXRuJywgJzgnLCAnLW1hJywgJzIwMCcsICctbWV0YWxfYmluZGluZycsICctaW1hZScsICc8aW5maWxlLm1hZT4nLCAnLW9tYWUnLCAnPG91dGZpbGUubWFlPic=

> <r_lp_tautomer_probability>
1

> <r_epik_Ionization_Penalty>
4.49964

> <r_epik_Ionization_Penalty_Charging>
4.32991

> <r_epik_Ionization_Penalty_Neutral>
0.169727

> <r_epik_State_Penalty>
4.32952

> <r_epik_Charging_Adjusted_Penalty>
8.65943

> <i_epik_Tot_Q>
-1

> <i_epik_Tot_abs_Q>
1

> <r_epik_Metal_State_Penalty>
0.740482

> <b_epik_Metal_Only>
1

> <s_lp_Force_Field>
OPLS_2005

> <r_lp_Energy>
10.5366

> <b_lp_Chiralities_Consistent>
1

> <s_lp_Variant>
AV-unprocessed.smi:672-6

> <Gold.Version>
5.8.1

> <Gold.Id.Protein>
6NUR|6NUR_protein|mol2

> <Gold.PLP.Fitness>
35.1849

> <Gold.PLP.PLP>
-32.1523

> <Gold.PLP.part.hbond>
-4.3476

> <Gold.PLP.part.metal>
0.0000

> <Gold.PLP.part.buried>
-1.8227

> <Gold.PLP.part.nonpolar>
-25.7528

> <Gold.PLP.part.repulsive>
0.0318

> <Gold.PLP.ligand.clash>
0.0000

> <Gold.PLP.ligand.torsion>
0.9056

> <Gold.PLP.Chemscore.Hbond>
1.6062

> <Gold.PLP.Chemscore.CHOScore>
0.0000

> <Gold.PLP.Chemscore.Metal>
0.0000

> <Gold.Chemscore.Hbonds>
donor molecule, donor type, donor heavy atom, donor atom, acceptor molecule, acceptor atom, score
      P1  H  6896  6909       L1     9  0.48
      P1  H  6931  6943       L1     4  0.61
      P1  H  6934  6947       L1     4  0.47

> <Gold.PLP.Chemscore.Internal.Correction>
0.0253

> <Gold.Rescore>
     Score         DG    S(hbond)    S(metal)    S(lipo)     H(rot)  DE(clash)    DE(int)     intcor
     12.02     -13.65       0.91        0.00      73.08       1.34       0.01       1.62       ----

> <Gold.Chemscore.Fitness>
12.0190

> <Gold.Chemscore.DG>
-13.6473

> <Gold.Chemscore.ZeroCoef>
-5.4800

> <Gold.Chemscore.Hbond>
0.9133

> <Gold.Chemscore.Metal>
0.0000

> <Gold.Chemscore.Lipo>
73.0750

> <Gold.Chemscore.Internal_Hbond>
0.0000

> <Gold.Chemscore.DEClash>
0.0067

> <Gold.Chemscore.DEInternal>
1.6217

> <Gold.Chemscore.Rot>
1.3410

> <Gold.Chemscore.Internal.Correction>
   9.000000E+99

> <Gold.Chemscore.Hbonds>
donor molecule, donor type, donor heavy atom, donor atom, acceptor molecule, acceptor atom, score
      P1  H  6896  6909       L1     9  0.12
      P1  H  6931  6943       L1     4  0.05
      P1  H  6934  6947       L1     4  0.03

> <Gold.Chemscore.Hbond.Weighted>
-3.0505

> <Gold.Chemscore.Metal.Weighted>
-0.0000

> <Gold.Chemscore.Lipo.Weighted>
-8.5498

> <Gold.Chemscore.Internal_Hbond.Weighted>
0.0000

> <Gold.Chemscore.DEClash.Weighted>
0.0067

> <Gold.Chemscore.DEInternal.Weighted>
1.6217

> <Gold.Chemscore.Rot.Weighted>
3.4329

> <Gold.Chemscore.Internal.Correction.Weighted>
   9.000000E+99

> <Gold.Protein.RotatedTorsions>
[ 6907 6896 6895 6894 ] final   93.24 input  -60.11 | X-H torsion
[ 7974 7965 7964 7962 ] final -121.10 input  175.53 | X-H torsion
[ 8008 7997 7996 7995 ] final -134.77 input   59.86 | X-H torsion
[ 10167 10162 10161 10158 ] final  121.54 input  -65.29 | X-H torsion
[ 10718 10713 10712 10709 ] final    9.23 input   66.30 | X-H torsion
[ 10763 10752 10751 10750 ] final -173.09 input  -60.55 | X-H torsion
[ 11005 11000 10999 10996 ] final -112.63 input  -57.11 | X-H torsion

> <Gold.Protein.ActiveResidues>
 VAL166  LYS551  ARG553  GLY616  TRP617  ASP618  TYR619  PRO620  LYS621  CYS622 
 ASP623  PHE694  ASN695  SER759  ASP760  ASP761  ALA762  ILE779  LEU786  VAL792 
 PHE793  MET794  SER795  GLU796  ALA797  LYS798  CYS799  TRP800  GLU811  SER814 

> <Gold.Protein.RotatedAtoms>
  152.5452  134.1379  159.8466 H   0  0  0  0  0  0  0  0  0  0  0  0  # atno 6907 bound_to 6896
  151.1418  133.4959  159.2604 H   0  0  0  0  0  0  0  0  0  0  0  0  # atno 6908 bound_to 6896
  151.1565  135.0263  159.8746 H   0  0  0  0  0  0  0  0  0  0  0  0  # atno 6909 bound_to 6896
  145.0441  140.8167  143.4249 H   0  0  0  0  0  0  0  0  0  0  0  0  # atno 7974 bound_to 7965
  155.3677  140.0486  157.3046 H   0  0  0  0  0  0  0  0  0  0  0  0  # atno 8008 bound_to 7997
  154.5146  140.2203  155.9054 H   0  0  0  0  0  0  0  0  0  0  0  0  # atno 8009 bound_to 7997
  156.1621  140.3114  155.8832 H   0  0  0  0  0  0  0  0  0  0  0  0  # atno 8010 bound_to 7997
  139.5913  144.7026  151.3283 H   0  0  0  0  0  0  0  0  0  0  0  0  # atno 10167 bound_to 10162
  156.9633  130.5941  149.5663 H   0  0  0  0  0  0  0  0  0  0  0  0  # atno 10718 bound_to 10713
  154.6118  135.2865  155.0424 H   0  0  0  0  0  0  0  0  0  0  0  0  # atno 10763 bound_to 10752
  154.1651  135.6482  153.4999 H   0  0  0  0  0  0  0  0  0  0  0  0  # atno 10764 bound_to 10752
  153.0198  135.5387  154.6875 H   0  0  0  0  0  0  0  0  0  0  0  0  # atno 10765 bound_to 10752
  141.0663  133.9453  157.2572 H   0  0  0  0  0  0  0  0  0  0  0  0  # atno 11005 bound_to 11000
  145.1611  139.2458  143.5391 LP  0  0  0  0  0  0  0  0  0  0  0  0  # atno 17320 bound_to 7965
  146.3512  140.1338  142.8596 LP  0  0  0  0  0  0  0  0  0  0  0  0  # atno 17321 bound_to 7965
  140.7175  143.7226  150.7684 LP  0  0  0  0  0  0  0  0  0  0  0  0  # atno 17342 bound_to 10162
  140.0782  143.4994  152.2544 LP  0  0  0  0  0  0  0  0  0  0  0  0  # atno 17343 bound_to 10162
  156.0313  130.5404  150.8541 LP  0  0  0  0  0  0  0  0  0  0  0  0  # atno 17370 bound_to 10713
  157.5643  131.0946  150.9513 LP  0  0  0  0  0  0  0  0  0  0  0  0  # atno 17371 bound_to 10713
  139.9480  135.0180  156.8909 LP  0  0  0  0  0  0  0  0  0  0  0  0  # atno 17394 bound_to 11000
  140.5766  134.0392  155.7449 LP  0  0  0  0  0  0  0  0  0  0  0  0  # atno 17395 bound_to 11000

$$$$
