AV-unprocessed.smi:1366|AV-procd|sdf|5570|dock3
  -GOLD-   22720 5163D 1   1.00000     0.00000
 Structure written by MMmdl.
 31 32  0  0  0  0  0  0  0  0  1 V2000
  150.0555  134.8416  154.8692 N   0  0  0  0  0  0  0  0  0  0  0  0
  150.3446  135.9405  155.0873 C   0  0  0  0  0  0  0  0  0  0  0  0
  150.7082  137.3238  155.3617 C   0  0  0  0  0  0  0  0  0  0  0  0
  151.3025  137.6761  156.5936 C   0  0  0  0  0  0  0  0  0  0  0  0
  151.6505  138.9491  156.8816 N   0  0  0  0  0  0  0  0  0  0  0  0
  151.4035  139.8554  155.9346 C   0  0  0  0  0  0  0  0  0  0  0  0
  151.8508  141.5285  156.3135 S   0  0  0  0  0  0  0  0  0  0  0  0
  150.7727  141.7976  157.7466 C   0  0  0  0  0  0  0  0  0  0  0  0
  150.7763  143.2647  158.1962 C   0  0  2  0  0  0  0  0  0  0  0  0
  152.2069  143.8098  158.3721 C   0  0  0  0  0  0  0  0  0  0  0  0
  152.1743  145.2485  158.9005 C   0  0  0  0  0  0  0  0  0  0  0  0
  151.3153  145.3140  160.1678 C   0  0  0  0  0  0  0  0  0  0  0  0
  149.9340  144.6923  159.9088 C   0  0  0  0  0  0  0  0  0  0  0  0
  150.0853  143.3557  159.4409 O   0  0  0  0  0  0  0  0  0  0  0  0
  150.8507  139.6522  154.7374 N   0  0  0  0  0  0  0  0  0  0  0  0
  150.4976  138.3824  154.4410 C   0  0  0  0  0  0  0  0  0  0  0  0
  149.9173  138.1826  153.1870 N   0  0  0  0  0  0  0  0  0  0  0  0
  151.5008  136.9365  157.3559 H   0  0  0  0  0  0  0  0  0  0  0  0
  149.7603  141.4810  157.4928 H   0  0  0  0  0  0  0  0  0  0  0  0
  151.1154  141.1551  158.5581 H   0  0  0  0  0  0  0  0  0  0  0  0
  150.2508  143.8622  157.4488 H   0  0  0  0  0  0  0  0  0  0  0  0
  152.7584  143.1785  159.0703 H   0  0  0  0  0  0  0  0  0  0  0  0
  152.7462  143.7737  157.4252 H   0  0  0  0  0  0  0  0  0  0  0  0
  153.1852  145.6016  159.1066 H   0  0  0  0  0  0  0  0  0  0  0  0
  151.7585  145.9107  158.1401 H   0  0  0  0  0  0  0  0  0  0  0  0
  151.8112  144.7742  160.9757 H   0  0  0  0  0  0  0  0  0  0  0  0
  151.2092  146.3469  160.4998 H   0  0  0  0  0  0  0  0  0  0  0  0
  149.3505  144.6789  160.8293 H   0  0  0  0  0  0  0  0  0  0  0  0
  149.3706  145.2814  159.1836 H   0  0  0  0  0  0  0  0  0  0  0  0
  149.6204  137.2674  152.8801 H   0  0  0  0  0  0  0  0  0  0  0  0
  149.7712  138.9512  152.5482 H   0  0  0  0  0  0  0  0  0  0  0  0
  1  2  3  0  0  0  0
  2  3  1  0  0  0  0
  3 16  1  0  0  0  0
  3  4  2  0  0  0  0
  4  5  1  0  0  0  0
  4 18  1  0  0  0  0
  5  6  2  0  0  0  0
  6  7  1  0  0  0  0
  6 15  1  0  0  0  0
  7  8  1  0  0  0  0
  8  9  1  0  0  0  0
  8 19  1  0  0  0  0
  8 20  1  0  0  0  0
  9 14  1  0  0  0  0
  9 10  1  0  0  0  0
  9 21  1  0  0  0  0
 10 11  1  0  0  0  0
 10 22  1  0  0  0  0
 10 23  1  0  0  0  0
 11 12  1  0  0  0  0
 11 24  1  0  0  0  0
 11 25  1  0  0  0  0
 12 13  1  0  0  0  0
 12 26  1  0  0  0  0
 12 27  1  0  0  0  0
 13 14  1  0  0  0  0
 13 28  1  0  0  0  0
 13 29  1  0  0  0  0
 15 16  2  0  0  0  0
 16 17  1  0  0  0  0
 17 30  1  0  0  0  0
 17 31  1  0  0  0  0
M  END
> <s_m_source_file>
AV-unprocessed.smi

> <i_m_source_file_index>
1366

> <i_lp_mmshare_version>
43012

> <i_f3d_flags>
0

> <s_epik_input>
TiNDYzFbY0hdbmMobmMxW05IMl0pU1tDSDJdW0NAQEhdMltDSDJdW0NIMl1bQ0gyXVtDSDJdTzI=

> <s_epik_cmdline>
J2VwaWtfcHl0aG9uJywgJy1waCcsICc3LjAnLCAnLXRuJywgJzgnLCAnLW1hJywgJzIwMCcsICctbWV0YWxfYmluZGluZycsICctaW1hZScsICc8aW5maWxlLm1hZT4nLCAnLW9tYWUnLCAnPG91dGZpbGUubWFlPic=

> <r_lp_tautomer_probability>
1

> <r_epik_Ionization_Penalty>
5.69531e-05

> <r_epik_Ionization_Penalty_Charging>
0

> <r_epik_Ionization_Penalty_Neutral>
5.69531e-05

> <r_epik_State_Penalty>
-0

> <r_epik_Charging_Adjusted_Penalty>
0

> <i_epik_Tot_Q>
0

> <i_epik_Tot_abs_Q>
0

> <r_epik_Metal_State_Penalty>
-0

> <b_epik_Metal_Only>
0

> <s_lp_Force_Field>
OPLS_2005

> <r_lp_Energy>
5.78872

> <b_lp_Chiralities_Consistent>
1

> <s_lp_Variant>
AV-unprocessed.smi:1366-1

> <Gold.Version>
5.8.1

> <Gold.Id.Protein>
6NUR|6NUR_protein|mol2

> <Gold.PLP.Fitness>
40.8850

> <Gold.PLP.PLP>
-32.0147

> <Gold.PLP.part.hbond>
-4.4651

> <Gold.PLP.part.metal>
0.0000

> <Gold.PLP.part.buried>
-6.2624

> <Gold.PLP.part.nonpolar>
-21.9000

> <Gold.PLP.part.repulsive>
0.4063

> <Gold.PLP.ligand.clash>
0.0000

> <Gold.PLP.ligand.torsion>
0.0655

> <Gold.PLP.Chemscore.Hbond>
3.0000

> <Gold.PLP.Chemscore.CHOScore>
0.0000

> <Gold.PLP.Chemscore.Metal>
0.0000

> <Gold.Chemscore.Hbonds>
donor molecule, donor type, donor heavy atom, donor atom, acceptor molecule, acceptor atom, score
      L1  H    17    30       P1  7948  1.00
      L1  H    17    31       P1  7957  1.00
      P1  H  7989  7998       L1    15  1.00

> <Gold.PLP.Chemscore.Internal.Correction>
0.0012

> <Gold.Rescore>
     Score         DG    S(hbond)    S(metal)    S(lipo)     H(rot)  DE(clash)    DE(int)     intcor
     17.67     -19.24       2.69        0.00      78.69       1.73       1.54       0.04       ----

> <Gold.Chemscore.Fitness>
17.6684

> <Gold.Chemscore.DG>
-19.2419

> <Gold.Chemscore.ZeroCoef>
-5.4800

> <Gold.Chemscore.Hbond>
2.6870

> <Gold.Chemscore.Metal>
0.0000

> <Gold.Chemscore.Lipo>
78.6949

> <Gold.Chemscore.Internal_Hbond>
0.0000

> <Gold.Chemscore.DEClash>
1.5379

> <Gold.Chemscore.DEInternal>
0.0356

> <Gold.Chemscore.Rot>
1.7266

> <Gold.Chemscore.Internal.Correction>
   9.000000E+99

> <Gold.Chemscore.Hbonds>
donor molecule, donor type, donor heavy atom, donor atom, acceptor molecule, acceptor atom, score
      L1  H    17    30       P1  7948  0.52
      L1  H    17    31       P1  7957  0.74
      P1  H  7989  7998       L1    15  0.70

> <Gold.Chemscore.Hbond.Weighted>
-8.9746

> <Gold.Chemscore.Metal.Weighted>
-0.0000

> <Gold.Chemscore.Lipo.Weighted>
-9.2073

> <Gold.Chemscore.Internal_Hbond.Weighted>
0.0000

> <Gold.Chemscore.DEClash.Weighted>
1.5379

> <Gold.Chemscore.DEInternal.Weighted>
0.0356

> <Gold.Chemscore.Rot.Weighted>
4.4200

> <Gold.Chemscore.Internal.Correction.Weighted>
   9.000000E+99

> <Gold.Protein.RotatedTorsions>
[ 6907 6896 6895 6894 ] final  -68.42 input  -60.11 | X-H torsion
[ 7974 7965 7964 7962 ] final   65.58 input  175.53 | X-H torsion
[ 8008 7997 7996 7995 ] final   71.63 input   59.86 | X-H torsion
[ 10167 10162 10161 10158 ] final  125.67 input  -65.29 | X-H torsion
[ 10718 10713 10712 10709 ] final -100.42 input   66.30 | X-H torsion
[ 10763 10752 10751 10750 ] final   68.73 input  -60.55 | X-H torsion
[ 11005 11000 10999 10996 ] final -173.56 input  -57.11 | X-H torsion

> <Gold.Protein.ActiveResidues>
 VAL166  LYS551  ARG553  GLY616  TRP617  ASP618  TYR619  PRO620  LYS621  CYS622 
 ASP623  PHE694  ASN695  SER759  ASP760  ASP761  ALA762  ILE779  LEU786  VAL792 
 PHE793  MET794  SER795  GLU796  ALA797  LYS798  CYS799  TRP800  GLU811  SER814 

> <Gold.Protein.RotatedAtoms>
  150.7357  134.5741  159.5904 H   0  0  0  0  0  0  0  0  0  0  0  0  # atno 6907 bound_to 6896
  152.3172  134.7422  160.0331 H   0  0  0  0  0  0  0  0  0  0  0  0  # atno 6908 bound_to 6896
  151.7950  133.3328  159.3547 H   0  0  0  0  0  0  0  0  0  0  0  0  # atno 6909 bound_to 6896
  145.8368  139.3171  143.0955 H   0  0  0  0  0  0  0  0  0  0  0  0  # atno 7974 bound_to 7965
  155.7568  140.3487  155.5177 H   0  0  0  0  0  0  0  0  0  0  0  0  # atno 8008 bound_to 7997
  155.8952  140.1024  157.1411 H   0  0  0  0  0  0  0  0  0  0  0  0  # atno 8009 bound_to 7997
  154.4038  140.1296  156.4354 H   0  0  0  0  0  0  0  0  0  0  0  0  # atno 8010 bound_to 7997
  139.5673  144.6918  151.3876 H   0  0  0  0  0  0  0  0  0  0  0  0  # atno 10167 bound_to 10162
  156.0163  130.5327  150.6815 H   0  0  0  0  0  0  0  0  0  0  0  0  # atno 10718 bound_to 10713
  153.0250  135.5236  154.7179 H   0  0  0  0  0  0  0  0  0  0  0  0  # atno 10763 bound_to 10752
  154.6243  135.2892  155.0292 H   0  0  0  0  0  0  0  0  0  0  0  0  # atno 10764 bound_to 10752
  154.1267  135.6599  153.4966 H   0  0  0  0  0  0  0  0  0  0  0  0  # atno 10765 bound_to 10752
  140.4844  134.6045  157.4931 H   0  0  0  0  0  0  0  0  0  0  0  0  # atno 11005 bound_to 11000
  145.9510  140.8909  143.0259 LP  0  0  0  0  0  0  0  0  0  0  0  0  # atno 17320 bound_to 7965
  144.6736  140.1679  143.7417 LP  0  0  0  0  0  0  0  0  0  0  0  0  # atno 17321 bound_to 7965
  140.6956  143.7756  150.7322 LP  0  0  0  0  0  0  0  0  0  0  0  0  # atno 17342 bound_to 10162
  140.1251  143.4576  152.2289 LP  0  0  0  0  0  0  0  0  0  0  0  0  # atno 17343 bound_to 10162
  157.4516  131.0873  151.0840 LP  0  0  0  0  0  0  0  0  0  0  0  0  # atno 17370 bound_to 10713
  157.1354  130.6120  149.5540 LP  0  0  0  0  0  0  0  0  0  0  0  0  # atno 17371 bound_to 10713
  139.9807  134.7142  155.9865 LP  0  0  0  0  0  0  0  0  0  0  0  0  # atno 17394 bound_to 11000
  141.1515  133.6548  156.4029 LP  0  0  0  0  0  0  0  0  0  0  0  0  # atno 17395 bound_to 11000

$$$$
