AV-unprocessed.smi:1324|AV-procd|sdf|5471|dock7
  -GOLD-   22720 5 43D 1   1.00000     0.00000
 Structure written by MMmdl.
 42 43  0  0  0  0  0  0  0  0  2 V2000
  146.4371  137.7674  153.1389 C   0  0  0  0  0  0  0  0  0  0  0  0
  147.3964  138.8290  153.6325 C   0  0  0  0  0  0  0  0  0  0  0  0
  148.5994  138.5011  153.9155 N   0  0  0  0  0  0  0  0  0  0  0  0
  149.4952  139.4835  154.3701 C   0  0  0  0  0  0  0  0  0  0  0  0
  150.9038  139.0060  154.6766 C   0  0  0  0  0  0  0  0  0  0  0  0
  149.1037  140.7818  154.5169 C   0  0  0  0  0  0  0  0  0  0  0  0
  150.0388  141.8902  155.0021 C   0  0  0  0  0  0  0  0  0  0  0  0
  150.5388  141.7774  156.4448 C   0  0  0  0  0  0  0  0  0  0  0  0
  150.8373  140.6840  156.9261 O   0  0  0  0  0  0  0  0  0  0  0  0
  150.6254  142.9306  157.1260 N   0  0  0  0  0  0  0  0  0  0  0  0
  151.0777  143.0693  158.5091 C   0  0  0  0  0  0  0  0  0  0  0  0
  151.0983  144.5690  158.8864 C   0  0  0  0  0  0  0  0  0  0  0  0
  151.8924  144.9682  160.1434 C   0  0  0  0  0  0  0  0  0  0  0  0
  151.8584  143.9625  161.3044 C   0  0  0  0  0  0  0  0  0  0  0  0
  152.9367  142.8740  161.1742 C   0  0  0  0  0  0  0  0  0  0  0  0
  152.6487  141.8078  160.1074 C   0  0  0  0  0  0  0  0  0  0  0  0
  152.4287  142.3449  158.6812 C   0  0  0  0  0  0  0  0  0  0  0  0
  147.7063  141.1164  154.1892 C   0  0  0  0  0  0  0  0  0  0  0  0
  147.2961  142.2689  154.3225 O   0  0  0  0  0  0  0  0  0  0  0  0
  146.9022  140.1091  153.7440 N   0  5  0  0  0  0  0  0  0  0  0  0
  146.8367  136.7670  153.3103 H   0  0  0  0  0  0  0  0  0  0  0  0
  146.2610  137.8891  152.0700 H   0  0  0  0  0  0  0  0  0  0  0  0
  145.4813  137.8444  153.6588 H   0  0  0  0  0  0  0  0  0  0  0  0
  151.6182  139.4622  153.9908 H   0  0  0  0  0  0  0  0  0  0  0  0
  150.9845  137.9231  154.5738 H   0  0  0  0  0  0  0  0  0  0  0  0
  151.1852  139.2660  155.6972 H   0  0  0  0  0  0  0  0  0  0  0  0
  150.9124  141.9159  154.3510 H   0  0  0  0  0  0  0  0  0  0  0  0
  149.5689  142.8658  154.8712 H   0  0  0  0  0  0  0  0  0  0  0  0
  150.3567  143.7792  156.6491 H   0  0  0  0  0  0  0  0  0  0  0  0
  150.3498  142.5621  159.1452 H   0  0  0  0  0  0  0  0  0  0  0  0
  151.4868  145.1542  158.0514 H   0  0  0  0  0  0  0  0  0  0  0  0
  150.0657  144.8974  159.0123 H   0  0  0  0  0  0  0  0  0  0  0  0
  152.9292  145.1663  159.8689 H   0  0  0  0  0  0  0  0  0  0  0  0
  151.5039  145.9255  160.4932 H   0  0  0  0  0  0  0  0  0  0  0  0
  152.0526  144.5099  162.2277 H   0  0  0  0  0  0  0  0  0  0  0  0
  150.8655  143.5263  161.4204 H   0  0  0  0  0  0  0  0  0  0  0  0
  153.9061  143.3351  160.9812 H   0  0  0  0  0  0  0  0  0  0  0  0
  153.0381  142.3705  162.1360 H   0  0  0  0  0  0  0  0  0  0  0  0
  153.4894  141.1134  160.0893 H   0  0  0  0  0  0  0  0  0  0  0  0
  151.7863  141.2128  160.4106 H   0  0  0  0  0  0  0  0  0  0  0  0
  152.4550  141.4830  158.0127 H   0  0  0  0  0  0  0  0  0  0  0  0
  153.2564  142.9845  158.3720 H   0  0  0  0  0  0  0  0  0  0  0  0
  1  2  1  0  0  0  0
  1 21  1  0  0  0  0
  1 22  1  0  0  0  0
  1 23  1  0  0  0  0
  2 20  1  0  0  0  0
  2  3  2  0  0  0  0
  3  4  1  0  0  0  0
  4  5  1  0  0  0  0
  4  6  2  0  0  0  0
  5 24  1  0  0  0  0
  5 25  1  0  0  0  0
  5 26  1  0  0  0  0
  6  7  1  0  0  0  0
  6 18  1  0  0  0  0
  7  8  1  0  0  0  0
  7 27  1  0  0  0  0
  7 28  1  0  0  0  0
  8  9  2  0  0  0  0
  8 10  1  0  0  0  0
 10 11  1  0  0  0  0
 10 29  1  0  0  0  0
 11 17  1  0  0  0  0
 11 12  1  0  0  0  0
 11 30  1  0  0  0  0
 12 13  1  0  0  0  0
 12 31  1  0  0  0  0
 12 32  1  0  0  0  0
 13 14  1  0  0  0  0
 13 33  1  0  0  0  0
 13 34  1  0  0  0  0
 14 15  1  0  0  0  0
 14 35  1  0  0  0  0
 14 36  1  0  0  0  0
 15 16  1  0  0  0  0
 15 37  1  0  0  0  0
 15 38  1  0  0  0  0
 16 17  1  0  0  0  0
 16 39  1  0  0  0  0
 16 40  1  0  0  0  0
 17 41  1  0  0  0  0
 17 42  1  0  0  0  0
 18 19  2  0  0  0  0
 18 20  1  0  0  0  0
M  CHG  1  20  -1
M  END
> <s_m_source_file>
AV-unprocessed.smi

> <i_m_source_file_index>
1324

> <i_lp_mmshare_version>
43012

> <i_f3d_flags>
0

> <s_epik_input>
W0NIM11jMW5jKFtDSDNdKWMoYyg9TylbbkhdMSlbQ0gyXUMoPU8pW05IXVtDSF0yW0NIMl1bQ0gyXVtDSDJdW0NIMl1bQ0gyXVtDSDJdMg==

> <s_epik_cmdline>
J2VwaWtfcHl0aG9uJywgJy1waCcsICc3LjAnLCAnLXRuJywgJzgnLCAnLW1hJywgJzIwMCcsICctbWV0YWxfYmluZGluZycsICctaW1hZScsICc8aW5maWxlLm1hZT4nLCAnLW9tYWUnLCAnPG91dGZpbGUubWFlPic=

> <r_lp_tautomer_probability>
0.839158

> <r_epik_Ionization_Penalty>
6.62804

> <r_epik_Ionization_Penalty_Charging>
7.40585e-08

> <r_epik_Ionization_Penalty_Neutral>
6.62804

> <r_epik_State_Penalty>
4.44437

> <r_epik_Charging_Adjusted_Penalty>
4.44437

> <i_epik_Tot_Q>
-1

> <i_epik_Tot_abs_Q>
1

> <r_epik_Metal_State_Penalty>
0.804717

> <b_epik_Metal_Only>
1

> <s_lp_Force_Field>
OPLS_2005

> <r_lp_Energy>
20.4911

> <b_lp_Chiralities_Consistent>
1

> <s_lp_Variant>
AV-unprocessed.smi:1324-3

> <Gold.Version>
5.8.1

> <Gold.Id.Protein>
6NUR|6NUR_protein|mol2

> <Gold.PLP.Fitness>
42.6432

> <Gold.PLP.PLP>
-40.5976

> <Gold.PLP.part.hbond>
-1.0000

> <Gold.PLP.part.metal>
0.0000

> <Gold.PLP.part.buried>
-4.5321

> <Gold.PLP.part.nonpolar>
-36.1329

> <Gold.PLP.part.repulsive>
0.5461

> <Gold.PLP.ligand.clash>
0.0000

> <Gold.PLP.ligand.torsion>
0.3788

> <Gold.PLP.Chemscore.Hbond>
0.9280

> <Gold.PLP.Chemscore.CHOScore>
0.0000

> <Gold.PLP.Chemscore.Metal>
0.0000

> <Gold.Chemscore.Hbonds>
donor molecule, donor type, donor heavy atom, donor atom, acceptor molecule, acceptor atom, score
      L1  H    10    29       P1  8028  0.93

> <Gold.PLP.Chemscore.Internal.Correction>
0.0193

> <Gold.Rescore>
     Score         DG    S(hbond)    S(metal)    S(lipo)     H(rot)  DE(clash)    DE(int)     intcor
     15.61     -17.75       0.94        0.00     109.67       1.45       0.21       1.93       ----

> <Gold.Chemscore.Fitness>
15.6122

> <Gold.Chemscore.DG>
-17.7544

> <Gold.Chemscore.ZeroCoef>
-5.4800

> <Gold.Chemscore.Hbond>
0.9408

> <Gold.Chemscore.Metal>
0.0000

> <Gold.Chemscore.Lipo>
109.6704

> <Gold.Chemscore.Internal_Hbond>
0.0000

> <Gold.Chemscore.DEClash>
0.2111

> <Gold.Chemscore.DEInternal>
1.9311

> <Gold.Chemscore.Rot>
1.4450

> <Gold.Chemscore.Internal.Correction>
   9.000000E+99

> <Gold.Chemscore.Hbonds>
donor molecule, donor type, donor heavy atom, donor atom, acceptor molecule, acceptor atom, score
      L1  H    10    29       P1  8028  0.87

> <Gold.Chemscore.Hbond.Weighted>
-3.1422

> <Gold.Chemscore.Metal.Weighted>
-0.0000

> <Gold.Chemscore.Lipo.Weighted>
-12.8314

> <Gold.Chemscore.Internal_Hbond.Weighted>
0.0000

> <Gold.Chemscore.DEClash.Weighted>
0.2111

> <Gold.Chemscore.DEInternal.Weighted>
1.9311

> <Gold.Chemscore.Rot.Weighted>
3.6992

> <Gold.Chemscore.Internal.Correction.Weighted>
   9.000000E+99

> <Gold.Protein.RotatedTorsions>
[ 6907 6896 6895 6894 ] final  150.61 input  -60.11 | X-H torsion
[ 7974 7965 7964 7962 ] final   94.40 input  175.53 | X-H torsion
[ 8008 7997 7996 7995 ] final  -61.16 input   59.86 | X-H torsion
[ 10167 10162 10161 10158 ] final -171.53 input  -65.29 | X-H torsion
[ 10718 10713 10712 10709 ] final   10.73 input   66.30 | X-H torsion
[ 10763 10752 10751 10750 ] final  -40.15 input  -60.55 | X-H torsion
[ 11005 11000 10999 10996 ] final   37.93 input  -57.11 | X-H torsion

> <Gold.Protein.ActiveResidues>
 VAL166  LYS551  ARG553  GLY616  TRP617  ASP618  TYR619  PRO620  LYS621  CYS622 
 ASP623  PHE694  ASN695  SER759  ASP760  ASP761  ALA762  ILE779  LEU786  VAL792 
 PHE793  MET794  SER795  GLU796  ALA797  LYS798  CYS799  TRP800  GLU811  SER814 

> <Gold.Protein.RotatedAtoms>
  152.1121  133.4306  159.4635 H   0  0  0  0  0  0  0  0  0  0  0  0  # atno 6907 bound_to 6896
  150.6868  134.2636  159.4568 H   0  0  0  0  0  0  0  0  0  0  0  0  # atno 6908 bound_to 6896
  152.0506  134.9656  160.0625 H   0  0  0  0  0  0  0  0  0  0  0  0  # atno 6909 bound_to 6896
  145.4661  139.2284  143.2961 H   0  0  0  0  0  0  0  0  0  0  0  0  # atno 7974 bound_to 7965
  154.4434  140.1023  156.6388 H   0  0  0  0  0  0  0  0  0  0  0  0  # atno 8008 bound_to 7997
  155.5524  140.3486  155.4453 H   0  0  0  0  0  0  0  0  0  0  0  0  # atno 8009 bound_to 7997
  156.0519  140.1306  157.0030 H   0  0  0  0  0  0  0  0  0  0  0  0  # atno 8010 bound_to 7997
  139.5797  144.1452  152.1498 H   0  0  0  0  0  0  0  0  0  0  0  0  # atno 10167 bound_to 10162
  156.9852  130.6021  149.5680 H   0  0  0  0  0  0  0  0  0  0  0  0  # atno 10718 bound_to 10713
  153.9413  135.6761  153.4744 H   0  0  0  0  0  0  0  0  0  0  0  0  # atno 10763 bound_to 10752
  153.0930  135.4865  154.8723 H   0  0  0  0  0  0  0  0  0  0  0  0  # atno 10764 bound_to 10752
  154.7376  135.3153  154.8743 H   0  0  0  0  0  0  0  0  0  0  0  0  # atno 10765 bound_to 10752
  140.2176  134.3679  155.8019 H   0  0  0  0  0  0  0  0  0  0  0  0  # atno 11005 bound_to 11000
  146.2423  140.5435  142.8928 LP  0  0  0  0  0  0  0  0  0  0  0  0  # atno 17320 bound_to 7965
  144.7973  140.6147  143.6501 LP  0  0  0  0  0  0  0  0  0  0  0  0  # atno 17321 bound_to 7965
  140.1002  144.5546  150.6994 LP  0  0  0  0  0  0  0  0  0  0  0  0  # atno 17342 bound_to 10162
  140.7076  143.2480  151.4679 LP  0  0  0  0  0  0  0  0  0  0  0  0  # atno 17343 bound_to 10162
  156.0228  130.5323  150.8324 LP  0  0  0  0  0  0  0  0  0  0  0  0  # atno 17370 bound_to 10713
  157.5498  131.0943  150.9712 LP  0  0  0  0  0  0  0  0  0  0  0  0  # atno 17371 bound_to 10713
  141.2224  133.7176  156.8523 LP  0  0  0  0  0  0  0  0  0  0  0  0  # atno 17394 bound_to 11000
  140.1883  134.8984  157.3031 LP  0  0  0  0  0  0  0  0  0  0  0  0  # atno 17395 bound_to 11000

$$$$
