AV-unprocessed.smi:1891|AV-procd|sdf|7666|dock1
  -GOLD-   22720 9403D 1   1.00000     0.00000
 Structure written by MMmdl.
 36 38  0  0  0  0  0  0  0  0  1 V2000
  152.0776  136.9481  159.0870 O   0  0  0  0  0  0  0  0  0  0  0  0
  153.1892  137.7839  158.8357 C   0  0  0  0  0  0  0  0  0  0  0  0
  152.9629  139.2273  159.1872 C   0  0  0  0  0  0  0  0  0  0  0  0
  153.6703  139.8663  160.1222 N   0  0  0  0  0  0  0  0  0  0  0  0
  153.1334  141.1379  160.0994 C   0  0  0  0  0  0  0  0  0  0  0  0
  153.4525  142.2838  160.8622 C   0  0  0  0  0  0  0  0  0  0  0  0
  152.7566  143.4934  160.6583 C   0  0  0  0  0  0  0  0  0  0  0  0
  151.7355  143.5747  159.6894 C   0  0  0  0  0  0  0  0  0  0  0  0
  151.4019  142.4442  158.9189 C   0  0  0  0  0  0  0  0  0  0  0  0
  152.0977  141.2385  159.1289 C   0  0  0  0  0  0  0  0  0  0  0  0
  152.0131  139.9702  158.5630 N   0  0  0  0  0  0  0  0  0  0  0  0
  151.0822  139.5623  157.5184 C   0  0  0  0  0  0  0  0  0  0  0  0
  151.2903  140.3465  156.2062 C   0  0  1  0  0  0  0  0  0  0  0  0
  152.4414  139.8362  155.5632 O   0  0  0  0  0  0  0  0  0  0  0  0
  150.0591  140.3204  155.3068 C   0  0  0  0  0  0  0  0  0  0  0  0
  149.3500  141.5109  155.0286 C   0  0  0  0  0  0  0  0  0  0  0  0
  148.2268  141.4894  154.1797 C   0  0  0  0  0  0  0  0  0  0  0  0
  147.8045  140.2779  153.6010 C   0  0  0  0  0  0  0  0  0  0  0  0
  146.7252  140.2574  152.7835 F   0  0  0  0  0  0  0  0  0  0  0  0
  148.5062  139.0882  153.8715 C   0  0  0  0  0  0  0  0  0  0  0  0
  149.6295  139.1071  154.7208 C   0  0  0  0  0  0  0  0  0  0  0  0
  150.2981  137.9536  154.9613 F   0  0  0  0  0  0  0  0  0  0  0  0
  151.4009  137.1506  158.4596 H   0  0  0  0  0  0  0  0  0  0  0  0
  154.0408  137.4089  159.4035 H   0  0  0  0  0  0  0  0  0  0  0  0
  153.4384  137.7045  157.7786 H   0  0  0  0  0  0  0  0  0  0  0  0
  154.2335  142.2315  161.6061 H   0  0  0  0  0  0  0  0  0  0  0  0
  153.0075  144.3627  161.2480 H   0  0  0  0  0  0  0  0  0  0  0  0
  151.2077  144.5051  159.5390 H   0  0  0  0  0  0  0  0  0  0  0  0
  150.6185  142.5023  158.1779 H   0  0  0  0  0  0  0  0  0  0  0  0
  151.2386  138.4971  157.3408 H   0  0  0  0  0  0  0  0  0  0  0  0
  150.0557  139.6614  157.8705 H   0  0  0  0  0  0  0  0  0  0  0  0
  151.5244  141.3844  156.4440 H   0  0  0  0  0  0  0  0  0  0  0  0
  152.1992  139.5457  154.6975 H   0  0  0  0  0  0  0  0  0  0  0  0
  149.6688  142.4494  155.4576 H   0  0  0  0  0  0  0  0  0  0  0  0
  147.6910  142.4035  153.9700 H   0  0  0  0  0  0  0  0  0  0  0  0
  148.1849  138.1593  153.4242 H   0  0  0  0  0  0  0  0  0  0  0  0
  1  2  1  0  0  0  0
  1 23  1  0  0  0  0
  2  3  1  0  0  0  0
  2 24  1  0  0  0  0
  2 25  1  0  0  0  0
  3 11  1  0  0  0  0
  3  4  2  0  0  0  0
  4  5  1  0  0  0  0
  5 10  2  0  0  0  0
  5  6  1  0  0  0  0
  6  7  2  0  0  0  0
  6 26  1  0  0  0  0
  7  8  1  0  0  0  0
  7 27  1  0  0  0  0
  8  9  2  0  0  0  0
  8 28  1  0  0  0  0
  9 10  1  0  0  0  0
  9 29  1  0  0  0  0
 10 11  1  0  0  0  0
 11 12  1  0  0  0  0
 12 13  1  0  0  0  0
 12 30  1  0  0  0  0
 12 31  1  0  0  0  0
 13 14  1  0  0  0  0
 13 15  1  0  0  0  0
 13 32  1  0  0  0  0
 14 33  1  0  0  0  0
 15 21  1  0  0  0  0
 15 16  2  0  0  0  0
 16 17  1  0  0  0  0
 16 34  1  0  0  0  0
 17 18  2  0  0  0  0
 17 35  1  0  0  0  0
 18 19  1  0  0  0  0
 18 20  1  0  0  0  0
 20 21  2  0  0  0  0
 20 36  1  0  0  0  0
 21 22  1  0  0  0  0
M  END
> <s_m_source_file>
AV-unprocessed.smi

> <i_m_source_file_index>
1891

> <i_lp_mmshare_version>
43012

> <i_f3d_flags>
0

> <s_epik_input>
W2NIXTFbY0hdW2NIXVtjSF1jKGMxMiluKGMobjIpW0NIMl1bT0hdKVtDSDJdW0NASF0oW09IXSljM1tjSF1bY0hdYyhGKVtjSF1jM0Y=

> <s_epik_cmdline>
J2VwaWtfcHl0aG9uJywgJy1waCcsICc3LjAnLCAnLXRuJywgJzgnLCAnLW1hJywgJzIwMCcsICctbWV0YWxfYmluZGluZycsICctaW1hZScsICc8aW5maWxlLm1hZT4nLCAnLW9tYWUnLCAnPG91dGZpbGUubWFlPic=

> <r_epik_Ionization_Penalty>
0.0634724

> <r_epik_Ionization_Penalty_Charging>
0

> <r_epik_Ionization_Penalty_Neutral>
0.0634724

> <r_epik_State_Penalty>
0.0551572

> <r_epik_Charging_Adjusted_Penalty>
0.0551572

> <i_epik_Tot_Q>
0

> <i_epik_Tot_abs_Q>
0

> <r_epik_Metal_State_Penalty>
5.78034e-05

> <b_epik_Metal_Only>
0

> <s_lp_Force_Field>
OPLS_2005

> <r_lp_Energy>
13.0815

> <b_lp_Chiralities_Consistent>
1

> <s_lp_Variant>
AV-unprocessed.smi:1891-2

> <Gold.Version>
5.8.1

> <Gold.Id.Protein>
6NUR|6NUR_protein|mol2

> <Gold.PLP.Fitness>
50.5048

> <Gold.PLP.PLP>
-44.9263

> <Gold.PLP.part.hbond>
-2.3130

> <Gold.PLP.part.metal>
0.0000

> <Gold.PLP.part.buried>
-1.0414

> <Gold.PLP.part.nonpolar>
-42.3626

> <Gold.PLP.part.repulsive>
0.0000

> <Gold.PLP.ligand.clash>
0.0000

> <Gold.PLP.ligand.torsion>
0.2205

> <Gold.PLP.Chemscore.Hbond>
2.0000

> <Gold.PLP.Chemscore.CHOScore>
0.0000

> <Gold.PLP.Chemscore.Metal>
0.0000

> <Gold.Chemscore.Hbonds>
donor molecule, donor type, donor heavy atom, donor atom, acceptor molecule, acceptor atom, score
      P1  H  6896  6907       L1     1  0.98
      P1  H  7997  8009       L1    14  0.96

> <Gold.PLP.Chemscore.Internal.Correction>
0.0194

> <Gold.Rescore>
     Score         DG    S(hbond)    S(metal)    S(lipo)     H(rot)  DE(clash)    DE(int)     intcor
     16.50     -18.03       1.92        0.00     115.33       2.88       0.12       1.41       ----

> <Gold.Chemscore.Fitness>
16.4988

> <Gold.Chemscore.DG>
-18.0302

> <Gold.Chemscore.ZeroCoef>
-5.4800

> <Gold.Chemscore.Hbond>
1.9226

> <Gold.Chemscore.Metal>
0.0000

> <Gold.Chemscore.Lipo>
115.3254

> <Gold.Chemscore.Internal_Hbond>
0.0000

> <Gold.Chemscore.DEClash>
0.1164

> <Gold.Chemscore.DEInternal>
1.4149

> <Gold.Chemscore.Rot>
2.8767

> <Gold.Chemscore.Internal.Correction>
   9.000000E+99

> <Gold.Chemscore.Hbonds>
donor molecule, donor type, donor heavy atom, donor atom, acceptor molecule, acceptor atom, score
      P1  H  6896  6907       L1     1  0.60
      P1  H  7997  8009       L1    14  0.89

> <Gold.Chemscore.Hbond.Weighted>
-6.4215

> <Gold.Chemscore.Metal.Weighted>
-0.0000

> <Gold.Chemscore.Lipo.Weighted>
-13.4931

> <Gold.Chemscore.Internal_Hbond.Weighted>
0.0000

> <Gold.Chemscore.DEClash.Weighted>
0.1164

> <Gold.Chemscore.DEInternal.Weighted>
1.4149

> <Gold.Chemscore.Rot.Weighted>
7.3644

> <Gold.Chemscore.Internal.Correction.Weighted>
   9.000000E+99

> <Gold.Protein.RotatedTorsions>
[ 6907 6896 6895 6894 ] final    3.54 input  -60.11 | X-H torsion
[ 7974 7965 7964 7962 ] final   82.47 input  175.53 | X-H torsion
[ 8008 7997 7996 7995 ] final -160.40 input   59.86 | X-H torsion
[ 10167 10162 10161 10158 ] final  -75.78 input  -65.29 | X-H torsion
[ 10718 10713 10712 10709 ] final  169.00 input   66.30 | X-H torsion
[ 10763 10752 10751 10750 ] final   69.92 input  -60.55 | X-H torsion
[ 11005 11000 10999 10996 ] final  -79.12 input  -57.11 | X-H torsion

> <Gold.Protein.ActiveResidues>
 VAL166  LYS551  ARG553  GLY616  TRP617  ASP618  TYR619  PRO620  LYS621  CYS622 
 ASP623  PHE694  ASN695  SER759  ASP760  ASP761  ALA762  ILE779  LEU786  VAL792 
 PHE793  MET794  SER795  GLU796  ALA797  LYS798  CYS799  TRP800  GLU811  SER814 

> <Gold.Protein.RotatedAtoms>
  151.6267  135.1027  160.0112 H   0  0  0  0  0  0  0  0  0  0  0  0  # atno 6907 bound_to 6896
  152.4128  133.6987  159.6421 H   0  0  0  0  0  0  0  0  0  0  0  0  # atno 6908 bound_to 6896
  150.8018  133.8510  159.3246 H   0  0  0  0  0  0  0  0  0  0  0  0  # atno 6909 bound_to 6896
  145.6247  139.2392  143.2119 H   0  0  0  0  0  0  0  0  0  0  0  0  # atno 7974 bound_to 7965
  155.7769  140.0859  157.2079 H   0  0  0  0  0  0  0  0  0  0  0  0  # atno 8008 bound_to 7997
  154.3992  140.1515  156.3064 H   0  0  0  0  0  0  0  0  0  0  0  0  # atno 8009 bound_to 7997
  155.8692  140.3426  155.5812 H   0  0  0  0  0  0  0  0  0  0  0  0  # atno 8010 bound_to 7997
  140.4913  143.2380  151.7902 H   0  0  0  0  0  0  0  0  0  0  0  0  # atno 10167 bound_to 10162
  157.0290  131.0254  151.2750 H   0  0  0  0  0  0  0  0  0  0  0  0  # atno 10718 bound_to 10713
  153.0313  135.5193  154.7361 H   0  0  0  0  0  0  0  0  0  0  0  0  # atno 10763 bound_to 10752
  154.6375  135.2908  155.0146 H   0  0  0  0  0  0  0  0  0  0  0  0  # atno 10764 bound_to 10752
  154.1076  135.6627  153.4932 H   0  0  0  0  0  0  0  0  0  0  0  0  # atno 10765 bound_to 10752
  141.1666  133.7092  156.8075 H   0  0  0  0  0  0  0  0  0  0  0  0  # atno 11005 bound_to 11000
  146.1404  140.7066  142.9370 LP  0  0  0  0  0  0  0  0  0  0  0  0  # atno 17320 bound_to 7965
  144.7217  140.4395  143.7003 LP  0  0  0  0  0  0  0  0  0  0  0  0  # atno 17321 bound_to 7965
  139.4852  144.4645  151.9500 LP  0  0  0  0  0  0  0  0  0  0  0  0  # atno 17342 bound_to 10162
  140.3732  144.2829  150.5917 LP  0  0  0  0  0  0  0  0  0  0  0  0  # atno 17343 bound_to 10162
  157.5192  130.7987  149.7790 LP  0  0  0  0  0  0  0  0  0  0  0  0  # atno 17370 bound_to 10713
  156.0076  130.3848  150.2377 LP  0  0  0  0  0  0  0  0  0  0  0  0  # atno 17371 bound_to 10713
  140.2212  134.8756  157.3378 LP  0  0  0  0  0  0  0  0  0  0  0  0  # atno 17394 bound_to 11000
  140.1986  134.4282  155.7675 LP  0  0  0  0  0  0  0  0  0  0  0  0  # atno 17395 bound_to 11000

$$$$
