#       Name:                AV-unprocessed.smi:1847
#       Creating user name   scv26
#       Creation time:       Fri Mar 27 09:22:31 2020


#       File generated by GOLD software.
#

@<TRIPOS>MOLECULE
AV-unprocessed.smi:1847
    32    33     1
SMALL
NO_CHARGES


@<TRIPOS>ATOM
      1 ****        -0.6625   2.0545   0.1014 O.2            1 S1                 0.0000
      2 ****        -0.0338   0.9976   0.0294 C.2            1 S1                 0.0000
      3 ****        -0.6105  -0.2191  -0.0177 N.am           1 S1                 0.0000
      4 ****        -1.9918  -0.5533  -0.0116 C.ar           1 S1                 0.0000
      5 ****        -2.3525  -1.8500   0.4095 C.ar           1 S1                 0.0000
      6 ****        -3.7150  -2.2097   0.4099 C.ar           1 S1                 0.0000
      7 ****        -4.7016  -1.3780   0.0147 N.ar           1 S1                 0.0000
      8 ****        -4.3530  -0.1431  -0.4044 C.ar           1 S1                 0.0000
      9 ****        -3.0216   0.3173  -0.4424 C.ar           1 S1                 0.0000
     10 ****         1.4210   0.8979   0.0075 C.2            1 S1                 0.0000
     11 ****         2.1670   2.0244   0.0835 C.2            1 S1                 0.0000
     12 ****         3.5384   2.0358   0.0329 O.3            1 S1                 0.0000
     13 ****         4.1277   0.8033  -0.3639 C.3            1 S1                 0.0000
     14 ****         3.3956  -0.3756   0.2936 C.3            1 S1                 0.0000
     15 ****         2.0124  -0.3459  -0.0426 O.3            1 S1                 0.0000
     16 ****         0.0253  -1.0033   0.0091 H              1 S1                 0.0000
     17 ****        -1.6033  -2.5574   0.7338 H              1 S1                 0.0000
     18 ****        -4.0197  -3.1937   0.7343 H              1 S1                 0.0000
     19 ****        -5.1606   0.4971  -0.7271 H              1 S1                 0.0000
     20 ****        -2.8197   1.3117  -0.8093 H              1 S1                 0.0000
     21 ****         1.7659   3.0257   0.1510 H              1 S1                 0.0000
     22 ****         4.0857   0.7190  -1.4506 H              1 S1                 0.0000
     23 ****         5.1809   0.8037  -0.0823 H              1 S1                 0.0000
     24 ****         3.8227  -1.3223  -0.0377 H              1 S1                 0.0000
     25 ****         3.5034  -0.3357   1.3785 H              1 S1                 0.0000
     26 ****        -1.6621   2.0408   0.1282 LP             1 S1                 0.0000
     27 ****        -0.1733   2.9261   0.1331 LP             1 S1                 0.0000
     28 ****        -5.6588  -1.6669   0.0318 LP             1 S1                 0.0000
     29 ****         3.8820   2.2668   0.9432 LP             1 S1                 0.0000
     30 ****         3.8204   2.7401  -0.6185 LP             1 S1                 0.0000
     31 ****         1.9130  -0.6981  -0.9732 LP             1 S1                 0.0000
     32 ****         1.5267  -0.9449   0.5941 LP             1 S1                 0.0000
@<TRIPOS>BOND
    1    1    2 2     
    2    2    3 am    
    3    2   10 1     
    4    3    4 1     
    5    3   16 1     
    6    4    9 ar    
    7    4    5 ar    
    8    5    6 ar    
    9    5   17 1     
   10    6    7 ar    
   11    6   18 1     
   12    7    8 ar    
   13    8    9 ar    
   14    8   19 1     
   15    9   20 1     
   16   10   15 1     
   17   10   11 2     
   18   11   12 1     
   19   11   21 1     
   20   12   13 1     
   21   13   14 1     
   22   13   22 1     
   23   13   23 1     
   24   14   15 1     
   25   14   24 1     
   26   14   25 1     
   27    1   26 1     
   28    1   27 1     
   29    7   28 1     
   30   12   29 1     
   31   12   30 1     
   32   15   31 1     
   33   15   32 1     
@<TRIPOS>SUBSTRUCTURE
      1 S1             1
@<TRIPOS>SET
LONE_PAIRS      STATIC     ATOMS    <user>   **** ""
7 26 27 28 29 30 31 32
DONOR_HYDROGENS      STATIC     ATOMS    <user>   **** ""
1 16
ATOM$BLUE        STATIC     ATOMS    COLORGROUP SYSTEM
7 26 27 28 29 30 31 32
ATOM$RED        STATIC     ATOMS    COLORGROUP SYSTEM
1 16
