AV-unprocessed.smi:484|AV-procd|sdf|2690|dock7
  -GOLD-   2262023123D 1   1.00000     0.00000
 Structure written by MMmdl.
 47 49  0  0  0  0  0  0  0  0  2 V2000
  146.5209  134.9350  162.5699 C   0  0  0  0  0  0  0  0  0  0  0  0
  147.6049  135.3123  161.5543 C   0  0  0  0  0  0  0  0  0  0  0  0
  147.1126  136.3261  160.5392 C   0  0  0  0  0  0  0  0  0  0  0  0
  147.9731  136.7923  159.5254 C   0  0  0  0  0  0  0  0  0  0  0  0
  147.5112  137.7306  158.5827 C   0  0  0  0  0  0  0  0  0  0  0  0
  146.1892  138.2174  158.6361 C   0  0  0  0  0  0  0  0  0  0  0  0
  145.8248  139.1401  157.6796 O   0  0  0  0  0  0  0  0  0  0  0  0
  146.5456  139.1617  156.4551 C   0  0  0  0  0  0  0  0  0  0  0  0
  146.4157  140.5596  155.8280 C   0  0  1  0  0  0  0  0  0  0  0  0
  146.1444  141.4805  156.8645 O   0  0  0  0  0  0  0  0  0  0  0  0
  147.6492  141.0189  155.0136 C   0  0  0  0  0  0  0  0  0  0  0  0
  148.4543  139.9204  154.4426 N   0  0  0  0  0  0  0  0  0  0  0  0
  148.1485  138.9963  153.4818 C   0  0  0  0  0  0  0  0  0  0  0  0
  146.8619  138.8461  152.7332 C   0  0  0  0  0  0  0  0  0  0  0  0
  147.0459  138.3592  151.4214 O   0  0  0  0  0  0  0  0  0  0  0  0
  149.2462  138.2040  153.3218 N   0  3  0  0  0  0  0  0  0  0  0  0
  150.2684  138.6301  154.1677 C   0  0  0  0  0  0  0  0  0  0  0  0
  151.5594  138.1437  154.3503 C   0  0  0  0  0  0  0  0  0  0  0  0
  152.3612  138.8161  155.2952 C   0  0  0  0  0  0  0  0  0  0  0  0
  151.8724  139.9260  156.0139 C   0  0  0  0  0  0  0  0  0  0  0  0
  150.5615  140.4093  155.8192 C   0  0  0  0  0  0  0  0  0  0  0  0
  149.7715  139.7368  154.8861 C   0  0  0  0  0  0  0  0  0  0  0  0
  145.3271  137.7429  159.6567 C   0  0  0  0  0  0  0  0  0  0  0  0
  145.7883  136.8043  160.5999 C   0  0  0  0  0  0  0  0  0  0  0  0
  146.8977  134.2054  163.2870 H   0  0  0  0  0  0  0  0  0  0  0  0
  145.6524  134.4985  162.0756 H   0  0  0  0  0  0  0  0  0  0  0  0
  146.1844  135.8083  163.1298 H   0  0  0  0  0  0  0  0  0  0  0  0
  148.4732  135.7193  162.0739 H   0  0  0  0  0  0  0  0  0  0  0  0
  147.9509  134.4186  161.0333 H   0  0  0  0  0  0  0  0  0  0  0  0
  148.9894  136.4311  159.4661 H   0  0  0  0  0  0  0  0  0  0  0  0
  148.1801  138.0820  157.8108 H   0  0  0  0  0  0  0  0  0  0  0  0
  147.5971  138.9490  156.6564 H   0  0  0  0  0  0  0  0  0  0  0  0
  146.1791  138.3981  155.7676 H   0  0  0  0  0  0  0  0  0  0  0  0
  145.5464  140.5625  155.1695 H   0  0  0  0  0  0  0  0  0  0  0  0
  145.9518  140.9966  157.6530 H   0  0  0  0  0  0  0  0  0  0  0  0
  147.3256  141.6508  154.1870 H   0  0  0  0  0  0  0  0  0  0  0  0
  148.2977  141.6517  155.6199 H   0  0  0  0  0  0  0  0  0  0  0  0
  146.2157  138.1556  153.2750 H   0  0  0  0  0  0  0  0  0  0  0  0
  146.3429  139.8021  152.6761 H   0  0  0  0  0  0  0  0  0  0  0  0
  147.6789  137.6575  151.4482 H   0  0  0  0  0  0  0  0  0  0  0  0
  151.9362  137.2952  153.7982 H   0  0  0  0  0  0  0  0  0  0  0  0
  153.3714  138.4751  155.4714 H   0  0  0  0  0  0  0  0  0  0  0  0
  152.5159  140.4172  156.7294 H   0  0  0  0  0  0  0  0  0  0  0  0
  150.2002  141.2599  156.3773 H   0  0  0  0  0  0  0  0  0  0  0  0
  144.3058  138.0824  159.7377 H   0  0  0  0  0  0  0  0  0  0  0  0
  145.1200  136.4497  161.3711 H   0  0  0  0  0  0  0  0  0  0  0  0
  149.2892  137.4327  152.6682 H   0  0  0  0  0  0  0  0  0  0  0  0
  1  2  1  0  0  0  0
  1 25  1  0  0  0  0
  1 26  1  0  0  0  0
  1 27  1  0  0  0  0
  2  3  1  0  0  0  0
  2 28  1  0  0  0  0
  2 29  1  0  0  0  0
  3 24  1  0  0  0  0
  3  4  2  0  0  0  0
  4  5  1  0  0  0  0
  4 30  1  0  0  0  0
  5  6  2  0  0  0  0
  5 31  1  0  0  0  0
  6  7  1  0  0  0  0
  6 23  1  0  0  0  0
  7  8  1  0  0  0  0
  8  9  1  0  0  0  0
  8 32  1  0  0  0  0
  8 33  1  0  0  0  0
  9 10  1  0  0  0  0
  9 11  1  0  0  0  0
  9 34  1  0  0  0  0
 10 35  1  0  0  0  0
 11 12  1  0  0  0  0
 11 36  1  0  0  0  0
 11 37  1  0  0  0  0
 12 22  1  0  0  0  0
 12 13  1  0  0  0  0
 13 14  1  0  0  0  0
 13 16  2  0  0  0  0
 14 15  1  0  0  0  0
 14 38  1  0  0  0  0
 14 39  1  0  0  0  0
 15 40  1  0  0  0  0
 16 17  1  0  0  0  0
 16 47  1  0  0  0  0
 17 22  2  0  0  0  0
 17 18  1  0  0  0  0
 18 19  2  0  0  0  0
 18 41  1  0  0  0  0
 19 20  1  0  0  0  0
 19 42  1  0  0  0  0
 20 21  2  0  0  0  0
 20 43  1  0  0  0  0
 21 22  1  0  0  0  0
 21 44  1  0  0  0  0
 23 24  2  0  0  0  0
 23 45  1  0  0  0  0
 24 46  1  0  0  0  0
M  CHG  1  16   1
M  END
> <s_m_source_file>
AV-unprocessed.smi

> <i_m_source_file_index>
484

> <i_lp_mmshare_version>
43012

> <i_f3d_flags>
0

> <s_epik_input>
W0NIM11bQ0gyXWMxW2NIXVtjSF1jKFtjSF1bY0hdMSlPW0NIMl1bQ0BIXShbT0hdKVtDSDJdbihjKG4yKVtDSDJdW09IXSljKGMyMylbY0hdW2NIXVtjSF1bY0hdMw==

> <s_epik_cmdline>
J2VwaWtfcHl0aG9uJywgJy1waCcsICc3LjAnLCAnLXRuJywgJzgnLCAnLW1hJywgJzIwMCcsICctbWV0YWxfYmluZGluZycsICctaW1hZScsICc8aW5maWxlLm1hZT4nLCAnLW9tYWUnLCAnPG91dGZpbGUubWFlPic=

> <r_lp_tautomer_probability>
1

> <r_epik_Ionization_Penalty>
1.43166

> <r_epik_Ionization_Penalty_Charging>
1.43081

> <r_epik_Ionization_Penalty_Neutral>
0.000858184

> <r_epik_State_Penalty>
1.51538

> <r_epik_Charging_Adjusted_Penalty>
2.94618

> <i_epik_Tot_Q>
1

> <i_epik_Tot_abs_Q>
1

> <r_epik_Metal_State_Penalty>
5.56039

> <b_epik_Metal_Only>
0

> <s_lp_Force_Field>
OPLS_2005

> <r_lp_Energy>
17.0937

> <b_lp_Chiralities_Consistent>
1

> <s_lp_Variant>
AV-unprocessed.smi:484-4

> <Gold.Version>
5.8.1

> <Gold.Id.Protein>
6NUR|6NUR_protein|mol2

> <Gold.PLP.Fitness>
45.9711

> <Gold.PLP.PLP>
-40.6250

> <Gold.PLP.part.hbond>
-5.0000

> <Gold.PLP.part.metal>
0.0000

> <Gold.PLP.part.buried>
-3.9450

> <Gold.PLP.part.nonpolar>
-32.9994

> <Gold.PLP.part.repulsive>
0.0805

> <Gold.PLP.ligand.clash>
0.4149

> <Gold.PLP.ligand.torsion>
1.7361

> <Gold.PLP.Chemscore.Hbond>
3.0000

> <Gold.PLP.Chemscore.CHOScore>
0.0000

> <Gold.PLP.Chemscore.Metal>
0.0000

> <Gold.Chemscore.Hbonds>
donor molecule, donor type, donor heavy atom, donor atom, acceptor molecule, acceptor atom, score
      L1  H    15    40       P1  7948  1.00
      L1  H    16    47       P1  7948  1.59

> <Gold.PLP.Chemscore.Internal.Correction>
0.2332

> <Gold.Rescore>
     Score         DG    S(hbond)    S(metal)    S(lipo)     H(rot)  DE(clash)    DE(int)     intcor
     12.73     -14.51       1.95        0.00      91.04       3.18       0.25       1.53       ----

> <Gold.Chemscore.Fitness>
12.7284

> <Gold.Chemscore.DG>
-14.5106

> <Gold.Chemscore.ZeroCoef>
-5.4800

> <Gold.Chemscore.Hbond>
1.9522

> <Gold.Chemscore.Metal>
0.0000

> <Gold.Chemscore.Lipo>
91.0363

> <Gold.Chemscore.Internal_Hbond>
0.0000

> <Gold.Chemscore.DEClash>
0.2481

> <Gold.Chemscore.DEInternal>
1.5341

> <Gold.Chemscore.Rot>
3.1801

> <Gold.Chemscore.Internal.Correction>
   9.000000E+99

> <Gold.Chemscore.Hbonds>
donor molecule, donor type, donor heavy atom, donor atom, acceptor molecule, acceptor atom, score
      L1  H    15    40       P1  7948  1.00
      L1  H    16    47       P1  7948  0.73

> <Gold.Chemscore.Hbond.Weighted>
-6.5203

> <Gold.Chemscore.Metal.Weighted>
-0.0000

> <Gold.Chemscore.Lipo.Weighted>
-10.6512

> <Gold.Chemscore.Internal_Hbond.Weighted>
0.0000

> <Gold.Chemscore.DEClash.Weighted>
0.2481

> <Gold.Chemscore.DEInternal.Weighted>
1.5341

> <Gold.Chemscore.Rot.Weighted>
8.1410

> <Gold.Chemscore.Internal.Correction.Weighted>
   9.000000E+99

> <Gold.Protein.RotatedTorsions>
[ 6907 6896 6895 6894 ] final  -69.46 input  -60.11 | X-H torsion
[ 7974 7965 7964 7962 ] final   45.12 input  175.53 | X-H torsion
[ 8008 7997 7996 7995 ] final    1.61 input   59.86 | X-H torsion
[ 10167 10162 10161 10158 ] final -100.21 input  -65.29 | X-H torsion
[ 10718 10713 10712 10709 ] final   50.83 input   66.30 | X-H torsion
[ 10763 10752 10751 10750 ] final -160.25 input  -60.55 | X-H torsion
[ 11005 11000 10999 10996 ] final  109.95 input  -57.11 | X-H torsion

> <Gold.Protein.ActiveResidues>
 VAL166  LYS551  ARG553  GLY616  TRP617  ASP618  TYR619  PRO620  LYS621  CYS622 
 ASP623  PHE694  ASN695  SER759  ASP760  ASP761  ALA762  ILE779  LEU786  VAL792 
 PHE793  MET794  SER795  GLU796  ALA797  LYS798  CYS799  TRP800  GLU811  SER814 

> <Gold.Protein.RotatedAtoms>
  150.7304  134.5593  159.5833 H   0  0  0  0  0  0  0  0  0  0  0  0  # atno 6907 bound_to 6896
  152.3060  134.7551  160.0356 H   0  0  0  0  0  0  0  0  0  0  0  0  # atno 6908 bound_to 6896
  151.8115  133.3347  159.3593 H   0  0  0  0  0  0  0  0  0  0  0  0  # atno 6909 bound_to 6896
  146.0508  139.4999  142.9719 H   0  0  0  0  0  0  0  0  0  0  0  0  # atno 7974 bound_to 7965
  154.6817  140.2634  155.6901 H   0  0  0  0  0  0  0  0  0  0  0  0  # atno 8008 bound_to 7997
  156.2699  140.2809  156.1287 H   0  0  0  0  0  0  0  0  0  0  0  0  # atno 8009 bound_to 7997
  155.1021  140.0374  157.2690 H   0  0  0  0  0  0  0  0  0  0  0  0  # atno 8010 bound_to 7997
  140.2543  143.3451  152.0685 H   0  0  0  0  0  0  0  0  0  0  0  0  # atno 10167 bound_to 10162
  157.4923  130.8384  149.8217 H   0  0  0  0  0  0  0  0  0  0  0  0  # atno 10718 bound_to 10713
  154.7406  135.3068  154.8734 H   0  0  0  0  0  0  0  0  0  0  0  0  # atno 10763 bound_to 10752
  153.9550  135.6759  153.4748 H   0  0  0  0  0  0  0  0  0  0  0  0  # atno 10764 bound_to 10752
  153.1005  135.4914  154.8783 H   0  0  0  0  0  0  0  0  0  0  0  0  # atno 10765 bound_to 10752
  139.8872  134.9472  156.6205 H   0  0  0  0  0  0  0  0  0  0  0  0  # atno 11005 bound_to 11000
  145.6727  141.0212  143.1649 LP  0  0  0  0  0  0  0  0  0  0  0  0  # atno 17320 bound_to 7965
  144.7122  139.8330  143.7411 LP  0  0  0  0  0  0  0  0  0  0  0  0  # atno 17321 bound_to 7965
  139.5036  144.6759  151.6129 LP  0  0  0  0  0  0  0  0  0  0  0  0  # atno 17342 bound_to 10162
  140.6016  143.9600  150.6390 LP  0  0  0  0  0  0  0  0  0  0  0  0  # atno 17343 bound_to 10162
  156.0180  130.3806  150.2049 LP  0  0  0  0  0  0  0  0  0  0  0  0  # atno 17370 bound_to 10713
  157.0238  130.9987  151.3332 LP  0  0  0  0  0  0  0  0  0  0  0  0  # atno 17371 bound_to 10713
  140.7743  133.8712  155.8516 LP  0  0  0  0  0  0  0  0  0  0  0  0  # atno 17394 bound_to 11000
  140.9815  134.1399  157.4490 LP  0  0  0  0  0  0  0  0  0  0  0  0  # atno 17395 bound_to 11000

$$$$
