AV-unprocessed.smi:926|AV-procd|sdf|4185|dock8
  -GOLD-   22720 2 93D 1   1.00000     0.00000
 Structure written by MMmdl.
 37 39  0  0  0  0  0  0  0  0  1 V2000
  156.8607  139.8479  158.6713 O   0  0  0  0  0  0  0  0  0  0  0  0
  156.8987  140.5235  159.6995 C   0  0  0  0  0  0  0  0  0  0  0  0
  158.2430  140.8358  160.3572 C   0  0  0  0  0  0  0  0  0  0  0  0
  159.0444  141.6995  159.5118 N   0  0  0  0  0  0  0  0  0  0  0  0
  158.8660  142.1061  158.2530 C   0  0  0  0  0  0  0  0  0  0  0  0
  159.8501  142.8958  157.8504 N   0  0  0  0  0  0  0  0  0  0  0  0
  160.6764  142.9592  158.9600 N   0  0  0  0  0  0  0  0  0  0  0  0
  160.2042  142.2504  159.9487 N   0  0  0  0  0  0  0  0  0  0  0  0
  155.8060  141.0157  160.3034 N   0  0  0  0  0  0  0  0  0  0  0  0
  154.4366  140.8314  159.8376 C   0  0  0  0  0  0  0  0  0  0  0  0
  153.4292  141.5664  160.7389 C   0  0  0  0  0  0  0  0  0  0  0  0
  153.0464  142.9594  160.2011 C   0  0  2  0  0  0  0  0  0  0  0  0
  151.8890  143.6328  160.9758 C   0  0  0  0  0  0  0  0  0  0  0  0
  150.8682  143.9560  159.8699 C   0  0  1  0  0  0  0  0  0  0  0  0
  151.4213  145.0744  158.9672 C   0  0  0  0  0  0  0  0  0  0  0  0
  152.5283  144.3534  158.1750 C   0  0  0  0  0  0  0  0  0  0  0  0
  152.4896  142.9278  158.7586 C   0  0  2  0  0  0  0  0  0  0  0  0
  150.9915  142.7317  158.9725 C   0  0  0  0  0  0  0  0  0  0  0  0
  158.0756  141.3363  161.3120 H   0  0  0  0  0  0  0  0  0  0  0  0
  158.7966  139.9190  160.5672 H   0  0  0  0  0  0  0  0  0  0  0  0
  158.0241  141.8245  157.6377 H   0  0  0  0  0  0  0  0  0  0  0  0
  155.9317  141.5565  161.1469 H   0  0  0  0  0  0  0  0  0  0  0  0
  154.3781  141.2121  158.8180 H   0  0  0  0  0  0  0  0  0  0  0  0
  154.1969  139.7681  159.7833 H   0  0  0  0  0  0  0  0  0  0  0  0
  152.5239  140.9638  160.8233 H   0  0  0  0  0  0  0  0  0  0  0  0
  153.8317  141.6493  161.7489 H   0  0  0  0  0  0  0  0  0  0  0  0
  153.9362  143.5902  160.2320 H   0  0  0  0  0  0  0  0  0  0  0  0
  151.4459  142.9516  161.7034 H   0  0  0  0  0  0  0  0  0  0  0  0
  152.2139  144.5240  161.5138 H   0  0  0  0  0  0  0  0  0  0  0  0
  149.8639  144.1528  160.2460 H   0  0  0  0  0  0  0  0  0  0  0  0
  150.6498  145.4497  158.2937 H   0  0  0  0  0  0  0  0  0  0  0  0
  151.8033  145.9178  159.5436 H   0  0  0  0  0  0  0  0  0  0  0  0
  152.2903  144.3409  157.1107 H   0  0  0  0  0  0  0  0  0  0  0  0
  153.5033  144.8281  158.2915 H   0  0  0  0  0  0  0  0  0  0  0  0
  152.9646  142.1868  158.1145 H   0  0  0  0  0  0  0  0  0  0  0  0
  150.7385  141.7976  159.4759 H   0  0  0  0  0  0  0  0  0  0  0  0
  150.4087  142.8096  158.0529 H   0  0  0  0  0  0  0  0  0  0  0  0
  1  2  2  0  0  0  0
  2  3  1  0  0  0  0
  2  9  1  0  0  0  0
  3  4  1  0  0  0  0
  3 19  1  0  0  0  0
  3 20  1  0  0  0  0
  4  8  1  0  0  0  0
  4  5  1  0  0  0  0
  5  6  2  0  0  0  0
  5 21  1  0  0  0  0
  6  7  1  0  0  0  0
  7  8  2  0  0  0  0
  9 10  1  0  0  0  0
  9 22  1  0  0  0  0
 10 11  1  0  0  0  0
 10 23  1  0  0  0  0
 10 24  1  0  0  0  0
 11 12  1  0  0  0  0
 11 25  1  0  0  0  0
 11 26  1  0  0  0  0
 12 17  1  0  0  0  0
 12 13  1  0  0  0  0
 12 27  1  0  0  0  0
 13 14  1  0  0  0  0
 13 28  1  0  0  0  0
 13 29  1  0  0  0  0
 14 18  1  0  0  0  0
 14 15  1  0  0  0  0
 14 30  1  0  0  0  0
 15 16  1  0  0  0  0
 15 31  1  0  0  0  0
 15 32  1  0  0  0  0
 16 17  1  0  0  0  0
 16 33  1  0  0  0  0
 16 34  1  0  0  0  0
 17 18  1  0  0  0  0
 17 35  1  0  0  0  0
 18 36  1  0  0  0  0
 18 37  1  0  0  0  0
M  END
> <s_m_source_file>
AV-unprocessed.smi

> <i_m_source_file_index>
926

> <i_lp_mmshare_version>
43012

> <i_f3d_flags>
0

> <s_epik_input>
bjFubltjSF1uMVtDSDJdQyg9TylbTkhdW0NIMl1bQ0gyXVtDQEhdKFtDSDJdW0NASF0yMylbQ0BIXShbQ0gyXTMpW0NIMl1bQ0gyXTI=

> <s_epik_cmdline>
J2VwaWtfcHl0aG9uJywgJy1waCcsICc3LjAnLCAnLXRuJywgJzgnLCAnLW1hJywgJzIwMCcsICctbWV0YWxfYmluZGluZycsICctaW1hZScsICc8aW5maWxlLm1hZT4nLCAnLW9tYWUnLCAnPG91dGZpbGUubWFlPic=

> <r_lp_tautomer_probability>
1

> <r_epik_Ionization_Penalty>
4.22645e-07

> <r_epik_Ionization_Penalty_Charging>
0

> <r_epik_Ionization_Penalty_Neutral>
4.22645e-07

> <r_epik_State_Penalty>
-0

> <r_epik_Charging_Adjusted_Penalty>
0

> <i_epik_Tot_Q>
0

> <i_epik_Tot_abs_Q>
0

> <r_epik_Metal_State_Penalty>
-0

> <b_epik_Metal_Only>
0

> <s_lp_Force_Field>
OPLS_2005

> <r_lp_Energy>
50.9279

> <b_lp_Chiralities_Consistent>
1

> <s_lp_Variant>
AV-unprocessed.smi:926-3

> <Gold.Version>
5.8.1

> <Gold.Id.Protein>
6NUR|6NUR_protein|mol2

> <Gold.PLP.Fitness>
48.8008

> <Gold.PLP.PLP>
-46.5205

> <Gold.PLP.part.hbond>
-4.4016

> <Gold.PLP.part.metal>
0.0000

> <Gold.PLP.part.buried>
-6.2894

> <Gold.PLP.part.nonpolar>
-38.2449

> <Gold.PLP.part.repulsive>
0.5058

> <Gold.PLP.ligand.clash>
0.0000

> <Gold.PLP.ligand.torsion>
0.3823

> <Gold.PLP.Chemscore.Hbond>
1.0000

> <Gold.PLP.Chemscore.CHOScore>
0.0000

> <Gold.PLP.Chemscore.Metal>
0.0000

> <Gold.Chemscore.Hbonds>
donor molecule, donor type, donor heavy atom, donor atom, acceptor molecule, acceptor atom, score
      P1  H  7997  8010       L1     1  1.00

> <Gold.PLP.Chemscore.Internal.Correction>
0.0449

> <Gold.Rescore>
     Score         DG    S(hbond)    S(metal)    S(lipo)     H(rot)  DE(clash)    DE(int)     intcor
     14.41     -15.29       1.00        0.00     111.01       2.54       0.46       0.42       ----

> <Gold.Chemscore.Fitness>
14.4065

> <Gold.Chemscore.DG>
-15.2862

> <Gold.Chemscore.ZeroCoef>
-5.4800

> <Gold.Chemscore.Hbond>
0.9968

> <Gold.Chemscore.Metal>
0.0000

> <Gold.Chemscore.Lipo>
111.0135

> <Gold.Chemscore.Internal_Hbond>
0.0000

> <Gold.Chemscore.DEClash>
0.4551

> <Gold.Chemscore.DEInternal>
0.4246

> <Gold.Chemscore.Rot>
2.5436

> <Gold.Chemscore.Internal.Correction>
   9.000000E+99

> <Gold.Chemscore.Hbonds>
donor molecule, donor type, donor heavy atom, donor atom, acceptor molecule, acceptor atom, score
      P1  H  7997  8010       L1     1  1.00

> <Gold.Chemscore.Hbond.Weighted>
-3.3294

> <Gold.Chemscore.Metal.Weighted>
-0.0000

> <Gold.Chemscore.Lipo.Weighted>
-12.9886

> <Gold.Chemscore.Internal_Hbond.Weighted>
0.0000

> <Gold.Chemscore.DEClash.Weighted>
0.4551

> <Gold.Chemscore.DEInternal.Weighted>
0.4246

> <Gold.Chemscore.Rot.Weighted>
6.5117

> <Gold.Chemscore.Internal.Correction.Weighted>
   9.000000E+99

> <Gold.Protein.RotatedTorsions>
[ 6907 6896 6895 6894 ] final  -97.79 input  -60.11 | X-H torsion
[ 7974 7965 7964 7962 ] final -140.50 input  175.53 | X-H torsion
[ 8008 7997 7996 7995 ] final  -49.11 input   59.86 | X-H torsion
[ 10167 10162 10161 10158 ] final   53.96 input  -65.29 | X-H torsion
[ 10718 10713 10712 10709 ] final   98.68 input   66.30 | X-H torsion
[ 10763 10752 10751 10750 ] final   89.90 input  -60.55 | X-H torsion
[ 11005 11000 10999 10996 ] final  170.37 input  -57.11 | X-H torsion

> <Gold.Protein.ActiveResidues>
 VAL166  LYS551  ARG553  GLY616  TRP617  ASP618  TYR619  PRO620  LYS621  CYS622 
 ASP623  PHE694  ASN695  SER759  ASP760  ASP761  ALA762  ILE779  LEU786  VAL792 
 PHE793  MET794  SER795  GLU796  ALA797  LYS798  CYS799  TRP800  GLU811  SER814 

> <Gold.Protein.RotatedAtoms>
  150.7027  134.1295  159.4064 H   0  0  0  0  0  0  0  0  0  0  0  0  # atno 6907 bound_to 6896
  151.9280  135.0266  160.0536 H   0  0  0  0  0  0  0  0  0  0  0  0  # atno 6908 bound_to 6896
  152.2199  133.4940  159.5193 H   0  0  0  0  0  0  0  0  0  0  0  0  # atno 6909 bound_to 6896
  144.8592  140.6192  143.5339 H   0  0  0  0  0  0  0  0  0  0  0  0  # atno 7974 bound_to 7965
  154.4039  140.1305  156.4448 H   0  0  0  0  0  0  0  0  0  0  0  0  # atno 8008 bound_to 7997
  155.7423  140.3489  155.5090 H   0  0  0  0  0  0  0  0  0  0  0  0  # atno 8009 bound_to 7997
  155.9027  140.1022  157.1328 H   0  0  0  0  0  0  0  0  0  0  0  0  # atno 8010 bound_to 7997
  140.2352  144.3644  150.6400 H   0  0  0  0  0  0  0  0  0  0  0  0  # atno 10167 bound_to 10162
  157.6891  131.0647  150.4832 H   0  0  0  0  0  0  0  0  0  0  0  0  # atno 10718 bound_to 10713
  153.1919  135.4453  155.0160 H   0  0  0  0  0  0  0  0  0  0  0  0  # atno 10763 bound_to 10752
  154.8095  135.3288  154.7344 H   0  0  0  0  0  0  0  0  0  0  0  0  # atno 10764 bound_to 10752
  153.7797  135.6978  153.4946 H   0  0  0  0  0  0  0  0  0  0  0  0  # atno 10765 bound_to 10752
  140.3076  134.7543  157.3966 H   0  0  0  0  0  0  0  0  0  0  0  0  # atno 11005 bound_to 11000
  145.4345  139.1544  143.4004 LP  0  0  0  0  0  0  0  0  0  0  0  0  # atno 17320 bound_to 7965
  146.2847  140.4463  142.8762 LP  0  0  0  0  0  0  0  0  0  0  0  0  # atno 17321 bound_to 7965
  140.6155  143.2172  151.6800 LP  0  0  0  0  0  0  0  0  0  0  0  0  # atno 17342 bound_to 10162
  139.5096  144.3571  152.0597 LP  0  0  0  0  0  0  0  0  0  0  0  0  # atno 17343 bound_to 10162
  156.5163  130.4151  149.6274 LP  0  0  0  0  0  0  0  0  0  0  0  0  # atno 17370 bound_to 10713
  156.3195  130.7272  151.2181 LP  0  0  0  0  0  0  0  0  0  0  0  0  # atno 17371 bound_to 10713
  140.1053  134.5417  155.8315 LP  0  0  0  0  0  0  0  0  0  0  0  0  # atno 17394 bound_to 11000
  141.2115  133.6707  156.6587 LP  0  0  0  0  0  0  0  0  0  0  0  0  # atno 17395 bound_to 11000

$$$$
