AV-unprocessed.smi:2164|AV-procd|sdf|8808|dock9
  -GOLD-   2272011593D 1   1.00000     0.00000
 Structure written by MMmdl.
 39 41  0  0  0  0  0  0  0  0  1 V2000
  146.7763  141.5221  158.8254 O   0  0  0  0  0  0  0  0  0  0  0  0
  146.9777  141.8710  157.6609 C   0  0  0  0  0  0  0  0  0  0  0  0
  146.2263  142.8116  157.0605 N   0  0  0  0  0  0  0  0  0  0  0  0
  145.1357  143.5609  157.6810 C   0  0  0  0  0  0  0  0  0  0  0  0
  145.5900  144.3109  158.9484 C   0  0  0  0  0  0  0  0  0  0  0  0
  144.7256  144.0280  160.1648 C   0  0  0  0  0  0  0  0  0  0  0  0
  145.3107  143.7144  161.4089 C   0  0  0  0  0  0  0  0  0  0  0  0
  144.4701  143.4928  162.5166 C   0  0  0  0  0  0  0  0  0  0  0  0
  143.0766  143.5943  162.3320 C   0  0  0  0  0  0  0  0  0  0  0  0
  142.5050  143.8904  161.1450 N   0  0  0  0  0  0  0  0  0  0  0  0
  143.3180  144.0990  160.0875 C   0  0  0  0  0  0  0  0  0  0  0  0
  148.0433  141.3367  156.8104 C   0  0  0  0  0  0  0  0  0  0  0  0
  148.9312  140.4638  157.3231 C   0  0  0  0  0  0  0  0  0  0  0  0
  149.9784  139.9054  156.5874 N   0  0  0  0  0  0  0  0  0  0  0  0
  150.9333  139.0561  157.2892 C   0  0  0  0  0  0  0  0  0  0  0  0
  151.2861  137.8471  156.4382 C   0  0  0  0  0  0  0  0  0  0  0  0
  152.1053  138.4977  154.9324 S   0  0  0  0  0  0  0  0  0  0  0  0
  153.3169  139.2203  155.3500 O   0  0  0  0  0  0  0  0  0  0  0  0
  152.2202  137.3969  153.9639 O   0  0  0  0  0  0  0  0  0  0  0  0
  150.9602  139.6032  154.4051 N   0  0  0  0  0  0  0  0  0  0  0  0
  150.1100  140.1764  155.2017 C   0  0  0  0  0  0  0  0  0  0  0  0
  149.1822  141.1545  154.6563 C   0  0  0  0  0  0  0  0  0  0  0  0
  148.2066  141.7025  155.4096 C   0  0  0  0  0  0  0  0  0  0  0  0
  146.4474  143.0467  156.1040 H   0  0  0  0  0  0  0  0  0  0  0  0
  144.7584  144.2769  156.9507 H   0  0  0  0  0  0  0  0  0  0  0  0
  144.2985  142.9013  157.9157 H   0  0  0  0  0  0  0  0  0  0  0  0
  146.6235  144.0487  159.1782 H   0  0  0  0  0  0  0  0  0  0  0  0
  145.5860  145.3849  158.7594 H   0  0  0  0  0  0  0  0  0  0  0  0
  146.3840  143.6552  161.5158 H   0  0  0  0  0  0  0  0  0  0  0  0
  144.8831  143.2550  163.4857 H   0  0  0  0  0  0  0  0  0  0  0  0
  142.4029  143.4341  163.1608 H   0  0  0  0  0  0  0  0  0  0  0  0
  142.8301  144.3451  159.1558 H   0  0  0  0  0  0  0  0  0  0  0  0
  148.8898  140.1373  158.3530 H   0  0  0  0  0  0  0  0  0  0  0  0
  151.8250  139.6368  157.5275 H   0  0  0  0  0  0  0  0  0  0  0  0
  150.5192  138.7145  158.2385 H   0  0  0  0  0  0  0  0  0  0  0  0
  151.9776  137.1798  156.9522 H   0  0  0  0  0  0  0  0  0  0  0  0
  150.4019  137.2764  156.1525 H   0  0  0  0  0  0  0  0  0  0  0  0
  149.2431  141.4628  153.6226 H   0  0  0  0  0  0  0  0  0  0  0  0
  147.5503  142.4198  154.9394 H   0  0  0  0  0  0  0  0  0  0  0  0
  1  2  2  0  0  0  0
  2  3  1  0  0  0  0
  2 12  1  0  0  0  0
  3  4  1  0  0  0  0
  3 24  1  0  0  0  0
  4  5  1  0  0  0  0
  4 25  1  0  0  0  0
  4 26  1  0  0  0  0
  5  6  1  0  0  0  0
  5 27  1  0  0  0  0
  5 28  1  0  0  0  0
  6 11  1  0  0  0  0
  6  7  2  0  0  0  0
  7  8  1  0  0  0  0
  7 29  1  0  0  0  0
  8  9  2  0  0  0  0
  8 30  1  0  0  0  0
  9 10  1  0  0  0  0
  9 31  1  0  0  0  0
 10 11  2  0  0  0  0
 11 32  1  0  0  0  0
 12 23  1  0  0  0  0
 12 13  2  0  0  0  0
 13 14  1  0  0  0  0
 13 33  1  0  0  0  0
 14 21  1  0  0  0  0
 14 15  1  0  0  0  0
 15 16  1  0  0  0  0
 15 34  1  0  0  0  0
 15 35  1  0  0  0  0
 16 17  1  0  0  0  0
 16 36  1  0  0  0  0
 16 37  1  0  0  0  0
 17 18  2  0  0  0  0
 17 19  2  0  0  0  0
 17 20  1  0  0  0  0
 20 21  2  0  0  0  0
 21 22  1  0  0  0  0
 22 23  2  0  0  0  0
 22 38  1  0  0  0  0
 23 39  1  0  0  0  0
M  END
> <s_m_source_file>
AV-unprocessed.smi

> <i_m_source_file_index>
2164

> <i_lp_mmshare_version>
43012

> <i_f3d_flags>
0

> <s_epik_input>
W0NIMl0xW0NIMl1TKD1PKSg9TylOPUMoTjEyKVtDSF09W0NIXUMoPVtDSF0yKUMoPU8pW05IXVtDSDJdW0NIMl1jM1tjSF1bY0hdW2NIXW5bY0hdMw==

> <s_epik_cmdline>
J2VwaWtfcHl0aG9uJywgJy1waCcsICc3LjAnLCAnLXRuJywgJzgnLCAnLW1hJywgJzIwMCcsICctbWV0YWxfYmluZGluZycsICctaW1hZScsICc8aW5maWxlLm1hZT4nLCAnLW9tYWUnLCAnPG91dGZpbGUubWFlPic=

> <r_epik_Ionization_Penalty>
0.0095026

> <r_epik_Ionization_Penalty_Charging>
4.80604e-09

> <r_epik_Ionization_Penalty_Neutral>
0.00950259

> <r_epik_State_Penalty>
0.0071398

> <r_epik_Charging_Adjusted_Penalty>
0.0071398

> <i_epik_Tot_Q>
0

> <i_epik_Tot_abs_Q>
0

> <r_epik_Metal_State_Penalty>
0.0838865

> <b_epik_Metal_Only>
0

> <s_lp_Force_Field>
OPLS_2005

> <r_lp_Energy>
19.9083

> <b_lp_Chiralities_Consistent>
1

> <s_lp_Variant>
AV-unprocessed.smi:2164-1

> <Gold.Version>
5.8.1

> <Gold.Id.Protein>
6NUR|6NUR_protein|mol2

> <Gold.PLP.Fitness>
43.0866

> <Gold.PLP.PLP>
-33.8246

> <Gold.PLP.part.hbond>
-3.8375

> <Gold.PLP.part.metal>
0.0000

> <Gold.PLP.part.buried>
-5.4854

> <Gold.PLP.part.nonpolar>
-25.0031

> <Gold.PLP.part.repulsive>
0.3629

> <Gold.PLP.ligand.clash>
0.0000

> <Gold.PLP.ligand.torsion>
0.5069

> <Gold.PLP.Chemscore.Hbond>
3.4240

> <Gold.PLP.Chemscore.CHOScore>
0.0000

> <Gold.PLP.Chemscore.Metal>
0.0000

> <Gold.Chemscore.Hbonds>
donor molecule, donor type, donor heavy atom, donor atom, acceptor molecule, acceptor atom, score
      P1  H  6934  6946       L1     1  0.56
      P1  H  7989  7998       L1    20  1.00
      P1  H  7997  8009       L1    18  1.00
      P1  H 10752 10764       L1    19  0.88

> <Gold.PLP.Chemscore.Internal.Correction>
0.0038

> <Gold.Rescore>
     Score         DG    S(hbond)    S(metal)    S(lipo)     H(rot)  DE(clash)    DE(int)     intcor
     17.06     -18.56       2.88        0.00      61.59       1.47       0.01       1.50       ----

> <Gold.Chemscore.Fitness>
17.0560

> <Gold.Chemscore.DG>
-18.5633

> <Gold.Chemscore.ZeroCoef>
-5.4800

> <Gold.Chemscore.Hbond>
2.8846

> <Gold.Chemscore.Metal>
0.0000

> <Gold.Chemscore.Lipo>
61.5932

> <Gold.Chemscore.Internal_Hbond>
0.0000

> <Gold.Chemscore.DEClash>
0.0112

> <Gold.Chemscore.DEInternal>
1.4961

> <Gold.Chemscore.Rot>
1.4679

> <Gold.Chemscore.Internal.Correction>
   9.000000E+99

> <Gold.Chemscore.Hbonds>
donor molecule, donor type, donor heavy atom, donor atom, acceptor molecule, acceptor atom, score
      P1  H  6934  6946       L1     1  0.55
      P1  H  7989  7998       L1    20  0.47
      P1  H  7997  8009       L1    18  0.96
      P1  H 10752 10764       L1    19  0.86

> <Gold.Chemscore.Hbond.Weighted>
-9.6346

> <Gold.Chemscore.Metal.Weighted>
-0.0000

> <Gold.Chemscore.Lipo.Weighted>
-7.2064

> <Gold.Chemscore.Internal_Hbond.Weighted>
0.0000

> <Gold.Chemscore.DEClash.Weighted>
0.0112

> <Gold.Chemscore.DEInternal.Weighted>
1.4961

> <Gold.Chemscore.Rot.Weighted>
3.7578

> <Gold.Chemscore.Internal.Correction.Weighted>
   9.000000E+99

> <Gold.Protein.RotatedTorsions>
[ 6907 6896 6895 6894 ] final  155.48 input  -60.11 | X-H torsion
[ 7974 7965 7964 7962 ] final -100.82 input  175.53 | X-H torsion
[ 8008 7997 7996 7995 ] final -154.88 input   59.86 | X-H torsion
[ 10167 10162 10161 10158 ] final   69.88 input  -65.29 | X-H torsion
[ 10718 10713 10712 10709 ] final  167.22 input   66.30 | X-H torsion
[ 10763 10752 10751 10750 ] final  -88.05 input  -60.55 | X-H torsion
[ 11005 11000 10999 10996 ] final   71.80 input  -57.11 | X-H torsion

> <Gold.Protein.ActiveResidues>
 VAL166  LYS551  ARG553  GLY616  TRP617  ASP618  TYR619  PRO620  LYS621  CYS622 
 ASP623  PHE694  ASN695  SER759  ASP760  ASP761  ALA762  ILE779  LEU786  VAL792 
 PHE793  MET794  SER795  GLU796  ALA797  LYS798  CYS799  TRP800  GLU811  SER814 

> <Gold.Protein.RotatedAtoms>
  152.0436  133.3988  159.4346 H   0  0  0  0  0  0  0  0  0  0  0  0  # atno 6907 bound_to 6896
  150.6874  134.3387  159.4868 H   0  0  0  0  0  0  0  0  0  0  0  0  # atno 6908 bound_to 6896
  152.1189  134.9220  160.0614 H   0  0  0  0  0  0  0  0  0  0  0  0  # atno 6909 bound_to 6896
  145.2896  140.9349  143.2885 H   0  0  0  0  0  0  0  0  0  0  0  0  # atno 7974 bound_to 7965
  155.6932  140.0758  157.2440 H   0  0  0  0  0  0  0  0  0  0  0  0  # atno 8008 bound_to 7997
  154.4085  140.1661  156.2161 H   0  0  0  0  0  0  0  0  0  0  0  0  # atno 8009 bound_to 7997
  155.9434  140.3383  155.6349 H   0  0  0  0  0  0  0  0  0  0  0  0  # atno 8010 bound_to 7997
  140.0629  144.5217  150.7281 H   0  0  0  0  0  0  0  0  0  0  0  0  # atno 10167 bound_to 10162
  157.0547  131.0323  151.2668 H   0  0  0  0  0  0  0  0  0  0  0  0  # atno 10718 bound_to 10713
  154.6403  135.5391  153.7782 H   0  0  0  0  0  0  0  0  0  0  0  0  # atno 10763 bound_to 10752
  153.0330  135.6457  154.1169 H   0  0  0  0  0  0  0  0  0  0  0  0  # atno 10764 bound_to 10752
  154.1094  135.2928  155.3214 H   0  0  0  0  0  0  0  0  0  0  0  0  # atno 10765 bound_to 10752
  139.9524  134.7203  156.0831 H   0  0  0  0  0  0  0  0  0  0  0  0  # atno 11005 bound_to 11000
  144.9184  139.4442  143.6553 LP  0  0  0  0  0  0  0  0  0  0  0  0  # atno 17320 bound_to 7965
  146.3189  139.8031  142.8961 LP  0  0  0  0  0  0  0  0  0  0  0  0  # atno 17321 bound_to 7965
  140.7163  143.2547  151.4424 LP  0  0  0  0  0  0  0  0  0  0  0  0  # atno 17342 bound_to 10162
  139.5882  144.1557  152.2056 LP  0  0  0  0  0  0  0  0  0  0  0  0  # atno 17343 bound_to 10162
  157.5003  130.7875  149.7597 LP  0  0  0  0  0  0  0  0  0  0  0  0  # atno 17370 bound_to 10713
  155.9997  130.3887  150.2655 LP  0  0  0  0  0  0  0  0  0  0  0  0  # atno 17371 bound_to 10713
  141.1190  133.6619  156.3166 LP  0  0  0  0  0  0  0  0  0  0  0  0  # atno 17394 bound_to 11000
  140.5687  134.5861  157.5452 LP  0  0  0  0  0  0  0  0  0  0  0  0  # atno 17395 bound_to 11000

$$$$
