#       Name:                AV-unprocessed.smi:223
#       Creating user name   scv26
#       Creation time:       Thu Mar 26 20:16:27 2020


#       File generated by GOLD software.
#

@<TRIPOS>MOLECULE
AV-unprocessed.smi:223
    55    58     1
SMALL
NO_CHARGES


@<TRIPOS>ATOM
      1 ****        -4.0772   2.2600   1.6121 C.3            1 S1                 0.0000
      2 ****        -2.5521   2.3180   1.7550 C.3            1 S1                 0.0000
      3 ****        -2.1418   3.5922   2.3679 C.1            1 S1                 0.0000
      4 ****        -1.8206   4.5945   2.8486 N.1            1 S1                 0.0000
      5 ****        -2.0214   1.0925   2.5286 C.3            1 S1                 0.0000
      6 ****        -0.5617   1.0175   2.5957 N.pl3          1 S1                 0.0000
      7 ****         0.1087   1.0244   1.4117 C.ar           1 S1                 0.0000
      8 ****         1.1358   1.8987   1.2348 N.ar           1 S1                 0.0000
      9 ****         1.7946   1.9472   0.0743 C.ar           1 S1                 0.0000
     10 ****         1.5976   1.2211  -1.0265 N.ar           1 S1                 0.0000
     11 ****         0.5786   0.3315  -0.8562 C.ar           1 S1                 0.0000
     12 ****        -0.2143   0.1706   0.3165 C.ar           1 S1                 0.0000
     13 ****        -1.1556  -0.8314   0.1095 N.2            1 S1                 0.0000
     14 ****        -0.9385  -1.2312  -1.1131 C.2            1 S1                 0.0000
     15 ****         0.0941  -0.5955  -1.7635 N.pl3          1 S1                 0.0000
     16 ****         0.5507  -0.8398  -3.1240 C.3            1 S1                 0.0000
     17 ****         1.7249  -1.8467  -3.2320 C.3            1 S1                 0.0000
     18 ****         2.8237  -1.3694  -2.4779 O.3            1 S1                 0.0000
     19 ****         1.3806  -3.2647  -2.7696 C.3            1 S1                 0.0000
     20 ****         1.1145  -3.9983  -4.0763 C.3            1 S1                 0.0000
     21 ****         2.1020  -3.4554  -4.9335 O.3            1 S1                 0.0000
     22 ****         2.1577  -2.0539  -4.6980 C.3            1 S1                 0.0000
     23 ****         0.0914   1.6129   3.7593 C.3            1 S1                 0.0000
     24 ****         1.3376   0.9615   4.3165 C.3            1 S1                 0.0000
     25 ****         0.0351   0.8754   5.0765 C.3            1 S1                 0.0000
     26 ****        -4.4480   3.1096   1.0380 H              1 S1                 0.0000
     27 ****        -4.5660   2.2777   2.5866 H              1 S1                 0.0000
     28 ****        -4.3891   1.3514   1.0963 H              1 S1                 0.0000
     29 ****        -2.1308   2.3190   0.7497 H              1 S1                 0.0000
     30 ****        -2.4128   1.1196   3.5462 H              1 S1                 0.0000
     31 ****        -2.4131   0.1730   2.0966 H              1 S1                 0.0000
     32 ****         2.5926   2.6729   0.0198 H              1 S1                 0.0000
     33 ****        -1.5270  -2.0109  -1.5746 H              1 S1                 0.0000
     34 ****        -0.3003  -1.1940  -3.7073 H              1 S1                 0.0000
     35 ****         0.8390   0.1178  -3.5597 H              1 S1                 0.0000
     36 ****         3.5382  -1.9809  -2.5692 H              1 S1                 0.0000
     37 ****         2.2371  -3.7300  -2.2787 H              1 S1                 0.0000
     38 ****         0.5412  -3.3254  -2.0793 H              1 S1                 0.0000
     39 ****         1.2113  -5.0800  -3.9816 H              1 S1                 0.0000
     40 ****         0.1198  -3.7694  -4.4620 H              1 S1                 0.0000
     41 ****         1.4682  -1.5632  -5.3866 H              1 S1                 0.0000
     42 ****         3.1568  -1.6722  -4.9128 H              1 S1                 0.0000
     43 ****         0.0597   2.6986   3.8187 H              1 S1                 0.0000
     44 ****         1.6979   0.0552   3.8332 H              1 S1                 0.0000
     45 ****         2.1101   1.6174   4.7122 H              1 S1                 0.0000
     46 ****        -0.0601   1.4721   5.9814 H              1 S1                 0.0000
     47 ****        -0.4684  -0.0892   5.0990 H              1 S1                 0.0000
     48 ****        -1.5430   5.4607   3.2640 LP             1 S1                 0.0000
     49 ****         1.3998   2.5105   1.9804 LP             1 S1                 0.0000
     50 ****         2.1287   1.3167  -1.8684 LP             1 S1                 0.0000
     51 ****        -1.8433  -1.1691   0.7522 LP             1 S1                 0.0000
     52 ****         2.5648  -1.2945  -1.5150 LP             1 S1                 0.0000
     53 ****         3.1024  -0.4716  -2.8190 LP             1 S1                 0.0000
     54 ****         1.8584  -3.6309  -5.8874 LP             1 S1                 0.0000
     55 ****         2.9902  -3.8695  -4.7348 LP             1 S1                 0.0000
@<TRIPOS>BOND
    1    1    2 1     
    2    1   26 1     
    3    1   27 1     
    4    1   28 1     
    5    2    3 1     
    6    2    5 1     
    7    2   29 1     
    8    3    4 3     
    9    5    6 1     
   10    5   30 1     
   11    5   31 1     
   12    6    7 1     
   13    6   23 1     
   14    7   12 ar    
   15    7    8 ar    
   16    8    9 ar    
   17    9   10 ar    
   18    9   32 1     
   19   10   11 ar    
   20   11   15 1     
   21   11   12 ar    
   22   12   13 1     
   23   13   14 2     
   24   14   15 1     
   25   14   33 1     
   26   15   16 1     
   27   16   17 1     
   28   16   34 1     
   29   16   35 1     
   30   17   22 1     
   31   17   18 1     
   32   17   19 1     
   33   18   36 1     
   34   19   20 1     
   35   19   37 1     
   36   19   38 1     
   37   20   21 1     
   38   20   39 1     
   39   20   40 1     
   40   21   22 1     
   41   22   41 1     
   42   22   42 1     
   43   23   25 1     
   44   23   24 1     
   45   23   43 1     
   46   24   25 1     
   47   24   44 1     
   48   24   45 1     
   49   25   46 1     
   50   25   47 1     
   51    4   48 1     
   52    8   49 1     
   53   10   50 1     
   54   13   51 1     
   55   18   52 1     
   56   18   53 1     
   57   21   54 1     
   58   21   55 1     
@<TRIPOS>SUBSTRUCTURE
      1 S1             1
@<TRIPOS>SET
LONE_PAIRS      STATIC     ATOMS    <user>   **** ""
8 48 49 50 51 52 53 54 55
DONOR_HYDROGENS      STATIC     ATOMS    <user>   **** ""
1 36
ATOM$BLUE        STATIC     ATOMS    COLORGROUP SYSTEM
8 48 49 50 51 52 53 54 55
ATOM$RED        STATIC     ATOMS    COLORGROUP SYSTEM
1 36
