AV-unprocessed.smi:2093|AV-procd|sdf|8547|dock6
  -GOLD-   2272011273D 1   1.00000     0.00000
 Structure written by MMmdl.
 31 32  0  0  0  0  0  0  0  0  1 V2000
  147.9665  140.5555  155.4122 C   0  0  0  0  0  0  0  0  0  0  0  0
  149.4150  140.8580  154.9986 C   0  0  1  0  0  0  0  0  0  0  0  0
  149.8844  142.0227  155.7461 N   0  0  0  0  0  0  0  0  0  0  0  0
  150.3713  142.0114  156.9958 C   0  0  0  0  0  0  0  0  0  0  0  0
  150.5014  140.9892  157.6699 O   0  0  0  0  0  0  0  0  0  0  0  0
  150.6901  143.2531  157.4009 N   0  0  0  0  0  0  0  0  0  0  0  0
  151.2307  143.6584  158.6492 C   0  0  0  0  0  0  0  0  0  0  0  0
  151.3095  142.8725  159.7297 N   0  0  0  0  0  0  0  0  0  0  0  0
  151.8861  143.5328  160.8176 C   0  0  0  0  0  0  0  0  0  0  0  0
  152.2437  144.8298  160.5459 C   0  0  0  0  0  0  0  0  0  0  0  0
  151.8685  145.2765  158.9029 S   0  0  0  0  0  0  0  0  0  0  0  0
  150.3622  139.6709  155.2603 C   0  0  1  0  0  0  0  0  0  0  0  0
  150.1330  138.4555  154.3594 C   0  0  0  0  0  0  0  0  0  0  0  0
  151.4930  137.7747  154.3135 C   0  0  0  0  0  0  0  0  0  0  0  0
  152.4530  138.8157  154.8945 C   0  0  0  0  0  0  0  0  0  0  0  0
  151.7017  140.0194  154.9449 O   0  0  0  0  0  0  0  0  0  0  0  0
  147.5580  139.7183  154.8460 H   0  0  0  0  0  0  0  0  0  0  0  0
  147.3204  141.4153  155.2310 H   0  0  0  0  0  0  0  0  0  0  0  0
  147.8994  140.3059  156.4717 H   0  0  0  0  0  0  0  0  0  0  0  0
  149.4186  141.0684  153.9277 H   0  0  0  0  0  0  0  0  0  0  0  0
  149.8147  142.9136  155.2770 H   0  0  0  0  0  0  0  0  0  0  0  0
  150.5239  143.9968  156.7393 H   0  0  0  0  0  0  0  0  0  0  0  0
  152.0044  143.0023  161.7509 H   0  0  0  0  0  0  0  0  0  0  0  0
  152.7030  145.5465  161.2103 H   0  0  0  0  0  0  0  0  0  0  0  0
  150.3157  139.3690  156.3087 H   0  0  0  0  0  0  0  0  0  0  0  0
  149.3458  137.7997  154.7323 H   0  0  0  0  0  0  0  0  0  0  0  0
  149.8542  138.7768  153.3548 H   0  0  0  0  0  0  0  0  0  0  0  0
  151.5068  136.8612  154.9090 H   0  0  0  0  0  0  0  0  0  0  0  0
  151.7590  137.5119  153.2889 H   0  0  0  0  0  0  0  0  0  0  0  0
  152.7535  138.5382  155.9060 H   0  0  0  0  0  0  0  0  0  0  0  0
  153.3540  138.9383  154.2931 H   0  0  0  0  0  0  0  0  0  0  0  0
  1  2  1  0  0  0  0
  1 17  1  0  0  0  0
  1 18  1  0  0  0  0
  1 19  1  0  0  0  0
  2  3  1  0  0  0  0
  2 12  1  0  0  0  0
  2 20  1  0  0  0  0
  3  4  1  0  0  0  0
  3 21  1  0  0  0  0
  4  5  2  0  0  0  0
  4  6  1  0  0  0  0
  6  7  1  0  0  0  0
  6 22  1  0  0  0  0
  7 11  1  0  0  0  0
  7  8  2  0  0  0  0
  8  9  1  0  0  0  0
  9 10  2  0  0  0  0
  9 23  1  0  0  0  0
 10 11  1  0  0  0  0
 10 24  1  0  0  0  0
 12 16  1  0  0  0  0
 12 13  1  0  0  0  0
 12 25  1  0  0  0  0
 13 14  1  0  0  0  0
 13 26  1  0  0  0  0
 13 27  1  0  0  0  0
 14 15  1  0  0  0  0
 14 28  1  0  0  0  0
 14 29  1  0  0  0  0
 15 16  1  0  0  0  0
 15 30  1  0  0  0  0
 15 31  1  0  0  0  0
M  END
> <s_m_source_file>
AV-unprocessed.smi

> <i_m_source_file_index>
2093

> <i_lp_mmshare_version>
43012

> <i_f3d_flags>
0

> <s_epik_input>
TzFbQ0gyXVtDSDJdW0NIMl1bQ0BIXTFbQ0BIXShbQ0gzXSlbTkhdQyg9TylbTkhdYzJuW2NIXVtjSF1zMg==

> <s_epik_cmdline>
J2VwaWtfcHl0aG9uJywgJy1waCcsICc3LjAnLCAnLXRuJywgJzgnLCAnLW1hJywgJzIwMCcsICctbWV0YWxfYmluZGluZycsICctaW1hZScsICc8aW5maWxlLm1hZT4nLCAnLW9tYWUnLCAnPG91dGZpbGUubWFlPic=

> <r_lp_tautomer_probability>
0.999

> <r_epik_Ionization_Penalty>
0.000334433

> <r_epik_Ionization_Penalty_Charging>
0

> <r_epik_Ionization_Penalty_Neutral>
0.000334433

> <r_epik_State_Penalty>
0.000177984

> <r_epik_Charging_Adjusted_Penalty>
0.000177984

> <i_epik_Tot_Q>
0

> <i_epik_Tot_abs_Q>
0

> <r_epik_Metal_State_Penalty>
0.00767616

> <b_epik_Metal_Only>
0

> <s_lp_Force_Field>
OPLS_2005

> <r_lp_Energy>
16.8099

> <b_lp_Chiralities_Consistent>
1

> <s_lp_Variant>
AV-unprocessed.smi:2093-4

> <Gold.Version>
5.8.1

> <Gold.Id.Protein>
6NUR|6NUR_protein|mol2

> <Gold.PLP.Fitness>
43.4892

> <Gold.PLP.PLP>
-36.3574

> <Gold.PLP.part.hbond>
-3.2557

> <Gold.PLP.part.metal>
0.0000

> <Gold.PLP.part.buried>
-6.4472

> <Gold.PLP.part.nonpolar>
-27.4344

> <Gold.PLP.part.repulsive>
0.2252

> <Gold.PLP.ligand.clash>
0.0000

> <Gold.PLP.ligand.torsion>
0.3815

> <Gold.PLP.Chemscore.Hbond>
2.6240

> <Gold.PLP.Chemscore.CHOScore>
0.0000

> <Gold.PLP.Chemscore.Metal>
0.0000

> <Gold.Chemscore.Hbonds>
donor molecule, donor type, donor heavy atom, donor atom, acceptor molecule, acceptor atom, score
      L1  H     3    21       P1  8028  0.68
      L1  H     6    22       P1  8028  0.67
      P1  H  7989  7998       L1    16  1.00

> <Gold.PLP.Chemscore.Internal.Correction>
0.0228

> <Gold.Rescore>
     Score         DG    S(hbond)    S(metal)    S(lipo)     H(rot)  DE(clash)    DE(int)     intcor
     16.75     -20.01       2.72        0.00      74.88       1.29       0.04       3.22       ----

> <Gold.Chemscore.Fitness>
16.7509

> <Gold.Chemscore.DG>
-20.0135

> <Gold.Chemscore.ZeroCoef>
-5.4800

> <Gold.Chemscore.Hbond>
2.7201

> <Gold.Chemscore.Metal>
0.0000

> <Gold.Chemscore.Lipo>
74.8781

> <Gold.Chemscore.Internal_Hbond>
0.0000

> <Gold.Chemscore.DEClash>
0.0445

> <Gold.Chemscore.DEInternal>
3.2181

> <Gold.Chemscore.Rot>
1.2938

> <Gold.Chemscore.Internal.Correction>
   9.000000E+99

> <Gold.Chemscore.Hbonds>
donor molecule, donor type, donor heavy atom, donor atom, acceptor molecule, acceptor atom, score
      L1  H     3    21       P1  8028  0.65
      L1  H     6    22       P1  8028  0.64
      P1  H  7989  7998       L1    16  0.51

> <Gold.Chemscore.Hbond.Weighted>
-9.0850

> <Gold.Chemscore.Metal.Weighted>
-0.0000

> <Gold.Chemscore.Lipo.Weighted>
-8.7607

> <Gold.Chemscore.Internal_Hbond.Weighted>
0.0000

> <Gold.Chemscore.DEClash.Weighted>
0.0445

> <Gold.Chemscore.DEInternal.Weighted>
3.2181

> <Gold.Chemscore.Rot.Weighted>
3.3122

> <Gold.Chemscore.Internal.Correction.Weighted>
   9.000000E+99

> <Gold.Protein.RotatedTorsions>
[ 6907 6896 6895 6894 ] final  106.29 input  -60.11 | X-H torsion
[ 7974 7965 7964 7962 ] final  -80.85 input  175.53 | X-H torsion
[ 8008 7997 7996 7995 ] final -139.73 input   59.86 | X-H torsion
[ 10167 10162 10161 10158 ] final   35.52 input  -65.29 | X-H torsion
[ 10718 10713 10712 10709 ] final  166.82 input   66.30 | X-H torsion
[ 10763 10752 10751 10750 ] final -109.39 input  -60.55 | X-H torsion
[ 11005 11000 10999 10996 ] final  155.11 input  -57.11 | X-H torsion

> <Gold.Protein.ActiveResidues>
 VAL166  LYS551  ARG553  GLY616  TRP617  ASP618  TYR619  PRO620  LYS621  CYS622 
 ASP623  PHE694  ASN695  SER759  ASP760  ASP761  ALA762  ILE779  LEU786  VAL792 
 PHE793  MET794  SER795  GLU796  ALA797  LYS798  CYS799  TRP800  GLU811  SER814 

> <Gold.Protein.RotatedAtoms>
  152.5199  133.9403  159.7622 H   0  0  0  0  0  0  0  0  0  0  0  0  # atno 6907 bound_to 6896
  150.9734  133.6311  159.2741 H   0  0  0  0  0  0  0  0  0  0  0  0  # atno 6908 bound_to 6896
  151.3514  135.0891  159.9457 H   0  0  0  0  0  0  0  0  0  0  0  0  # atno 6909 bound_to 6896
  145.5544  140.9492  143.1481 H   0  0  0  0  0  0  0  0  0  0  0  0  # atno 7974 bound_to 7965
  155.4497  140.0538  157.3002 H   0  0  0  0  0  0  0  0  0  0  0  0  # atno 8008 bound_to 7997
  154.4782  140.2070  155.9782 H   0  0  0  0  0  0  0  0  0  0  0  0  # atno 8009 bound_to 7997
  156.1165  140.3195  155.8152 H   0  0  0  0  0  0  0  0  0  0  0  0  # atno 8010 bound_to 7997
  140.4214  144.1455  150.6148 H   0  0  0  0  0  0  0  0  0  0  0  0  # atno 10167 bound_to 10162
  157.0604  131.0338  151.2649 H   0  0  0  0  0  0  0  0  0  0  0  0  # atno 10718 bound_to 10713
  154.8190  135.4603  154.0725 H   0  0  0  0  0  0  0  0  0  0  0  0  # atno 10763 bound_to 10752
  153.2094  135.6880  153.8139 H   0  0  0  0  0  0  0  0  0  0  0  0  # atno 10764 bound_to 10752
  153.7595  135.3286  155.3311 H   0  0  0  0  0  0  0  0  0  0  0  0  # atno 10765 bound_to 10752
  140.1551  134.8648  157.2504 H   0  0  0  0  0  0  0  0  0  0  0  0  # atno 11005 bound_to 11000
  144.7513  139.7186  143.7272 LP  0  0  0  0  0  0  0  0  0  0  0  0  # atno 17320 bound_to 7965
  146.1894  139.5127  142.9815 LP  0  0  0  0  0  0  0  0  0  0  0  0  # atno 17321 bound_to 7965
  140.4530  143.2479  151.9323 LP  0  0  0  0  0  0  0  0  0  0  0  0  # atno 17342 bound_to 10162
  139.4782  144.5544  151.8337 LP  0  0  0  0  0  0  0  0  0  0  0  0  # atno 17343 bound_to 10162
  157.4959  130.7850  149.7555 LP  0  0  0  0  0  0  0  0  0  0  0  0  # atno 17370 bound_to 10713
  155.9980  130.3896  150.2718 LP  0  0  0  0  0  0  0  0  0  0  0  0  # atno 17371 bound_to 10713
  140.2557  134.3630  155.7425 LP  0  0  0  0  0  0  0  0  0  0  0  0  # atno 17394 bound_to 11000
  141.2203  133.7341  156.9004 LP  0  0  0  0  0  0  0  0  0  0  0  0  # atno 17395 bound_to 11000

$$$$
