AV-unprocessed.smi:100|AV-procd|sdf|905|dock4
  -GOLD-   2262017403D 1   1.00000     0.00000
 Structure written by MMmdl.
 31 33  0  0  0  0  0  0  0  0  1 V2000
  152.7906  140.3304  158.9265 N   0  0  0  0  0  0  0  0  0  0  0  0
  152.3255  140.1607  157.6813 C   0  0  0  0  0  0  0  0  0  0  0  0
  152.9433  139.2611  156.8796 N   0  0  0  0  0  0  0  0  0  0  0  0
  152.4965  139.0729  155.6329 C   0  0  0  0  0  0  0  0  0  0  0  0
  151.4735  139.6679  155.0118 N   0  0  0  0  0  0  0  0  0  0  0  0
  150.8557  140.5744  155.8243 C   0  0  0  0  0  0  0  0  0  0  0  0
  151.2168  140.8774  157.1652 C   0  0  0  0  0  0  0  0  0  0  0  0
  150.3621  141.8448  157.6768 N   0  0  0  0  0  0  0  0  0  0  0  0
  149.5428  142.0948  156.6898 C   0  0  0  0  0  0  0  0  0  0  0  0
  149.7688  141.3702  155.5374 N   0  0  0  0  0  0  0  0  0  0  0  0
  149.0338  141.4051  154.2310 C   0  0  2  0  0  0  0  0  0  0  0  0
  148.2257  142.5465  154.2109 O   0  0  0  0  0  0  0  0  0  0  0  0
  146.8707  142.1781  154.4479 C   0  0  1  0  0  0  0  0  0  0  0  0
  145.9208  143.2666  153.9286 C   0  0  0  0  0  0  0  0  0  0  0  0
  144.5941  142.9623  154.3023 O   0  0  0  0  0  0  0  0  0  0  0  0
  146.7942  140.8693  153.6676 C   0  0  2  0  0  0  0  0  0  0  0  0
  145.7123  140.1367  153.9387 F   0  0  0  0  0  0  0  0  0  0  0  0
  148.0996  140.1847  154.0423 C   0  0  2  0  0  0  0  0  0  0  0  0
  147.9437  139.3934  155.2102 O   0  0  0  0  0  0  0  0  0  0  0  0
  152.3444  140.9953  159.5421 H   0  0  0  0  0  0  0  0  0  0  0  0
  153.5830  139.7931  159.2471 H   0  0  0  0  0  0  0  0  0  0  0  0
  153.0354  138.3406  155.0499 H   0  0  0  0  0  0  0  0  0  0  0  0
  148.7483  142.8209  156.7816 H   0  0  0  0  0  0  0  0  0  0  0  0
  149.8143  141.4868  153.4733 H   0  0  0  0  0  0  0  0  0  0  0  0
  146.7075  141.9843  155.5098 H   0  0  0  0  0  0  0  0  0  0  0  0
  146.2044  144.2521  154.2992 H   0  0  0  0  0  0  0  0  0  0  0  0
  145.9543  143.3057  152.8394 H   0  0  0  0  0  0  0  0  0  0  0  0
  144.0266  143.1377  153.5671 H   0  0  0  0  0  0  0  0  0  0  0  0
  146.7797  141.0749  152.5961 H   0  0  0  0  0  0  0  0  0  0  0  0
  148.4717  139.5541  153.2343 H   0  0  0  0  0  0  0  0  0  0  0  0
  147.0201  139.3126  155.3945 H   0  0  0  0  0  0  0  0  0  0  0  0
  1  2  1  0  0  0  0
  1 20  1  0  0  0  0
  1 21  1  0  0  0  0
  2  7  1  0  0  0  0
  2  3  2  0  0  0  0
  3  4  1  0  0  0  0
  4  5  2  0  0  0  0
  4 22  1  0  0  0  0
  5  6  1  0  0  0  0
  6 10  1  0  0  0  0
  6  7  2  0  0  0  0
  7  8  1  0  0  0  0
  8  9  2  0  0  0  0
  9 10  1  0  0  0  0
  9 23  1  0  0  0  0
 10 11  1  0  0  0  0
 11 18  1  0  0  0  0
 11 12  1  0  0  0  0
 11 24  1  0  0  0  0
 12 13  1  0  0  0  0
 13 14  1  0  0  0  0
 13 16  1  0  0  0  0
 13 25  1  0  0  0  0
 14 15  1  0  0  0  0
 14 26  1  0  0  0  0
 14 27  1  0  0  0  0
 15 28  1  0  0  0  0
 16 17  1  0  0  0  0
 16 18  1  0  0  0  0
 16 29  1  0  0  0  0
 18 19  1  0  0  0  0
 18 30  1  0  0  0  0
 19 31  1  0  0  0  0
M  END
> <s_m_source_file>
AV-unprocessed.smi

> <i_m_source_file_index>
100

> <i_lp_mmshare_version>
43012

> <i_f3d_flags>
0

> <s_epik_input>
bjFbY0hdbmMoW05IMl0pYyhjMTIpbltjSF1uMltDQEBIXTNPW0NAQEhdKFtDSDJdW09IXSlbQ0BIXShGKVtDQEhdM1tPSF0=

> <s_epik_cmdline>
J2VwaWtfcHl0aG9uJywgJy1waCcsICc3LjAnLCAnLXRuJywgJzgnLCAnLW1hJywgJzIwMCcsICctbWV0YWxfYmluZGluZycsICctaW1hZScsICc8aW5maWxlLm1hZT4nLCAnLW9tYWUnLCAnPG91dGZpbGUubWFlPic=

> <r_lp_tautomer_probability>
1

> <r_epik_Ionization_Penalty>
0.000750324

> <r_epik_Ionization_Penalty_Charging>
0

> <r_epik_Ionization_Penalty_Neutral>
0.000750324

> <r_epik_State_Penalty>
-0

> <r_epik_Charging_Adjusted_Penalty>
0

> <i_epik_Tot_Q>
0

> <i_epik_Tot_abs_Q>
0

> <r_epik_Metal_State_Penalty>
-0

> <b_epik_Metal_Only>
0

> <s_epik_Chemistry_Notes>
This compound contains an acetal/aminal-like group ( X-CH(R)-Y where X, Y are N, S, or O) that may be acid/base labile, releasing an aldehyde.

> <s_lp_Force_Field>
OPLS_2005

> <r_lp_Energy>
36.1234

> <b_lp_Chiralities_Consistent>
1

> <s_lp_Variant>
AV-unprocessed.smi:100-9

> <Gold.Version>
5.8.1

> <Gold.Id.Protein>
6NUR|6NUR_protein|mol2

> <Gold.PLP.Fitness>
34.1136

> <Gold.PLP.PLP>
-24.0868

> <Gold.PLP.part.hbond>
-4.8947

> <Gold.PLP.part.metal>
0.0000

> <Gold.PLP.part.buried>
4.9522

> <Gold.PLP.part.nonpolar>
-27.7488

> <Gold.PLP.part.repulsive>
3.3531

> <Gold.PLP.ligand.clash>
0.0000

> <Gold.PLP.ligand.torsion>
0.4472

> <Gold.PLP.Chemscore.Hbond>
2.8542

> <Gold.PLP.Chemscore.CHOScore>
0.7755

> <Gold.PLP.Chemscore.Metal>
0.0000

> <Gold.Chemscore.Hbonds>
donor molecule, donor type, donor heavy atom, donor atom, acceptor molecule, acceptor atom, score
      L1  H    15    28       P1 10174  0.72
      P1  H  7989  7998       L1     5  0.80
      P1  H  7997  8009       L1     3  0.95
      P1  H  8022  8030       L1    12  0.28
      L1  C     9    23       P1  8028  0.80

> <Gold.PLP.Chemscore.Internal.Correction>
0.0321

> <Gold.Rescore>
     Score         DG    S(hbond)    S(metal)    S(lipo)     H(rot)  DE(clash)    DE(int)     intcor
      3.72      -7.95       2.09        0.00      31.10       3.19       3.64       0.59       ----

> <Gold.Chemscore.Fitness>
3.7225

> <Gold.Chemscore.DG>
-7.9482

> <Gold.Chemscore.ZeroCoef>
-5.4800

> <Gold.Chemscore.Hbond>
2.0948

> <Gold.Chemscore.Metal>
0.0000

> <Gold.Chemscore.Lipo>
31.0973

> <Gold.Chemscore.Internal_Hbond>
0.0000

> <Gold.Chemscore.DEClash>
3.6362

> <Gold.Chemscore.DEInternal>
0.5895

> <Gold.Chemscore.Rot>
3.1901

> <Gold.Chemscore.Internal.Correction>
   9.000000E+99

> <Gold.Chemscore.Hbonds>
donor molecule, donor type, donor heavy atom, donor atom, acceptor molecule, acceptor atom, score
      L1  H    15    28       P1 10174  0.10
      P1  H  7989  7998       L1     5  0.12
      P1  H  7997  8009       L1     3  0.06
      P1  H  8022  8030       L1    12  0.26

> <Gold.Chemscore.Hbond.Weighted>
-6.9965

> <Gold.Chemscore.Metal.Weighted>
-0.0000

> <Gold.Chemscore.Lipo.Weighted>
-3.6384

> <Gold.Chemscore.Internal_Hbond.Weighted>
0.0000

> <Gold.Chemscore.DEClash.Weighted>
3.6362

> <Gold.Chemscore.DEInternal.Weighted>
0.5895

> <Gold.Chemscore.Rot.Weighted>
8.1667

> <Gold.Chemscore.Internal.Correction.Weighted>
   9.000000E+99

> <Gold.Protein.RotatedTorsions>
[ 6907 6896 6895 6894 ] final   70.08 input  -60.11 | X-H torsion
[ 7974 7965 7964 7962 ] final -174.97 input  175.53 | X-H torsion
[ 8008 7997 7996 7995 ] final -174.02 input   59.86 | X-H torsion
[ 10167 10162 10161 10158 ] final   81.58 input  -65.29 | X-H torsion
[ 10718 10713 10712 10709 ] final   96.12 input   66.30 | X-H torsion
[ 10763 10752 10751 10750 ] final  132.32 input  -60.55 | X-H torsion
[ 11005 11000 10999 10996 ] final  162.68 input  -57.11 | X-H torsion

> <Gold.Protein.ActiveResidues>
 VAL166  LYS551  ARG553  GLY616  TRP617  ASP618  TYR619  PRO620  LYS621  CYS622 
 ASP623  PHE694  ASN695  SER759  ASP760  ASP761  ALA762  ILE779  LEU786  VAL792 
 PHE793  MET794  SER795  GLU796  ALA797  LYS798  CYS799  TRP800  GLU811  SER814 

> <Gold.Protein.RotatedAtoms>
  152.4727  134.4921  159.9698 H   0  0  0  0  0  0  0  0  0  0  0  0  # atno 6907 bound_to 6896
  151.4944  133.3512  159.2866 H   0  0  0  0  0  0  0  0  0  0  0  0  # atno 6908 bound_to 6896
  150.8746  134.8154  159.7242 H   0  0  0  0  0  0  0  0  0  0  0  0  # atno 6909 bound_to 6896
  144.7129  140.1391  143.6393 H   0  0  0  0  0  0  0  0  0  0  0  0  # atno 7974 bound_to 7965
  155.9649  140.1151  157.0864 H   0  0  0  0  0  0  0  0  0  0  0  0  # atno 8008 bound_to 7997
  154.4141  140.1175  156.5295 H   0  0  0  0  0  0  0  0  0  0  0  0  # atno 8009 bound_to 7997
  155.6673  140.3473  155.4807 H   0  0  0  0  0  0  0  0  0  0  0  0  # atno 8010 bound_to 7997
  139.9377  144.6110  150.8282 H   0  0  0  0  0  0  0  0  0  0  0  0  # atno 10167 bound_to 10162
  157.6931  131.0567  150.4442 H   0  0  0  0  0  0  0  0  0  0  0  0  # atno 10718 bound_to 10713
  153.7887  135.3158  155.3375 H   0  0  0  0  0  0  0  0  0  0  0  0  # atno 10763 bound_to 10752
  154.8134  135.4652  154.0580 H   0  0  0  0  0  0  0  0  0  0  0  0  # atno 10764 bound_to 10752
  153.1891  135.6905  153.8462 H   0  0  0  0  0  0  0  0  0  0  0  0  # atno 10765 bound_to 10752
  140.2282  134.8144  157.3290 H   0  0  0  0  0  0  0  0  0  0  0  0  # atno 11005 bound_to 11000
  145.9218  139.2550  143.1377 LP  0  0  0  0  0  0  0  0  0  0  0  0  # atno 17320 bound_to 7965
  145.9612  140.8834  143.0210 LP  0  0  0  0  0  0  0  0  0  0  0  0  # atno 17321 bound_to 7965
  140.7620  143.3187  151.2673 LP  0  0  0  0  0  0  0  0  0  0  0  0  # atno 17342 bound_to 10162
  139.6730  143.9987  152.2764 LP  0  0  0  0  0  0  0  0  0  0  0  0  # atno 17343 bound_to 10162
  156.4798  130.4071  149.6468 LP  0  0  0  0  0  0  0  0  0  0  0  0  # atno 17370 bound_to 10713
  156.3518  130.7436  151.2396 LP  0  0  0  0  0  0  0  0  0  0  0  0  # atno 17371 bound_to 10713
  140.1778  134.4527  155.7790 LP  0  0  0  0  0  0  0  0  0  0  0  0  # atno 17394 bound_to 11000
  141.2219  133.6970  156.7818 LP  0  0  0  0  0  0  0  0  0  0  0  0  # atno 17395 bound_to 11000

$$$$
