#       Name:                AV-unprocessed.smi:1
#       Creating user name   scv26
#       Creation time:       Thu Mar 26 15:09:16 2020


#       File generated by GOLD software.
#

@<TRIPOS>MOLECULE
AV-unprocessed.smi:1
    66    71     1
SMALL
NO_CHARGES


@<TRIPOS>ATOM
      1 ****        -4.6712   0.6231  -1.6536 O.2            1 S1                 0.0000
      2 ****        -4.7588  -0.1937  -0.7360 C.2            1 S1                 0.0000
      3 ****        -3.5921  -0.8431  -0.1654 N.am           1 S1                 0.0000
      4 ****        -2.2884  -0.6166  -0.4496 C.ar           1 S1                 0.0000
      5 ****        -1.8846   0.3971  -1.2605 N.ar           1 S1                 0.0000
      6 ****        -0.5849   0.5833  -1.5087 C.ar           1 S1                 0.0000
      7 ****         0.4574  -0.1162  -1.0565 N.ar           1 S1                 0.0000
      8 ****         0.0610  -1.1301  -0.2348 C.ar           1 S1                 0.0000
      9 ****        -1.2817  -1.4413   0.1163 C.ar           1 S1                 0.0000
     10 ****        -1.3021  -2.5355   0.9723 N.2            1 S1                 0.0000
     11 ****        -0.0420  -2.8485   1.1158 C.2            1 S1                 0.0000
     12 ****         0.8446  -2.0566   0.4208 N.pl3          1 S1                 0.0000
     13 ****         2.3308  -2.1648   0.3835 C.3            1 S1                 0.0000
     14 ****         2.8841  -0.9001   0.5581 O.3            1 S1                 0.0000
     15 ****         4.0623  -0.7493  -0.2368 C.3            1 S1                 0.0000
     16 ****         3.8604   0.4580  -1.1619 C.3            1 S1                 0.0000
     17 ****         3.7671   1.6356  -0.3751 O.3            1 S1                 0.0000
     18 ****         3.0182   2.6789  -0.7877 C.2            1 S1                 0.0000
     19 ****         2.4089   2.7047  -1.8592 O.2            1 S1                 0.0000
     20 ****         3.0044   3.8036   0.1913 C.ar           1 S1                 0.0000
     21 ****         2.2766   4.9778  -0.1124 C.ar           1 S1                 0.0000
     22 ****         2.2447   6.0564   0.7929 C.ar           1 S1                 0.0000
     23 ****         2.9394   5.9735   2.0136 C.ar           1 S1                 0.0000
     24 ****         3.6664   4.8106   2.3280 C.ar           1 S1                 0.0000
     25 ****         3.6997   3.7311   1.4238 C.ar           1 S1                 0.0000
     26 ****         4.2103  -2.0577  -1.0241 C.3            1 S1                 0.0000
     27 ****         5.1122  -2.9326  -0.3677 O.3            1 S1                 0.0000
     28 ****         4.4822  -4.4794  -0.4303 S.o2           1 S1                 0.0000
     29 ****         5.1671  -5.2143  -1.5044 O.2            1 S1                 0.0000
     30 ****         4.3834  -4.9922   0.9447 O.2            1 S1                 0.0000
     31 ****         2.9443  -4.0944  -0.9595 O.3            1 S1                 0.0000
     32 ****         2.8161  -2.6838  -0.9672 C.3            1 S1                 0.0000
     33 ****        -6.0882  -0.6459  -0.2061 C.ar           1 S1                 0.0000
     34 ****        -7.2265  -0.6273  -1.0433 C.ar           1 S1                 0.0000
     35 ****        -8.4813  -1.0343  -0.5496 C.ar           1 S1                 0.0000
     36 ****        -8.6102  -1.4547   0.7875 C.ar           1 S1                 0.0000
     37 ****        -7.4837  -1.4657   1.6316 C.ar           1 S1                 0.0000
     38 ****        -6.2282  -1.0599   1.1389 C.ar           1 S1                 0.0000
     39 ****        -3.7773  -1.5485   0.5329 H              1 S1                 0.0000
     40 ****        -0.3458   1.4096  -2.1622 H              1 S1                 0.0000
     41 ****         0.2777  -3.6743   1.7349 H              1 S1                 0.0000
     42 ****         2.6014  -2.8049   1.2244 H              1 S1                 0.0000
     43 ****         4.9294  -0.5849   0.4042 H              1 S1                 0.0000
     44 ****         4.7063   0.5601  -1.8421 H              1 S1                 0.0000
     45 ****         2.9718   0.3061  -1.7749 H              1 S1                 0.0000
     46 ****         1.7357   5.0646  -1.0438 H              1 S1                 0.0000
     47 ****         1.6868   6.9485   0.5493 H              1 S1                 0.0000
     48 ****         2.9144   6.8005   2.7078 H              1 S1                 0.0000
     49 ****         4.2004   4.7456   3.2645 H              1 S1                 0.0000
     50 ****         4.2664   2.8531   1.6971 H              1 S1                 0.0000
     51 ****         4.5551  -1.9059  -2.0477 H              1 S1                 0.0000
     52 ****         2.1815  -2.3210  -1.7767 H              1 S1                 0.0000
     53 ****        -7.1441  -0.3060  -2.0718 H              1 S1                 0.0000
     54 ****        -9.3455  -1.0217  -1.1972 H              1 S1                 0.0000
     55 ****        -9.5729  -1.7651   1.1663 H              1 S1                 0.0000
     56 ****        -7.5831  -1.7824   2.6593 H              1 S1                 0.0000
     57 ****        -5.3787  -1.0663   1.8065 H              1 S1                 0.0000
     58 ****        -3.7750   0.8582  -2.0298 LP             1 S1                 0.0000
     59 ****        -5.4962   1.0511  -2.0225 LP             1 S1                 0.0000
     60 ****        -2.5626   1.0055  -1.6727 LP             1 S1                 0.0000
     61 ****         1.4099   0.0785  -1.2907 LP             1 S1                 0.0000
     62 ****        -2.0975  -2.9806   1.3835 LP             1 S1                 0.0000
     63 ****         3.1203  -0.7755   1.5218 LP             1 S1                 0.0000
     64 ****         2.2146  -0.2087   0.2868 LP             1 S1                 0.0000
     65 ****         2.4539   1.9211  -2.4789 LP             1 S1                 0.0000
     66 ****         1.8698   3.5091  -2.1085 LP             1 S1                 0.0000
@<TRIPOS>BOND
    1    1    2 2     
    2    2    3 am    
    3    2   33 1     
    4    3    4 1     
    5    3   39 1     
    6    4    9 ar    
    7    4    5 ar    
    8    5    6 ar    
    9    6    7 ar    
   10    6   40 1     
   11    7    8 ar    
   12    8   12 1     
   13    8    9 ar    
   14    9   10 1     
   15   10   11 2     
   16   11   12 1     
   17   11   41 1     
   18   12   13 1     
   19   13   32 1     
   20   13   14 1     
   21   13   42 1     
   22   14   15 1     
   23   15   16 1     
   24   15   26 1     
   25   15   43 1     
   26   16   17 1     
   27   16   44 1     
   28   16   45 1     
   29   17   18 1     
   30   18   19 2     
   31   18   20 1     
   32   20   25 ar    
   33   20   21 ar    
   34   21   22 ar    
   35   21   46 1     
   36   22   23 ar    
   37   22   47 1     
   38   23   24 ar    
   39   23   48 1     
   40   24   25 ar    
   41   24   49 1     
   42   25   50 1     
   43   26   32 1     
   44   26   27 1     
   45   26   51 1     
   46   27   28 1     
   47   28   29 2     
   48   28   30 2     
   49   28   31 1     
   50   31   32 1     
   51   32   52 1     
   52   33   38 ar    
   53   33   34 ar    
   54   34   35 ar    
   55   34   53 1     
   56   35   36 ar    
   57   35   54 1     
   58   36   37 ar    
   59   36   55 1     
   60   37   38 ar    
   61   37   56 1     
   62   38   57 1     
   63    1   58 1     
   64    1   59 1     
   65    5   60 1     
   66    7   61 1     
   67   10   62 1     
   68   14   63 1     
   69   14   64 1     
   70   19   65 1     
   71   19   66 1     
@<TRIPOS>SUBSTRUCTURE
      1 S1             1
@<TRIPOS>SET
LONE_PAIRS      STATIC     ATOMS    <user>   **** ""
11 58 59 60 61 62 63 64 65 66 29 30
DONOR_HYDROGENS      STATIC     ATOMS    <user>   **** ""
1 39
ATOM$BLUE        STATIC     ATOMS    COLORGROUP SYSTEM
11 58 59 60 61 62 63 64 65 66 29 30
ATOM$RED        STATIC     ATOMS    COLORGROUP SYSTEM
1 39
