#       Name:                AV-unprocessed.smi:3030
#       Creating user name   scv26
#       Creation time:       Fri Mar 27 16:48:52 2020


#       File generated by GOLD software.
#

@<TRIPOS>MOLECULE
AV-unprocessed.smi:3030
    56    57     1
SMALL
NO_CHARGES


@<TRIPOS>ATOM
      1 ****        -3.8022   5.2144   0.7778 C.3            1 S1                 0.0000
      2 ****        -4.0050   4.1052   1.8158 C.3            1 S1                 0.0000
      3 ****        -4.1603   2.8009   1.1882 N.pl3          1 S1                 0.0000
      4 ****        -5.4170   2.2999   0.8655 C.2            1 S1                 0.0000
      5 ****        -5.6300   1.0777   0.3408 C.2            1 S1                 0.0000
      6 ****        -4.4782   0.1892   0.0850 C.2            1 S1                 0.0000
      7 ****        -4.6371  -0.9337  -0.3940 O.2            1 S1                 0.0000
      8 ****        -3.1347   0.7224   0.4348 C.2            1 S1                 0.0000
      9 ****        -2.0452  -0.1273   0.1806 N.am           1 S1                 0.0000
     10 ****        -0.7434   0.0384   0.4779 C.2            1 S1                 0.0000
     11 ****        -0.2535   0.9982   1.0722 O.2            1 S1                 0.0000
     12 ****        -0.0210  -1.0028   0.0410 N.am           1 S1                 0.0000
     13 ****         1.4265  -1.1522   0.1809 C.3            1 S1                 0.0000
     14 ****         1.7322  -1.8836   1.5064 C.3            1 S1                 0.0000
     15 ****         3.2343  -2.1532   1.7138 C.3            1 S1                 0.0000
     16 ****         4.0212  -0.8803   2.0727 C.3            1 S1                 0.0000
     17 ****         3.8178  -2.8906   0.4950 C.3            1 S1                 0.0000
     18 ****         3.5329  -2.1574  -0.8257 C.3            1 S1                 0.0000
     19 ****         2.0202  -1.9111  -1.0377 C.3            1 S1                 0.0000
     20 ****         1.6918  -1.2527  -2.4119 C.3            1 S1                 0.0000
     21 ****         2.0383  -2.1680  -3.5990 C.3            1 S1                 0.0000
     22 ****         2.3103   0.1443  -2.6049 C.3            1 S1                 0.0000
     23 ****        -3.0627   1.9748   0.9547 C.2            1 S1                 0.0000
     24 ****        -3.6802   6.1820   1.2645 H              1 S1                 0.0000
     25 ****        -4.6571   5.2851   0.1048 H              1 S1                 0.0000
     26 ****        -2.9132   5.0312   0.1737 H              1 S1                 0.0000
     27 ****        -3.1573   4.0800   2.5016 H              1 S1                 0.0000
     28 ****        -4.8833   4.3238   2.4243 H              1 S1                 0.0000
     29 ****        -6.2322   2.9806   1.0643 H              1 S1                 0.0000
     30 ****        -6.6251   0.7321   0.1017 H              1 S1                 0.0000
     31 ****        -2.2903  -0.9887  -0.2861 H              1 S1                 0.0000
     32 ****        -0.5070  -1.7490  -0.4344 H              1 S1                 0.0000
     33 ****         1.8840  -0.1632   0.2246 H              1 S1                 0.0000
     34 ****         1.3414  -1.3134   2.3505 H              1 S1                 0.0000
     35 ****         1.2012  -2.8368   1.5179 H              1 S1                 0.0000
     36 ****         3.3277  -2.8208   2.5714 H              1 S1                 0.0000
     37 ****         3.9891  -0.1376   1.2761 H              1 S1                 0.0000
     38 ****         5.0693  -1.1106   2.2654 H              1 S1                 0.0000
     39 ****         3.6188  -0.4143   2.9725 H              1 S1                 0.0000
     40 ****         4.8919  -3.0323   0.6184 H              1 S1                 0.0000
     41 ****         3.3859  -3.8907   0.4432 H              1 S1                 0.0000
     42 ****         4.0757  -1.2126  -0.8379 H              1 S1                 0.0000
     43 ****         3.9402  -2.7519  -1.6424 H              1 S1                 0.0000
     44 ****         1.5439  -2.8932  -1.0479 H              1 S1                 0.0000
     45 ****         0.6111  -1.1210  -2.4631 H              1 S1                 0.0000
     46 ****         3.1146  -2.2888  -3.7199 H              1 S1                 0.0000
     47 ****         1.6529  -1.7560  -4.5320 H              1 S1                 0.0000
     48 ****         1.6002  -3.1588  -3.4759 H              1 S1                 0.0000
     49 ****         3.3993   0.1072  -2.6201 H              1 S1                 0.0000
     50 ****         2.0076   0.8347  -1.8181 H              1 S1                 0.0000
     51 ****         1.9888   0.5808  -3.5508 H              1 S1                 0.0000
     52 ****        -2.1321   2.4483   1.2224 H              1 S1                 0.0000
     53 ****        -5.5570  -1.2569  -0.6162 LP             1 S1                 0.0000
     54 ****        -3.8463  -1.5225  -0.5609 LP             1 S1                 0.0000
     55 ****        -0.8397   1.7472   1.3811 LP             1 S1                 0.0000
     56 ****         0.7307   1.0290   1.2463 LP             1 S1                 0.0000
@<TRIPOS>BOND
    1    1    2 1     
    2    1   24 1     
    3    1   25 1     
    4    1   26 1     
    5    2    3 1     
    6    2   27 1     
    7    2   28 1     
    8    3   23 1     
    9    3    4 1     
   10    4    5 2     
   11    4   29 1     
   12    5    6 1     
   13    5   30 1     
   14    6    7 2     
   15    6    8 1     
   16    8    9 1     
   17    8   23 2     
   18    9   10 am    
   19    9   31 1     
   20   10   11 2     
   21   10   12 am    
   22   12   13 1     
   23   12   32 1     
   24   13   19 1     
   25   13   14 1     
   26   13   33 1     
   27   14   15 1     
   28   14   34 1     
   29   14   35 1     
   30   15   16 1     
   31   15   17 1     
   32   15   36 1     
   33   16   37 1     
   34   16   38 1     
   35   16   39 1     
   36   17   18 1     
   37   17   40 1     
   38   17   41 1     
   39   18   19 1     
   40   18   42 1     
   41   18   43 1     
   42   19   20 1     
   43   19   44 1     
   44   20   21 1     
   45   20   22 1     
   46   20   45 1     
   47   21   46 1     
   48   21   47 1     
   49   21   48 1     
   50   22   49 1     
   51   22   50 1     
   52   22   51 1     
   53   23   52 1     
   54    7   53 1     
   55    7   54 1     
   56   11   55 1     
   57   11   56 1     
@<TRIPOS>SUBSTRUCTURE
      1 S1             1
@<TRIPOS>SET
LONE_PAIRS      STATIC     ATOMS    <user>   **** ""
4 53 54 55 56
DONOR_HYDROGENS      STATIC     ATOMS    <user>   **** ""
2 31 32
ATOM$BLUE        STATIC     ATOMS    COLORGROUP SYSTEM
4 53 54 55 56
ATOM$RED        STATIC     ATOMS    COLORGROUP SYSTEM
2 31 32
