AV-unprocessed.smi:69|AV-procd|sdf|650|dock5
  -GOLD-   2262016543D 1   1.00000     0.00000
 Structure written by MMmdl.
 32 34  0  0  0  0  0  0  0  0  1 V2000
  152.5050  138.5718  154.9550 N   0  0  0  0  0  0  0  0  0  0  0  0
  151.7277  139.5676  155.4020 C   0  0  0  0  0  0  0  0  0  0  0  0
  150.7260  140.0103  154.6055 N   0  0  0  0  0  0  0  0  0  0  0  0
  149.9384  141.0054  155.0280 C   0  0  0  0  0  0  0  0  0  0  0  0
  149.9837  141.6756  156.1833 N   0  0  0  0  0  0  0  0  0  0  0  0
  150.9933  141.2235  156.9831 C   0  0  0  0  0  0  0  0  0  0  0  0
  151.9062  140.1802  156.6681 C   0  0  0  0  0  0  0  0  0  0  0  0
  152.7982  140.0002  157.7178 N   0  0  0  0  0  0  0  0  0  0  0  0
  152.4291  140.8904  158.6007 C   0  0  0  0  0  0  0  0  0  0  0  0
  151.3487  141.6662  158.2372 N   0  0  0  0  0  0  0  0  0  0  0  0
  150.6845  142.7665  158.9983 C   0  0  1  0  0  0  0  0  0  0  0  0
  151.2750  142.8622  160.2519 O   0  0  0  0  0  0  0  0  0  0  0  0
  151.0819  144.1831  160.7439 C   0  0  1  0  0  0  0  0  0  0  0  0
  152.2923  144.5937  161.6014 C   0  0  0  0  0  0  0  0  0  0  0  0
  152.2610  143.9900  162.8784 O   0  0  0  0  0  0  0  0  0  0  0  0
  150.7748  145.0823  159.5258 C   0  0  2  0  0  0  0  0  0  0  0  0
  149.4582  145.5893  159.6352 O   0  0  0  0  0  0  0  0  0  0  0  0
  150.8643  144.1368  158.3323 C   0  0  1  0  0  0  0  0  0  0  0  0
  152.1086  144.2727  157.6692 O   0  0  0  0  0  0  0  0  0  0  0  0
  149.6389  142.4707  159.1025 H   0  0  0  0  0  0  0  0  0  0  0  0
  150.2091  144.1340  161.3978 H   0  0  0  0  0  0  0  0  0  0  0  0
  151.4560  145.9292  159.4318 H   0  0  0  0  0  0  0  0  0  0  0  0
  150.0721  144.2952  157.5989 H   0  0  0  0  0  0  0  0  0  0  0  0
  153.2593  138.2263  155.5310 H   0  0  0  0  0  0  0  0  0  0  0  0
  152.3368  138.1707  154.0438 H   0  0  0  0  0  0  0  0  0  0  0  0
  149.1612  141.3091  154.3424 H   0  0  0  0  0  0  0  0  0  0  0  0
  152.9414  141.0104  159.5446 H   0  0  0  0  0  0  0  0  0  0  0  0
  153.2138  144.2841  161.1081 H   0  0  0  0  0  0  0  0  0  0  0  0
  152.3367  145.6777  161.7103 H   0  0  0  0  0  0  0  0  0  0  0  0
  152.6487  144.5844  163.5025 H   0  0  0  0  0  0  0  0  0  0  0  0
  149.0520  145.5552  158.7825 H   0  0  0  0  0  0  0  0  0  0  0  0
  152.0543  143.8194  156.8416 H   0  0  0  0  0  0  0  0  0  0  0  0
  1  2  1  0  0  0  0
  1 24  1  0  0  0  0
  1 25  1  0  0  0  0
  2  7  1  0  0  0  0
  2  3  2  0  0  0  0
  3  4  1  0  0  0  0
  4  5  2  0  0  0  0
  4 26  1  0  0  0  0
  5  6  1  0  0  0  0
  6 10  1  0  0  0  0
  6  7  2  0  0  0  0
  7  8  1  0  0  0  0
  8  9  2  0  0  0  0
  9 10  1  0  0  0  0
  9 27  1  0  0  0  0
 10 11  1  0  0  0  0
 11 20  1  0  0  0  0
 11 18  1  0  0  0  0
 11 12  1  0  0  0  0
 12 13  1  0  0  0  0
 13 21  1  0  0  0  0
 13 14  1  0  0  0  0
 13 16  1  0  0  0  0
 14 15  1  0  0  0  0
 14 28  1  0  0  0  0
 14 29  1  0  0  0  0
 15 30  1  0  0  0  0
 16 22  1  0  0  0  0
 16 17  1  0  0  0  0
 16 18  1  0  0  0  0
 17 31  1  0  0  0  0
 18 23  1  0  0  0  0
 18 19  1  0  0  0  0
 19 32  1  0  0  0  0
M  END
> <s_m_source_file>
AV-unprocessed.smi

> <i_m_source_file_index>
69

> <i_lp_mmshare_version>
43012

> <i_f3d_flags>
0

> <s_epik_input>
bjFbY0hdbmMoW05IMl0pYyhjMTIpbltjSF1uMltDQEBIXTNPW0NASF0oW0NIMl1bT0hdKVtDQEBIXShbT0hdKVtDQEhdM1tPSF0=

> <s_epik_cmdline>
J2VwaWtfcHl0aG9uJywgJy1waCcsICc3LjAnLCAnLXRuJywgJzgnLCAnLW1hJywgJzIwMCcsICctbWV0YWxfYmluZGluZycsICctaW1hZScsICc8aW5maWxlLm1hZT4nLCAnLW9tYWUnLCAnPG91dGZpbGUubWFlPic=

> <r_lp_tautomer_probability>
1

> <r_epik_Ionization_Penalty>
0.000428445

> <r_epik_Ionization_Penalty_Charging>
0

> <r_epik_Ionization_Penalty_Neutral>
0.000428445

> <r_epik_State_Penalty>
-0

> <r_epik_Charging_Adjusted_Penalty>
0

> <i_epik_Tot_Q>
0

> <i_epik_Tot_abs_Q>
0

> <r_epik_Metal_State_Penalty>
-0

> <b_epik_Metal_Only>
0

> <s_epik_Chemistry_Notes>
This compound contains an acetal/aminal-like group ( X-CH(R)-Y where X, Y are N, S, or O) that may be acid/base labile, releasing an aldehyde.

> <s_lp_Force_Field>
OPLS_2005

> <r_lp_Energy>
41.0304

> <b_lp_Chiralities_Consistent>
1

> <s_lp_Variant>
AV-unprocessed.smi:69-8

> <Gold.Version>
5.8.1

> <Gold.Id.Protein>
6NUR|6NUR_protein|mol2

> <Gold.PLP.Fitness>
42.2434

> <Gold.PLP.PLP>
-33.7795

> <Gold.PLP.part.hbond>
-7.0000

> <Gold.PLP.part.metal>
0.0000

> <Gold.PLP.part.buried>
-3.2836

> <Gold.PLP.part.nonpolar>
-23.4078

> <Gold.PLP.part.repulsive>
0.4391

> <Gold.PLP.ligand.clash>
0.0000

> <Gold.PLP.ligand.torsion>
0.1972

> <Gold.PLP.Chemscore.Hbond>
2.9500

> <Gold.PLP.Chemscore.CHOScore>
0.0000

> <Gold.PLP.Chemscore.Metal>
0.0000

> <Gold.Chemscore.Hbonds>
donor molecule, donor type, donor heavy atom, donor atom, acceptor molecule, acceptor atom, score
      L1  H    17    31       P1  8029  1.00
      P1  H  7989  7998       L1     3  0.86
      P1  H  7997  8009       L1     8  1.00

> <Gold.PLP.Chemscore.Internal.Correction>
0.0082

> <Gold.Rescore>
     Score         DG    S(hbond)    S(metal)    S(lipo)     H(rot)  DE(clash)    DE(int)     intcor
      5.24      -6.58       1.70        0.00      48.94       4.03       1.15       0.20       ----

> <Gold.Chemscore.Fitness>
5.2380

> <Gold.Chemscore.DG>
-6.5849

> <Gold.Chemscore.ZeroCoef>
-5.4800

> <Gold.Chemscore.Hbond>
1.7037

> <Gold.Chemscore.Metal>
0.0000

> <Gold.Chemscore.Lipo>
48.9361

> <Gold.Chemscore.Internal_Hbond>
0.0000

> <Gold.Chemscore.DEClash>
1.1485

> <Gold.Chemscore.DEInternal>
0.1984

> <Gold.Chemscore.Rot>
4.0277

> <Gold.Chemscore.Internal.Correction>
   9.000000E+99

> <Gold.Chemscore.Hbonds>
donor molecule, donor type, donor heavy atom, donor atom, acceptor molecule, acceptor atom, score
      L1  H    17    31       P1  8029  0.99
      P1  H  7989  7998       L1     3  0.04
      P1  H  7997  8009       L1     8  0.48

> <Gold.Chemscore.Hbond.Weighted>
-5.6903

> <Gold.Chemscore.Metal.Weighted>
-0.0000

> <Gold.Chemscore.Lipo.Weighted>
-5.7255

> <Gold.Chemscore.Internal_Hbond.Weighted>
0.0000

> <Gold.Chemscore.DEClash.Weighted>
1.1485

> <Gold.Chemscore.DEInternal.Weighted>
0.1984

> <Gold.Chemscore.Rot.Weighted>
10.3110

> <Gold.Chemscore.Internal.Correction.Weighted>
   9.000000E+99

> <Gold.Protein.RotatedTorsions>
[ 6907 6896 6895 6894 ] final -131.54 input  -60.11 | X-H torsion
[ 7974 7965 7964 7962 ] final   71.96 input  175.53 | X-H torsion
[ 8008 7997 7996 7995 ] final  162.34 input   59.86 | X-H torsion
[ 10167 10162 10161 10158 ] final  -12.41 input  -65.29 | X-H torsion
[ 10718 10713 10712 10709 ] final -130.08 input   66.30 | X-H torsion
[ 10763 10752 10751 10750 ] final -161.80 input  -60.55 | X-H torsion
[ 11005 11000 10999 10996 ] final  -58.20 input  -57.11 | X-H torsion

> <Gold.Protein.ActiveResidues>
 VAL166  LYS551  ARG553  GLY616  TRP617  ASP618  TYR619  PRO620  LYS621  CYS622 
 ASP623  PHE694  ASN695  SER759  ASP760  ASP761  ALA762  ILE779  LEU786  VAL792 
 PHE793  MET794  SER795  GLU796  ALA797  LYS798  CYS799  TRP800  GLU811  SER814 

> <Gold.Protein.RotatedAtoms>
  150.9521  133.6538  159.2769 H   0  0  0  0  0  0  0  0  0  0  0  0  # atno 6907 bound_to 6896
  151.3890  135.0951  159.9530 H   0  0  0  0  0  0  0  0  0  0  0  0  # atno 6908 bound_to 6896
  152.5114  133.9039  159.7509 H   0  0  0  0  0  0  0  0  0  0  0  0  # atno 6909 bound_to 6896
  145.7593  139.2793  143.1386 H   0  0  0  0  0  0  0  0  0  0  0  0  # atno 7974 bound_to 7965
  156.2038  140.1753  156.7843 H   0  0  0  0  0  0  0  0  0  0  0  0  # atno 8008 bound_to 7997
  154.5627  140.0696  156.8875 H   0  0  0  0  0  0  0  0  0  0  0  0  # atno 8009 bound_to 7997
  155.2817  140.3349  155.4260 H   0  0  0  0  0  0  0  0  0  0  0  0  # atno 8010 bound_to 7997
  140.7160  143.5535  150.9274 H   0  0  0  0  0  0  0  0  0  0  0  0  # atno 10167 bound_to 10162
  156.2109  130.6918  151.0648 H   0  0  0  0  0  0  0  0  0  0  0  0  # atno 10718 bound_to 10713
  154.7271  135.3038  154.8953 H   0  0  0  0  0  0  0  0  0  0  0  0  # atno 10763 bound_to 10752
  153.9807  135.6730  153.4754 H   0  0  0  0  0  0  0  0  0  0  0  0  # atno 10764 bound_to 10752
  153.0885  135.4972  154.8563 H   0  0  0  0  0  0  0  0  0  0  0  0  # atno 10765 bound_to 10752
  141.1197  133.6612  156.4885 H   0  0  0  0  0  0  0  0  0  0  0  0  # atno 11005 bound_to 11000
  146.0280  140.8285  142.9890 LP  0  0  0  0  0  0  0  0  0  0  0  0  # atno 17320 bound_to 7965
  144.6834  140.2727  143.7303 LP  0  0  0  0  0  0  0  0  0  0  0  0  # atno 17321 bound_to 7965
  139.9260  143.6549  152.3087 LP  0  0  0  0  0  0  0  0  0  0  0  0  # atno 17342 bound_to 10162
  139.6983  144.7638  151.1317 LP  0  0  0  0  0  0  0  0  0  0  0  0  # atno 17343 bound_to 10162
  157.7038  131.0765  150.6735 LP  0  0  0  0  0  0  0  0  0  0  0  0  # atno 17370 bound_to 10713
  156.6795  130.4563  149.5632 LP  0  0  0  0  0  0  0  0  0  0  0  0  # atno 17371 bound_to 10713
  140.4543  134.6900  157.5054 LP  0  0  0  0  0  0  0  0  0  0  0  0  # atno 17394 bound_to 11000
  140.0145  134.6640  155.9330 LP  0  0  0  0  0  0  0  0  0  0  0  0  # atno 17395 bound_to 11000

$$$$
