#       Name:                AV-unprocessed.smi:3048
#       Creating user name   scv26
#       Creation time:       Fri Mar 27 17:01:44 2020


#       File generated by GOLD software.
#

@<TRIPOS>MOLECULE
AV-unprocessed.smi:3048
    41    42     1
SMALL
NO_CHARGES


@<TRIPOS>ATOM
      1 ****        -3.2747   3.8749  -0.8562 C.3            1 S1                 0.0000
      2 ****        -2.8920   3.0413   0.3326 C.2            1 S1                 0.0000
      3 ****        -2.4132   3.4890   1.5968 C.2            1 S1                 0.0000
      4 ****        -2.1611   2.4953   2.4331 N.2            1 S1                 0.0000
      5 ****        -2.4682   1.3817   1.7348 N.pl3          1 S1                 0.0000
      6 ****        -2.3049   0.0762   2.3482 C.3            1 S1                 0.0000
      7 ****        -0.8362  -0.3765   2.3786 C.3            1 S1                 0.0000
      8 ****        -0.3168  -0.6010   1.0324 N.3            1 S1                 0.0000
      9 ****         1.0863  -0.9999   1.0098 C.3            1 S1                 0.0000
     10 ****         1.5914  -1.1669  -0.4313 C.3            1 S1                 0.0000
     11 ****         3.1290  -1.2527  -0.4892 C.3            1 S1                 0.0000
     12 ****         3.6021  -1.5095  -1.9249 C.3            1 S1                 0.0000
     13 ****         2.8847  -2.7381  -2.4941 C.3            1 S1                 0.0000
     14 ****         1.3640  -2.5914  -2.3287 C.3            1 S1                 0.0000
     15 ****         1.0457  -2.3755  -0.9573 O.3            1 S1                 0.0000
     16 ****        -2.9134   1.6818   0.4649 C.2            1 S1                 0.0000
     17 ****        -3.6330   4.8610  -0.5600 H              1 S1                 0.0000
     18 ****        -4.0682   3.4072  -1.4394 H              1 S1                 0.0000
     19 ****        -2.4289   4.0276  -1.5269 H              1 S1                 0.0000
     20 ****        -2.2413   4.5022   1.9292 H              1 S1                 0.0000
     21 ****        -2.6996   0.1228   3.3642 H              1 S1                 0.0000
     22 ****        -2.9183  -0.6468   1.8085 H              1 S1                 0.0000
     23 ****        -0.2336   0.3712   2.8957 H              1 S1                 0.0000
     24 ****        -0.7562  -1.2953   2.9604 H              1 S1                 0.0000
     25 ****        -0.4405   0.2386   0.4753 H              1 S1                 0.0000
     26 ****         1.6820  -0.2334   1.5075 H              1 S1                 0.0000
     27 ****         1.2342  -1.9233   1.5711 H              1 S1                 0.0000
     28 ****         1.2565  -0.3192  -1.0327 H              1 S1                 0.0000
     29 ****         3.5739  -0.3314  -0.1117 H              1 S1                 0.0000
     30 ****         3.4776  -2.0574   0.1596 H              1 S1                 0.0000
     31 ****         3.3854  -0.6381  -2.5440 H              1 S1                 0.0000
     32 ****         4.6828  -1.6531  -1.9509 H              1 S1                 0.0000
     33 ****         3.1408  -2.8726  -3.5454 H              1 S1                 0.0000
     34 ****         3.2218  -3.6345  -1.9721 H              1 S1                 0.0000
     35 ****         0.9828  -1.7687  -2.9357 H              1 S1                 0.0000
     36 ****         0.8608  -3.4965  -2.6690 H              1 S1                 0.0000
     37 ****        -3.2014   0.9098  -0.2336 H              1 S1                 0.0000
     38 ****        -1.8199   2.5557   3.3712 LP             1 S1                 0.0000
     39 ****        -0.8381  -1.3625   0.6474 LP             1 S1                 0.0000
     40 ****         0.0506  -2.3403  -0.8648 LP             1 S1                 0.0000
     41 ****         1.4031  -3.1426  -0.4246 LP             1 S1                 0.0000
@<TRIPOS>BOND
    1    1    2 1     
    2    1   17 1     
    3    1   18 1     
    4    1   19 1     
    5    2   16 2     
    6    2    3 1     
    7    3    4 2     
    8    3   20 1     
    9    4    5 1     
   10    5    6 1     
   11    5   16 1     
   12    6    7 1     
   13    6   21 1     
   14    6   22 1     
   15    7    8 1     
   16    7   23 1     
   17    7   24 1     
   18    8    9 1     
   19    8   25 1     
   20    9   10 1     
   21    9   26 1     
   22    9   27 1     
   23   10   15 1     
   24   10   11 1     
   25   10   28 1     
   26   11   12 1     
   27   11   29 1     
   28   11   30 1     
   29   12   13 1     
   30   12   31 1     
   31   12   32 1     
   32   13   14 1     
   33   13   33 1     
   34   13   34 1     
   35   14   15 1     
   36   14   35 1     
   37   14   36 1     
   38   16   37 1     
   39    4   38 1     
   40    8   39 1     
   41   15   40 1     
   42   15   41 1     
@<TRIPOS>SUBSTRUCTURE
      1 S1             1
@<TRIPOS>SET
LONE_PAIRS      STATIC     ATOMS    <user>   **** ""
4 38 39 40 41
DONOR_HYDROGENS      STATIC     ATOMS    <user>   **** ""
1 25
ATOM$BLUE        STATIC     ATOMS    COLORGROUP SYSTEM
4 38 39 40 41
ATOM$RED        STATIC     ATOMS    COLORGROUP SYSTEM
1 25
