AV-unprocessed.smi:198|AV-procd|sdf|1559|dock3
  -GOLD-   2262019433D 1   1.00000     0.00000
 Structure written by MMmdl.
 59 63  0  0  0  0  0  0  0  0  2 V2000
  146.6937  129.3693  151.9358 C   0  0  0  0  0  0  0  0  0  0  0  0
  146.6236  130.8197  151.6567 N   0  3  2  0  0  0  0  0  0  0  0  0
  146.6977  131.6348  152.8937 C   0  0  0  0  0  0  0  0  0  0  0  0
  146.7293  133.1368  152.5697 C   0  0  0  0  0  0  0  0  0  0  0  0
  145.5028  133.5488  151.7241 C   0  0  2  0  0  0  0  0  0  0  0  0
  145.4691  132.6719  150.4499 C   0  0  2  0  0  0  0  0  0  0  0  0
  144.2746  133.0550  149.5593 C   0  0  0  0  0  0  0  0  0  0  0  0
  144.3211  134.5530  149.2294 C   0  0  0  0  0  0  0  0  0  0  0  0
  144.3834  135.3907  150.5148 C   0  0  0  0  0  0  0  0  0  0  0  0
  145.4981  134.9740  151.3640 N   0  0  0  0  0  0  0  0  0  0  0  0
  145.6749  135.8475  152.3810 C   0  0  0  0  0  0  0  0  0  0  0  0
  145.4363  135.3909  153.6344 N   0  0  0  0  0  0  0  0  0  0  0  0
  145.5930  136.2064  154.6816 C   0  0  0  0  0  0  0  0  0  0  0  0
  145.9697  137.4870  154.6937 N   0  0  0  0  0  0  0  0  0  0  0  0
  146.2136  137.9485  153.4331 C   0  0  0  0  0  0  0  0  0  0  0  0
  146.1024  137.1972  152.2296 C   0  0  0  0  0  0  0  0  0  0  0  0
  146.4592  137.9858  151.1438 N   0  0  0  0  0  0  0  0  0  0  0  0
  146.7682  139.1364  151.6754 C   0  0  0  0  0  0  0  0  0  0  0  0
  146.6117  139.2167  153.0425 N   0  0  0  0  0  0  0  0  0  0  0  0
  146.9033  140.3433  153.8886 C   0  0  0  0  0  0  0  0  0  0  0  0
  148.2167  141.1162  153.7208 C   0  0  0  0  0  0  0  0  0  0  0  0
  148.8034  140.4086  154.9626 C   0  0  0  0  0  0  0  0  0  0  0  0
  149.6064  139.1159  154.7016 C   0  0  0  0  0  0  0  0  0  0  0  0
  150.9700  139.3747  154.4384 O   0  0  0  0  0  0  0  0  0  0  0  0
  149.5807  141.2956  155.9514 C   0  0  0  0  0  0  0  0  0  0  0  0
  148.7501  142.2580  156.5673 O   0  0  0  0  0  0  0  0  0  0  0  0
  147.3300  140.1601  155.3519 C   0  0  0  0  0  0  0  0  0  0  0  0
  145.4497  131.1773  150.8227 C   0  0  0  0  0  0  0  0  0  0  0  0
  145.8377  129.0429  152.5280 H   0  0  0  0  0  0  0  0  0  0  0  0
  147.6033  129.1265  152.4860 H   0  0  0  0  0  0  0  0  0  0  0  0
  146.7051  128.7979  151.0072 H   0  0  0  0  0  0  0  0  0  0  0  0
  145.8428  131.4083  153.5330 H   0  0  0  0  0  0  0  0  0  0  0  0
  147.5933  131.3658  153.4548 H   0  0  0  0  0  0  0  0  0  0  0  0
  146.7627  133.6915  153.5078 H   0  0  0  0  0  0  0  0  0  0  0  0
  147.6488  133.3800  152.0349 H   0  0  0  0  0  0  0  0  0  0  0  0
  144.5990  133.3412  152.2978 H   0  0  0  0  0  0  0  0  0  0  0  0
  146.3800  132.8620  149.8787 H   0  0  0  0  0  0  0  0  0  0  0  0
  144.2852  132.4720  148.6377 H   0  0  0  0  0  0  0  0  0  0  0  0
  143.3387  132.8201  150.0682 H   0  0  0  0  0  0  0  0  0  0  0  0
  145.1946  134.7663  148.6117 H   0  0  0  0  0  0  0  0  0  0  0  0
  143.4475  134.8357  148.6414 H   0  0  0  0  0  0  0  0  0  0  0  0
  144.4834  136.4463  150.2571 H   0  0  0  0  0  0  0  0  0  0  0  0
  143.4489  135.2861  151.0684 H   0  0  0  0  0  0  0  0  0  0  0  0
  145.3864  135.7711  155.6483 H   0  0  0  0  0  0  0  0  0  0  0  0
  147.1147  139.9612  151.0707 H   0  0  0  0  0  0  0  0  0  0  0  0
  146.0404  141.0054  153.8067 H   0  0  0  0  0  0  0  0  0  0  0  0
  148.7553  140.9218  152.7934 H   0  0  0  0  0  0  0  0  0  0  0  0
  148.0846  142.1896  153.8699 H   0  0  0  0  0  0  0  0  0  0  0  0
  149.5391  138.4334  155.5493 H   0  0  0  0  0  0  0  0  0  0  0  0
  149.2091  138.5704  153.8461 H   0  0  0  0  0  0  0  0  0  0  0  0
  151.4914  138.9550  155.1053 H   0  0  0  0  0  0  0  0  0  0  0  0
  150.0239  140.6943  156.7456 H   0  0  0  0  0  0  0  0  0  0  0  0
  150.4079  141.8072  155.4583 H   0  0  0  0  0  0  0  0  0  0  0  0
  148.7480  143.0389  156.0353 H   0  0  0  0  0  0  0  0  0  0  0  0
  146.9199  140.9429  155.9925 H   0  0  0  0  0  0  0  0  0  0  0  0
  147.1406  139.1793  155.7868 H   0  0  0  0  0  0  0  0  0  0  0  0
  145.4580  130.5734  149.9143 H   0  0  0  0  0  0  0  0  0  0  0  0
  144.5316  130.9312  151.3592 H   0  0  0  0  0  0  0  0  0  0  0  0
  147.4433  131.0475  151.1120 H   0  0  0  0  0  0  0  0  0  0  0  0
  1  2  1  0  0  0  0
  1 29  1  0  0  0  0
  1 30  1  0  0  0  0
  1 31  1  0  0  0  0
  2 28  1  0  0  0  0
  2  3  1  0  0  0  0
  2 59  1  0  0  0  0
  3  4  1  0  0  0  0
  3 32  1  0  0  0  0
  3 33  1  0  0  0  0
  4  5  1  0  0  0  0
  4 34  1  0  0  0  0
  4 35  1  0  0  0  0
  5 10  1  0  0  0  0
  5  6  1  0  0  0  0
  5 36  1  0  0  0  0
  6  7  1  0  0  0  0
  6 28  1  0  0  0  0
  6 37  1  0  0  0  0
  7  8  1  0  0  0  0
  7 38  1  0  0  0  0
  7 39  1  0  0  0  0
  8  9  1  0  0  0  0
  8 40  1  0  0  0  0
  8 41  1  0  0  0  0
  9 10  1  0  0  0  0
  9 42  1  0  0  0  0
  9 43  1  0  0  0  0
 10 11  1  0  0  0  0
 11 16  1  0  0  0  0
 11 12  2  0  0  0  0
 12 13  1  0  0  0  0
 13 14  2  0  0  0  0
 13 44  1  0  0  0  0
 14 15  1  0  0  0  0
 15 19  1  0  0  0  0
 15 16  2  0  0  0  0
 16 17  1  0  0  0  0
 17 18  2  0  0  0  0
 18 19  1  0  0  0  0
 18 45  1  0  0  0  0
 19 20  1  0  0  0  0
 20 27  1  0  0  0  0
 20 21  1  0  0  0  0
 20 46  1  0  0  0  0
 21 22  1  0  0  0  0
 21 47  1  0  0  0  0
 21 48  1  0  0  0  0
 22 23  1  0  0  0  0
 22 25  1  0  0  0  0
 22 27  1  0  0  0  0
 23 24  1  0  0  0  0
 23 49  1  0  0  0  0
 23 50  1  0  0  0  0
 24 51  1  0  0  0  0
 25 26  1  0  0  0  0
 25 52  1  0  0  0  0
 25 53  1  0  0  0  0
 26 54  1  0  0  0  0
 27 55  1  0  0  0  0
 27 56  1  0  0  0  0
 28 57  1  0  0  0  0
 28 58  1  0  0  0  0
M  CHG  1   2   1
M  END
> <s_m_source_file>
AV-unprocessed.smi

> <i_m_source_file_index>
198

> <i_lp_mmshare_version>
43012

> <i_f3d_flags>
0

> <s_epik_input>
W0NIMl0xW0NIMl1OKFtDSDNdKVtDSDJdW0NAQEhdKFtDQEhdMTIpW0NIMl1bQ0gyXVtDSDJdTjJjKG5bY0hdbjMpYyhjMzQpbltjSF1uNFtDSF0oW0NIMl01KVtDSDJdQzUoW0NIMl1bT0hdKVtDSDJdW09IXQ==

> <s_epik_cmdline>
J2VwaWtfcHl0aG9uJywgJy1waCcsICc3LjAnLCAnLXRuJywgJzgnLCAnLW1hJywgJzIwMCcsICctbWV0YWxfYmluZGluZycsICctaW1hZScsICc8aW5maWxlLm1hZT4nLCAnLW9tYWUnLCAnPG91dGZpbGUubWFlPic=

> <r_lp_tautomer_probability>
1

> <r_epik_Ionization_Penalty>
0.00239938

> <r_epik_Ionization_Penalty_Charging>
0.00138697

> <r_epik_Ionization_Penalty_Neutral>
0.00101241

> <r_epik_State_Penalty>
-0

> <r_epik_Charging_Adjusted_Penalty>
0.00138697

> <i_epik_Tot_Q>
1

> <i_epik_Tot_abs_Q>
1

> <r_epik_Metal_State_Penalty>
-0

> <b_epik_Metal_Only>
0

> <s_lp_Force_Field>
OPLS_2005

> <r_lp_Energy>
58.4114

> <b_lp_Chiralities_Consistent>
1

> <s_lp_Variant>
AV-unprocessed.smi:198-8

> <Gold.Version>
5.8.1

> <Gold.Id.Protein>
6NUR|6NUR_protein|mol2

> <Gold.PLP.Fitness>
51.4865

> <Gold.PLP.PLP>
-40.2662

> <Gold.PLP.part.hbond>
-3.9980

> <Gold.PLP.part.metal>
0.0000

> <Gold.PLP.part.buried>
3.5381

> <Gold.PLP.part.nonpolar>
-42.0126

> <Gold.PLP.part.repulsive>
2.0204

> <Gold.PLP.ligand.clash>
0.0000

> <Gold.PLP.ligand.torsion>
1.2700

> <Gold.PLP.Chemscore.Hbond>
3.7500

> <Gold.PLP.Chemscore.CHOScore>
0.6011

> <Gold.PLP.Chemscore.Metal>
0.0000

> <Gold.Chemscore.Hbonds>
donor molecule, donor type, donor heavy atom, donor atom, acceptor molecule, acceptor atom, score
      L1  H     2    59       P1 10747  1.00
      L1  H    26    54       P1  8028  1.00
      P1  H  7954  7966       L1    17  0.62
      P1  H  7989  7998       L1    24  1.00
      L1  C    18    45       P1  7957  0.60

> <Gold.PLP.Chemscore.Internal.Correction>
0.7071

> <Gold.Rescore>
     Score         DG    S(hbond)    S(metal)    S(lipo)     H(rot)  DE(clash)    DE(int)     intcor
     15.16     -20.93       3.02        0.00     113.12       3.08       2.98       2.79       ----

> <Gold.Chemscore.Fitness>
15.1638

> <Gold.Chemscore.DG>
-20.9313

> <Gold.Chemscore.ZeroCoef>
-5.4800

> <Gold.Chemscore.Hbond>
3.0227

> <Gold.Chemscore.Metal>
0.0000

> <Gold.Chemscore.Lipo>
113.1236

> <Gold.Chemscore.Internal_Hbond>
0.0000

> <Gold.Chemscore.DEClash>
2.9771

> <Gold.Chemscore.DEInternal>
2.7904

> <Gold.Chemscore.Rot>
3.0781

> <Gold.Chemscore.Internal.Correction>
   9.000000E+99

> <Gold.Chemscore.Hbonds>
donor molecule, donor type, donor heavy atom, donor atom, acceptor molecule, acceptor atom, score
      L1  H     2    59       P1 10747  1.00
      L1  H    26    54       P1  8028  0.99
      P1  H  7954  7966       L1    17  0.09
      P1  H  7989  7998       L1    24  0.98

> <Gold.Chemscore.Hbond.Weighted>
-10.0959

> <Gold.Chemscore.Metal.Weighted>
-0.0000

> <Gold.Chemscore.Lipo.Weighted>
-13.2355

> <Gold.Chemscore.Internal_Hbond.Weighted>
0.0000

> <Gold.Chemscore.DEClash.Weighted>
2.9771

> <Gold.Chemscore.DEInternal.Weighted>
2.7904

> <Gold.Chemscore.Rot.Weighted>
7.8800

> <Gold.Chemscore.Internal.Correction.Weighted>
   9.000000E+99

> <Gold.Protein.RotatedTorsions>
[ 6907 6896 6895 6894 ] final  -12.83 input  -60.11 | X-H torsion
[ 7974 7965 7964 7962 ] final  115.32 input  175.53 | X-H torsion
[ 8008 7997 7996 7995 ] final   41.75 input   59.86 | X-H torsion
[ 10167 10162 10161 10158 ] final  165.02 input  -65.29 | X-H torsion
[ 10718 10713 10712 10709 ] final  149.87 input   66.30 | X-H torsion
[ 10763 10752 10751 10750 ] final  110.02 input  -60.55 | X-H torsion
[ 11005 11000 10999 10996 ] final  143.53 input  -57.11 | X-H torsion

> <Gold.Protein.ActiveResidues>
 VAL166  LYS551  ARG553  GLY616  TRP617  ASP618  TYR619  PRO620  LYS621  CYS622 
 ASP623  PHE694  ASN695  SER759  ASP760  ASP761  ALA762  ILE779  LEU786  VAL792 
 PHE793  MET794  SER795  GLU796  ALA797  LYS798  CYS799  TRP800  GLU811  SER814 

> <Gold.Protein.RotatedAtoms>
  151.3645  135.0910  159.9444 H   0  0  0  0  0  0  0  0  0  0  0  0  # atno 6907 bound_to 6896
  152.5153  133.9226  159.7552 H   0  0  0  0  0  0  0  0  0  0  0  0  # atno 6908 bound_to 6896
  150.9627  133.6374  159.2781 H   0  0  0  0  0  0  0  0  0  0  0  0  # atno 6909 bound_to 6896
  145.1934  139.2988  143.4356 H   0  0  0  0  0  0  0  0  0  0  0  0  # atno 7974 bound_to 7965
  155.2748  140.3368  155.4262 H   0  0  0  0  0  0  0  0  0  0  0  0  # atno 8008 bound_to 7997
  156.2116  140.1772  156.7723 H   0  0  0  0  0  0  0  0  0  0  0  0  # atno 8009 bound_to 7997
  154.5695  140.0672  156.8927 H   0  0  0  0  0  0  0  0  0  0  0  0  # atno 8010 bound_to 7997
  139.4899  144.4175  151.9227 H   0  0  0  0  0  0  0  0  0  0  0  0  # atno 10167 bound_to 10162
  157.2907  131.0852  151.1464 H   0  0  0  0  0  0  0  0  0  0  0  0  # atno 10718 bound_to 10713
  153.4430  135.3761  155.2239 H   0  0  0  0  0  0  0  0  0  0  0  0  # atno 10763 bound_to 10752
  154.8754  135.3867  154.4130 H   0  0  0  0  0  0  0  0  0  0  0  0  # atno 10764 bound_to 10752
  153.4678  135.7087  153.6075 H   0  0  0  0  0  0  0  0  0  0  0  0  # atno 10765 bound_to 10752
  140.0561  134.9230  157.1102 H   0  0  0  0  0  0  0  0  0  0  0  0  # atno 11005 bound_to 11000
  146.3432  140.2155  142.8590 LP  0  0  0  0  0  0  0  0  0  0  0  0  # atno 17320 bound_to 7965
  145.0018  140.8639  143.5277 LP  0  0  0  0  0  0  0  0  0  0  0  0  # atno 17321 bound_to 7965
  140.3618  144.2964  150.5932 LP  0  0  0  0  0  0  0  0  0  0  0  0  # atno 17342 bound_to 10162
  140.5396  143.2226  151.8106 LP  0  0  0  0  0  0  0  0  0  0  0  0  # atno 17343 bound_to 10162
  157.2862  130.6774  149.6091 LP  0  0  0  0  0  0  0  0  0  0  0  0  # atno 17370 bound_to 10713
  155.9667  130.4435  150.5422 LP  0  0  0  0  0  0  0  0  0  0  0  0  # atno 17371 bound_to 10713
  140.3842  134.2254  155.7169 LP  0  0  0  0  0  0  0  0  0  0  0  0  # atno 17394 bound_to 11000
  141.1952  133.8110  157.0723 LP  0  0  0  0  0  0  0  0  0  0  0  0  # atno 17395 bound_to 11000

$$$$
