AV-unprocessed.smi:81|AV-procd|sdf|787|dock4
  -GOLD-   2262017153D 1   1.00000     0.00000
 Structure written by MMmdl.
 64 67  0  0  0  0  0  0  0  0  2 V2000
  146.7983  129.5649  154.5302 C   0  0  0  0  0  0  0  0  0  0  0  0
  147.1260  131.0383  154.2363 C   0  0  0  0  0  0  0  0  0  0  0  0
  148.5224  131.1650  153.6115 C   0  0  0  0  0  0  0  0  0  0  0  0
  147.0225  131.9124  155.5063 C   0  0  0  0  0  0  0  0  0  0  0  0
  147.2077  133.3453  155.2590 N   0  0  0  0  0  0  0  0  0  0  0  0
  147.9533  133.9883  156.1919 C   0  0  0  0  0  0  0  0  0  0  0  0
  147.6306  133.8886  157.5085 N   0  0  0  0  0  0  0  0  0  0  0  0
  148.3723  134.5134  158.4281 C   0  0  0  0  0  0  0  0  0  0  0  0
  149.4573  135.2702  158.2514 N   0  0  0  0  0  0  0  0  0  0  0  0
  149.7864  135.3656  156.9312 C   0  0  0  0  0  0  0  0  0  0  0  0
  149.0950  134.7592  155.8462 C   0  0  0  0  0  0  0  0  0  0  0  0
  149.7231  135.0687  154.6468 N   0  0  0  0  0  0  0  0  0  0  0  0
  150.7303  135.8187  155.0025 C   0  0  0  0  0  0  0  0  0  0  0  0
  150.8387  136.0547  156.3549 N   0  0  0  0  0  0  0  0  0  0  0  0
  151.8552  136.8517  157.0226 C   0  0  0  0  0  0  0  0  0  0  0  0
  151.8290  138.3451  156.6200 C   0  0  2  0  0  0  0  0  0  0  0  0
  152.8653  139.0226  157.3137 O   0  0  0  0  0  0  0  0  0  0  0  0
  150.5118  139.0453  156.9203 C   0  0  0  0  0  0  0  0  0  0  0  0
  150.5216  140.2052  155.9323 C   0  0  0  0  0  0  0  0  0  0  0  0
  151.1397  139.6815  154.7641 O   0  0  0  0  0  0  0  0  0  0  0  0
  151.9570  138.5596  155.0956 C   0  0  1  0  0  0  0  0  0  0  0  0
  153.3805  138.7344  154.5424 C   0  0  0  0  0  0  0  0  0  0  0  0
  146.0427  134.0770  154.7406 C   0  0  2  0  0  0  0  0  0  0  0  0
  144.9205  134.2804  155.7811 C   0  0  0  0  0  0  0  0  0  0  0  0
  143.7735  135.1203  155.1966 C   0  0  0  0  0  0  0  0  0  0  0  0
  143.2350  134.4992  153.9610 N   0  3  1  0  0  0  0  0  0  0  0  0
  142.0493  135.2147  153.4429 C   0  0  0  0  0  0  0  0  0  0  0  0
  144.2839  134.3194  152.9264 C   0  0  0  0  0  0  0  0  0  0  0  0
  145.4432  133.4608  153.4579 C   0  0  0  0  0  0  0  0  0  0  0  0
  147.4857  129.1453  155.2651 H   0  0  0  0  0  0  0  0  0  0  0  0
  146.8684  128.9602  153.6258 H   0  0  0  0  0  0  0  0  0  0  0  0
  145.7861  129.4502  154.9182 H   0  0  0  0  0  0  0  0  0  0  0  0
  146.4149  131.3995  153.4926 H   0  0  0  0  0  0  0  0  0  0  0  0
  149.2971  130.8200  154.2969 H   0  0  0  0  0  0  0  0  0  0  0  0
  148.7437  132.2009  153.3527 H   0  0  0  0  0  0  0  0  0  0  0  0
  148.5998  130.5757  152.6973 H   0  0  0  0  0  0  0  0  0  0  0  0
  146.0471  131.7560  155.9683 H   0  0  0  0  0  0  0  0  0  0  0  0
  147.7572  131.5787  156.2402 H   0  0  0  0  0  0  0  0  0  0  0  0
  148.0513  134.3890  159.4517 H   0  0  0  0  0  0  0  0  0  0  0  0
  151.4249  136.2267  154.2827 H   0  0  0  0  0  0  0  0  0  0  0  0
  151.7235  136.7491  158.1005 H   0  0  0  0  0  0  0  0  0  0  0  0
  152.8278  136.4153  156.7920 H   0  0  0  0  0  0  0  0  0  0  0  0
  152.8079  138.7983  158.2300 H   0  0  0  0  0  0  0  0  0  0  0  0
  149.6742  138.3853  156.6894 H   0  0  0  0  0  0  0  0  0  0  0  0
  150.4092  139.3663  157.9577 H   0  0  0  0  0  0  0  0  0  0  0  0
  149.5225  140.5861  155.7202 H   0  0  0  0  0  0  0  0  0  0  0  0
  151.1264  141.0289  156.3133 H   0  0  0  0  0  0  0  0  0  0  0  0
  151.4984  137.7108  154.5865 H   0  0  0  0  0  0  0  0  0  0  0  0
  154.0101  137.8841  154.8054 H   0  0  0  0  0  0  0  0  0  0  0  0
  153.8547  139.6377  154.9265 H   0  0  0  0  0  0  0  0  0  0  0  0
  153.3646  138.8114  153.4551 H   0  0  0  0  0  0  0  0  0  0  0  0
  146.4124  135.0700  154.4809 H   0  0  0  0  0  0  0  0  0  0  0  0
  144.5200  133.3204  156.1096 H   0  0  0  0  0  0  0  0  0  0  0  0
  145.3181  134.7750  156.6678 H   0  0  0  0  0  0  0  0  0  0  0  0
  142.9773  135.2113  155.9366 H   0  0  0  0  0  0  0  0  0  0  0  0
  144.1205  136.1314  154.9775 H   0  0  0  0  0  0  0  0  0  0  0  0
  142.3063  136.2311  153.1413 H   0  0  0  0  0  0  0  0  0  0  0  0
  141.2700  135.2697  154.2037 H   0  0  0  0  0  0  0  0  0  0  0  0
  141.6332  134.6956  152.5790 H   0  0  0  0  0  0  0  0  0  0  0  0
  143.8516  133.8401  152.0471 H   0  0  0  0  0  0  0  0  0  0  0  0
  144.6547  135.2947  152.6064 H   0  0  0  0  0  0  0  0  0  0  0  0
  146.2060  133.3692  152.6842 H   0  0  0  0  0  0  0  0  0  0  0  0
  145.0760  132.4530  153.6536 H   0  0  0  0  0  0  0  0  0  0  0  0
  142.9213  133.5734  154.2163 H   0  0  0  0  0  0  0  0  0  0  0  0
  1  2  1  0  0  0  0
  1 30  1  0  0  0  0
  1 31  1  0  0  0  0
  1 32  1  0  0  0  0
  2  3  1  0  0  0  0
  2  4  1  0  0  0  0
  2 33  1  0  0  0  0
  3 34  1  0  0  0  0
  3 35  1  0  0  0  0
  3 36  1  0  0  0  0
  4  5  1  0  0  0  0
  4 37  1  0  0  0  0
  4 38  1  0  0  0  0
  5  6  1  0  0  0  0
  5 23  1  0  0  0  0
  6 11  1  0  0  0  0
  6  7  2  0  0  0  0
  7  8  1  0  0  0  0
  8  9  2  0  0  0  0
  8 39  1  0  0  0  0
  9 10  1  0  0  0  0
 10 14  1  0  0  0  0
 10 11  2  0  0  0  0
 11 12  1  0  0  0  0
 12 13  2  0  0  0  0
 13 14  1  0  0  0  0
 13 40  1  0  0  0  0
 14 15  1  0  0  0  0
 15 16  1  0  0  0  0
 15 41  1  0  0  0  0
 15 42  1  0  0  0  0
 16 21  1  0  0  0  0
 16 17  1  0  0  0  0
 16 18  1  0  0  0  0
 17 43  1  0  0  0  0
 18 19  1  0  0  0  0
 18 44  1  0  0  0  0
 18 45  1  0  0  0  0
 19 20  1  0  0  0  0
 19 46  1  0  0  0  0
 19 47  1  0  0  0  0
 20 21  1  0  0  0  0
 21 22  1  0  0  0  0
 21 48  1  0  0  0  0
 22 49  1  0  0  0  0
 22 50  1  0  0  0  0
 22 51  1  0  0  0  0
 23 29  1  0  0  0  0
 23 24  1  0  0  0  0
 23 52  1  0  0  0  0
 24 25  1  0  0  0  0
 24 53  1  0  0  0  0
 24 54  1  0  0  0  0
 25 26  1  0  0  0  0
 25 55  1  0  0  0  0
 25 56  1  0  0  0  0
 26 27  1  0  0  0  0
 26 28  1  0  0  0  0
 26 64  1  0  0  0  0
 27 57  1  0  0  0  0
 27 58  1  0  0  0  0
 27 59  1  0  0  0  0
 28 29  1  0  0  0  0
 28 60  1  0  0  0  0
 28 61  1  0  0  0  0
 29 62  1  0  0  0  0
 29 63  1  0  0  0  0
M  CHG  1  26   1
M  END
> <s_m_source_file>
AV-unprocessed.smi

> <i_m_source_file_index>
81

> <i_lp_mmshare_version>
43012

> <i_f3d_flags>
0

> <s_epik_input>
W0NIMl0xW0NIMl1OKFtDSDNdKVtDSDJdW0NIMl1bQ0hdMU4oW0NIMl1bQ0hdKFtDSDNdKVtDSDNdKWMobltjSF1uMiljKGMyMyluW2NIXW4zW0NIMl1bQ0BAXTQoW09IXSlbQ0gyXVtDSDJdT1tDQEhdNFtDSDNd

> <s_epik_cmdline>
J2VwaWtfcHl0aG9uJywgJy1waCcsICc3LjAnLCAnLXRuJywgJzgnLCAnLW1hJywgJzIwMCcsICctbWV0YWxfYmluZGluZycsICctaW1hZScsICc8aW5maWxlLm1hZT4nLCAnLW9tYWUnLCAnPG91dGZpbGUubWFlPic=

> <r_lp_tautomer_probability>
1

> <r_epik_Ionization_Penalty>
0.00272708

> <r_epik_Ionization_Penalty_Charging>
0.00158983

> <r_epik_Ionization_Penalty_Neutral>
0.00113725

> <r_epik_State_Penalty>
-0

> <r_epik_Charging_Adjusted_Penalty>
0.00158983

> <i_epik_Tot_Q>
1

> <i_epik_Tot_abs_Q>
1

> <r_epik_Metal_State_Penalty>
-0

> <b_epik_Metal_Only>
0

> <s_lp_Force_Field>
OPLS_2005

> <r_lp_Energy>
45.4509

> <b_lp_Chiralities_Consistent>
1

> <s_lp_Variant>
AV-unprocessed.smi:81-2

> <Gold.Version>
5.8.1

> <Gold.Id.Protein>
6NUR|6NUR_protein|mol2

> <Gold.PLP.Fitness>
45.5749

> <Gold.PLP.PLP>
-29.8853

> <Gold.PLP.part.hbond>
-4.0000

> <Gold.PLP.part.metal>
0.0000

> <Gold.PLP.part.buried>
-5.7534

> <Gold.PLP.part.nonpolar>
-20.4672

> <Gold.PLP.part.repulsive>
1.2309

> <Gold.PLP.ligand.clash>
0.0000

> <Gold.PLP.ligand.torsion>
0.9272

> <Gold.PLP.Chemscore.Hbond>
5.0000

> <Gold.PLP.Chemscore.CHOScore>
0.5622

> <Gold.PLP.Chemscore.Metal>
0.0000

> <Gold.Chemscore.Hbonds>
donor molecule, donor type, donor heavy atom, donor atom, acceptor molecule, acceptor atom, score
      L1  H    26    64       P1 10957  2.00
      P1  H  6896  6907       L1     9  1.00
      P1  H  7989  7998       L1    20  1.00
      P1  H  7997  8010       L1    17  1.00
      L1  C    13    40       P1  7949  0.27

> <Gold.PLP.Chemscore.Internal.Correction>
0.8574

> <Gold.Rescore>
     Score         DG    S(hbond)    S(metal)    S(lipo)     H(rot)  DE(clash)    DE(int)     intcor
     15.72     -19.01       3.52        0.00      71.56       2.58       0.50       2.79       ----

> <Gold.Chemscore.Fitness>
15.7212

> <Gold.Chemscore.DG>
-19.0064

> <Gold.Chemscore.ZeroCoef>
-5.4800

> <Gold.Chemscore.Hbond>
3.5186

> <Gold.Chemscore.Metal>
0.0000

> <Gold.Chemscore.Lipo>
71.5596

> <Gold.Chemscore.Internal_Hbond>
0.0000

> <Gold.Chemscore.DEClash>
0.4994

> <Gold.Chemscore.DEInternal>
2.7858

> <Gold.Chemscore.Rot>
2.5774

> <Gold.Chemscore.Internal.Correction>
   9.000000E+99

> <Gold.Chemscore.Hbonds>
donor molecule, donor type, donor heavy atom, donor atom, acceptor molecule, acceptor atom, score
      L1  H    26    64       P1 10957  1.00
      P1  H  6896  6907       L1     9  0.53
      P1  H  7989  7998       L1    20  0.93
      P1  H  7997  8010       L1    17  0.93

> <Gold.Chemscore.Hbond.Weighted>
-11.7522

> <Gold.Chemscore.Metal.Weighted>
-0.0000

> <Gold.Chemscore.Lipo.Weighted>
-8.3725

> <Gold.Chemscore.Internal_Hbond.Weighted>
0.0000

> <Gold.Chemscore.DEClash.Weighted>
0.4994

> <Gold.Chemscore.DEInternal.Weighted>
2.7858

> <Gold.Chemscore.Rot.Weighted>
6.5982

> <Gold.Chemscore.Internal.Correction.Weighted>
   9.000000E+99

> <Gold.Protein.RotatedTorsions>
[ 6907 6896 6895 6894 ] final  -61.74 input  -60.11 | X-H torsion
[ 7974 7965 7964 7962 ] final   42.01 input  175.53 | X-H torsion
[ 8008 7997 7996 7995 ] final   52.66 input   59.86 | X-H torsion
[ 10167 10162 10161 10158 ] final -161.71 input  -65.29 | X-H torsion
[ 10718 10713 10712 10709 ] final   50.89 input   66.30 | X-H torsion
[ 10763 10752 10751 10750 ] final   22.05 input  -60.55 | X-H torsion
[ 11005 11000 10999 10996 ] final  154.07 input  -57.11 | X-H torsion

> <Gold.Protein.ActiveResidues>
 VAL166  LYS551  ARG553  GLY616  TRP617  ASP618  TYR619  PRO620  LYS621  CYS622 
 ASP623  PHE694  ASN695  SER759  ASP760  ASP761  ALA762  ILE779  LEU786  VAL792 
 PHE793  MET794  SER795  GLU796  ALA797  LYS798  CYS799  TRP800  GLU811  SER814 

> <Gold.Protein.RotatedAtoms>
  150.7763  134.6664  159.6367 H   0  0  0  0  0  0  0  0  0  0  0  0  # atno 6907 bound_to 6896
  152.3834  134.6551  160.0143 H   0  0  0  0  0  0  0  0  0  0  0  0  # atno 6908 bound_to 6896
  151.6874  133.3275  159.3270 H   0  0  0  0  0  0  0  0  0  0  0  0  # atno 6909 bound_to 6896
  146.0776  139.5349  142.9558 H   0  0  0  0  0  0  0  0  0  0  0  0  # atno 7974 bound_to 7965
  155.4554  140.3460  155.4306 H   0  0  0  0  0  0  0  0  0  0  0  0  # atno 8008 bound_to 7997
  156.1194  140.1483  156.9255 H   0  0  0  0  0  0  0  0  0  0  0  0  # atno 8009 bound_to 7997
  154.4812  140.0869  156.7362 H   0  0  0  0  0  0  0  0  0  0  0  0  # atno 8010 bound_to 7997
  139.6445  144.0197  152.2117 H   0  0  0  0  0  0  0  0  0  0  0  0  # atno 10167 bound_to 10162
  157.4928  130.8387  149.8223 H   0  0  0  0  0  0  0  0  0  0  0  0  # atno 10718 bound_to 10713
  153.0946  135.6656  153.9788 H   0  0  0  0  0  0  0  0  0  0  0  0  # atno 10763 bound_to 10752
  153.9375  135.2997  155.3445 H   0  0  0  0  0  0  0  0  0  0  0  0  # atno 10764 bound_to 10752
  154.7364  135.5100  153.9122 H   0  0  0  0  0  0  0  0  0  0  0  0  # atno 10765 bound_to 10752
  140.1456  134.8710  157.2387 H   0  0  0  0  0  0  0  0  0  0  0  0  # atno 11005 bound_to 11000
  145.6277  141.0310  143.1880 LP  0  0  0  0  0  0  0  0  0  0  0  0  # atno 17320 bound_to 7965
  144.7272  139.7839  143.7360 LP  0  0  0  0  0  0  0  0  0  0  0  0  # atno 17321 bound_to 7965
  139.9895  144.6371  150.7827 LP  0  0  0  0  0  0  0  0  0  0  0  0  # atno 17342 bound_to 10162
  140.7508  143.2961  151.3201 LP  0  0  0  0  0  0  0  0  0  0  0  0  # atno 17343 bound_to 10162
  156.0183  130.3805  150.2040 LP  0  0  0  0  0  0  0  0  0  0  0  0  # atno 17370 bound_to 10713
  157.0229  130.9984  151.3334 LP  0  0  0  0  0  0  0  0  0  0  0  0  # atno 17371 bound_to 10713
  140.2668  134.3506  155.7387 LP  0  0  0  0  0  0  0  0  0  0  0  0  # atno 17394 bound_to 11000
  141.2192  133.7401  156.9163 LP  0  0  0  0  0  0  0  0  0  0  0  0  # atno 17395 bound_to 11000

$$$$
