#       Name:                AV-unprocessed.smi:1330
#       Creating user name   scv26
#       Creation time:       Fri Mar 27 05:06:22 2020


#       File generated by GOLD software.
#

@<TRIPOS>MOLECULE
AV-unprocessed.smi:1330
    50    51     1
SMALL
NO_CHARGES


@<TRIPOS>ATOM
      1 ****        -3.6631   3.6010   2.3325 C.3            1 S1                 0.0000
      2 ****        -3.2373   2.8806   1.0818 C.2            1 S1                 0.0000
      3 ****        -2.8303   1.6619   1.2232 N.2            1 S1                 0.0000
      4 ****        -2.4146   0.9123   0.1408 N.am           1 S1                 0.0000
      5 ****        -1.9685  -0.4422   0.4905 C.3            1 S1                 0.0000
      6 ****        -0.4295  -0.5354   0.5907 C.3            1 S1                 0.0000
      7 ****        -0.0505  -0.0553   1.8659 O.3            1 S1                 0.0000
      8 ****         0.0685  -1.9864   0.4837 C.3            1 S1                 0.0000
      9 ****         1.4464  -1.9744   0.1486 O.3            1 S1                 0.0000
     10 ****         1.9974  -3.2742   0.0266 C.3            1 S1                 0.0000
     11 ****         3.4688  -3.2118  -0.3286 C.ar           1 S1                 0.0000
     12 ****         3.8829  -3.3479  -1.6702 C.ar           1 S1                 0.0000
     13 ****         5.2512  -3.2801  -1.9982 C.ar           1 S1                 0.0000
     14 ****         6.2095  -3.0753  -0.9861 C.ar           1 S1                 0.0000
     15 ****         7.8852  -2.9910  -1.3886 Cl             1 S1                 0.0000
     16 ****         5.7985  -2.9379   0.3543 C.ar           1 S1                 0.0000
     17 ****         4.4302  -3.0055   0.6825 C.ar           1 S1                 0.0000
     18 ****        -2.3917   1.3561  -1.1487 C.2            1 S1                 0.0000
     19 ****        -2.0084   0.6528  -2.0846 O.2            1 S1                 0.0000
     20 ****        -2.8556   2.7368  -1.3025 C.2            1 S1                 0.0000
     21 ****        -2.8451   3.2424  -2.6373 C.1            1 S1                 0.0000
     22 ****        -2.8418   3.6714  -3.7125 N.1            1 S1                 0.0000
     23 ****        -3.2637   3.4845  -0.2466 C.2            1 S1                 0.0000
     24 ****        -3.7510   4.9230  -0.3519 C.3            1 S1                 0.0000
     25 ****        -4.7098   3.8989   2.2700 H              1 S1                 0.0000
     26 ****        -3.0640   4.4986   2.4853 H              1 S1                 0.0000
     27 ****        -3.5513   2.9767   3.2203 H              1 S1                 0.0000
     28 ****        -2.4345  -0.7810   1.4183 H              1 S1                 0.0000
     29 ****        -2.3352  -1.1332  -0.2707 H              1 S1                 0.0000
     30 ****         0.0414   0.0659  -0.1881 H              1 S1                 0.0000
     31 ****        -0.3307   0.8441   1.9417 H              1 S1                 0.0000
     32 ****        -0.1147  -2.5394   1.4070 H              1 S1                 0.0000
     33 ****        -0.4670  -2.5035  -0.3142 H              1 S1                 0.0000
     34 ****         1.8813  -3.8188   0.9651 H              1 S1                 0.0000
     35 ****         1.4624  -3.8381  -0.7394 H              1 S1                 0.0000
     36 ****         3.1529  -3.5009  -2.4516 H              1 S1                 0.0000
     37 ****         5.5636  -3.3839  -3.0270 H              1 S1                 0.0000
     38 ****         6.5312  -2.7795   1.1319 H              1 S1                 0.0000
     39 ****         4.1201  -2.8955   1.7115 H              1 S1                 0.0000
     40 ****        -3.7546   5.2837  -1.3801 H              1 S1                 0.0000
     41 ****        -3.1084   5.5875   0.2265 H              1 S1                 0.0000
     42 ****        -4.7691   5.0115   0.0285 H              1 S1                 0.0000
     43 ****        -2.8162   1.2534   2.1358 LP             1 S1                 0.0000
     44 ****         0.9431  -0.1089   1.9653 LP             1 S1                 0.0000
     45 ****        -0.4869  -0.6060   2.5774 LP             1 S1                 0.0000
     46 ****         1.9440  -1.4830   0.8634 LP             1 S1                 0.0000
     47 ****         1.5582  -1.4976  -0.7233 LP             1 S1                 0.0000
     48 ****        -1.6982  -0.2822  -1.9130 LP             1 S1                 0.0000
     49 ****        -2.0075   1.0170  -3.0160 LP             1 S1                 0.0000
     50 ****        -2.8390   4.0420  -4.6413 LP             1 S1                 0.0000
@<TRIPOS>BOND
    1    1    2 1     
    2    1   25 1     
    3    1   26 1     
    4    1   27 1     
    5    2   23 1     
    6    2    3 2     
    7    3    4 1     
    8    4    5 1     
    9    4   18 am    
   10    5    6 1     
   11    5   28 1     
   12    5   29 1     
   13    6    7 1     
   14    6    8 1     
   15    6   30 1     
   16    7   31 1     
   17    8    9 1     
   18    8   32 1     
   19    8   33 1     
   20    9   10 1     
   21   10   11 1     
   22   10   34 1     
   23   10   35 1     
   24   11   17 ar    
   25   11   12 ar    
   26   12   13 ar    
   27   12   36 1     
   28   13   14 ar    
   29   13   37 1     
   30   14   15 1     
   31   14   16 ar    
   32   16   17 ar    
   33   16   38 1     
   34   17   39 1     
   35   18   19 2     
   36   18   20 1     
   37   20   21 1     
   38   20   23 2     
   39   21   22 3     
   40   23   24 1     
   41   24   40 1     
   42   24   41 1     
   43   24   42 1     
   44    3   43 1     
   45    7   44 1     
   46    7   45 1     
   47    9   46 1     
   48    9   47 1     
   49   19   48 1     
   50   19   49 1     
   51   22   50 1     
@<TRIPOS>SUBSTRUCTURE
      1 S1             1
@<TRIPOS>SET
LONE_PAIRS      STATIC     ATOMS    <user>   **** ""
8 43 44 45 46 47 48 49 50
DONOR_HYDROGENS      STATIC     ATOMS    <user>   **** ""
1 31
ATOM$BLUE        STATIC     ATOMS    COLORGROUP SYSTEM
8 43 44 45 46 47 48 49 50
ATOM$RED        STATIC     ATOMS    COLORGROUP SYSTEM
1 31
