#       Name:                AV-unprocessed.smi:1431
#       Creating user name   scv26
#       Creation time:       Fri Mar 27 05:49:04 2020


#       File generated by GOLD software.
#

@<TRIPOS>MOLECULE
AV-unprocessed.smi:1431
    36    37     1
SMALL
NO_CHARGES


@<TRIPOS>ATOM
      1 ****         0.0986   1.6880   0.6912 O.2            1 S1                 0.0000
      2 ****        -0.4363   0.6140   0.9681 C.2            1 S1                 0.0000
      3 ****         0.2502  -0.5155   1.1925 N.am           1 S1                 0.0000
      4 ****         1.7029  -0.6388   1.1285 C.3            1 S1                 0.0000
      5 ****         2.2139  -0.7411  -0.3219 C.3            1 S1                 0.0000
      6 ****         3.7465  -0.8850  -0.3952 C.3            1 S1                 0.0000
      7 ****         4.1330  -1.2543  -1.8305 C.3            1 S1                 0.0000
      8 ****         2.7781  -2.3233  -2.4419 S.o2           1 S1                 0.0000
      9 ****         2.2891  -1.7939  -3.7238 O.2            1 S1                 0.0000
     10 ****         3.1685  -3.7346  -2.3048 O.2            1 S1                 0.0000
     11 ****         1.5902  -1.9071  -1.1094 C.3            1 S1                 0.0000
     12 ****        -1.7603   0.4086   1.0806 N.am           1 S1                 0.0000
     13 ****        -2.8117   1.3507   0.9243 C.ar           1 S1                 0.0000
     14 ****        -4.1138   0.8279   1.0937 C.ar           1 S1                 0.0000
     15 ****        -5.2259   1.6820   0.9627 C.ar           1 S1                 0.0000
     16 ****        -5.0070   3.0388   0.6648 C.ar           1 S1                 0.0000
     17 ****        -3.6790   3.4780   0.5112 C.ar           1 S1                 0.0000
     18 ****        -2.6117   2.6612   0.6365 N.ar           1 S1                 0.0000
     19 ****        -0.2681  -1.3528   1.4147 H              1 S1                 0.0000
     20 ****         2.1698   0.2067   1.6365 H              1 S1                 0.0000
     21 ****         1.9883  -1.5292   1.6892 H              1 S1                 0.0000
     22 ****         1.9581   0.1800  -0.8479 H              1 S1                 0.0000
     23 ****         4.2544   0.0230  -0.0683 H              1 S1                 0.0000
     24 ****         4.0652  -1.6866   0.2723 H              1 S1                 0.0000
     25 ****         4.1718  -0.3650  -2.4600 H              1 S1                 0.0000
     26 ****         5.0882  -1.7752  -1.8994 H              1 S1                 0.0000
     27 ****         1.4743  -2.7904  -0.4809 H              1 S1                 0.0000
     28 ****         0.6197  -1.6567  -1.5384 H              1 S1                 0.0000
     29 ****        -2.0510  -0.5311   1.3061 H              1 S1                 0.0000
     30 ****        -4.2641  -0.2172   1.3228 H              1 S1                 0.0000
     31 ****        -6.2291   1.3020   1.0890 H              1 S1                 0.0000
     32 ****        -5.8342   3.7245   0.5569 H              1 S1                 0.0000
     33 ****        -3.4674   4.5120   0.2821 H              1 S1                 0.0000
     34 ****         1.0945   1.7479   0.6240 LP             1 S1                 0.0000
     35 ****        -0.4630   2.5003   0.5334 LP             1 S1                 0.0000
     36 ****        -1.6849   3.0178   0.5186 LP             1 S1                 0.0000
@<TRIPOS>BOND
    1    1    2 2     
    2    2    3 am    
    3    2   12 am    
    4    3    4 1     
    5    3   19 1     
    6    4    5 1     
    7    4   20 1     
    8    4   21 1     
    9    5   11 1     
   10    5    6 1     
   11    5   22 1     
   12    6    7 1     
   13    6   23 1     
   14    6   24 1     
   15    7    8 1     
   16    7   25 1     
   17    7   26 1     
   18    8    9 2     
   19    8   10 2     
   20    8   11 1     
   21   11   27 1     
   22   11   28 1     
   23   12   13 1     
   24   12   29 1     
   25   13   18 ar    
   26   13   14 ar    
   27   14   15 ar    
   28   14   30 1     
   29   15   16 ar    
   30   15   31 1     
   31   16   17 ar    
   32   16   32 1     
   33   17   18 ar    
   34   17   33 1     
   35    1   34 1     
   36    1   35 1     
   37   18   36 1     
@<TRIPOS>SUBSTRUCTURE
      1 S1             1
@<TRIPOS>SET
LONE_PAIRS      STATIC     ATOMS    <user>   **** ""
5 34 35 9 10 36
DONOR_HYDROGENS      STATIC     ATOMS    <user>   **** ""
2 19 29
ATOM$BLUE        STATIC     ATOMS    COLORGROUP SYSTEM
5 34 35 9 10 36
ATOM$RED        STATIC     ATOMS    COLORGROUP SYSTEM
2 19 29
