AV-unprocessed.smi:587|AV-procd|sdf|3003|dock9
  -GOLD-   2262023513D 1   1.00000     0.00000
 Structure written by MMmdl.
 47 49  0  0  0  0  0  0  0  0  2 V2000
  152.0523  141.0903  157.9454 C   0  0  0  0  0  0  0  0  0  0  0  0
  150.6940  140.7065  157.6229 N   0  0  0  0  0  0  0  0  0  0  0  0
  149.7382  141.5577  157.0713 C   0  0  0  0  0  0  0  0  0  0  0  0
  150.0964  142.8712  156.8027 N   0  0  0  0  0  0  0  0  0  0  0  0
  148.4806  141.1199  156.7938 C   0  0  0  0  0  0  0  0  0  0  0  0
  147.5157  142.0926  156.1945 N   0  3  0  0  0  0  0  0  0  0  0  0
  146.3424  142.4171  157.0454 C   0  0  0  0  0  0  0  0  0  0  0  0
  145.5730  143.6213  156.4774 C   0  0  0  0  0  0  0  0  0  0  0  0
  145.1519  143.3676  155.0228 C   0  0  0  0  0  0  0  0  0  0  0  0
  146.3766  142.9966  154.1747 C   0  0  0  0  0  0  0  0  0  0  0  0
  147.1302  141.8051  154.7889 C   0  0  0  0  0  0  0  0  0  0  0  0
  148.0791  139.7363  157.0676 C   0  0  0  0  0  0  0  0  0  0  0  0
  146.9543  139.2948  156.8264 O   0  0  0  0  0  0  0  0  0  0  0  0
  149.0715  138.9020  157.6280 N   0  0  0  0  0  0  0  0  0  0  0  0
  148.7385  137.4849  157.8994 C   0  0  0  0  0  0  0  0  0  0  0  0
  148.9710  137.0693  159.3606 C   0  0  0  0  0  0  0  0  0  0  0  0
  150.1073  136.8532  159.7857 O   0  0  0  0  0  0  0  0  0  0  0  0
  147.8685  136.9581  160.1153 N   0  0  0  0  0  0  0  0  0  0  0  0
  147.8408  136.5918  161.4943 C   0  0  0  0  0  0  0  0  0  0  0  0
  147.2182  135.2611  161.8577 C   0  0  0  0  0  0  0  0  0  0  0  0
  146.4910  136.5382  162.1770 C   0  0  0  0  0  0  0  0  0  0  0  0
  150.3790  139.3554  157.9014 C   0  0  0  0  0  0  0  0  0  0  0  0
  151.2239  138.5857  158.3678 O   0  0  0  0  0  0  0  0  0  0  0  0
  152.2112  142.1461  157.7376 H   0  0  0  0  0  0  0  0  0  0  0  0
  152.7184  140.4854  157.3275 H   0  0  0  0  0  0  0  0  0  0  0  0
  152.2044  140.9013  159.0098 H   0  0  0  0  0  0  0  0  0  0  0  0
  151.0186  143.2363  156.9896 H   0  0  0  0  0  0  0  0  0  0  0  0
  149.4359  143.5254  156.4061 H   0  0  0  0  0  0  0  0  0  0  0  0
  145.6793  141.5544  157.1190 H   0  0  0  0  0  0  0  0  0  0  0  0
  146.6824  142.6441  158.0566 H   0  0  0  0  0  0  0  0  0  0  0  0
  144.6948  143.8264  157.0903 H   0  0  0  0  0  0  0  0  0  0  0  0
  146.2002  144.5126  156.5273 H   0  0  0  0  0  0  0  0  0  0  0  0
  144.4202  142.5593  154.9866 H   0  0  0  0  0  0  0  0  0  0  0  0
  144.6624  144.2512  154.6122 H   0  0  0  0  0  0  0  0  0  0  0  0
  146.0673  142.7578  153.1567 H   0  0  0  0  0  0  0  0  0  0  0  0
  147.0458  143.8549  154.1018 H   0  0  0  0  0  0  0  0  0  0  0  0
  148.0274  141.5987  154.2039 H   0  0  0  0  0  0  0  0  0  0  0  0
  146.5086  140.9102  154.7441 H   0  0  0  0  0  0  0  0  0  0  0  0
  147.7010  137.2692  157.6384 H   0  0  0  0  0  0  0  0  0  0  0  0
  149.3127  136.8169  157.2553 H   0  0  0  0  0  0  0  0  0  0  0  0
  146.9781  137.1553  159.6817 H   0  0  0  0  0  0  0  0  0  0  0  0
  148.6756  136.9145  162.1149 H   0  0  0  0  0  0  0  0  0  0  0  0
  146.8231  134.6462  161.0513 H   0  0  0  0  0  0  0  0  0  0  0  0
  147.6577  134.7124  162.6883 H   0  0  0  0  0  0  0  0  0  0  0  0
  146.4453  136.8435  163.2203 H   0  0  0  0  0  0  0  0  0  0  0  0
  145.6098  136.7752  161.5837 H   0  0  0  0  0  0  0  0  0  0  0  0
  148.0165  142.9666  156.1322 H   0  0  0  0  0  0  0  0  0  0  0  0
  1  2  1  0  0  0  0
  1 24  1  0  0  0  0
  1 25  1  0  0  0  0
  1 26  1  0  0  0  0
  2 22  1  0  0  0  0
  2  3  1  0  0  0  0
  3  4  1  0  0  0  0
  3  5  2  0  0  0  0
  4 27  1  0  0  0  0
  4 28  1  0  0  0  0
  5  6  1  0  0  0  0
  5 12  1  0  0  0  0
  6 11  1  0  0  0  0
  6  7  1  0  0  0  0
  6 47  1  0  0  0  0
  7  8  1  0  0  0  0
  7 29  1  0  0  0  0
  7 30  1  0  0  0  0
  8  9  1  0  0  0  0
  8 31  1  0  0  0  0
  8 32  1  0  0  0  0
  9 10  1  0  0  0  0
  9 33  1  0  0  0  0
  9 34  1  0  0  0  0
 10 11  1  0  0  0  0
 10 35  1  0  0  0  0
 10 36  1  0  0  0  0
 11 37  1  0  0  0  0
 11 38  1  0  0  0  0
 12 13  2  0  0  0  0
 12 14  1  0  0  0  0
 14 15  1  0  0  0  0
 14 22  1  0  0  0  0
 15 16  1  0  0  0  0
 15 39  1  0  0  0  0
 15 40  1  0  0  0  0
 16 17  2  0  0  0  0
 16 18  1  0  0  0  0
 18 19  1  0  0  0  0
 18 41  1  0  0  0  0
 19 21  1  0  0  0  0
 19 20  1  0  0  0  0
 19 42  1  0  0  0  0
 20 21  1  0  0  0  0
 20 43  1  0  0  0  0
 20 44  1  0  0  0  0
 21 45  1  0  0  0  0
 21 46  1  0  0  0  0
 22 23  2  0  0  0  0
M  CHG  1   6   1
M  END
> <s_m_source_file>
AV-unprocessed.smi

> <i_m_source_file_index>
587

> <i_lp_mmshare_version>
43012

> <i_f3d_flags>
0

> <s_epik_input>
W0NIMl0xW0NIMl1bQ0gyXVtDSDJdW0NIMl1OMWMoYyhbTkgyXSluMltDSDNdKWMoPU8pbihjMj1PKVtDSDJdQyg9TylbTkhdW0NIXTNbQ0gyXVtDSDJdMw==

> <s_epik_cmdline>
J2VwaWtfcHl0aG9uJywgJy1waCcsICc3LjAnLCAnLXRuJywgJzgnLCAnLW1hJywgJzIwMCcsICctbWV0YWxfYmluZGluZycsICctaW1hZScsICc8aW5maWxlLm1hZT4nLCAnLW9tYWUnLCAnPG91dGZpbGUubWFlPic=

> <r_epik_Ionization_Penalty>
2.48068

> <r_epik_Ionization_Penalty_Charging>
2.47625

> <r_epik_Ionization_Penalty_Neutral>
0.00443673

> <r_epik_State_Penalty>
2.66159

> <r_epik_Charging_Adjusted_Penalty>
5.13784

> <i_epik_Tot_Q>
1

> <i_epik_Tot_abs_Q>
1

> <r_epik_Metal_State_Penalty>
2.66159

> <b_epik_Metal_Only>
0

> <s_lp_Force_Field>
OPLS_2005

> <r_lp_Energy>
35.5709

> <b_lp_Chiralities_Consistent>
1

> <s_lp_Variant>
AV-unprocessed.smi:587-2

> <Gold.Version>
5.8.1

> <Gold.Id.Protein>
6NUR|6NUR_protein|mol2

> <Gold.PLP.Fitness>
44.9642

> <Gold.PLP.PLP>
-33.4492

> <Gold.PLP.part.hbond>
-3.4104

> <Gold.PLP.part.metal>
0.0000

> <Gold.PLP.part.buried>
-6.0688

> <Gold.PLP.part.nonpolar>
-24.5541

> <Gold.PLP.part.repulsive>
0.2416

> <Gold.PLP.ligand.clash>
0.0000

> <Gold.PLP.ligand.torsion>
0.3410

> <Gold.PLP.Chemscore.Hbond>
4.0000

> <Gold.PLP.Chemscore.CHOScore>
0.0000

> <Gold.PLP.Chemscore.Metal>
0.0000

> <Gold.Chemscore.Hbonds>
donor molecule, donor type, donor heavy atom, donor atom, acceptor molecule, acceptor atom, score
      L1  H     4    28       P1  8028  0.94
      L1  H     6    47       P1  8028  2.00
      P1  H  6896  6907       L1    17  0.98

> <Gold.PLP.Chemscore.Internal.Correction>
0.1970

> <Gold.Rescore>
     Score         DG    S(hbond)    S(metal)    S(lipo)     H(rot)  DE(clash)    DE(int)     intcor
     13.09     -16.48       2.74        0.00      56.54       1.87       0.10       3.29       ----

> <Gold.Chemscore.Fitness>
13.0941

> <Gold.Chemscore.DG>
-16.4834

> <Gold.Chemscore.ZeroCoef>
-5.4800

> <Gold.Chemscore.Hbond>
2.7449

> <Gold.Chemscore.Metal>
0.0000

> <Gold.Chemscore.Lipo>
56.5408

> <Gold.Chemscore.Internal_Hbond>
0.0000

> <Gold.Chemscore.DEClash>
0.0993

> <Gold.Chemscore.DEInternal>
3.2901

> <Gold.Chemscore.Rot>
1.8672

> <Gold.Chemscore.Internal.Correction>
   9.000000E+99

> <Gold.Chemscore.Hbonds>
donor molecule, donor type, donor heavy atom, donor atom, acceptor molecule, acceptor atom, score
      L1  H     4    28       P1  8028  0.90
      L1  H     6    47       P1  8028  0.53
      P1  H  6896  6907       L1    17  0.91

> <Gold.Chemscore.Hbond.Weighted>
-9.1681

> <Gold.Chemscore.Metal.Weighted>
-0.0000

> <Gold.Chemscore.Lipo.Weighted>
-6.6153

> <Gold.Chemscore.Internal_Hbond.Weighted>
0.0000

> <Gold.Chemscore.DEClash.Weighted>
0.0993

> <Gold.Chemscore.DEInternal.Weighted>
3.2901

> <Gold.Chemscore.Rot.Weighted>
4.7799

> <Gold.Chemscore.Internal.Correction.Weighted>
   9.000000E+99

> <Gold.Protein.RotatedTorsions>
[ 6907 6896 6895 6894 ] final  -36.44 input  -60.11 | X-H torsion
[ 7974 7965 7964 7962 ] final -144.10 input  175.53 | X-H torsion
[ 8008 7997 7996 7995 ] final   64.44 input   59.86 | X-H torsion
[ 10167 10162 10161 10158 ] final  -21.01 input  -65.29 | X-H torsion
[ 10718 10713 10712 10709 ] final -128.55 input   66.30 | X-H torsion
[ 10763 10752 10751 10750 ] final  111.83 input  -60.55 | X-H torsion
[ 11005 11000 10999 10996 ] final  -87.26 input  -57.11 | X-H torsion

> <Gold.Protein.ActiveResidues>
 VAL166  LYS551  ARG553  GLY616  TRP617  ASP618  TYR619  PRO620  LYS621  CYS622 
 ASP623  PHE694  ASN695  SER759  ASP760  ASP761  ALA762  ILE779  LEU786  VAL792 
 PHE793  MET794  SER795  GLU796  ALA797  LYS798  CYS799  TRP800  GLU811  SER814 

> <Gold.Protein.RotatedAtoms>
  151.0271  134.9512  159.8090 H   0  0  0  0  0  0  0  0  0  0  0  0  # atno 6907 bound_to 6896
  152.5338  134.2828  159.9024 H   0  0  0  0  0  0  0  0  0  0  0  0  # atno 6908 bound_to 6896
  151.2837  133.4155  159.2662 H   0  0  0  0  0  0  0  0  0  0  0  0  # atno 6909 bound_to 6896
  144.8322  140.5753  143.5508 H   0  0  0  0  0  0  0  0  0  0  0  0  # atno 7974 bound_to 7965
  155.6461  140.3497  155.4732 H   0  0  0  0  0  0  0  0  0  0  0  0  # atno 8008 bound_to 7997
  155.9886  140.1189  157.0683 H   0  0  0  0  0  0  0  0  0  0  0  0  # atno 8009 bound_to 7997
  154.4212  140.1124  156.5520 H   0  0  0  0  0  0  0  0  0  0  0  0  # atno 8010 bound_to 7997
  140.7279  143.4668  151.0302 H   0  0  0  0  0  0  0  0  0  0  0  0  # atno 10167 bound_to 10162
  156.1962  130.6827  151.0484 H   0  0  0  0  0  0  0  0  0  0  0  0  # atno 10718 bound_to 10713
  153.4690  135.3705  155.2380 H   0  0  0  0  0  0  0  0  0  0  0  0  # atno 10763 bound_to 10752
  154.8757  135.3927  154.3835 H   0  0  0  0  0  0  0  0  0  0  0  0  # atno 10764 bound_to 10752
  153.4420  135.7084  153.6228 H   0  0  0  0  0  0  0  0  0  0  0  0  # atno 10765 bound_to 10752
  141.1619  133.7501  156.9281 H   0  0  0  0  0  0  0  0  0  0  0  0  # atno 11005 bound_to 11000
  145.4871  139.1491  143.3730 LP  0  0  0  0  0  0  0  0  0  0  0  0  # atno 17320 bound_to 7965
  146.2624  140.5009  142.8848 LP  0  0  0  0  0  0  0  0  0  0  0  0  # atno 17321 bound_to 7965
  139.8357  143.7631  152.3180 LP  0  0  0  0  0  0  0  0  0  0  0  0  # atno 17342 bound_to 10162
  139.7762  144.7460  151.0153 LP  0  0  0  0  0  0  0  0  0  0  0  0  # atno 17343 bound_to 10162
  157.6959  131.0794  150.6971 LP  0  0  0  0  0  0  0  0  0  0  0  0  # atno 17370 bound_to 10713
  156.7028  130.4628  149.5568 LP  0  0  0  0  0  0  0  0  0  0  0  0  # atno 17371 bound_to 10713
  140.1405  134.9296  157.2461 LP  0  0  0  0  0  0  0  0  0  0  0  0  # atno 17394 bound_to 11000
  140.2842  134.3315  155.7334 LP  0  0  0  0  0  0  0  0  0  0  0  0  # atno 17395 bound_to 11000

$$$$
