AV-unprocessed.smi:2837|AV-procd|sdf|10925|dock3
  -GOLD-   2272015373D 1   1.00000     0.00000
 Structure written by MMmdl.
 33 35  0  0  0  0  0  0  0  0  2 V2000
  138.6756  136.9634  153.8400 F   0  0  0  0  0  0  0  0  0  0  0  0
  139.4548  137.8503  153.1757 C   0  0  0  0  0  0  0  0  0  0  0  0
  138.8293  139.0523  153.2128 F   0  0  0  0  0  0  0  0  0  0  0  0
  140.6727  137.9300  153.7751 O   0  0  0  0  0  0  0  0  0  0  0  0
  141.5540  136.8800  153.6533 C   0  0  0  0  0  0  0  0  0  0  0  0
  142.7176  137.0692  152.8792 C   0  0  0  0  0  0  0  0  0  0  0  0
  143.6373  136.0121  152.7218 C   0  0  0  0  0  0  0  0  0  0  0  0
  143.3749  134.7651  153.3370 C   0  0  0  0  0  0  0  0  0  0  0  0
  144.2124  133.6442  153.2522 N   0  0  0  0  0  0  0  0  0  0  0  0
  145.4589  133.6857  152.4962 C   0  0  1  0  0  0  0  0  0  0  0  0
  146.0974  132.3060  152.3178 C   0  0  0  0  0  0  0  0  0  0  0  0
  146.2915  132.2423  150.7962 C   0  0  1  0  0  0  0  0  0  0  0  0
  144.9635  131.9968  150.0691 C   0  0  0  0  0  0  0  0  0  0  0  0
  144.2680  133.3471  150.2300 C   0  0  0  0  0  0  0  0  0  0  0  0
  145.3075  134.1482  151.0328 C   0  0  2  0  0  0  0  0  0  0  0  0
  146.5025  133.6112  150.4922 O   0  0  0  0  0  0  0  0  0  0  0  0
  142.2437  134.6203  154.0619 N   0  3  0  0  0  0  0  0  0  0  0  0
  141.3396  135.6087  154.2380 C   0  0  0  0  0  0  0  0  0  0  0  0
  139.5361  137.5134  152.1419 H   0  0  0  0  0  0  0  0  0  0  0  0
  142.9064  138.0238  152.4102 H   0  0  0  0  0  0  0  0  0  0  0  0
  144.5269  136.1765  152.1328 H   0  0  0  0  0  0  0  0  0  0  0  0
  143.8700  132.7450  153.5586 H   0  0  0  0  0  0  0  0  0  0  0  0
  146.1741  134.3272  153.0125 H   0  0  0  0  0  0  0  0  0  0  0  0
  147.0570  132.2648  152.8343 H   0  0  0  0  0  0  0  0  0  0  0  0
  145.4818  131.4831  152.6844 H   0  0  0  0  0  0  0  0  0  0  0  0
  147.0978  131.5802  150.4796 H   0  0  0  0  0  0  0  0  0  0  0  0
  145.1326  131.7776  149.0141 H   0  0  0  0  0  0  0  0  0  0  0  0
  144.3967  131.1725  150.5033 H   0  0  0  0  0  0  0  0  0  0  0  0
  144.1043  133.8048  149.2539 H   0  0  0  0  0  0  0  0  0  0  0  0
  143.3024  133.2726  150.7305 H   0  0  0  0  0  0  0  0  0  0  0  0
  145.2161  135.2278  150.9138 H   0  0  0  0  0  0  0  0  0  0  0  0
  140.4781  135.3443  154.8340 H   0  0  0  0  0  0  0  0  0  0  0  0
  142.0586  133.7167  154.4981 H   0  0  0  0  0  0  0  0  0  0  0  0
  1  2  1  0  0  0  0
  2  3  1  0  0  0  0
  2  4  1  0  0  0  0
  2 19  1  0  0  0  0
  4  5  1  0  0  0  0
  5 18  1  0  0  0  0
  5  6  2  0  0  0  0
  6  7  1  0  0  0  0
  6 20  1  0  0  0  0
  7  8  2  0  0  0  0
  7 21  1  0  0  0  0
  8  9  1  0  0  0  0
  8 17  1  0  0  0  0
  9 10  1  0  0  0  0
  9 22  1  0  0  0  0
 10 15  1  0  0  0  0
 10 11  1  0  0  0  0
 10 23  1  0  0  0  0
 11 12  1  0  0  0  0
 11 24  1  0  0  0  0
 11 25  1  0  0  0  0
 12 16  1  0  0  0  0
 12 13  1  0  0  0  0
 12 26  1  0  0  0  0
 13 14  1  0  0  0  0
 13 27  1  0  0  0  0
 13 28  1  0  0  0  0
 14 15  1  0  0  0  0
 14 29  1  0  0  0  0
 14 30  1  0  0  0  0
 15 16  1  0  0  0  0
 15 31  1  0  0  0  0
 17 18  2  0  0  0  0
 17 33  1  0  0  0  0
 18 32  1  0  0  0  0
M  CHG  1  17   1
M  END
> <s_m_source_file>
AV-unprocessed.smi

> <i_m_source_file_index>
2837

> <i_lp_mmshare_version>
43012

> <i_f3d_flags>
0

> <s_epik_input>
RltDSF0oRilPYzFbY0hdW2NIXWMobltjSF0xKVtOSF1bQ0BIXShbQ0gyXVtDQEBIXTIzKVtDQEBIXShPMylbQ0gyXVtDSDJdMg==

> <s_epik_cmdline>
J2VwaWtfcHl0aG9uJywgJy1waCcsICc3LjAnLCAnLXRuJywgJzgnLCAnLW1hJywgJzIwMCcsICctbWV0YWxfYmluZGluZycsICctaW1hZScsICc8aW5maWxlLm1hZT4nLCAnLW9tYWUnLCAnPG91dGZpbGUubWFlPic=

> <r_lp_tautomer_probability>
0.999429

> <r_epik_Ionization_Penalty>
2.29716

> <r_epik_Ionization_Penalty_Charging>
2.29716

> <r_epik_Ionization_Penalty_Neutral>
1.42285e-06

> <r_epik_State_Penalty>
2.44762

> <r_epik_Charging_Adjusted_Penalty>
4.74478

> <i_epik_Tot_Q>
1

> <i_epik_Tot_abs_Q>
1

> <r_epik_Metal_State_Penalty>
6.53078

> <b_epik_Metal_Only>
0

> <s_lp_Force_Field>
OPLS_2005

> <r_lp_Energy>
46.8356

> <b_lp_Chiralities_Consistent>
1

> <s_lp_Variant>
AV-unprocessed.smi:2837-6

> <Gold.Version>
5.8.1

> <Gold.Id.Protein>
6NUR|6NUR_protein|mol2

> <Gold.PLP.Fitness>
43.5962

> <Gold.PLP.PLP>
-32.4184

> <Gold.PLP.part.hbond>
-2.3868

> <Gold.PLP.part.metal>
0.0000

> <Gold.PLP.part.buried>
-2.6907

> <Gold.PLP.part.nonpolar>
-28.3355

> <Gold.PLP.part.repulsive>
0.4768

> <Gold.PLP.ligand.clash>
0.0000

> <Gold.PLP.ligand.torsion>
0.1995

> <Gold.PLP.Chemscore.Hbond>
3.8549

> <Gold.PLP.Chemscore.CHOScore>
0.0000

> <Gold.PLP.Chemscore.Metal>
0.0000

> <Gold.Chemscore.Hbonds>
donor molecule, donor type, donor heavy atom, donor atom, acceptor molecule, acceptor atom, score
      L1  H     9    22       P1 10957  1.92
      L1  H    17    33       P1 10957  1.87

> <Gold.PLP.Chemscore.Internal.Correction>
0.0119

> <Gold.Rescore>
     Score         DG    S(hbond)    S(metal)    S(lipo)     H(rot)  DE(clash)    DE(int)     intcor
     13.47     -14.90       1.46        0.00      68.11       1.34       0.33       1.10       ----

> <Gold.Chemscore.Fitness>
13.4680

> <Gold.Chemscore.DG>
-14.8966

> <Gold.Chemscore.ZeroCoef>
-5.4800

> <Gold.Chemscore.Hbond>
1.4581

> <Gold.Chemscore.Metal>
0.0000

> <Gold.Chemscore.Lipo>
68.1105

> <Gold.Chemscore.Internal_Hbond>
0.0000

> <Gold.Chemscore.DEClash>
0.3262

> <Gold.Chemscore.DEInternal>
1.1024

> <Gold.Chemscore.Rot>
1.3368

> <Gold.Chemscore.Internal.Correction>
   9.000000E+99

> <Gold.Chemscore.Hbonds>
donor molecule, donor type, donor heavy atom, donor atom, acceptor molecule, acceptor atom, score
      L1  H     9    22       P1 10957  0.59
      L1  H    17    33       P1 10957  0.85

> <Gold.Chemscore.Hbond.Weighted>
-4.8700

> <Gold.Chemscore.Metal.Weighted>
-0.0000

> <Gold.Chemscore.Lipo.Weighted>
-7.9689

> <Gold.Chemscore.Internal_Hbond.Weighted>
0.0000

> <Gold.Chemscore.DEClash.Weighted>
0.3262

> <Gold.Chemscore.DEInternal.Weighted>
1.1024

> <Gold.Chemscore.Rot.Weighted>
3.4223

> <Gold.Chemscore.Internal.Correction.Weighted>
   9.000000E+99

> <Gold.Protein.RotatedTorsions>
[ 6907 6896 6895 6894 ] final  -84.39 input  -60.11 | X-H torsion
[ 7974 7965 7964 7962 ] final  103.69 input  175.53 | X-H torsion
[ 8008 7997 7996 7995 ] final   42.41 input   59.86 | X-H torsion
[ 10167 10162 10161 10158 ] final   50.58 input  -65.29 | X-H torsion
[ 10718 10713 10712 10709 ] final   71.41 input   66.30 | X-H torsion
[ 10763 10752 10751 10750 ] final   64.08 input  -60.55 | X-H torsion
[ 11005 11000 10999 10996 ] final   75.49 input  -57.11 | X-H torsion

> <Gold.Protein.ActiveResidues>
 VAL166  LYS551  ARG553  GLY616  TRP617  ASP618  TYR619  PRO620  LYS621  CYS622 
 ASP623  PHE694  ASN695  SER759  ASP760  ASP761  ALA762  ILE779  LEU786  VAL792 
 PHE793  MET794  SER795  GLU796  ALA797  LYS798  CYS799  TRP800  GLU811  SER814 

> <Gold.Protein.RotatedAtoms>
  150.6877  134.3365  159.4849 H   0  0  0  0  0  0  0  0  0  0  0  0  # atno 6907 bound_to 6896
  152.1223  134.9193  160.0571 H   0  0  0  0  0  0  0  0  0  0  0  0  # atno 6908 bound_to 6896
  152.0395  133.3936  159.4367 H   0  0  0  0  0  0  0  0  0  0  0  0  # atno 6909 bound_to 6896
  145.3426  139.2458  143.3601 H   0  0  0  0  0  0  0  0  0  0  0  0  # atno 7974 bound_to 7965
  155.2857  140.3375  155.4255 H   0  0  0  0  0  0  0  0  0  0  0  0  # atno 8008 bound_to 7997
  156.2069  140.1754  156.7820 H   0  0  0  0  0  0  0  0  0  0  0  0  # atno 8009 bound_to 7997
  154.5633  140.0683  156.8837 H   0  0  0  0  0  0  0  0  0  0  0  0  # atno 8010 bound_to 7997
  140.2710  144.3266  150.6290 H   0  0  0  0  0  0  0  0  0  0  0  0  # atno 10167 bound_to 10162
  157.6450  130.9527  150.0785 H   0  0  0  0  0  0  0  0  0  0  0  0  # atno 10718 bound_to 10713
  153.0042  135.5406  154.6454 H   0  0  0  0  0  0  0  0  0  0  0  0  # atno 10763 bound_to 10752
  154.5699  135.2841  155.0840 H   0  0  0  0  0  0  0  0  0  0  0  0  # atno 10764 bound_to 10752
  154.2009  135.6484  153.5139 H   0  0  0  0  0  0  0  0  0  0  0  0  # atno 10765 bound_to 10752
  139.9341  134.7521  156.1277 H   0  0  0  0  0  0  0  0  0  0  0  0  # atno 11005 bound_to 11000
  146.3001  140.4027  142.8707 LP  0  0  0  0  0  0  0  0  0  0  0  0  # atno 17320 bound_to 7965
  144.8778  140.7360  143.6006 LP  0  0  0  0  0  0  0  0  0  0  0  0  # atno 17321 bound_to 7965
  140.5890  143.2169  151.7289 LP  0  0  0  0  0  0  0  0  0  0  0  0  # atno 17342 bound_to 10162
  139.4989  144.3968  152.0223 LP  0  0  0  0  0  0  0  0  0  0  0  0  # atno 17343 bound_to 10162
  156.1768  130.3648  149.9089 LP  0  0  0  0  0  0  0  0  0  0  0  0  # atno 17370 bound_to 10713
  156.7051  130.8948  151.3603 LP  0  0  0  0  0  0  0  0  0  0  0  0  # atno 17371 bound_to 10713
  141.0946  133.6700  156.2617 LP  0  0  0  0  0  0  0  0  0  0  0  0  # atno 17394 bound_to 11000
  140.6121  134.5447  157.5535 LP  0  0  0  0  0  0  0  0  0  0  0  0  # atno 17395 bound_to 11000

$$$$
