AV-unprocessed.smi:749|AV-procd|sdf|3587|dock8
  -GOLD-   22720 0583D 1   1.00000     0.00000
 Structure written by MMmdl.
 42 43  0  0  0  0  0  0  0  0  2 V2000
  151.2886  139.3345  156.0654 C   0  0  0  0  0  0  0  0  0  0  0  0
  150.1331  139.9291  155.3919 N   0  0  0  0  0  0  0  0  0  0  0  0
  149.4529  139.0437  154.4341 C   0  0  0  0  0  0  0  0  0  0  0  0
  148.0551  139.5272  154.0114 C   0  0  2  0  0  0  0  0  0  0  0  0
  147.6034  138.7656  152.8510 N   0  0  0  0  0  0  0  0  0  0  0  0
  146.4294  138.1159  152.7249 C   0  0  0  0  0  0  0  0  0  0  0  0
  145.6276  138.1487  153.6576 O   0  0  0  0  0  0  0  0  0  0  0  0
  146.1926  137.4536  151.5612 N   0  5  0  0  0  0  0  0  0  0  0  0
  145.8460  136.1550  151.5213 C   0  0  0  0  0  0  0  0  0  0  0  0
  145.3663  135.4556  150.3813 C   0  0  0  0  0  0  0  0  0  0  0  0
  145.1520  134.1889  150.8511 C   0  0  0  0  0  0  0  0  0  0  0  0
  144.6369  132.9253  150.2206 C   0  0  0  0  0  0  0  0  0  0  0  0
  144.4297  133.1137  148.7045 C   0  0  0  0  0  0  0  0  0  0  0  0
  143.2861  132.5376  150.8506 C   0  0  0  0  0  0  0  0  0  0  0  0
  145.6445  131.7802  150.4342 C   0  0  0  0  0  0  0  0  0  0  0  0
  145.4859  134.1233  152.1702 O   0  0  0  0  0  0  0  0  0  0  0  0
  145.9354  135.3807  152.5886 N   0  0  0  0  0  0  0  0  0  0  0  0
  148.1035  141.0259  153.6958 C   0  0  0  0  0  0  0  0  0  0  0  0
  148.5653  141.8173  154.9251 C   0  0  0  0  0  0  0  0  0  0  0  0
  149.8055  141.2255  155.6123 C   0  0  0  0  0  0  0  0  0  0  0  0
  150.4477  141.9501  156.3734 O   0  0  0  0  0  0  0  0  0  0  0  0
  151.1312  139.3116  157.1445 H   0  0  0  0  0  0  0  0  0  0  0  0
  152.1931  139.9103  155.8641 H   0  0  0  0  0  0  0  0  0  0  0  0
  151.4756  138.3114  155.7368 H   0  0  0  0  0  0  0  0  0  0  0  0
  150.0961  138.9639  153.5558 H   0  0  0  0  0  0  0  0  0  0  0  0
  149.3704  138.0385  154.8502 H   0  0  0  0  0  0  0  0  0  0  0  0
  147.3676  139.3592  154.8427 H   0  0  0  0  0  0  0  0  0  0  0  0
  148.2363  138.7247  152.0656 H   0  0  0  0  0  0  0  0  0  0  0  0
  145.1982  135.8296  149.3825 H   0  0  0  0  0  0  0  0  0  0  0  0
  144.0598  132.2008  148.2364 H   0  0  0  0  0  0  0  0  0  0  0  0
  145.3620  133.3813  148.2056 H   0  0  0  0  0  0  0  0  0  0  0  0
  143.7064  133.9030  148.4958 H   0  0  0  0  0  0  0  0  0  0  0  0
  142.5466  133.3280  150.7163 H   0  0  0  0  0  0  0  0  0  0  0  0
  143.3818  132.3580  151.9221 H   0  0  0  0  0  0  0  0  0  0  0  0
  142.8829  131.6291  150.4021 H   0  0  0  0  0  0  0  0  0  0  0  0
  145.2971  130.8528  149.9773 H   0  0  0  0  0  0  0  0  0  0  0  0
  145.8044  131.5809  151.4945 H   0  0  0  0  0  0  0  0  0  0  0  0
  146.6142  132.0201  149.9964 H   0  0  0  0  0  0  0  0  0  0  0  0
  148.7796  141.2116  152.8600 H   0  0  0  0  0  0  0  0  0  0  0  0
  147.1209  141.3823  153.3841 H   0  0  0  0  0  0  0  0  0  0  0  0
  148.7647  142.8523  154.6456 H   0  0  0  0  0  0  0  0  0  0  0  0
  147.7616  141.8430  155.6618 H   0  0  0  0  0  0  0  0  0  0  0  0
  1  2  1  0  0  0  0
  1 22  1  0  0  0  0
  1 23  1  0  0  0  0
  1 24  1  0  0  0  0
  2 20  1  0  0  0  0
  2  3  1  0  0  0  0
  3  4  1  0  0  0  0
  3 25  1  0  0  0  0
  3 26  1  0  0  0  0
  4  5  1  0  0  0  0
  4 18  1  0  0  0  0
  4 27  1  0  0  0  0
  5  6  1  0  0  0  0
  5 28  1  0  0  0  0
  6  7  2  0  0  0  0
  6  8  1  0  0  0  0
  8  9  1  0  0  0  0
  9 17  2  0  0  0  0
  9 10  1  0  0  0  0
 10 11  2  0  0  0  0
 10 29  1  0  0  0  0
 11 12  1  0  0  0  0
 11 16  1  0  0  0  0
 12 13  1  0  0  0  0
 12 14  1  0  0  0  0
 12 15  1  0  0  0  0
 13 30  1  0  0  0  0
 13 31  1  0  0  0  0
 13 32  1  0  0  0  0
 14 33  1  0  0  0  0
 14 34  1  0  0  0  0
 14 35  1  0  0  0  0
 15 36  1  0  0  0  0
 15 37  1  0  0  0  0
 15 38  1  0  0  0  0
 16 17  1  0  0  0  0
 18 19  1  0  0  0  0
 18 39  1  0  0  0  0
 18 40  1  0  0  0  0
 19 20  1  0  0  0  0
 19 41  1  0  0  0  0
 19 42  1  0  0  0  0
 20 21  2  0  0  0  0
M  CHG  1   8  -1
M  END
> <s_m_source_file>
AV-unprocessed.smi

> <i_m_source_file_index>
749

> <i_lp_mmshare_version>
43012

> <i_f3d_flags>
0

> <s_epik_input>
Tz1DMVtDSDJdW0NIMl1bQ0BASF0oW0NIMl1OMVtDSDNdKVtOSF1DKD1PKVtOSF1jMltjSF1jKG9uMilDKFtDSDNdKShbQ0gzXSlbQ0gzXQ==

> <s_epik_cmdline>
J2VwaWtfcHl0aG9uJywgJy1waCcsICc3LjAnLCAnLXRuJywgJzgnLCAnLW1hJywgJzIwMCcsICctbWV0YWxfYmluZGluZycsICctaW1hZScsICc8aW5maWxlLm1hZT4nLCAnLW9tYWUnLCAnPG91dGZpbGUubWFlPic=

> <r_lp_tautomer_probability>
1

> <r_epik_Ionization_Penalty>
6.47858

> <r_epik_Ionization_Penalty_Charging>
6.47844

> <r_epik_Ionization_Penalty_Neutral>
0.000138814

> <r_epik_State_Penalty>
6.47843

> <r_epik_Charging_Adjusted_Penalty>
12.9569

> <i_epik_Tot_Q>
-1

> <i_epik_Tot_abs_Q>
1

> <r_epik_Metal_State_Penalty>
2.40644

> <b_epik_Metal_Only>
1

> <s_lp_Force_Field>
OPLS_2005

> <r_lp_Energy>
10.0372

> <b_lp_Chiralities_Consistent>
1

> <s_lp_Variant>
AV-unprocessed.smi:749-4

> <Gold.Version>
5.8.1

> <Gold.Id.Protein>
6NUR|6NUR_protein|mol2

> <Gold.PLP.Fitness>
38.7733

> <Gold.PLP.PLP>
-38.1391

> <Gold.PLP.part.hbond>
-1.9035

> <Gold.PLP.part.metal>
0.0000

> <Gold.PLP.part.buried>
2.8704

> <Gold.PLP.part.nonpolar>
-39.0219

> <Gold.PLP.part.repulsive>
1.4401

> <Gold.PLP.ligand.clash>
0.0000

> <Gold.PLP.ligand.torsion>
0.6839

> <Gold.PLP.Chemscore.Hbond>
0.6599

> <Gold.PLP.Chemscore.CHOScore>
0.0000

> <Gold.PLP.Chemscore.Metal>
0.0000

> <Gold.Chemscore.Hbonds>
donor molecule, donor type, donor heavy atom, donor atom, acceptor molecule, acceptor atom, score
      L1  H     5    28       P1  7957  0.66

> <Gold.PLP.Chemscore.Internal.Correction>
0.0224

> <Gold.Rescore>
     Score         DG    S(hbond)    S(metal)    S(lipo)     H(rot)  DE(clash)    DE(int)     intcor
     10.07     -14.44       0.92        0.00      76.89       1.22       2.35       2.02       ----

> <Gold.Chemscore.Fitness>
10.0699

> <Gold.Chemscore.DG>
-14.4404

> <Gold.Chemscore.ZeroCoef>
-5.4800

> <Gold.Chemscore.Hbond>
0.9243

> <Gold.Chemscore.Metal>
0.0000

> <Gold.Chemscore.Lipo>
76.8895

> <Gold.Chemscore.Internal_Hbond>
0.0000

> <Gold.Chemscore.DEClash>
2.3482

> <Gold.Chemscore.DEInternal>
2.0224

> <Gold.Chemscore.Rot>
1.2198

> <Gold.Chemscore.Internal.Correction>
   9.000000E+99

> <Gold.Chemscore.Hbonds>
donor molecule, donor type, donor heavy atom, donor atom, acceptor molecule, acceptor atom, score
      L1  H     5    28       P1  7957  0.59

> <Gold.Chemscore.Hbond.Weighted>
-3.0871

> <Gold.Chemscore.Metal.Weighted>
-0.0000

> <Gold.Chemscore.Lipo.Weighted>
-8.9961

> <Gold.Chemscore.Internal_Hbond.Weighted>
0.0000

> <Gold.Chemscore.DEClash.Weighted>
2.3482

> <Gold.Chemscore.DEInternal.Weighted>
2.0224

> <Gold.Chemscore.Rot.Weighted>
3.1228

> <Gold.Chemscore.Internal.Correction.Weighted>
   9.000000E+99

> <Gold.Protein.RotatedTorsions>
[ 6907 6896 6895 6894 ] final  -56.56 input  -60.11 | X-H torsion
[ 7974 7965 7964 7962 ] final  -19.39 input  175.53 | X-H torsion
[ 8008 7997 7996 7995 ] final  138.49 input   59.86 | X-H torsion
[ 10167 10162 10161 10158 ] final  -55.56 input  -65.29 | X-H torsion
[ 10718 10713 10712 10709 ] final   23.94 input   66.30 | X-H torsion
[ 10763 10752 10751 10750 ] final   49.84 input  -60.55 | X-H torsion
[ 11005 11000 10999 10996 ] final -153.46 input  -57.11 | X-H torsion

> <Gold.Protein.ActiveResidues>
 VAL166  LYS551  ARG553  GLY616  TRP617  ASP618  TYR619  PRO620  LYS621  CYS622 
 ASP623  PHE694  ASN695  SER759  ASP760  ASP761  ALA762  ILE779  LEU786  VAL792 
 PHE793  MET794  SER795  GLU796  ALA797  LYS798  CYS799  TRP800  GLU811  SER814 

> <Gold.Protein.RotatedAtoms>
  150.8158  134.7338  159.6727 H   0  0  0  0  0  0  0  0  0  0  0  0  # atno 6907 bound_to 6896
  152.4276  134.5835  159.9964 H   0  0  0  0  0  0  0  0  0  0  0  0  # atno 6908 bound_to 6896
  151.6033  133.3317  159.3088 H   0  0  0  0  0  0  0  0  0  0  0  0  # atno 6909 bound_to 6896
  146.1844  140.4055  142.8482 H   0  0  0  0  0  0  0  0  0  0  0  0  # atno 7974 bound_to 7965
  156.2997  140.2392  156.4082 H   0  0  0  0  0  0  0  0  0  0  0  0  # atno 8008 bound_to 7997
  154.8465  140.0426  157.1596 H   0  0  0  0  0  0  0  0  0  0  0  0  # atno 8009 bound_to 7997
  154.9045  140.2981  155.5303 H   0  0  0  0  0  0  0  0  0  0  0  0  # atno 8010 bound_to 7997
  140.6367  143.2486  151.5098 H   0  0  0  0  0  0  0  0  0  0  0  0  # atno 10167 bound_to 10162
  157.1730  130.6768  149.6085 H   0  0  0  0  0  0  0  0  0  0  0  0  # atno 10718 bound_to 10713
  152.9785  135.5898  154.4155 H   0  0  0  0  0  0  0  0  0  0  0  0  # atno 10763 bound_to 10752
  154.3785  135.2767  155.2227 H   0  0  0  0  0  0  0  0  0  0  0  0  # atno 10764 bound_to 10752
  154.4151  135.6072  153.6030 H   0  0  0  0  0  0  0  0  0  0  0  0  # atno 10765 bound_to 10752
  140.7079  134.3865  157.5201 H   0  0  0  0  0  0  0  0  0  0  0  0  # atno 11005 bound_to 11000
  144.8370  140.6798  143.6254 LP  0  0  0  0  0  0  0  0  0  0  0  0  # atno 17320 bound_to 7965
  145.3983  139.1602  143.4191 LP  0  0  0  0  0  0  0  0  0  0  0  0  # atno 17321 bound_to 7965
  139.5578  144.2233  152.1641 LP  0  0  0  0  0  0  0  0  0  0  0  0  # atno 17342 bound_to 10162
  140.1491  144.5131  150.6698 LP  0  0  0  0  0  0  0  0  0  0  0  0  # atno 17343 bound_to 10162
  155.9735  130.4672  150.6318 LP  0  0  0  0  0  0  0  0  0  0  0  0  # atno 17370 bound_to 10713
  157.4025  131.0812  151.1295 LP  0  0  0  0  0  0  0  0  0  0  0  0  # atno 17371 bound_to 10713
  139.8879  134.8870  156.2502 LP  0  0  0  0  0  0  0  0  0  0  0  0  # atno 17394 bound_to 11000
  141.0109  133.7096  156.1110 LP  0  0  0  0  0  0  0  0  0  0  0  0  # atno 17395 bound_to 11000

$$$$
