AV-unprocessed.smi:2385|AV-procd|sdf|9465|dock4
  -GOLD-   2272013 93D 1   1.00000     0.00000
 Structure written by MMmdl.
 50 52  0  0  0  0  0  0  0  0  2 V2000
  153.9737  141.7002  160.9851 C   0  0  0  0  0  0  0  0  0  0  0  0
  152.9920  141.8857  159.8472 C   0  0  0  0  0  0  0  0  0  0  0  0
  152.6853  143.1683  159.3551 C   0  0  0  0  0  0  0  0  0  0  0  0
  151.7670  143.2861  158.2940 C   0  0  0  0  0  0  0  0  0  0  0  0
  151.1792  142.1221  157.7501 C   0  0  0  0  0  0  0  0  0  0  0  0
  150.2659  142.3514  156.6867 N   0  0  0  0  0  0  0  0  0  0  0  0
  149.7126  141.4500  155.8567 C   0  0  0  0  0  0  0  0  0  0  0  0
  149.9209  140.2369  155.8774 O   0  0  0  0  0  0  0  0  0  0  0  0
  148.8903  142.0420  154.9782 N   0  0  0  0  0  0  0  0  0  0  0  0
  148.1200  141.3549  153.9418 C   0  0  2  0  0  0  0  0  0  0  0  0
  147.0951  142.2879  153.2698 C   0  0  0  0  0  0  0  0  0  0  0  0
  145.9485  142.6657  154.2239 C   0  0  0  0  0  0  0  0  0  0  0  0
  145.2692  141.4601  154.7695 N   0  3  2  0  0  0  0  0  0  0  0  0
  144.0892  141.8213  155.6006 C   0  0  0  0  0  0  0  0  0  0  0  0
  144.2999  143.0876  156.4595 C   0  0  2  0  0  0  0  0  0  0  0  0
  145.5259  142.9928  157.3515 C   0  0  0  0  0  0  0  0  0  0  0  0
  145.2224  144.0284  158.4234 C   0  0  0  0  0  0  0  0  0  0  0  0
  143.8374  143.8513  158.6723 O   0  0  0  0  0  0  0  0  0  0  0  0
  143.1956  143.3941  157.4852 C   0  0  0  0  0  0  0  0  0  0  0  0
  146.2315  140.5624  155.4636 C   0  0  0  0  0  0  0  0  0  0  0  0
  147.3865  140.1420  154.5358 C   0  0  0  0  0  0  0  0  0  0  0  0
  151.4832  140.8902  158.2289 N   0  0  0  0  0  0  0  0  0  0  0  0
  152.3630  140.7779  159.2465 C   0  0  0  0  0  0  0  0  0  0  0  0
  154.0431  142.6036  161.5918 H   0  0  0  0  0  0  0  0  0  0  0  0
  154.9649  141.4729  160.5926 H   0  0  0  0  0  0  0  0  0  0  0  0
  153.6631  140.8800  161.6328 H   0  0  0  0  0  0  0  0  0  0  0  0
  153.1434  144.0490  159.7809 H   0  0  0  0  0  0  0  0  0  0  0  0
  151.5199  144.2636  157.9056 H   0  0  0  0  0  0  0  0  0  0  0  0
  150.0010  143.3149  156.5456 H   0  0  0  0  0  0  0  0  0  0  0  0
  148.7758  143.0429  155.0419 H   0  0  0  0  0  0  0  0  0  0  0  0
  148.8193  140.9936  153.1855 H   0  0  0  0  0  0  0  0  0  0  0  0
  147.5821  143.1891  152.8950 H   0  0  0  0  0  0  0  0  0  0  0  0
  146.6782  141.7879  152.3945 H   0  0  0  0  0  0  0  0  0  0  0  0
  146.3251  143.2767  155.0459 H   0  0  0  0  0  0  0  0  0  0  0  0
  145.2296  143.2795  153.6795 H   0  0  0  0  0  0  0  0  0  0  0  0
  143.1923  141.8991  154.9843 H   0  0  0  0  0  0  0  0  0  0  0  0
  143.9012  140.9987  156.2923 H   0  0  0  0  0  0  0  0  0  0  0  0
  144.4328  143.9545  155.8100 H   0  0  0  0  0  0  0  0  0  0  0  0
  145.5974  142.0024  157.8039 H   0  0  0  0  0  0  0  0  0  0  0  0
  146.4570  143.1939  156.8213 H   0  0  0  0  0  0  0  0  0  0  0  0
  145.8145  143.8898  159.3283 H   0  0  0  0  0  0  0  0  0  0  0  0
  145.3963  145.0377  158.0477 H   0  0  0  0  0  0  0  0  0  0  0  0
  142.5102  144.1572  157.1157 H   0  0  0  0  0  0  0  0  0  0  0  0
  142.6124  142.5065  157.7319 H   0  0  0  0  0  0  0  0  0  0  0  0
  146.6213  141.0613  156.3523 H   0  0  0  0  0  0  0  0  0  0  0  0
  145.7304  139.6606  155.8060 H   0  0  0  0  0  0  0  0  0  0  0  0
  146.9869  139.5325  153.7242 H   0  0  0  0  0  0  0  0  0  0  0  0
  148.0875  139.5037  155.0750 H   0  0  0  0  0  0  0  0  0  0  0  0
  152.5697  139.7746  159.5890 H   0  0  0  0  0  0  0  0  0  0  0  0
  144.9144  140.9545  153.9702 H   0  0  0  0  0  0  0  0  0  0  0  0
  1  2  1  0  0  0  0
  1 24  1  0  0  0  0
  1 25  1  0  0  0  0
  1 26  1  0  0  0  0
  2 23  1  0  0  0  0
  2  3  2  0  0  0  0
  3  4  1  0  0  0  0
  3 27  1  0  0  0  0
  4  5  2  0  0  0  0
  4 28  1  0  0  0  0
  5  6  1  0  0  0  0
  5 22  1  0  0  0  0
  6  7  1  0  0  0  0
  6 29  1  0  0  0  0
  7  8  2  0  0  0  0
  7  9  1  0  0  0  0
  9 10  1  0  0  0  0
  9 30  1  0  0  0  0
 10 21  1  0  0  0  0
 10 11  1  0  0  0  0
 10 31  1  0  0  0  0
 11 12  1  0  0  0  0
 11 32  1  0  0  0  0
 11 33  1  0  0  0  0
 12 13  1  0  0  0  0
 12 34  1  0  0  0  0
 12 35  1  0  0  0  0
 13 14  1  0  0  0  0
 13 20  1  0  0  0  0
 13 50  1  0  0  0  0
 14 15  1  0  0  0  0
 14 36  1  0  0  0  0
 14 37  1  0  0  0  0
 15 19  1  0  0  0  0
 15 16  1  0  0  0  0
 15 38  1  0  0  0  0
 16 17  1  0  0  0  0
 16 39  1  0  0  0  0
 16 40  1  0  0  0  0
 17 18  1  0  0  0  0
 17 41  1  0  0  0  0
 17 42  1  0  0  0  0
 18 19  1  0  0  0  0
 19 43  1  0  0  0  0
 19 44  1  0  0  0  0
 20 21  1  0  0  0  0
 20 45  1  0  0  0  0
 20 46  1  0  0  0  0
 21 47  1  0  0  0  0
 21 48  1  0  0  0  0
 22 23  2  0  0  0  0
 23 49  1  0  0  0  0
M  CHG  1  13   1
M  END
> <s_m_source_file>
AV-unprocessed.smi

> <i_m_source_file_index>
2385

> <i_lp_mmshare_version>
43012

> <i_f3d_flags>
0

> <s_epik_input>
W0NIM11jMVtjSF1bY0hdYyhuW2NIXTEpW05IXUMoPU8pW05IXVtDSF0yW0NIMl1bQ0gyXU4oW0NIMl1bQ0gyXTIpW0NIMl1bQ0BASF0zW0NIMl1bQ0gyXU9bQ0gyXTM=

> <s_epik_cmdline>
J2VwaWtfcHl0aG9uJywgJy1waCcsICc3LjAnLCAnLXRuJywgJzgnLCAnLW1hJywgJzIwMCcsICctbWV0YWxfYmluZGluZycsICctaW1hZScsICc8aW5maWxlLm1hZT4nLCAnLW9tYWUnLCAnPG91dGZpbGUubWFlPic=

> <r_epik_Ionization_Penalty>
0.00752367

> <r_epik_Ionization_Penalty_Charging>
0.00747775

> <r_epik_Ionization_Penalty_Neutral>
4.59207e-05

> <r_epik_State_Penalty>
0.00558817

> <r_epik_Charging_Adjusted_Penalty>
0.0130659

> <i_epik_Tot_Q>
1

> <i_epik_Tot_abs_Q>
1

> <r_epik_Metal_State_Penalty>
-0

> <b_epik_Metal_Only>
0

> <s_lp_Force_Field>
OPLS_2005

> <r_lp_Energy>
35.6171

> <b_lp_Chiralities_Consistent>
1

> <s_lp_Variant>
AV-unprocessed.smi:2385-3

> <Gold.Version>
5.8.1

> <Gold.Id.Protein>
6NUR|6NUR_protein|mol2

> <Gold.PLP.Fitness>
47.9134

> <Gold.PLP.PLP>
-36.7307

> <Gold.PLP.part.hbond>
-3.0000

> <Gold.PLP.part.metal>
0.0000

> <Gold.PLP.part.buried>
-7.1622

> <Gold.PLP.part.nonpolar>
-27.6962

> <Gold.PLP.part.repulsive>
0.2912

> <Gold.PLP.ligand.clash>
0.0000

> <Gold.PLP.ligand.torsion>
0.4491

> <Gold.PLP.Chemscore.Hbond>
4.0000

> <Gold.PLP.Chemscore.CHOScore>
0.0000

> <Gold.PLP.Chemscore.Metal>
0.0000

> <Gold.Chemscore.Hbonds>
donor molecule, donor type, donor heavy atom, donor atom, acceptor molecule, acceptor atom, score
      L1  H     6    29       P1  8028  1.00
      L1  H     9    30       P1  8028  1.00
      L1  H    13    50       P1 10175  2.00

> <Gold.PLP.Chemscore.Internal.Correction>
0.0808

> <Gold.Rescore>
     Score         DG    S(hbond)    S(metal)    S(lipo)     H(rot)  DE(clash)    DE(int)     intcor
     17.59     -22.08       2.88        0.00      90.49       1.41       1.68       2.81       ----

> <Gold.Chemscore.Fitness>
17.5908

> <Gold.Chemscore.DG>
-22.0837

> <Gold.Chemscore.ZeroCoef>
-5.4800

> <Gold.Chemscore.Hbond>
2.8786

> <Gold.Chemscore.Metal>
0.0000

> <Gold.Chemscore.Lipo>
90.4913

> <Gold.Chemscore.Internal_Hbond>
0.0000

> <Gold.Chemscore.DEClash>
1.6798

> <Gold.Chemscore.DEInternal>
2.8132

> <Gold.Chemscore.Rot>
1.4056

> <Gold.Chemscore.Internal.Correction>
   9.000000E+99

> <Gold.Chemscore.Hbonds>
donor molecule, donor type, donor heavy atom, donor atom, acceptor molecule, acceptor atom, score
      L1  H     6    29       P1  8028  0.93
      L1  H     9    30       P1  8028  1.00
      L1  H    13    50       P1 10175  0.85

> <Gold.Chemscore.Hbond.Weighted>
-9.6145

> <Gold.Chemscore.Metal.Weighted>
-0.0000

> <Gold.Chemscore.Lipo.Weighted>
-10.5875

> <Gold.Chemscore.Internal_Hbond.Weighted>
0.0000

> <Gold.Chemscore.DEClash.Weighted>
1.6798

> <Gold.Chemscore.DEInternal.Weighted>
2.8132

> <Gold.Chemscore.Rot.Weighted>
3.5982

> <Gold.Chemscore.Internal.Correction.Weighted>
   9.000000E+99

> <Gold.Protein.RotatedTorsions>
[ 6907 6896 6895 6894 ] final   -0.30 input  -60.11 | X-H torsion
[ 7974 7965 7964 7962 ] final -117.85 input  175.53 | X-H torsion
[ 8008 7997 7996 7995 ] final  -46.93 input   59.86 | X-H torsion
[ 10167 10162 10161 10158 ] final   54.44 input  -65.29 | X-H torsion
[ 10718 10713 10712 10709 ] final  -65.37 input   66.30 | X-H torsion
[ 10763 10752 10751 10750 ] final -124.56 input  -60.55 | X-H torsion
[ 11005 11000 10999 10996 ] final   15.01 input  -57.11 | X-H torsion

> <Gold.Protein.ActiveResidues>
 VAL166  LYS551  ARG553  GLY616  TRP617  ASP618  TYR619  PRO620  LYS621  CYS622 
 ASP623  PHE694  ASN695  SER759  ASP760  ASP761  ALA762  ILE779  LEU786  VAL792 
 PHE793  MET794  SER795  GLU796  ALA797  LYS798  CYS799  TRP800  GLU811  SER814 

> <Gold.Protein.RotatedAtoms>
  151.5645  135.1064  159.9980 H   0  0  0  0  0  0  0  0  0  0  0  0  # atno 6907 bound_to 6896
  152.4431  133.7481  159.6689 H   0  0  0  0  0  0  0  0  0  0  0  0  # atno 6908 bound_to 6896
  150.8340  133.7975  159.3110 H   0  0  0  0  0  0  0  0  0  0  0  0  # atno 6909 bound_to 6896
  145.0805  140.8422  143.4042 H   0  0  0  0  0  0  0  0  0  0  0  0  # atno 7974 bound_to 7965
  154.4012  140.1359  156.4092 H   0  0  0  0  0  0  0  0  0  0  0  0  # atno 8008 bound_to 7997
  155.7750  140.3483  155.5247 H   0  0  0  0  0  0  0  0  0  0  0  0  # atno 8009 bound_to 7997
  155.8730  140.0975  157.1528 H   0  0  0  0  0  0  0  0  0  0  0  0  # atno 8010 bound_to 7997
  140.2301  144.3696  150.6418 H   0  0  0  0  0  0  0  0  0  0  0  0  # atno 10167 bound_to 10162
  156.0674  130.4246  150.1554 H   0  0  0  0  0  0  0  0  0  0  0  0  # atno 10718 bound_to 10713
  154.8725  135.4059  154.3125 H   0  0  0  0  0  0  0  0  0  0  0  0  # atno 10763 bound_to 10752
  153.3967  135.7016  153.6461 H   0  0  0  0  0  0  0  0  0  0  0  0  # atno 10764 bound_to 10752
  153.5221  135.3685  155.2608 H   0  0  0  0  0  0  0  0  0  0  0  0  # atno 10765 bound_to 10752
  140.4631  134.1107  155.7720 H   0  0  0  0  0  0  0  0  0  0  0  0  # atno 11005 bound_to 11000
  145.1184  139.2710  143.5601 LP  0  0  0  0  0  0  0  0  0  0  0  0  # atno 17320 bound_to 7965
  146.3531  140.0800  142.8618 LP  0  0  0  0  0  0  0  0  0  0  0  0  # atno 17321 bound_to 7965
  140.6192  143.2175  151.6730 LP  0  0  0  0  0  0  0  0  0  0  0  0  # atno 17342 bound_to 10162
  139.5113  144.3513  152.0649 LP  0  0  0  0  0  0  0  0  0  0  0  0  # atno 17343 bound_to 10162
  156.9611  130.9805  151.3479 LP  0  0  0  0  0  0  0  0  0  0  0  0  # atno 17370 bound_to 10713
  157.5724  130.8319  149.8409 LP  0  0  0  0  0  0  0  0  0  0  0  0  # atno 17371 bound_to 10713
  141.1612  133.8789  157.1843 LP  0  0  0  0  0  0  0  0  0  0  0  0  # atno 17394 bound_to 11000
  139.9932  135.0056  157.0024 LP  0  0  0  0  0  0  0  0  0  0  0  0  # atno 17395 bound_to 11000

$$$$
