AV-unprocessed.smi:2176|AV-procd|sdf|8846|dock7
  -GOLD-   2272012 33D 1   1.00000     0.00000
 Structure written by MMmdl.
 29 30  0  0  0  0  0  0  0  0  1 V2000
  151.2947  141.5284  157.8578 O   0  0  0  0  0  0  0  0  0  0  0  0
  150.7265  142.1557  156.9627 C   0  0  0  0  0  0  0  0  0  0  0  0
  149.7913  141.4413  155.9757 C   0  0  0  0  0  0  0  0  0  0  0  0
  150.3939  140.2440  155.3711 N   0  0  0  0  0  0  0  0  0  0  0  0
  151.7147  139.9130  155.6394 C   0  0  0  0  0  0  0  0  0  0  0  0
  152.3291  138.8215  155.1250 C   0  0  0  0  0  0  0  0  0  0  0  0
  151.6065  137.9165  154.2376 C   0  0  0  0  0  0  0  0  0  0  0  0
  152.0761  136.9060  153.7195 O   0  0  0  0  0  0  0  0  0  0  0  0
  150.2797  138.2815  153.9947 N   0  0  0  0  0  0  0  0  0  0  0  0
  149.6397  139.4036  154.5232 C   0  0  0  0  0  0  0  0  0  0  0  0
  148.4624  139.6312  154.2475 O   0  0  0  0  0  0  0  0  0  0  0  0
  150.8873  143.4735  156.7668 N   0  0  0  0  0  0  0  0  0  0  0  0
  151.7347  144.3583  157.5576 C   0  0  0  0  0  0  0  0  0  0  0  0
  151.3078  144.4818  159.0054 C   0  0  0  0  0  0  0  0  0  0  0  0
  151.8063  145.6276  159.8545 C   0  0  0  0  0  0  0  0  0  0  0  0
  152.2811  144.2214  160.1316 C   0  0  0  0  0  0  0  0  0  0  0  0
  149.7387  137.6827  153.3879 H   0  0  0  0  0  0  0  0  0  0  0  0
  148.8561  141.1800  156.4756 H   0  0  0  0  0  0  0  0  0  0  0  0
  149.5114  142.1548  155.1993 H   0  0  0  0  0  0  0  0  0  0  0  0
  152.2880  140.5527  156.2955 H   0  0  0  0  0  0  0  0  0  0  0  0
  153.3606  138.6161  155.3722 H   0  0  0  0  0  0  0  0  0  0  0  0
  150.3828  143.8986  156.0026 H   0  0  0  0  0  0  0  0  0  0  0  0
  152.7568  143.9806  157.5140 H   0  0  0  0  0  0  0  0  0  0  0  0
  151.7629  145.3624  157.1321 H   0  0  0  0  0  0  0  0  0  0  0  0
  150.2755  144.1857  159.1832 H   0  0  0  0  0  0  0  0  0  0  0  0
  152.5189  146.3182  159.4077 H   0  0  0  0  0  0  0  0  0  0  0  0
  151.1077  146.0709  160.5613 H   0  0  0  0  0  0  0  0  0  0  0  0
  151.8975  143.7264  161.0216 H   0  0  0  0  0  0  0  0  0  0  0  0
  153.3088  143.9780  159.8692 H   0  0  0  0  0  0  0  0  0  0  0  0
  1  2  2  0  0  0  0
  2  3  1  0  0  0  0
  2 12  1  0  0  0  0
  3  4  1  0  0  0  0
  3 18  1  0  0  0  0
  3 19  1  0  0  0  0
  4 10  1  0  0  0  0
  4  5  1  0  0  0  0
  5  6  2  0  0  0  0
  5 20  1  0  0  0  0
  6  7  1  0  0  0  0
  6 21  1  0  0  0  0
  7  8  2  0  0  0  0
  7  9  1  0  0  0  0
  9 17  1  0  0  0  0
  9 10  1  0  0  0  0
 10 11  2  0  0  0  0
 12 13  1  0  0  0  0
 12 22  1  0  0  0  0
 13 14  1  0  0  0  0
 13 23  1  0  0  0  0
 13 24  1  0  0  0  0
 14 16  1  0  0  0  0
 14 15  1  0  0  0  0
 14 25  1  0  0  0  0
 15 16  1  0  0  0  0
 15 26  1  0  0  0  0
 15 27  1  0  0  0  0
 16 28  1  0  0  0  0
 16 29  1  0  0  0  0
M  END
> <s_m_source_file>
AV-unprocessed.smi

> <i_m_source_file_index>
2176

> <i_lp_mmshare_version>
43012

> <i_f3d_flags>
0

> <s_epik_input>
W0NIMl0xW0NIMl1bQ0hdMVtDSDJdW05IXUMoPU8pW0NIMl1uMltjSF1bY0hdYyg9TylbbkhdYzI9Tw==

> <s_epik_cmdline>
J2VwaWtfcHl0aG9uJywgJy1waCcsICc3LjAnLCAnLXRuJywgJzgnLCAnLW1hJywgJzIwMCcsICctbWV0YWxfYmluZGluZycsICctaW1hZScsICc8aW5maWxlLm1hZT4nLCAnLW9tYWUnLCAnPG91dGZpbGUubWFlPic=

> <r_lp_tautomer_probability>
0.999537

> <r_epik_Ionization_Penalty>
0.00328917

> <r_epik_Ionization_Penalty_Charging>
0.00328916

> <r_epik_Ionization_Penalty_Neutral>
1.93017e-08

> <r_epik_State_Penalty>
0.00232387

> <r_epik_Charging_Adjusted_Penalty>
0.00561303

> <i_epik_Tot_Q>
0

> <i_epik_Tot_abs_Q>
0

> <r_epik_Metal_State_Penalty>
0.365274

> <b_epik_Metal_Only>
0

> <s_lp_Force_Field>
OPLS_2005

> <r_lp_Energy>
12.7002

> <b_lp_Chiralities_Consistent>
1

> <s_lp_Variant>
AV-unprocessed.smi:2176-1

> <Gold.Version>
5.8.1

> <Gold.Id.Protein>
6NUR|6NUR_protein|mol2

> <Gold.PLP.Fitness>
44.1130

> <Gold.PLP.PLP>
-37.8509

> <Gold.PLP.part.hbond>
-2.3933

> <Gold.PLP.part.metal>
0.0000

> <Gold.PLP.part.buried>
-6.5792

> <Gold.PLP.part.nonpolar>
-34.2765

> <Gold.PLP.part.repulsive>
3.8363

> <Gold.PLP.ligand.clash>
0.0000

> <Gold.PLP.ligand.torsion>
0.5512

> <Gold.PLP.Chemscore.Hbond>
2.2723

> <Gold.PLP.Chemscore.CHOScore>
0.0000

> <Gold.PLP.Chemscore.Metal>
0.0000

> <Gold.Chemscore.Hbonds>
donor molecule, donor type, donor heavy atom, donor atom, acceptor molecule, acceptor atom, score
      L1  H     9    17       P1  7948  0.55
      L1  H    12    22       P1  8028  0.83
      P1  H 10752 10763       L1     8  1.00

> <Gold.PLP.Chemscore.Internal.Correction>
0.5478

> <Gold.Rescore>
     Score         DG    S(hbond)    S(metal)    S(lipo)     H(rot)  DE(clash)    DE(int)     intcor
     13.70     -18.08       2.85        0.00      70.73       2.04       2.20       2.17       ----

> <Gold.Chemscore.Fitness>
13.7002

> <Gold.Chemscore.DG>
-18.0754

> <Gold.Chemscore.ZeroCoef>
-5.4800

> <Gold.Chemscore.Hbond>
2.8533

> <Gold.Chemscore.Metal>
0.0000

> <Gold.Chemscore.Lipo>
70.7275

> <Gold.Chemscore.Internal_Hbond>
0.0000

> <Gold.Chemscore.DEClash>
2.2046

> <Gold.Chemscore.DEInternal>
2.1706

> <Gold.Chemscore.Rot>
2.0351

> <Gold.Chemscore.Internal.Correction>
   9.000000E+99

> <Gold.Chemscore.Hbonds>
donor molecule, donor type, donor heavy atom, donor atom, acceptor molecule, acceptor atom, score
      L1  H     9    17       P1  7948  0.40
      L1  H    12    22       P1  8028  0.81
      P1  H 10752 10763       L1     8  0.95

> <Gold.Chemscore.Hbond.Weighted>
-9.5301

> <Gold.Chemscore.Metal.Weighted>
-0.0000

> <Gold.Chemscore.Lipo.Weighted>
-8.2751

> <Gold.Chemscore.Internal_Hbond.Weighted>
0.0000

> <Gold.Chemscore.DEClash.Weighted>
2.2046

> <Gold.Chemscore.DEInternal.Weighted>
2.1706

> <Gold.Chemscore.Rot.Weighted>
5.2098

> <Gold.Chemscore.Internal.Correction.Weighted>
   9.000000E+99

> <Gold.Protein.RotatedTorsions>
[ 6907 6896 6895 6894 ] final  -51.91 input  -60.11 | X-H torsion
[ 7974 7965 7964 7962 ] final   35.51 input  175.53 | X-H torsion
[ 8008 7997 7996 7995 ] final -167.84 input   59.86 | X-H torsion
[ 10167 10162 10161 10158 ] final -132.88 input  -65.29 | X-H torsion
[ 10718 10713 10712 10709 ] final -152.39 input   66.30 | X-H torsion
[ 10763 10752 10751 10750 ] final   25.53 input  -60.55 | X-H torsion
[ 11005 11000 10999 10996 ] final -158.00 input  -57.11 | X-H torsion

> <Gold.Protein.ActiveResidues>
 VAL166  LYS551  ARG553  GLY616  TRP617  ASP618  TYR619  PRO620  LYS621  CYS622 
 ASP623  PHE694  ASN695  SER759  ASP760  ASP761  ALA762  ILE779  LEU786  VAL792 
 PHE793  MET794  SER795  GLU796  ALA797  LYS798  CYS799  TRP800  GLU811  SER814 

> <Gold.Protein.RotatedAtoms>
  150.8567  134.7908  159.7050 H   0  0  0  0  0  0  0  0  0  0  0  0  # atno 6907 bound_to 6896
  152.4616  134.5167  159.9780 H   0  0  0  0  0  0  0  0  0  0  0  0  # atno 6908 bound_to 6896
  151.5278  133.3416  159.2948 H   0  0  0  0  0  0  0  0  0  0  0  0  # atno 6909 bound_to 6896
  146.1278  139.6134  142.9247 H   0  0  0  0  0  0  0  0  0  0  0  0  # atno 7974 bound_to 7965
  155.8833  140.1012  157.1470 H   0  0  0  0  0  0  0  0  0  0  0  0  # atno 8008 bound_to 7997
  154.4007  140.1325  156.4287 H   0  0  0  0  0  0  0  0  0  0  0  0  # atno 8009 bound_to 7997
  155.7618  140.3463  155.5204 H   0  0  0  0  0  0  0  0  0  0  0  0  # atno 8010 bound_to 7997
  139.9040  143.6574  152.2589 H   0  0  0  0  0  0  0  0  0  0  0  0  # atno 10167 bound_to 10162
  156.4719  130.8262  151.2491 H   0  0  0  0  0  0  0  0  0  0  0  0  # atno 10718 bound_to 10713
  153.0685  135.6581  154.0299 H   0  0  0  0  0  0  0  0  0  0  0  0  # atno 10763 bound_to 10752
  153.9950  135.2942  155.3409 H   0  0  0  0  0  0  0  0  0  0  0  0  # atno 10764 bound_to 10752
  154.7052  135.5228  153.8654 H   0  0  0  0  0  0  0  0  0  0  0  0  # atno 10765 bound_to 10752
  140.6585  134.4375  157.5234 H   0  0  0  0  0  0  0  0  0  0  0  0  # atno 11005 bound_to 11000
  145.5327  141.0426  143.2374 LP  0  0  0  0  0  0  0  0  0  0  0  0  # atno 17320 bound_to 7965
  144.7660  139.6845  143.7215 LP  0  0  0  0  0  0  0  0  0  0  0  0  # atno 17321 bound_to 7965
  139.7000  144.7636  151.1289 LP  0  0  0  0  0  0  0  0  0  0  0  0  # atno 17342 bound_to 10162
  140.7700  143.5470  150.9247 LP  0  0  0  0  0  0  0  0  0  0  0  0  # atno 17343 bound_to 10162
  157.7490  131.0073  150.3186 LP  0  0  0  0  0  0  0  0  0  0  0  0  # atno 17370 bound_to 10713
  156.3610  130.3847  149.7252 LP  0  0  0  0  0  0  0  0  0  0  0  0  # atno 17371 bound_to 10713
  139.9021  134.8532  156.1853 LP  0  0  0  0  0  0  0  0  0  0  0  0  # atno 17394 bound_to 11000
  141.0483  133.6902  156.1725 LP  0  0  0  0  0  0  0  0  0  0  0  0  # atno 17395 bound_to 11000

$$$$
