AV-unprocessed.smi:1410|AV-procd|sdf|5738|dock7
  -GOLD-   22720 5373D 1   1.00000     0.00000
 Structure written by MMmdl.
 40 41  0  0  0  0  0  0  0  0  4 V2000
  141.8348  141.6172  154.5500 N   0  5  0  0  0  0  0  0  0  0  0  0
  142.7725  141.7851  155.5043 C   0  0  0  0  0  0  0  0  0  0  0  0
  142.8018  141.2934  156.6301 O   0  0  0  0  0  0  0  0  0  0  0  0
  143.9017  142.7188  155.0557 C   0  0  0  0  0  0  0  0  0  0  0  0
  145.0975  141.9404  154.6424 N   0  3  2  0  0  0  0  0  0  0  0  0
  145.7571  141.2694  155.7908 C   0  0  0  0  0  0  0  0  0  0  0  0
  146.8957  140.3487  155.3179 C   0  0  0  0  0  0  0  0  0  0  0  0
  147.9318  141.1032  154.4608 C   0  0  2  0  0  0  0  0  0  0  0  0
  148.7256  142.0367  155.2599 N   0  0  0  0  0  0  0  0  0  0  0  0
  149.6726  141.6895  156.1439 C   0  0  0  0  0  0  0  0  0  0  0  0
  149.9756  140.5223  156.3893 O   0  0  0  0  0  0  0  0  0  0  0  0
  150.2156  142.7715  156.7285 N   0  0  0  0  0  0  0  0  0  0  0  0
  151.2363  142.8224  157.7168 C   0  0  0  0  0  0  0  0  0  0  0  0
  151.7036  141.5957  158.2387 C   0  0  0  0  0  0  0  0  0  0  0  0
  152.7046  141.5982  159.2315 C   0  0  0  0  0  0  0  0  0  0  0  0
  153.2011  142.7699  159.6827 N   0  3  0  0  0  0  0  0  0  0  0  0
  152.7759  143.9673  159.2258 C   0  0  0  0  0  0  0  0  0  0  0  0
  151.7769  144.0280  158.2328 C   0  0  0  0  0  0  0  0  0  0  0  0
  147.2151  141.8451  153.3193 C   0  0  0  0  0  0  0  0  0  0  0  0
  146.0660  142.7306  153.8355 C   0  0  0  0  0  0  0  0  0  0  0  0
  141.9075  142.1557  153.6788 H   0  0  0  0  0  0  0  0  0  0  0  0
  143.5676  143.3638  154.2413 H   0  0  0  0  0  0  0  0  0  0  0  0
  144.1461  143.3766  155.8918 H   0  0  0  0  0  0  0  0  0  0  0  0
  146.1369  142.0206  156.4851 H   0  0  0  0  0  0  0  0  0  0  0  0
  145.0245  140.6750  156.3383 H   0  0  0  0  0  0  0  0  0  0  0  0
  147.3741  139.8746  156.1756 H   0  0  0  0  0  0  0  0  0  0  0  0
  146.4698  139.5365  154.7272 H   0  0  0  0  0  0  0  0  0  0  0  0
  148.6155  140.3780  154.0153 H   0  0  0  0  0  0  0  0  0  0  0  0
  148.5451  143.0202  155.1197 H   0  0  0  0  0  0  0  0  0  0  0  0
  149.8054  143.6608  156.4835 H   0  0  0  0  0  0  0  0  0  0  0  0
  151.3060  140.6573  157.8800 H   0  0  0  0  0  0  0  0  0  0  0  0
  153.1181  140.7047  159.6759 H   0  0  0  0  0  0  0  0  0  0  0  0
  153.2393  144.8363  159.6696 H   0  0  0  0  0  0  0  0  0  0  0  0
  151.4377  144.9961  157.8972 H   0  0  0  0  0  0  0  0  0  0  0  0
  147.9264  142.4462  152.7513 H   0  0  0  0  0  0  0  0  0  0  0  0
  146.8100  141.1143  152.6177 H   0  0  0  0  0  0  0  0  0  0  0  0
  145.5625  143.1859  152.9823 H   0  0  0  0  0  0  0  0  0  0  0  0
  146.4605  143.5500  154.4383 H   0  0  0  0  0  0  0  0  0  0  0  0
  144.7451  141.2056  154.0447 H   0  0  0  0  0  0  0  0  0  0  0  0
  153.9242  142.7504  160.4026 H   0  0  0  0  0  0  0  0  0  0  0  0
  1  2  1  0  0  0  0
  1 21  1  0  0  0  0
  2  3  2  0  0  0  0
  2  4  1  0  0  0  0
  4  5  1  0  0  0  0
  4 22  1  0  0  0  0
  4 23  1  0  0  0  0
  5 20  1  0  0  0  0
  5  6  1  0  0  0  0
  5 39  1  0  0  0  0
  6  7  1  0  0  0  0
  6 24  1  0  0  0  0
  6 25  1  0  0  0  0
  7  8  1  0  0  0  0
  7 26  1  0  0  0  0
  7 27  1  0  0  0  0
  8  9  1  0  0  0  0
  8 19  1  0  0  0  0
  8 28  1  0  0  0  0
  9 10  1  0  0  0  0
  9 29  1  0  0  0  0
 10 11  2  0  0  0  0
 10 12  1  0  0  0  0
 12 13  1  0  0  0  0
 12 30  1  0  0  0  0
 13 18  1  0  0  0  0
 13 14  2  0  0  0  0
 14 15  1  0  0  0  0
 14 31  1  0  0  0  0
 15 16  2  0  0  0  0
 15 32  1  0  0  0  0
 16 17  1  0  0  0  0
 16 40  1  0  0  0  0
 17 18  2  0  0  0  0
 17 33  1  0  0  0  0
 18 34  1  0  0  0  0
 19 20  1  0  0  0  0
 19 35  1  0  0  0  0
 19 36  1  0  0  0  0
 20 37  1  0  0  0  0
 20 38  1  0  0  0  0
M  CHG  1   1  -1
M  CHG  1   5   1
M  CHG  1  16   1
M  END
> <s_m_source_file>
AV-unprocessed.smi

> <i_m_source_file_index>
1410

> <i_lp_mmshare_version>
43012

> <i_f3d_flags>
0

> <s_epik_input>
W05IMl1DKD1PKVtDSDJdTjFbQ0gyXVtDSDJdW0NIXShbQ0gyXVtDSDJdMSlbTkhdQyg9TylbTkhdYzJbY0hdW2NIXW5bY0hdW2NIXTI=

> <s_epik_cmdline>
J2VwaWtfcHl0aG9uJywgJy1waCcsICc3LjAnLCAnLXRuJywgJzgnLCAnLW1hJywgJzIwMCcsICctbWV0YWxfYmluZGluZycsICctaW1hZScsICc8aW5maWxlLm1hZT4nLCAnLW9tYWUnLCAnPG91dGZpbGUubWFlPic=

> <r_epik_Ionization_Penalty>
6.84067

> <r_epik_Ionization_Penalty_Charging>
6.84065

> <r_epik_Ionization_Penalty_Neutral>
1.84563e-05

> <r_epik_State_Penalty>
7.68217

> <r_epik_Charging_Adjusted_Penalty>
14.5228

> <i_epik_Tot_Q>
1

> <i_epik_Tot_abs_Q>
3

> <r_epik_Metal_State_Penalty>
3.74331

> <b_epik_Metal_Only>
1

> <s_lp_Force_Field>
OPLS_2005

> <r_lp_Energy>
20.5434

> <b_lp_Chiralities_Consistent>
1

> <s_lp_Variant>
AV-unprocessed.smi:1410-10

> <Gold.Version>
5.8.1

> <Gold.Id.Protein>
6NUR|6NUR_protein|mol2

> <Gold.PLP.Fitness>
46.5549

> <Gold.PLP.PLP>
-32.7011

> <Gold.PLP.part.hbond>
-5.0000

> <Gold.PLP.part.metal>
0.0000

> <Gold.PLP.part.buried>
-5.4800

> <Gold.PLP.part.nonpolar>
-23.5876

> <Gold.PLP.part.repulsive>
0.3203

> <Gold.PLP.ligand.clash>
0.0259

> <Gold.PLP.ligand.torsion>
0.5134

> <Gold.PLP.Chemscore.Hbond>
4.9585

> <Gold.PLP.Chemscore.CHOScore>
0.0000

> <Gold.PLP.Chemscore.Metal>
0.0000

> <Gold.Chemscore.Hbonds>
donor molecule, donor type, donor heavy atom, donor atom, acceptor molecule, acceptor atom, score
      L1  H     1    21       P1 10174  1.00
      L1  H     5    39       P1 10175  2.00
      L1  H     9    29       P1  8028  0.96
      L1  H    12    30       P1  8028  1.00

> <Gold.PLP.Chemscore.Internal.Correction>
0.0310

> <Gold.Rescore>
     Score         DG    S(hbond)    S(metal)    S(lipo)     H(rot)  DE(clash)    DE(int)     intcor
     18.65     -20.68       3.40        0.00      75.66       1.96       0.03       1.99       ----

> <Gold.Chemscore.Fitness>
18.6549

> <Gold.Chemscore.DG>
-20.6785

> <Gold.Chemscore.ZeroCoef>
-5.4800

> <Gold.Chemscore.Hbond>
3.4031

> <Gold.Chemscore.Metal>
0.0000

> <Gold.Chemscore.Lipo>
75.6650

> <Gold.Chemscore.Internal_Hbond>
0.0000

> <Gold.Chemscore.DEClash>
0.0310

> <Gold.Chemscore.DEInternal>
1.9927

> <Gold.Chemscore.Rot>
1.9612

> <Gold.Chemscore.Internal.Correction>
   9.000000E+99

> <Gold.Chemscore.Hbonds>
donor molecule, donor type, donor heavy atom, donor atom, acceptor molecule, acceptor atom, score
      L1  H     1    21       P1 10174  0.72
      L1  H     5    39       P1 10175  0.60
      L1  H     9    29       P1  8028  0.92
      L1  H    12    30       P1  8028  0.99

> <Gold.Chemscore.Hbond.Weighted>
-11.3665

> <Gold.Chemscore.Metal.Weighted>
-0.0000

> <Gold.Chemscore.Lipo.Weighted>
-8.8528

> <Gold.Chemscore.Internal_Hbond.Weighted>
0.0000

> <Gold.Chemscore.DEClash.Weighted>
0.0310

> <Gold.Chemscore.DEInternal.Weighted>
1.9927

> <Gold.Chemscore.Rot.Weighted>
5.0208

> <Gold.Chemscore.Internal.Correction.Weighted>
   9.000000E+99

> <Gold.Protein.RotatedTorsions>
[ 6907 6896 6895 6894 ] final -126.03 input  -60.11 | X-H torsion
[ 7974 7965 7964 7962 ] final   15.62 input  175.53 | X-H torsion
[ 8008 7997 7996 7995 ] final -140.33 input   59.86 | X-H torsion
[ 10167 10162 10161 10158 ] final   51.01 input  -65.29 | X-H torsion
[ 10718 10713 10712 10709 ] final  108.43 input   66.30 | X-H torsion
[ 10763 10752 10751 10750 ] final -130.21 input  -60.55 | X-H torsion
[ 11005 11000 10999 10996 ] final -148.99 input  -57.11 | X-H torsion

> <Gold.Protein.ActiveResidues>
 VAL166  LYS551  ARG553  GLY616  TRP617  ASP618  TYR619  PRO620  LYS621  CYS622 
 ASP623  PHE694  ASN695  SER759  ASP760  ASP761  ALA762  ILE779  LEU786  VAL792 
 PHE793  MET794  SER795  GLU796  ALA797  LYS798  CYS799  TRP800  GLU811  SER814 

> <Gold.Protein.RotatedAtoms>
  150.8928  133.7221  159.2899 H   0  0  0  0  0  0  0  0  0  0  0  0  # atno 6907 bound_to 6896
  151.4765  135.1048  159.9775 H   0  0  0  0  0  0  0  0  0  0  0  0  # atno 6908 bound_to 6896
  152.4830  133.8255  159.7131 H   0  0  0  0  0  0  0  0  0  0  0  0  # atno 6909 bound_to 6896
  146.2273  139.8867  142.8561 H   0  0  0  0  0  0  0  0  0  0  0  0  # atno 7974 bound_to 7965
  155.4596  140.0544  157.2992 H   0  0  0  0  0  0  0  0  0  0  0  0  # atno 8008 bound_to 7997
  154.4743  140.2054  155.9872 H   0  0  0  0  0  0  0  0  0  0  0  0  # atno 8009 bound_to 7997
  156.1106  140.3204  155.8072 H   0  0  0  0  0  0  0  0  0  0  0  0  # atno 8010 bound_to 7997
  140.2664  144.3315  150.6302 H   0  0  0  0  0  0  0  0  0  0  0  0  # atno 10167 bound_to 10162
  157.6586  131.0893  150.6303 H   0  0  0  0  0  0  0  0  0  0  0  0  # atno 10718 bound_to 10713
  154.8756  135.3870  154.4046 H   0  0  0  0  0  0  0  0  0  0  0  0  # atno 10763 bound_to 10752
  153.4767  135.7030  153.5967 H   0  0  0  0  0  0  0  0  0  0  0  0  # atno 10764 bound_to 10752
  153.4400  135.3858  155.2190 H   0  0  0  0  0  0  0  0  0  0  0  0  # atno 10765 bound_to 10752
  140.7554  134.3359  157.5115 H   0  0  0  0  0  0  0  0  0  0  0  0  # atno 11005 bound_to 11000
  145.2458  141.0026  143.3909 LP  0  0  0  0  0  0  0  0  0  0  0  0  # atno 17320 bound_to 7965
  144.9414  139.4184  143.6447 LP  0  0  0  0  0  0  0  0  0  0  0  0  # atno 17321 bound_to 7965
  140.5924  143.2167  151.7227 LP  0  0  0  0  0  0  0  0  0  0  0  0  # atno 17342 bound_to 10162
  139.5001  144.3918  152.0272 LP  0  0  0  0  0  0  0  0  0  0  0  0  # atno 17343 bound_to 10162
  156.6608  130.4511  149.5688 LP  0  0  0  0  0  0  0  0  0  0  0  0  # atno 17370 bound_to 10713
  156.2068  130.6654  151.1227 LP  0  0  0  0  0  0  0  0  0  0  0  0  # atno 17371 bound_to 10713
  139.8780  134.9169  156.3165 LP  0  0  0  0  0  0  0  0  0  0  0  0  # atno 17394 bound_to 11000
  140.9712  133.7326  156.0537 LP  0  0  0  0  0  0  0  0  0  0  0  0  # atno 17395 bound_to 11000

$$$$
