#       Name:                AV-unprocessed.smi:3117
#       Creating user name   scv26
#       Creation time:       Fri Mar 27 17:26:26 2020


#       File generated by GOLD software.
#

@<TRIPOS>MOLECULE
AV-unprocessed.smi:3117
    40    40     1
SMALL
NO_CHARGES


@<TRIPOS>ATOM
      1 ****        -1.9101  -1.3344  -1.7662 C.3            1 S1                 0.0000
      2 ****        -1.3528  -0.5414  -0.5691 C.3            1 S1                 0.0000
      3 ****         0.1279  -0.5397  -0.6133 N.4            1 S1                 1.0000
      4 ****         0.7417   0.4481  -1.5268 C.3            1 S1                 0.0000
      5 ****         2.2753   0.5059  -1.3639 C.3            1 S1                 0.0000
      6 ****         2.8810   1.5021  -2.3664 C.3            1 S1                 0.0000
      7 ****         2.6959   0.8705   0.0727 C.3            1 S1                 0.0000
      8 ****         2.8059  -0.7669  -1.6786 O.3            1 S1                 0.0000
      9 ****        -1.8315  -1.0986   0.7968 C.3            1 S1                 0.0000
     10 ****        -3.3640  -1.1164   0.9523 C.3            1 S1                 0.0000
     11 ****        -1.2287  -0.3508   1.8960 N.pl3          1 S1                 0.0000
     12 ****        -1.5205   0.9236   2.3417 C.2            1 S1                 0.0000
     13 ****        -0.6600   1.2069   3.3632 C.2            1 S1                 0.0000
     14 ****         0.1398   0.0353   3.4663 C.2            1 S1                 0.0000
     15 ****        -0.1958  -0.8892   2.5815 N.2            1 S1                 0.0000
     16 ****        -2.9974  -1.2817  -1.8127 H              1 S1                 0.0000
     17 ****        -1.6283  -2.3864  -1.7105 H              1 S1                 0.0000
     18 ****        -1.5405  -0.9432  -2.7137 H              1 S1                 0.0000
     19 ****        -1.6983   0.4908  -0.6466 H              1 S1                 0.0000
     20 ****         0.4523  -0.3172   0.3174 H              1 S1                 0.0000
     21 ****         0.4807   0.2006  -2.5562 H              1 S1                 0.0000
     22 ****         0.3198   1.4330  -1.3216 H              1 S1                 0.0000
     23 ****         2.5141   2.5134  -2.1873 H              1 S1                 0.0000
     24 ****         2.6278   1.2385  -3.3940 H              1 S1                 0.0000
     25 ****         3.9690   1.5308  -2.2934 H              1 S1                 0.0000
     26 ****         2.2904   1.8391   0.3671 H              1 S1                 0.0000
     27 ****         3.7812   0.9282   0.1646 H              1 S1                 0.0000
     28 ****         2.3493   0.1348   0.7993 H              1 S1                 0.0000
     29 ****         3.7484  -0.7258  -1.6144 H              1 S1                 0.0000
     30 ****        -1.4914  -2.1329   0.8799 H              1 S1                 0.0000
     31 ****        -3.8310  -1.8122   0.2558 H              1 S1                 0.0000
     32 ****        -3.7978  -0.1311   0.7794 H              1 S1                 0.0000
     33 ****        -3.6507  -1.4346   1.9553 H              1 S1                 0.0000
     34 ****        -2.3058   1.5184   1.8992 H              1 S1                 0.0000
     35 ****        -0.6076   2.1146   3.9461 H              1 S1                 0.0000
     36 ****         0.9525  -0.1669   4.1485 H              1 S1                 0.0000
     37 ****         0.4590  -1.4647  -0.8486 H              1 S1                 0.0000
     38 ****         2.5425  -1.0208  -2.6093 LP             1 S1                 0.0000
     39 ****         2.4539  -1.4469  -1.0354 LP             1 S1                 0.0000
     40 ****         0.2224  -1.7879   2.4491 LP             1 S1                 0.0000
@<TRIPOS>BOND
    1    1    2 1     
    2    1   16 1     
    3    1   17 1     
    4    1   18 1     
    5    2    3 1     
    6    2    9 1     
    7    2   19 1     
    8    3    4 1     
    9    3   20 1     
   10    3   37 1     
   11    4    5 1     
   12    4   21 1     
   13    4   22 1     
   14    5    6 1     
   15    5    7 1     
   16    5    8 1     
   17    6   23 1     
   18    6   24 1     
   19    6   25 1     
   20    7   26 1     
   21    7   27 1     
   22    7   28 1     
   23    8   29 1     
   24    9   10 1     
   25    9   11 1     
   26    9   30 1     
   27   10   31 1     
   28   10   32 1     
   29   10   33 1     
   30   11   15 1     
   31   11   12 1     
   32   12   13 2     
   33   12   34 1     
   34   13   14 1     
   35   13   35 1     
   36   14   15 2     
   37   14   36 1     
   38    8   38 1     
   39    8   39 1     
   40   15   40 1     
@<TRIPOS>SUBSTRUCTURE
      1 S1             1
@<TRIPOS>SET
LONE_PAIRS      STATIC     ATOMS    <user>   **** ""
3 38 39 40
DONOR_HYDROGENS      STATIC     ATOMS    <user>   **** ""
3 20 37 29
ATOM$BLUE        STATIC     ATOMS    COLORGROUP SYSTEM
3 38 39 40
ATOM$RED        STATIC     ATOMS    COLORGROUP SYSTEM
3 20 37 29
