#       Name:                AV-unprocessed.smi:1794
#       Creating user name   scv26
#       Creation time:       Fri Mar 27 08:47:39 2020


#       File generated by GOLD software.
#

@<TRIPOS>MOLECULE
AV-unprocessed.smi:1794
    61    63     1
SMALL
NO_CHARGES


@<TRIPOS>ATOM
      1 ****        -2.4273   2.2897   1.6499 C.3            1 S1                 0.0000
      2 ****        -1.8354   2.8092   0.3146 C.3            1 S1                 0.0000
      3 ****        -2.2279   4.3012   0.1892 C.3            1 S1                 0.0000
      4 ****        -0.2883   2.7510   0.4733 C.3            1 S1                 0.0000
      5 ****         0.2087   1.3774   0.5426 N.am           1 S1                 0.0000
      6 ****         0.9401   0.8537   1.5355 C.2            1 S1                 0.0000
      7 ****         1.3120   1.4912   2.5203 O.2            1 S1                 0.0000
      8 ****         1.2109  -0.4404   1.2977 N.am           1 S1                 0.0000
      9 ****         2.0151  -1.3392   2.0557 C.ar           1 S1                 0.0000
     10 ****         2.2537  -1.1844   3.4433 C.ar           1 S1                 0.0000
     11 ****         3.0522  -2.1307   4.1110 C.ar           1 S1                 0.0000
     12 ****         3.5765  -3.2055   3.3710 C.ar           1 S1                 0.0000
     13 ****         3.3453  -3.3771   2.0537 N.ar           1 S1                 0.0000
     14 ****         2.5778  -2.4674   1.4050 C.ar           1 S1                 0.0000
     15 ****         2.3415  -2.6721   0.0338 N.3            1 S1                 0.0000
     16 ****         3.5196  -2.7409  -0.8138 C.3            1 S1                 0.0000
     17 ****         3.0200  -3.3052  -2.1450 C.3            1 S1                 0.0000
     18 ****         1.7460  -4.0813  -1.7875 C.3            1 S1                 0.0000
     19 ****         1.5429  -3.8428  -0.2878 C.3            1 S1                 0.0000
     20 ****        -2.3037   1.9849  -0.8354 N.3            1 S1                 0.0000
     21 ****        -1.7228   2.3482  -2.1337 C.3            1 S1                 0.0000
     22 ****        -2.1537   1.3823  -3.2506 C.3            1 S1                 0.0000
     23 ****        -3.5730   1.3478  -3.3328 O.3            1 S1                 0.0000
     24 ****        -4.1766   0.9418  -2.1106 C.3            1 S1                 0.0000
     25 ****        -3.7616   1.9016  -0.9824 C.3            1 S1                 0.0000
     26 ****        -1.9574   2.7699   2.5090 H              1 S1                 0.0000
     27 ****        -2.2847   1.2144   1.7627 H              1 S1                 0.0000
     28 ****        -3.4949   2.4913   1.7364 H              1 S1                 0.0000
     29 ****        -1.8809   4.8704   1.0524 H              1 S1                 0.0000
     30 ****        -3.3074   4.4408   0.1373 H              1 S1                 0.0000
     31 ****        -1.7894   4.7696  -0.6917 H              1 S1                 0.0000
     32 ****         0.2138   3.2506  -0.3547 H              1 S1                 0.0000
     33 ****         0.0138   3.3176   1.3561 H              1 S1                 0.0000
     34 ****        -0.0505   0.7711  -0.2218 H              1 S1                 0.0000
     35 ****         0.8871  -0.8021   0.4125 H              1 S1                 0.0000
     36 ****         1.8307  -0.3703   4.0107 H              1 S1                 0.0000
     37 ****         3.2537  -2.0371   5.1678 H              1 S1                 0.0000
     38 ****         4.1914  -3.9518   3.8516 H              1 S1                 0.0000
     39 ****         3.9730  -1.7571  -0.9392 H              1 S1                 0.0000
     40 ****         4.2680  -3.4066  -0.3814 H              1 S1                 0.0000
     41 ****         2.7756  -2.4913  -2.8288 H              1 S1                 0.0000
     42 ****         3.7708  -3.9314  -2.6279 H              1 S1                 0.0000
     43 ****         0.8999  -3.6930  -2.3558 H              1 S1                 0.0000
     44 ****         1.8357  -5.1449  -2.0102 H              1 S1                 0.0000
     45 ****         1.8877  -4.7077   0.2806 H              1 S1                 0.0000
     46 ****         0.4925  -3.6781  -0.0463 H              1 S1                 0.0000
     47 ****        -2.0197   3.3600  -2.4105 H              1 S1                 0.0000
     48 ****        -0.6353   2.3375  -2.0913 H              1 S1                 0.0000
     49 ****        -1.7496   1.7071  -4.2095 H              1 S1                 0.0000
     50 ****        -1.7671   0.3791  -3.0636 H              1 S1                 0.0000
     51 ****        -5.2600   0.9451  -2.2306 H              1 S1                 0.0000
     52 ****        -3.8832  -0.0821  -1.8736 H              1 S1                 0.0000
     53 ****        -4.2261   1.5510  -0.0627 H              1 S1                 0.0000
     54 ****        -4.1769   2.8875  -1.1920 H              1 S1                 0.0000
     55 ****         1.0693   2.4570   2.6115 LP             1 S1                 0.0000
     56 ****         1.8568   1.0433   3.2292 LP             1 S1                 0.0000
     57 ****         3.7320  -4.1594   1.5653 LP             1 S1                 0.0000
     58 ****         1.8333  -1.8348  -0.1678 LP             1 S1                 0.0000
     59 ****        -1.9598   1.0821  -0.5770 LP             1 S1                 0.0000
     60 ****        -3.8377   0.7043  -4.0511 LP             1 S1                 0.0000
     61 ****        -3.9036   2.2622  -3.5662 LP             1 S1                 0.0000
@<TRIPOS>BOND
    1    1    2 1     
    2    1   26 1     
    3    1   27 1     
    4    1   28 1     
    5    2    3 1     
    6    2    4 1     
    7    2   20 1     
    8    3   29 1     
    9    3   30 1     
   10    3   31 1     
   11    4    5 1     
   12    4   32 1     
   13    4   33 1     
   14    5    6 am    
   15    5   34 1     
   16    6    7 2     
   17    6    8 am    
   18    8    9 1     
   19    8   35 1     
   20    9   14 ar    
   21    9   10 ar    
   22   10   11 ar    
   23   10   36 1     
   24   11   12 ar    
   25   11   37 1     
   26   12   13 ar    
   27   12   38 1     
   28   13   14 ar    
   29   14   15 1     
   30   15   19 1     
   31   15   16 1     
   32   16   17 1     
   33   16   39 1     
   34   16   40 1     
   35   17   18 1     
   36   17   41 1     
   37   17   42 1     
   38   18   19 1     
   39   18   43 1     
   40   18   44 1     
   41   19   45 1     
   42   19   46 1     
   43   20   25 1     
   44   20   21 1     
   45   21   22 1     
   46   21   47 1     
   47   21   48 1     
   48   22   23 1     
   49   22   49 1     
   50   22   50 1     
   51   23   24 1     
   52   24   25 1     
   53   24   51 1     
   54   24   52 1     
   55   25   53 1     
   56   25   54 1     
   57    7   55 1     
   58    7   56 1     
   59   13   57 1     
   60   15   58 1     
   61   20   59 1     
   62   23   60 1     
   63   23   61 1     
@<TRIPOS>SUBSTRUCTURE
      1 S1             1
@<TRIPOS>SET
LONE_PAIRS      STATIC     ATOMS    <user>   **** ""
7 55 56 57 58 59 60 61
DONOR_HYDROGENS      STATIC     ATOMS    <user>   **** ""
2 34 35
ATOM$BLUE        STATIC     ATOMS    COLORGROUP SYSTEM
7 55 56 57 58 59 60 61
ATOM$RED        STATIC     ATOMS    COLORGROUP SYSTEM
2 34 35
