#       Name:                AV-unprocessed.smi:2668
#       Creating user name   scv26
#       Creation time:       Fri Mar 27 14:36:08 2020


#       File generated by GOLD software.
#

@<TRIPOS>MOLECULE
AV-unprocessed.smi:2668
    57    58     1
SMALL
NO_CHARGES


@<TRIPOS>ATOM
      1 ****        -3.4033  -3.8091   1.2269 C.3            1 S1                 0.0000
      2 ****        -2.7621  -3.3479  -0.0299 N.4            1 S1                 1.0000
      3 ****        -3.3715  -4.0351  -1.1958 C.3            1 S1                 0.0000
      4 ****        -2.7142  -1.8550  -0.1691 C.3            1 S1                 0.0000
      5 ****        -1.9719  -1.3785  -1.4372 C.3            1 S1                 0.0000
      6 ****        -0.4598  -1.6648  -1.3711 C.3            1 S1                 0.0000
      7 ****         0.1692  -1.0242  -0.1761 N.4            1 S1                 1.0000
      8 ****         1.6768  -1.0823  -0.1205 C.3            1 S1                 0.0000
      9 ****         2.1823  -2.5235   0.1242 C.3            1 S1                 0.0000
     10 ****         2.2933  -0.5909  -1.4540 C.3            1 S1                 0.0000
     11 ****         2.2300  -0.1693   1.0156 C.3            1 S1                 0.0000
     12 ****         1.6290   1.1652   1.0511 N.am           1 S1                 0.0000
     13 ****         2.1445   2.2677   0.4884 C.2            1 S1                 0.0000
     14 ****         3.1901   2.2723  -0.1595 O.2            1 S1                 0.0000
     15 ****         1.3815   3.3445   0.7421 N.am           1 S1                 0.0000
     16 ****         1.5742   4.6842   0.3091 C.ar           1 S1                 0.0000
     17 ****         0.9273   5.7111   1.0277 C.ar           1 S1                 0.0000
     18 ****         1.0858   7.0463   0.6105 C.ar           1 S1                 0.0000
     19 ****         1.8828   7.3037  -0.5216 C.ar           1 S1                 0.0000
     20 ****         2.4961   6.3327  -1.2304 N.ar           1 S1                 0.0000
     21 ****         2.3421   5.0543  -0.8234 C.ar           1 S1                 0.0000
     22 ****        -0.5231  -1.4480   1.0782 C.3            1 S1                 0.0000
     23 ****        -2.0309  -1.1456   1.0209 C.3            1 S1                 0.0000
     24 ****        -4.4053  -3.3914   1.3328 H              1 S1                 0.0000
     25 ****        -2.8168  -3.5375   2.1033 H              1 S1                 0.0000
     26 ****        -3.4891  -4.8962   1.2469 H              1 S1                 0.0000
     27 ****        -4.3716  -3.6504  -1.3994 H              1 S1                 0.0000
     28 ****        -3.4540  -5.1080  -1.0184 H              1 S1                 0.0000
     29 ****        -2.7651  -3.9243  -2.0934 H              1 S1                 0.0000
     30 ****        -3.7466  -1.5063  -0.2263 H              1 S1                 0.0000
     31 ****        -2.4015  -1.7975  -2.3457 H              1 S1                 0.0000
     32 ****        -2.1127  -0.3014  -1.5407 H              1 S1                 0.0000
     33 ****        -0.2848  -2.7406  -1.3578 H              1 S1                 0.0000
     34 ****        -0.0285  -1.2854  -2.2953 H              1 S1                 0.0000
     35 ****         3.2726  -2.5552   0.1306 H              1 S1                 0.0000
     36 ****         1.8513  -3.2132  -0.6521 H              1 S1                 0.0000
     37 ****         1.8538  -2.9218   1.0839 H              1 S1                 0.0000
     38 ****         3.3699  -0.4420  -1.3617 H              1 S1                 0.0000
     39 ****         1.8611   0.3566  -1.7771 H              1 S1                 0.0000
     40 ****         2.1605  -1.3101  -2.2623 H              1 S1                 0.0000
     41 ****         2.0545  -0.6234   1.9907 H              1 S1                 0.0000
     42 ****         3.3170  -0.0928   0.9495 H              1 S1                 0.0000
     43 ****         0.7763   1.2653   1.5822 H              1 S1                 0.0000
     44 ****         0.6008   3.2017   1.3660 H              1 S1                 0.0000
     45 ****         0.3201   5.4823   1.8914 H              1 S1                 0.0000
     46 ****         0.6079   7.8539   1.1451 H              1 S1                 0.0000
     47 ****         2.0265   8.3156  -0.8703 H              1 S1                 0.0000
     48 ****         2.8352   4.3232  -1.4447 H              1 S1                 0.0000
     49 ****        -0.3717  -2.5137   1.2503 H              1 S1                 0.0000
     50 ****        -0.1180  -0.9303   1.9451 H              1 S1                 0.0000
     51 ****        -2.1640  -0.0678   0.9136 H              1 S1                 0.0000
     52 ****        -2.5069  -1.3869   1.9701 H              1 S1                 0.0000
     53 ****        -1.8059  -3.6704   0.0130 H              1 S1                 0.0000
     54 ****        -0.0354  -0.0396  -0.2736 H              1 S1                 0.0000
     55 ****         3.7022   1.4231  -0.2885 LP             1 S1                 0.0000
     56 ****         3.5282   3.1253  -0.5573 LP             1 S1                 0.0000
     57 ****         3.0488   6.5536  -2.0340 LP             1 S1                 0.0000
@<TRIPOS>BOND
    1    1    2 1     
    2    1   24 1     
    3    1   25 1     
    4    1   26 1     
    5    2    3 1     
    6    2    4 1     
    7    2   53 1     
    8    3   27 1     
    9    3   28 1     
   10    3   29 1     
   11    4   23 1     
   12    4    5 1     
   13    4   30 1     
   14    5    6 1     
   15    5   31 1     
   16    5   32 1     
   17    6    7 1     
   18    6   33 1     
   19    6   34 1     
   20    7    8 1     
   21    7   22 1     
   22    7   54 1     
   23    8    9 1     
   24    8   10 1     
   25    8   11 1     
   26    9   35 1     
   27    9   36 1     
   28    9   37 1     
   29   10   38 1     
   30   10   39 1     
   31   10   40 1     
   32   11   12 1     
   33   11   41 1     
   34   11   42 1     
   35   12   13 am    
   36   12   43 1     
   37   13   14 2     
   38   13   15 am    
   39   15   16 1     
   40   15   44 1     
   41   16   21 ar    
   42   16   17 ar    
   43   17   18 ar    
   44   17   45 1     
   45   18   19 ar    
   46   18   46 1     
   47   19   20 ar    
   48   19   47 1     
   49   20   21 ar    
   50   21   48 1     
   51   22   23 1     
   52   22   49 1     
   53   22   50 1     
   54   23   51 1     
   55   23   52 1     
   56   14   55 1     
   57   14   56 1     
   58   20   57 1     
@<TRIPOS>SUBSTRUCTURE
      1 S1             1
@<TRIPOS>SET
LONE_PAIRS      STATIC     ATOMS    <user>   **** ""
3 55 56 57
DONOR_HYDROGENS      STATIC     ATOMS    <user>   **** ""
4 53 54 43 44
ATOM$BLUE        STATIC     ATOMS    COLORGROUP SYSTEM
3 55 56 57
ATOM$RED        STATIC     ATOMS    COLORGROUP SYSTEM
4 53 54 43 44
