AV-unprocessed.smi:764|AV-procd|sdf|3642|dock6
  -GOLD-   22720 1 43D 1   1.00000     0.00000
 Structure written by MMmdl.
 37 37  0  0  0  0  0  0  0  0  2 V2000
  150.7350  137.4014  154.7006 C   0  0  0  0  0  0  0  0  0  0  0  0
  150.7013  138.8224  154.1214 C   0  0  0  0  0  0  0  0  0  0  0  0
  150.9591  139.8851  155.1980 C   0  0  0  0  0  0  0  0  0  0  0  0
  149.4043  139.0673  153.4954 N   0  0  0  0  0  0  0  0  0  0  0  0
  148.2090  139.0076  154.1035 C   0  0  0  0  0  0  0  0  0  0  0  0
  148.0634  138.7316  155.2943 O   0  0  0  0  0  0  0  0  0  0  0  0
  146.9904  139.3148  153.2282 C   0  0  0  0  0  0  0  0  0  0  0  0
  145.9275  138.2038  153.2740 C   0  0  0  0  0  0  0  0  0  0  0  0
  146.1560  137.2138  152.2035 N   0  3  0  0  0  0  0  0  0  0  0  0
  145.2567  136.0453  152.2598 C   0  0  0  0  0  0  0  0  0  0  0  0
  144.9836  135.4965  150.8524 C   0  0  0  0  0  0  0  0  0  0  0  0
  145.1803  134.0618  150.7877 N   0  0  0  0  0  0  0  0  0  0  0  0
  144.2742  133.0856  150.4300 C   0  0  0  0  0  0  0  0  0  0  0  0
  144.9151  131.8836  150.5242 C   0  0  0  0  0  0  0  0  0  0  0  0
  146.2267  132.2320  150.9524 C   0  0  0  0  0  0  0  0  0  0  0  0
  146.3825  133.5372  151.1073 N   0  0  0  0  0  0  0  0  0  0  0  0
  151.6959  137.1930  155.1718 H   0  0  0  0  0  0  0  0  0  0  0  0
  150.5828  136.6550  153.9201 H   0  0  0  0  0  0  0  0  0  0  0  0
  149.9585  137.2599  155.4534 H   0  0  0  0  0  0  0  0  0  0  0  0
  151.4999  138.9023  153.3820 H   0  0  0  0  0  0  0  0  0  0  0  0
  151.9276  139.7322  155.6748 H   0  0  0  0  0  0  0  0  0  0  0  0
  150.1968  139.8564  155.9774 H   0  0  0  0  0  0  0  0  0  0  0  0
  150.9595  140.8873  154.7682 H   0  0  0  0  0  0  0  0  0  0  0  0
  149.4208  139.3087  152.5149 H   0  0  0  0  0  0  0  0  0  0  0  0
  146.5580  140.2597  153.5592 H   0  0  0  0  0  0  0  0  0  0  0  0
  147.3191  139.4634  152.1983 H   0  0  0  0  0  0  0  0  0  0  0  0
  145.9546  137.6956  154.2394 H   0  0  0  0  0  0  0  0  0  0  0  0
  144.9286  138.6278  153.1588 H   0  0  0  0  0  0  0  0  0  0  0  0
  146.0306  137.6711  151.3116 H   0  0  0  0  0  0  0  0  0  0  0  0
  145.7100  135.2713  152.8806 H   0  0  0  0  0  0  0  0  0  0  0  0
  144.3213  136.3377  152.7388 H   0  0  0  0  0  0  0  0  0  0  0  0
  143.9607  135.7206  150.5456 H   0  0  0  0  0  0  0  0  0  0  0  0
  145.6436  135.9695  150.1240 H   0  0  0  0  0  0  0  0  0  0  0  0
  143.2605  133.3234  150.1426 H   0  0  0  0  0  0  0  0  0  0  0  0
  144.5088  130.9040  150.3200 H   0  0  0  0  0  0  0  0  0  0  0  0
  147.0639  131.5803  151.1544 H   0  0  0  0  0  0  0  0  0  0  0  0
  147.1094  136.8871  152.2691 H   0  0  0  0  0  0  0  0  0  0  0  0
  1  2  1  0  0  0  0
  1 17  1  0  0  0  0
  1 18  1  0  0  0  0
  1 19  1  0  0  0  0
  2  3  1  0  0  0  0
  2  4  1  0  0  0  0
  2 20  1  0  0  0  0
  3 21  1  0  0  0  0
  3 22  1  0  0  0  0
  3 23  1  0  0  0  0
  4  5  1  0  0  0  0
  4 24  1  0  0  0  0
  5  6  2  0  0  0  0
  5  7  1  0  0  0  0
  7  8  1  0  0  0  0
  7 25  1  0  0  0  0
  7 26  1  0  0  0  0
  8  9  1  0  0  0  0
  8 27  1  0  0  0  0
  8 28  1  0  0  0  0
  9 10  1  0  0  0  0
  9 29  1  0  0  0  0
  9 37  1  0  0  0  0
 10 11  1  0  0  0  0
 10 30  1  0  0  0  0
 10 31  1  0  0  0  0
 11 12  1  0  0  0  0
 11 32  1  0  0  0  0
 11 33  1  0  0  0  0
 12 16  1  0  0  0  0
 12 13  1  0  0  0  0
 13 14  2  0  0  0  0
 13 34  1  0  0  0  0
 14 15  1  0  0  0  0
 14 35  1  0  0  0  0
 15 16  2  0  0  0  0
 15 36  1  0  0  0  0
M  CHG  1   9   1
M  END
> <s_m_source_file>
AV-unprocessed.smi

> <i_m_source_file_index>
764

> <i_lp_mmshare_version>
43012

> <i_f3d_flags>
0

> <s_epik_input>
W0NIM11bQ0hdKFtDSDNdKVtOSF1DKD1PKVtDSDJdW0NIMl1bTkhdW0NIMl1bQ0gyXW4xW2NIXVtjSF1bY0hdbjE=

> <s_epik_cmdline>
J2VwaWtfcHl0aG9uJywgJy1waCcsICc3LjAnLCAnLXRuJywgJzgnLCAnLW1hJywgJzIwMCcsICctbWV0YWxfYmluZGluZycsICctaW1hZScsICc8aW5maWxlLm1hZT4nLCAnLW9tYWUnLCAnPG91dGZpbGUubWFlPic=

> <r_lp_tautomer_probability>
1

> <r_epik_Ionization_Penalty>
0.00578048

> <r_epik_Ionization_Penalty_Charging>
0.00577767

> <r_epik_Ionization_Penalty_Neutral>
2.80872e-06

> <r_epik_State_Penalty>
-0

> <r_epik_Charging_Adjusted_Penalty>
0.00577767

> <i_epik_Tot_Q>
1

> <i_epik_Tot_abs_Q>
1

> <r_epik_Metal_State_Penalty>
-0

> <b_epik_Metal_Only>
0

> <s_lp_Force_Field>
OPLS_2005

> <r_lp_Energy>
3.7627

> <b_lp_Chiralities_Consistent>
1

> <s_lp_Variant>
AV-unprocessed.smi:764-1

> <Gold.Version>
5.8.1

> <Gold.Id.Protein>
6NUR|6NUR_protein|mol2

> <Gold.PLP.Fitness>
46.2571

> <Gold.PLP.PLP>
-32.7057

> <Gold.PLP.part.hbond>
-3.0000

> <Gold.PLP.part.metal>
0.0000

> <Gold.PLP.part.buried>
-3.7812

> <Gold.PLP.part.nonpolar>
-26.8029

> <Gold.PLP.part.repulsive>
0.4071

> <Gold.PLP.ligand.clash>
0.0000

> <Gold.PLP.ligand.torsion>
0.7987

> <Gold.PLP.Chemscore.Hbond>
2.9920

> <Gold.PLP.Chemscore.CHOScore>
2.0000

> <Gold.PLP.Chemscore.Metal>
0.0000

> <Gold.Chemscore.Hbonds>
donor molecule, donor type, donor heavy atom, donor atom, acceptor molecule, acceptor atom, score
      L1  H     4    24       P1  7957  1.00
      L1  H     9    37       P1  7948  2.00
      L1  C    13    34       P1 10186  0.89
      L1  C    15    36       P1 10747  1.00

> <Gold.PLP.Chemscore.Internal.Correction>
0.1729

> <Gold.Rescore>
     Score         DG    S(hbond)    S(metal)    S(lipo)     H(rot)  DE(clash)    DE(int)     intcor
     12.71     -14.66       1.97        0.00      74.19       2.37       0.11       1.84       ----

> <Gold.Chemscore.Fitness>
12.7137

> <Gold.Chemscore.DG>
-14.6582

> <Gold.Chemscore.ZeroCoef>
-5.4800

> <Gold.Chemscore.Hbond>
1.9686

> <Gold.Chemscore.Metal>
0.0000

> <Gold.Chemscore.Lipo>
74.1884

> <Gold.Chemscore.Internal_Hbond>
0.0000

> <Gold.Chemscore.DEClash>
0.1095

> <Gold.Chemscore.DEInternal>
1.8350

> <Gold.Chemscore.Rot>
2.3738

> <Gold.Chemscore.Internal.Correction>
   9.000000E+99

> <Gold.Chemscore.Hbonds>
donor molecule, donor type, donor heavy atom, donor atom, acceptor molecule, acceptor atom, score
      L1  H     4    24       P1  7957  0.94
      L1  H     9    37       P1  7948  0.97

> <Gold.Chemscore.Hbond.Weighted>
-6.5751

> <Gold.Chemscore.Metal.Weighted>
-0.0000

> <Gold.Chemscore.Lipo.Weighted>
-8.6800

> <Gold.Chemscore.Internal_Hbond.Weighted>
0.0000

> <Gold.Chemscore.DEClash.Weighted>
0.1095

> <Gold.Chemscore.DEInternal.Weighted>
1.8350

> <Gold.Chemscore.Rot.Weighted>
6.0769

> <Gold.Chemscore.Internal.Correction.Weighted>
   9.000000E+99

> <Gold.Protein.RotatedTorsions>
[ 6907 6896 6895 6894 ] final  171.67 input  -60.11 | X-H torsion
[ 7974 7965 7964 7962 ] final    4.64 input  175.53 | X-H torsion
[ 8008 7997 7996 7995 ] final   63.84 input   59.86 | X-H torsion
[ 10167 10162 10161 10158 ] final   -7.56 input  -65.29 | X-H torsion
[ 10718 10713 10712 10709 ] final  -97.75 input   66.30 | X-H torsion
[ 10763 10752 10751 10750 ] final  -88.56 input  -60.55 | X-H torsion
[ 11005 11000 10999 10996 ] final   -2.64 input  -57.11 | X-H torsion

> <Gold.Protein.ActiveResidues>
 VAL166  LYS551  ARG553  GLY616  TRP617  ASP618  TYR619  PRO620  LYS621  CYS622 
 ASP623  PHE694  ASN695  SER759  ASP760  ASP761  ALA762  ILE779  LEU786  VAL792 
 PHE793  MET794  SER795  GLU796  ALA797  LYS798  CYS799  TRP800  GLU811  SER814 

> <Gold.Protein.RotatedAtoms>
  151.7965  133.3365  159.3514 H   0  0  0  0  0  0  0  0  0  0  0  0  # atno 6907 bound_to 6896
  150.7373  134.5794  159.5940 H   0  0  0  0  0  0  0  0  0  0  0  0  # atno 6908 bound_to 6896
  152.3173  134.7425  160.0373 H   0  0  0  0  0  0  0  0  0  0  0  0  # atno 6909 bound_to 6896
  146.2443  140.0505  142.8375 H   0  0  0  0  0  0  0  0  0  0  0  0  # atno 7974 bound_to 7965
  155.6365  140.3496  155.4700 H   0  0  0  0  0  0  0  0  0  0  0  0  # atno 8008 bound_to 7997
  155.9960  140.1203  157.0616 H   0  0  0  0  0  0  0  0  0  0  0  0  # atno 8009 bound_to 7997
  154.4234  140.1110  156.5617 H   0  0  0  0  0  0  0  0  0  0  0  0  # atno 8010 bound_to 7997
  140.7033  143.6067  150.8744 H   0  0  0  0  0  0  0  0  0  0  0  0  # atno 10167 bound_to 10162
  156.0091  130.5208  150.6420 H   0  0  0  0  0  0  0  0  0  0  0  0  # atno 10718 bound_to 10713
  154.6459  135.5372  153.7844 H   0  0  0  0  0  0  0  0  0  0  0  0  # atno 10763 bound_to 10752
  153.0359  135.6470  154.1090 H   0  0  0  0  0  0  0  0  0  0  0  0  # atno 10764 bound_to 10752
  154.1011  135.2933  155.3231 H   0  0  0  0  0  0  0  0  0  0  0  0  # atno 10765 bound_to 10752
  140.6606  133.9324  155.8434 H   0  0  0  0  0  0  0  0  0  0  0  0  # atno 11005 bound_to 11000
  145.0989  140.9333  143.4724 LP  0  0  0  0  0  0  0  0  0  0  0  0  # atno 17320 bound_to 7965
  145.0693  139.3044  143.5840 LP  0  0  0  0  0  0  0  0  0  0  0  0  # atno 17321 bound_to 7965
  139.9790  143.5972  152.2949 LP  0  0  0  0  0  0  0  0  0  0  0  0  # atno 17342 bound_to 10162
  139.6586  144.7662  151.2007 LP  0  0  0  0  0  0  0  0  0  0  0  0  # atno 17343 bound_to 10162
  157.4198  131.0835  151.1141 LP  0  0  0  0  0  0  0  0  0  0  0  0  # atno 17370 bound_to 10713
  157.1747  130.6283  149.5652 LP  0  0  0  0  0  0  0  0  0  0  0  0  # atno 17371 bound_to 10713
  141.0468  134.0542  157.3834 LP  0  0  0  0  0  0  0  0  0  0  0  0  # atno 17394 bound_to 11000
  139.9014  135.0166  156.7287 LP  0  0  0  0  0  0  0  0  0  0  0  0  # atno 17395 bound_to 11000

$$$$
