AV-unprocessed.smi:2527|AV-procd|sdf|9947|dock6
  -GOLD-   2272013593D 1   1.00000     0.00000
 Structure written by MMmdl.
 36 38  0  0  0  0  0  0  0  0  3 V2000
  154.1423  138.4756  154.2079 C   0  0  0  0  0  0  0  0  0  0  0  0
  153.8418  138.7565  155.5634 O   0  0  0  0  0  0  0  0  0  0  0  0
  152.4555  138.9640  155.7815 C   0  0  0  0  0  0  0  0  0  0  0  0
  152.2327  139.6110  157.1559 C   0  0  0  0  0  0  0  0  0  0  0  0
  151.5465  140.9074  157.0555 N   0  0  0  0  0  0  0  0  0  0  0  0
  150.6067  141.3364  156.1674 C   0  0  0  0  0  0  0  0  0  0  0  0
  149.9331  140.4024  154.8316 S   0  0  0  0  0  0  0  0  0  0  0  0
  148.2400  141.0140  154.6125 C   0  0  0  0  0  0  0  0  0  0  0  0
  147.3830  140.1342  153.7499 C   0  0  0  0  0  0  0  0  0  0  0  0
  147.8201  139.7987  152.5072 N   0  5  0  0  0  0  0  0  0  0  0  0
  146.8371  139.0185  152.0231 C   0  0  0  0  0  0  0  0  0  0  0  0
  146.7464  138.4564  150.9340 O   0  0  0  0  0  0  0  0  0  0  0  0
  145.9035  138.9405  152.9743 N   0  0  0  0  0  0  0  0  0  0  0  0
  146.2437  139.6434  154.0674 N   0  0  0  0  0  0  0  0  0  0  0  0
  150.2782  142.6155  156.4994 N   0  3  0  0  0  0  0  0  0  0  0  0
  151.0137  143.0102  157.6184 C   0  0  0  0  0  0  0  0  0  0  0  0
  151.0248  144.2095  158.3239 C   0  0  0  0  0  0  0  0  0  0  0  0
  151.8945  144.2868  159.4318 C   0  0  0  0  0  0  0  0  0  0  0  0
  151.9596  145.7422  160.3555 Cl  0  0  0  0  0  0  0  0  0  0  0  0
  152.7098  143.1962  159.7993 C   0  0  0  0  0  0  0  0  0  0  0  0
  152.6915  141.9852  159.0767 C   0  0  0  0  0  0  0  0  0  0  0  0
  151.8296  141.9180  157.9820 C   0  0  0  0  0  0  0  0  0  0  0  0
  145.0309  138.4340  152.9462 H   0  0  0  0  0  0  0  0  0  0  0  0
  155.2160  138.3267  154.0939 H   0  0  0  0  0  0  0  0  0  0  0  0
  153.8456  139.3004  153.5587 H   0  0  0  0  0  0  0  0  0  0  0  0
  153.6390  137.5677  153.8730 H   0  0  0  0  0  0  0  0  0  0  0  0
  152.0478  139.6076  155.0007 H   0  0  0  0  0  0  0  0  0  0  0  0
  151.9232  138.0126  155.7300 H   0  0  0  0  0  0  0  0  0  0  0  0
  151.6653  138.9524  157.8133 H   0  0  0  0  0  0  0  0  0  0  0  0
  153.1909  139.7807  157.6476 H   0  0  0  0  0  0  0  0  0  0  0  0
  147.7831  141.1170  155.5972 H   0  0  0  0  0  0  0  0  0  0  0  0
  148.2879  142.0184  154.1895 H   0  0  0  0  0  0  0  0  0  0  0  0
  150.3993  145.0444  158.0439 H   0  0  0  0  0  0  0  0  0  0  0  0
  153.3632  143.2884  160.6548 H   0  0  0  0  0  0  0  0  0  0  0  0
  153.3164  141.1557  159.3726 H   0  0  0  0  0  0  0  0  0  0  0  0
  149.6010  143.1727  155.9946 H   0  0  0  0  0  0  0  0  0  0  0  0
  1  2  1  0  0  0  0
  1 24  1  0  0  0  0
  1 25  1  0  0  0  0
  1 26  1  0  0  0  0
  2  3  1  0  0  0  0
  3  4  1  0  0  0  0
  3 27  1  0  0  0  0
  3 28  1  0  0  0  0
  4  5  1  0  0  0  0
  4 29  1  0  0  0  0
  4 30  1  0  0  0  0
  5 22  1  0  0  0  0
  5  6  1  0  0  0  0
  6  7  1  0  0  0  0
  6 15  2  0  0  0  0
  7  8  1  0  0  0  0
  8 31  1  0  0  0  0
  8 32  1  0  0  0  0
  8  9  1  0  0  0  0
  9 14  2  0  0  0  0
  9 10  1  0  0  0  0
 10 11  1  0  0  0  0
 11 13  1  0  0  0  0
 11 12  2  0  0  0  0
 13 14  1  0  0  0  0
 13 23  1  0  0  0  0
 15 16  1  0  0  0  0
 15 36  1  0  0  0  0
 16 22  2  0  0  0  0
 16 17  1  0  0  0  0
 17 18  2  0  0  0  0
 17 33  1  0  0  0  0
 18 19  1  0  0  0  0
 18 20  1  0  0  0  0
 20 21  2  0  0  0  0
 20 34  1  0  0  0  0
 21 22  1  0  0  0  0
 21 35  1  0  0  0  0
M  CHG  1  10  -1
M  CHG  1  15   1
M  END
> <s_m_source_file>
AV-unprocessed.smi

> <i_m_source_file_index>
2527

> <i_lp_mmshare_version>
43012

> <i_f3d_flags>
0

> <s_epik_input>
W2NIXTFjKENsKVtjSF1bY0hdYyhjMTIpbihbQ0gyXVtDSDJdT1tDSDNdKWMobjIpU1tDSDJdYzNuYyg9TylbbkhdW25IXTM=

> <s_epik_cmdline>
J2VwaWtfcHl0aG9uJywgJy1waCcsICc3LjAnLCAnLXRuJywgJzgnLCAnLW1hJywgJzIwMCcsICctbWV0YWxfYmluZGluZycsICctaW1hZScsICc8aW5maWxlLm1hZT4nLCAnLW9tYWUnLCAnPG91dGZpbGUubWFlPic=

> <r_lp_tautomer_probability>
0.999897

> <r_epik_Ionization_Penalty>
3.64286

> <r_epik_Ionization_Penalty_Charging>
2.48685

> <r_epik_Ionization_Penalty_Neutral>
1.15601

> <r_epik_State_Penalty>
3.71863

> <r_epik_Charging_Adjusted_Penalty>
6.20549

> <i_epik_Tot_Q>
0

> <i_epik_Tot_abs_Q>
2

> <r_epik_Metal_State_Penalty>
2.92967

> <b_epik_Metal_Only>
1

> <s_lp_Force_Field>
OPLS_2005

> <r_lp_Energy>
23.3692

> <b_lp_Chiralities_Consistent>
1

> <s_lp_Variant>
AV-unprocessed.smi:2527-6

> <Gold.Version>
5.8.1

> <Gold.Id.Protein>
6NUR|6NUR_protein|mol2

> <Gold.PLP.Fitness>
50.4869

> <Gold.PLP.PLP>
-41.8280

> <Gold.PLP.part.hbond>
-3.6866

> <Gold.PLP.part.metal>
0.0000

> <Gold.PLP.part.buried>
-4.9332

> <Gold.PLP.part.nonpolar>
-39.9962

> <Gold.PLP.part.repulsive>
6.3627

> <Gold.PLP.ligand.clash>
0.0000

> <Gold.PLP.ligand.torsion>
1.2508

> <Gold.PLP.Chemscore.Hbond>
3.7040

> <Gold.PLP.Chemscore.CHOScore>
0.0000

> <Gold.PLP.Chemscore.Metal>
0.0000

> <Gold.Chemscore.Hbonds>
donor molecule, donor type, donor heavy atom, donor atom, acceptor molecule, acceptor atom, score
      L1  H    15    36       P1  8028  1.98
      P1  H  7954  7966       L1    12  1.00
      P1  H  7997  8009       L1     2  0.72

> <Gold.PLP.Chemscore.Internal.Correction>
0.0485

> <Gold.Rescore>
     Score         DG    S(hbond)    S(metal)    S(lipo)     H(rot)  DE(clash)    DE(int)     intcor
     14.35     -18.08       2.04        0.00     112.27       2.88       2.57       1.16       ----

> <Gold.Chemscore.Fitness>
14.3516

> <Gold.Chemscore.DG>
-18.0774

> <Gold.Chemscore.ZeroCoef>
-5.4800

> <Gold.Chemscore.Hbond>
2.0441

> <Gold.Chemscore.Metal>
0.0000

> <Gold.Chemscore.Lipo>
112.2672

> <Gold.Chemscore.Internal_Hbond>
0.0000

> <Gold.Chemscore.DEClash>
2.5694

> <Gold.Chemscore.DEInternal>
1.1564

> <Gold.Chemscore.Rot>
2.8770

> <Gold.Chemscore.Internal.Correction>
   9.000000E+99

> <Gold.Chemscore.Hbonds>
donor molecule, donor type, donor heavy atom, donor atom, acceptor molecule, acceptor atom, score
      L1  H    15    36       P1  8028  0.93
      P1  H  7954  7966       L1    12  0.95
      P1  H  7997  8009       L1     2  0.19

> <Gold.Chemscore.Hbond.Weighted>
-6.8272

> <Gold.Chemscore.Metal.Weighted>
-0.0000

> <Gold.Chemscore.Lipo.Weighted>
-13.1353

> <Gold.Chemscore.Internal_Hbond.Weighted>
0.0000

> <Gold.Chemscore.DEClash.Weighted>
2.5694

> <Gold.Chemscore.DEInternal.Weighted>
1.1564

> <Gold.Chemscore.Rot.Weighted>
7.3650

> <Gold.Chemscore.Internal.Correction.Weighted>
   9.000000E+99

> <Gold.Protein.RotatedTorsions>
[ 6907 6896 6895 6894 ] final  106.59 input  -60.11 | X-H torsion
[ 7974 7965 7964 7962 ] final   76.43 input  175.53 | X-H torsion
[ 8008 7997 7996 7995 ] final -141.85 input   59.86 | X-H torsion
[ 10167 10162 10161 10158 ] final  104.97 input  -65.29 | X-H torsion
[ 10718 10713 10712 10709 ] final -137.26 input   66.30 | X-H torsion
[ 10763 10752 10751 10750 ] final -135.17 input  -60.55 | X-H torsion
[ 11005 11000 10999 10996 ] final  -51.06 input  -57.11 | X-H torsion

> <Gold.Protein.ActiveResidues>
 VAL166  LYS551  ARG553  GLY616  TRP617  ASP618  TYR619  PRO620  LYS621  CYS622 
 ASP623  PHE694  ASN695  SER759  ASP760  ASP761  ALA762  ILE779  LEU786  VAL792 
 PHE793  MET794  SER795  GLU796  ALA797  LYS798  CYS799  TRP800  GLU811  SER814 

> <Gold.Protein.RotatedAtoms>
  152.5188  133.9359  159.7602 H   0  0  0  0  0  0  0  0  0  0  0  0  # atno 6907 bound_to 6896
  150.9699  133.6347  159.2746 H   0  0  0  0  0  0  0  0  0  0  0  0  # atno 6908 bound_to 6896
  151.3562  135.0900  159.9472 H   0  0  0  0  0  0  0  0  0  0  0  0  # atno 6909 bound_to 6896
  145.7029  139.2588  143.1695 H   0  0  0  0  0  0  0  0  0  0  0  0  # atno 7974 bound_to 7965
  155.4846  140.0563  157.2962 H   0  0  0  0  0  0  0  0  0  0  0  0  # atno 8008 bound_to 7997
  154.4647  140.2013  156.0102 H   0  0  0  0  0  0  0  0  0  0  0  0  # atno 8009 bound_to 7997
  156.0953  140.3227  155.7874 H   0  0  0  0  0  0  0  0  0  0  0  0  # atno 8010 bound_to 7997
  139.7132  144.7073  151.0993 H   0  0  0  0  0  0  0  0  0  0  0  0  # atno 10167 bound_to 10162
  156.2861  130.7348  151.1360 H   0  0  0  0  0  0  0  0  0  0  0  0  # atno 10718 bound_to 10713
  154.8707  135.3712  154.4854 H   0  0  0  0  0  0  0  0  0  0  0  0  # atno 10763 bound_to 10752
  153.5505  135.7025  153.5599 H   0  0  0  0  0  0  0  0  0  0  0  0  # atno 10764 bound_to 10752
  153.3720  135.4019  155.1759 H   0  0  0  0  0  0  0  0  0  0  0  0  # atno 10765 bound_to 10752
  141.0850  133.6644  156.3821 H   0  0  0  0  0  0  0  0  0  0  0  0  # atno 11005 bound_to 11000
  146.0782  140.7794  142.9655 LP  0  0  0  0  0  0  0  0  0  0  0  0  # atno 17320 bound_to 7965
  144.6963  140.3447  143.7193 LP  0  0  0  0  0  0  0  0  0  0  0  0  # atno 17321 bound_to 7965
  140.7738  143.5265  150.9474 LP  0  0  0  0  0  0  0  0  0  0  0  0  # atno 17342 bound_to 10162
  139.8950  143.6905  152.3140 LP  0  0  0  0  0  0  0  0  0  0  0  0  # atno 17343 bound_to 10162
  157.7329  131.0596  150.5605 LP  0  0  0  0  0  0  0  0  0  0  0  0  # atno 17370 bound_to 10713
  156.5716  130.4281  149.6017 LP  0  0  0  0  0  0  0  0  0  0  0  0  # atno 17371 bound_to 10713
  140.5383  134.6145  157.5372 LP  0  0  0  0  0  0  0  0  0  0  0  0  # atno 17394 bound_to 11000
  139.9667  134.7360  156.0123 LP  0  0  0  0  0  0  0  0  0  0  0  0  # atno 17395 bound_to 11000

$$$$
