AV-unprocessed.smi:1803|AV-procd|sdf|7287|dock5
  -GOLD-   22720 8543D 1   1.00000     0.00000
 Structure written by MMmdl.
 35 37  0  0  0  0  0  0  0  0  3 V2000
  147.5567  135.3380  156.1590 O   0  0  0  0  0  0  0  0  0  0  0  0
  148.0174  135.8199  155.1252 C   0  0  0  0  0  0  0  0  0  0  0  0
  148.3667  137.1267  155.0003 N   0  5  0  0  0  0  0  0  0  0  0  0
  149.6300  137.5199  154.7529 C   0  0  0  0  0  0  0  0  0  0  0  0
  150.6785  136.6879  154.8605 N   0  0  0  0  0  0  0  0  0  0  0  0
  151.8893  137.2935  154.5536 N   0  0  0  0  0  0  0  0  0  0  0  0
  151.7239  138.5771  154.2353 C   0  0  0  0  0  0  0  0  0  0  0  0
  150.0729  139.1593  154.2696 S   0  0  0  0  0  0  0  0  0  0  0  0
  148.1900  135.0201  154.0562 N   0  0  0  0  0  0  0  0  0  0  0  0
  147.8647  133.6007  153.9906 C   0  0  2  0  0  0  0  0  0  0  0  0
  148.8053  132.7040  154.8111 C   0  0  0  0  0  0  0  0  0  0  0  0
  149.0274  131.4472  153.9473 C   0  0  0  0  0  0  0  0  0  0  0  0
  148.1621  131.5924  152.7540 N   0  3  1  0  0  0  0  0  0  0  0  0
  146.8742  130.8608  152.9036 C   0  0  0  0  0  0  0  0  0  0  0  0
  145.8828  131.2001  151.7826 C   0  0  0  0  0  0  0  0  0  0  0  0
  145.6147  132.7070  151.7520 C   0  0  0  0  0  0  0  0  0  0  0  0
  146.9354  133.4575  151.5489 C   0  0  0  0  0  0  0  0  0  0  0  0
  148.0246  133.0568  152.5690 C   0  0  1  0  0  0  0  0  0  0  0  0
  152.5786  139.1841  153.9766 H   0  0  0  0  0  0  0  0  0  0  0  0
  148.5775  135.4389  153.2233 H   0  0  0  0  0  0  0  0  0  0  0  0
  146.8374  133.4470  154.3252 H   0  0  0  0  0  0  0  0  0  0  0  0
  149.7603  133.1951  155.0046 H   0  0  0  0  0  0  0  0  0  0  0  0
  148.3624  132.4585  155.7769 H   0  0  0  0  0  0  0  0  0  0  0  0
  150.0653  131.4134  153.6139 H   0  0  0  0  0  0  0  0  0  0  0  0
  148.8347  130.5238  154.4953 H   0  0  0  0  0  0  0  0  0  0  0  0
  147.0742  129.7888  152.9086 H   0  0  0  0  0  0  0  0  0  0  0  0
  146.4222  131.0971  153.8684 H   0  0  0  0  0  0  0  0  0  0  0  0
  146.2789  130.8705  150.8211 H   0  0  0  0  0  0  0  0  0  0  0  0
  144.9485  130.6599  151.9372 H   0  0  0  0  0  0  0  0  0  0  0  0
  144.9187  132.9500  150.9488 H   0  0  0  0  0  0  0  0  0  0  0  0
  145.1397  133.0228  152.6815 H   0  0  0  0  0  0  0  0  0  0  0  0
  147.3033  133.2440  150.5445 H   0  0  0  0  0  0  0  0  0  0  0  0
  146.7655  134.5341  151.5828 H   0  0  0  0  0  0  0  0  0  0  0  0
  148.9821  133.4124  152.1823 H   0  0  0  0  0  0  0  0  0  0  0  0
  148.6346  131.2080  151.9487 H   0  0  0  0  0  0  0  0  0  0  0  0
  1  2  2  0  0  0  0
  2  3  1  0  0  0  0
  2  9  1  0  0  0  0
  3  4  1  0  0  0  0
  4  8  1  0  0  0  0
  4  5  2  0  0  0  0
  5  6  1  0  0  0  0
  6  7  2  0  0  0  0
  7  8  1  0  0  0  0
  7 19  1  0  0  0  0
  9 10  1  0  0  0  0
  9 20  1  0  0  0  0
 10 18  1  0  0  0  0
 10 11  1  0  0  0  0
 10 21  1  0  0  0  0
 11 12  1  0  0  0  0
 11 22  1  0  0  0  0
 11 23  1  0  0  0  0
 12 13  1  0  0  0  0
 12 24  1  0  0  0  0
 12 25  1  0  0  0  0
 13 18  1  0  0  0  0
 13 14  1  0  0  0  0
 13 35  1  0  0  0  0
 14 15  1  0  0  0  0
 14 26  1  0  0  0  0
 14 27  1  0  0  0  0
 15 16  1  0  0  0  0
 15 28  1  0  0  0  0
 15 29  1  0  0  0  0
 16 17  1  0  0  0  0
 16 30  1  0  0  0  0
 16 31  1  0  0  0  0
 17 18  1  0  0  0  0
 17 32  1  0  0  0  0
 17 33  1  0  0  0  0
 18 34  1  0  0  0  0
M  CHG  1   3  -1
M  CHG  1  13   1
M  END
> <s_m_source_file>
AV-unprocessed.smi

> <i_m_source_file_index>
1803

> <i_lp_mmshare_version>
43012

> <i_f3d_flags>
0

> <s_epik_input>
czFbY0hdbm5jMVtOSF1DKD1PKVtOSF1bQ0BIXShbQ0gyXVtDSDJdMilbQ0BASF0oTjIzKVtDSDJdW0NIMl1bQ0gyXVtDSDJdMw==

> <s_epik_cmdline>
J2VwaWtfcHl0aG9uJywgJy1waCcsICc3LjAnLCAnLXRuJywgJzgnLCAnLW1hJywgJzIwMCcsICctbWV0YWxfYmluZGluZycsICctaW1hZScsICc8aW5maWxlLm1hZT4nLCAnLW9tYWUnLCAnPG91dGZpbGUubWFlPic=

> <r_lp_tautomer_probability>
1

> <r_epik_Ionization_Penalty>
3.78828

> <r_epik_Ionization_Penalty_Charging>
3.7591

> <r_epik_Ionization_Penalty_Neutral>
0.0291838

> <r_epik_State_Penalty>
3.757

> <r_epik_Charging_Adjusted_Penalty>
7.51609

> <i_epik_Tot_Q>
0

> <i_epik_Tot_abs_Q>
2

> <r_epik_Metal_State_Penalty>
0.558016

> <b_epik_Metal_Only>
1

> <s_lp_Force_Field>
OPLS_2005

> <r_lp_Energy>
31.4386

> <b_lp_Chiralities_Consistent>
1

> <s_lp_Variant>
AV-unprocessed.smi:1803-9

> <Gold.Version>
5.8.1

> <Gold.Id.Protein>
6NUR|6NUR_protein|mol2

> <Gold.PLP.Fitness>
36.1394

> <Gold.PLP.PLP>
-28.9130

> <Gold.PLP.part.hbond>
-3.1702

> <Gold.PLP.part.metal>
0.0000

> <Gold.PLP.part.buried>
-4.8770

> <Gold.PLP.part.nonpolar>
-22.1375

> <Gold.PLP.part.repulsive>
0.4020

> <Gold.PLP.ligand.clash>
0.0000

> <Gold.PLP.ligand.torsion>
0.7131

> <Gold.PLP.Chemscore.Hbond>
2.8800

> <Gold.PLP.Chemscore.CHOScore>
0.0000

> <Gold.PLP.Chemscore.Metal>
0.0000

> <Gold.Chemscore.Hbonds>
donor molecule, donor type, donor heavy atom, donor atom, acceptor molecule, acceptor atom, score
      L1  H     9    20       P1  7948  1.00
      L1  H    13    35       P1 10747  1.00
      P1  H 10752 10764       L1     6  0.86

> <Gold.PLP.Chemscore.Internal.Correction>
0.0125

> <Gold.Rescore>
     Score         DG    S(hbond)    S(metal)    S(lipo)     H(rot)  DE(clash)    DE(int)     intcor
     18.46     -19.18       2.67        0.00      62.72       1.00       0.01       0.70       ----

> <Gold.Chemscore.Fitness>
18.4625

> <Gold.Chemscore.DG>
-19.1804

> <Gold.Chemscore.ZeroCoef>
-5.4800

> <Gold.Chemscore.Hbond>
2.6715

> <Gold.Chemscore.Metal>
0.0000

> <Gold.Chemscore.Lipo>
62.7151

> <Gold.Chemscore.Internal_Hbond>
0.0000

> <Gold.Chemscore.DEClash>
0.0149

> <Gold.Chemscore.DEInternal>
0.7030

> <Gold.Chemscore.Rot>
1.0000

> <Gold.Chemscore.Internal.Correction>
   9.000000E+99

> <Gold.Chemscore.Hbonds>
donor molecule, donor type, donor heavy atom, donor atom, acceptor molecule, acceptor atom, score
      L1  H     9    20       P1  7948  0.94
      L1  H    13    35       P1 10747  0.95
      P1  H 10752 10764       L1     6  0.16

> <Gold.Chemscore.Hbond.Weighted>
-8.9228

> <Gold.Chemscore.Metal.Weighted>
-0.0000

> <Gold.Chemscore.Lipo.Weighted>
-7.3377

> <Gold.Chemscore.Internal_Hbond.Weighted>
0.0000

> <Gold.Chemscore.DEClash.Weighted>
0.0149

> <Gold.Chemscore.DEInternal.Weighted>
0.7030

> <Gold.Chemscore.Rot.Weighted>
2.5600

> <Gold.Chemscore.Internal.Correction.Weighted>
   9.000000E+99

> <Gold.Protein.RotatedTorsions>
[ 6907 6896 6895 6894 ] final -173.72 input  -60.11 | X-H torsion
[ 7974 7965 7964 7962 ] final  162.08 input  175.53 | X-H torsion
[ 8008 7997 7996 7995 ] final  171.48 input   59.86 | X-H torsion
[ 10167 10162 10161 10158 ] final -138.70 input  -65.29 | X-H torsion
[ 10718 10713 10712 10709 ] final  134.29 input   66.30 | X-H torsion
[ 10763 10752 10751 10750 ] final  -77.43 input  -60.55 | X-H torsion
[ 11005 11000 10999 10996 ] final -169.64 input  -57.11 | X-H torsion

> <Gold.Protein.ActiveResidues>
 VAL166  LYS551  ARG553  GLY616  TRP617  ASP618  TYR619  PRO620  LYS621  CYS622 
 ASP623  PHE694  ASN695  SER759  ASP760  ASP761  ALA762  ILE779  LEU786  VAL792 
 PHE793  MET794  SER795  GLU796  ALA797  LYS798  CYS799  TRP800  GLU811  SER814 

> <Gold.Protein.RotatedAtoms>
  151.5608  133.3403  159.2970 H   0  0  0  0  0  0  0  0  0  0  0  0  # atno 6907 bound_to 6896
  150.8424  134.7723  159.6954 H   0  0  0  0  0  0  0  0  0  0  0  0  # atno 6908 bound_to 6896
  152.4489  134.5444  159.9900 H   0  0  0  0  0  0  0  0  0  0  0  0  # atno 6909 bound_to 6896
  144.7654  139.7989  143.6317 H   0  0  0  0  0  0  0  0  0  0  0  0  # atno 7974 bound_to 7965
  156.1267  140.1511  156.9125 H   0  0  0  0  0  0  0  0  0  0  0  0  # atno 8008 bound_to 7997
  154.4877  140.0860  156.7565 H   0  0  0  0  0  0  0  0  0  0  0  0  # atno 8009 bound_to 7997
  155.4330  140.3428  155.4284 H   0  0  0  0  0  0  0  0  0  0  0  0  # atno 8010 bound_to 7997
  139.8452  143.7270  152.2661 H   0  0  0  0  0  0  0  0  0  0  0  0  # atno 10167 bound_to 10162
  157.4687  131.1078  150.9830 H   0  0  0  0  0  0  0  0  0  0  0  0  # atno 10718 bound_to 10713
  154.5128  135.5764  153.6618 H   0  0  0  0  0  0  0  0  0  0  0  0  # atno 10763 bound_to 10752
  152.9900  135.6163  154.2856 H   0  0  0  0  0  0  0  0  0  0  0  0  # atno 10764 bound_to 10752
  154.2772  135.2852  155.2692 H   0  0  0  0  0  0  0  0  0  0  0  0  # atno 10765 bound_to 10752
  140.5285  134.5639  157.5068 H   0  0  0  0  0  0  0  0  0  0  0  0  # atno 11005 bound_to 11000
  146.1757  139.4926  142.9899 LP  0  0  0  0  0  0  0  0  0  0  0  0  # atno 17320 bound_to 7965
  145.6487  141.0268  143.1772 LP  0  0  0  0  0  0  0  0  0  0  0  0  # atno 17321 bound_to 7965
  139.7520  144.7531  151.0493 LP  0  0  0  0  0  0  0  0  0  0  0  0  # atno 17342 bound_to 10162
  140.7794  143.4849  150.9968 LP  0  0  0  0  0  0  0  0  0  0  0  0  # atno 17343 bound_to 10162
  157.0602  130.5822  149.5384 LP  0  0  0  0  0  0  0  0  0  0  0  0  # atno 17370 bound_to 10713
  156.0063  130.5150  150.7840 LP  0  0  0  0  0  0  0  0  0  0  0  0  # atno 17371 bound_to 10713
  139.9567  134.7523  156.0326 LP  0  0  0  0  0  0  0  0  0  0  0  0  # atno 17394 bound_to 11000
  141.1295  133.6590  156.3425 LP  0  0  0  0  0  0  0  0  0  0  0  0  # atno 17395 bound_to 11000

$$$$
