AV-unprocessed.smi:54|AV-procd|sdf|549|dock8
  -GOLD-   2262016443D 1   1.00000     0.00000
 Structure written by MMmdl.
 43 45  0  0  0  0  0  0  0  0  2 V2000
  145.8418  136.7527  159.9744 C   0  0  0  0  0  0  0  0  0  0  0  0
  146.9056  135.8251  160.5851 C   0  0  0  0  0  0  0  0  0  0  0  0
  146.6267  135.5592  162.0735 C   0  0  0  0  0  0  0  0  0  0  0  0
  148.3128  136.4084  160.3916 C   0  0  0  0  0  0  0  0  0  0  0  0
  148.9835  136.6994  161.3845 O   0  0  0  0  0  0  0  0  0  0  0  0
  148.7107  136.5422  159.1072 N   0  0  0  0  0  0  0  0  0  0  0  0
  149.9235  137.0309  158.6090 C   0  0  0  0  0  0  0  0  0  0  0  0
  149.8258  137.5150  157.3948 N   0  0  0  0  0  0  0  0  0  0  0  0
  151.0220  138.0240  156.9252 C   0  0  0  0  0  0  0  0  0  0  0  0
  152.2256  138.0595  157.5747 C   0  0  0  0  0  0  0  0  0  0  0  0
  153.2180  138.6124  156.7760 N   0  0  0  0  0  0  0  0  0  0  0  0
  152.5506  138.8904  155.6581 C   0  0  0  0  0  0  0  0  0  0  0  0
  151.2315  138.6042  155.6763 N   0  0  0  0  0  0  0  0  0  0  0  0
  150.2415  138.7631  154.5577 C   0  0  2  0  0  0  0  0  0  0  0  0
  150.2852  140.0872  154.1050 O   0  0  0  0  0  0  0  0  0  0  0  0
  149.1899  140.8353  154.6241 C   0  0  2  0  0  0  0  0  0  0  0  0
  149.5802  141.4819  155.9726 C   0  0  0  0  0  0  0  0  0  0  0  0
  148.4935  142.2008  156.5188 O   0  0  0  0  0  0  0  0  0  0  0  0
  148.0722  139.7849  154.6707 C   0  0  2  0  0  0  0  0  0  0  0  0
  147.0602  140.0951  155.6082 O   0  0  0  0  0  0  0  0  0  0  0  0
  148.8000  138.4964  155.0385 C   0  0  1  0  0  0  0  0  0  0  0  0
  148.2162  137.4064  154.3531 O   0  0  0  0  0  0  0  0  0  0  0  0
  152.2649  137.5031  158.9474 C   0  0  0  0  0  0  0  0  0  0  0  0
  153.3259  137.5162  159.5686 O   0  0  0  0  0  0  0  0  0  0  0  0
  151.0795  137.0097  159.4145 N   0  5  0  0  0  0  0  0  0  0  0  0
  150.5985  138.0761  153.7893 H   0  0  0  0  0  0  0  0  0  0  0  0
  148.9493  141.6233  153.9092 H   0  0  0  0  0  0  0  0  0  0  0  0
  147.6307  139.7045  153.6759 H   0  0  0  0  0  0  0  0  0  0  0  0
  148.7813  138.3311  156.1169 H   0  0  0  0  0  0  0  0  0  0  0  0
  146.0488  136.9549  158.9228 H   0  0  0  0  0  0  0  0  0  0  0  0
  145.7965  137.7099  160.4951 H   0  0  0  0  0  0  0  0  0  0  0  0
  144.8516  136.2998  160.0309 H   0  0  0  0  0  0  0  0  0  0  0  0
  146.8541  134.8697  160.0603 H   0  0  0  0  0  0  0  0  0  0  0  0
  147.3875  134.9105  162.5100 H   0  0  0  0  0  0  0  0  0  0  0  0
  145.6627  135.0677  162.2067 H   0  0  0  0  0  0  0  0  0  0  0  0
  146.6073  136.4848  162.6502 H   0  0  0  0  0  0  0  0  0  0  0  0
  148.0658  136.1755  158.4229 H   0  0  0  0  0  0  0  0  0  0  0  0
  153.0441  139.3154  154.7968 H   0  0  0  0  0  0  0  0  0  0  0  0
  149.9350  140.7412  156.6899 H   0  0  0  0  0  0  0  0  0  0  0  0
  150.3888  142.1962  155.8201 H   0  0  0  0  0  0  0  0  0  0  0  0
  148.6837  143.1244  156.4555 H   0  0  0  0  0  0  0  0  0  0  0  0
  146.2498  140.2272  155.1403 H   0  0  0  0  0  0  0  0  0  0  0  0
  148.6807  137.2809  153.5401 H   0  0  0  0  0  0  0  0  0  0  0  0
  1  2  1  0  0  0  0
  1 30  1  0  0  0  0
  1 31  1  0  0  0  0
  1 32  1  0  0  0  0
  2  3  1  0  0  0  0
  2  4  1  0  0  0  0
  2 33  1  0  0  0  0
  3 34  1  0  0  0  0
  3 35  1  0  0  0  0
  3 36  1  0  0  0  0
  4  5  2  0  0  0  0
  4  6  1  0  0  0  0
  6 37  1  0  0  0  0
  6  7  1  0  0  0  0
  7 25  1  0  0  0  0
  7  8  2  0  0  0  0
  8  9  1  0  0  0  0
  9 13  1  0  0  0  0
  9 10  2  0  0  0  0
 10 11  1  0  0  0  0
 10 23  1  0  0  0  0
 11 12  2  0  0  0  0
 12 13  1  0  0  0  0
 12 38  1  0  0  0  0
 13 14  1  0  0  0  0
 14 26  1  0  0  0  0
 14 21  1  0  0  0  0
 14 15  1  0  0  0  0
 15 16  1  0  0  0  0
 16 27  1  0  0  0  0
 16 17  1  0  0  0  0
 16 19  1  0  0  0  0
 17 18  1  0  0  0  0
 17 39  1  0  0  0  0
 17 40  1  0  0  0  0
 18 41  1  0  0  0  0
 19 28  1  0  0  0  0
 19 20  1  0  0  0  0
 19 21  1  0  0  0  0
 20 42  1  0  0  0  0
 21 29  1  0  0  0  0
 21 22  1  0  0  0  0
 22 43  1  0  0  0  0
 23 24  2  0  0  0  0
 23 25  1  0  0  0  0
M  CHG  1  25  -1
M  END
> <s_m_source_file>
AV-unprocessed.smi

> <i_m_source_file_index>
54

> <i_lp_mmshare_version>
43012

> <i_f3d_flags>
0

> <s_epik_input>
W0NIM11bQ0hdKFtDSDNdKUMoPU8pW05IXWMobjEpW25IXWMoPU8pYyhjMTIpbltjSF1uMltDQEBIXTNPW0NASF0oW0NIMl1bT0hdKVtDQEBIXShbT0hdKVtDQEhdM1tPSF0=

> <s_epik_cmdline>
J2VwaWtfcHl0aG9uJywgJy1waCcsICc3LjAnLCAnLXRuJywgJzgnLCAnLW1hJywgJzIwMCcsICctbWV0YWxfYmluZGluZycsICctaW1hZScsICc8aW5maWxlLm1hZT4nLCAnLW9tYWUnLCAnPG91dGZpbGUubWFlPic=

> <r_lp_tautomer_probability>
0.85571

> <r_epik_Ionization_Penalty>
1.75936

> <r_epik_Ionization_Penalty_Charging>
4.55893e-11

> <r_epik_Ionization_Penalty_Neutral>
1.75936

> <r_epik_State_Penalty>
1.72072

> <r_epik_Charging_Adjusted_Penalty>
1.72072

> <i_epik_Tot_Q>
-1

> <i_epik_Tot_abs_Q>
1

> <r_epik_Metal_State_Penalty>
0.400338

> <b_epik_Metal_Only>
1

> <s_epik_Chemistry_Notes>
This compound contains an acetal/aminal-like group ( X-CH(R)-Y where X, Y are N, S, or O) that may be acid/base labile, releasing an aldehyde.

> <s_lp_Force_Field>
OPLS_2005

> <r_lp_Energy>
58.7514

> <b_lp_Chiralities_Consistent>
1

> <s_lp_Variant>
AV-unprocessed.smi:54-21

> <Gold.Version>
5.8.1

> <Gold.Id.Protein>
6NUR|6NUR_protein|mol2

> <Gold.PLP.Fitness>
49.5855

> <Gold.PLP.PLP>
-29.2235

> <Gold.PLP.part.hbond>
-5.8724

> <Gold.PLP.part.metal>
0.0000

> <Gold.PLP.part.buried>
-4.2669

> <Gold.PLP.part.nonpolar>
-21.1240

> <Gold.PLP.part.repulsive>
1.1432

> <Gold.PLP.ligand.clash>
0.0000

> <Gold.PLP.ligand.torsion>
0.3485

> <Gold.PLP.Chemscore.Hbond>
6.9920

> <Gold.PLP.Chemscore.CHOScore>
0.0000

> <Gold.PLP.Chemscore.Metal>
0.0000

> <Gold.Chemscore.Hbonds>
donor molecule, donor type, donor heavy atom, donor atom, acceptor molecule, acceptor atom, score
      L1  H    18    41       P1  8028  1.00
      L1  H    22    43       P1  7948  1.00
      P1  H  6896  6907       L1    25  2.00
      P1  H  6931  6943       L1     5  1.00
      P1  H  7989  7998       L1    15  1.00
      P1  H  7997  8008       L1    11  1.00

> <Gold.PLP.Chemscore.Internal.Correction>
0.0830

> <Gold.Rescore>
     Score         DG    S(hbond)    S(metal)    S(lipo)     H(rot)  DE(clash)    DE(int)     intcor
     11.01     -15.61       4.72        0.00      39.88       4.02       1.15       3.45       ----

> <Gold.Chemscore.Fitness>
11.0079

> <Gold.Chemscore.DG>
-15.6097

> <Gold.Chemscore.ZeroCoef>
-5.4800

> <Gold.Chemscore.Hbond>
4.7164

> <Gold.Chemscore.Metal>
0.0000

> <Gold.Chemscore.Lipo>
39.8812

> <Gold.Chemscore.Internal_Hbond>
0.0000

> <Gold.Chemscore.DEClash>
1.1532

> <Gold.Chemscore.DEInternal>
3.4486

> <Gold.Chemscore.Rot>
4.0192

> <Gold.Chemscore.Internal.Correction>
   9.000000E+99

> <Gold.Chemscore.Hbonds>
donor molecule, donor type, donor heavy atom, donor atom, acceptor molecule, acceptor atom, score
      L1  H    18    41       P1  8028  0.90
      L1  H    22    43       P1  7948  0.92
      P1  H  6896  6907       L1    25  0.33
      P1  H  6931  6943       L1     5  0.97
      P1  H  7989  7998       L1    15  0.93
      P1  H  7997  8008       L1    11  0.24

> <Gold.Chemscore.Hbond.Weighted>
-15.7529

> <Gold.Chemscore.Metal.Weighted>
-0.0000

> <Gold.Chemscore.Lipo.Weighted>
-4.6661

> <Gold.Chemscore.Internal_Hbond.Weighted>
0.0000

> <Gold.Chemscore.DEClash.Weighted>
1.1532

> <Gold.Chemscore.DEInternal.Weighted>
3.4486

> <Gold.Chemscore.Rot.Weighted>
10.2893

> <Gold.Chemscore.Internal.Correction.Weighted>
   9.000000E+99

> <Gold.Protein.RotatedTorsions>
[ 6907 6896 6895 6894 ] final  -16.87 input  -60.11 | X-H torsion
[ 7974 7965 7964 7962 ] final  -88.99 input  175.53 | X-H torsion
[ 8008 7997 7996 7995 ] final  -70.25 input   59.86 | X-H torsion
[ 10167 10162 10161 10158 ] final  100.79 input  -65.29 | X-H torsion
[ 10718 10713 10712 10709 ] final   82.46 input   66.30 | X-H torsion
[ 10763 10752 10751 10750 ] final   73.11 input  -60.55 | X-H torsion
[ 11005 11000 10999 10996 ] final  -29.37 input  -57.11 | X-H torsion

> <Gold.Protein.ActiveResidues>
 VAL166  LYS551  ARG553  GLY616  TRP617  ASP618  TYR619  PRO620  LYS621  CYS622 
 ASP623  PHE694  ASN695  SER759  ASP760  ASP761  ALA762  ILE779  LEU786  VAL792 
 PHE793  MET794  SER795  GLU796  ALA797  LYS798  CYS799  TRP800  GLU811  SER814 

> <Gold.Protein.RotatedAtoms>
  151.3019  135.0771  159.9241 H   0  0  0  0  0  0  0  0  0  0  0  0  # atno 6907 bound_to 6896
  152.5296  133.9824  159.7823 H   0  0  0  0  0  0  0  0  0  0  0  0  # atno 6908 bound_to 6896
  151.0112  133.5912  159.2713 H   0  0  0  0  0  0  0  0  0  0  0  0  # atno 6909 bound_to 6896
  145.4458  140.9560  143.2050 H   0  0  0  0  0  0  0  0  0  0  0  0  # atno 7974 bound_to 7965
  154.4998  140.0838  156.7774 H   0  0  0  0  0  0  0  0  0  0  0  0  # atno 8008 bound_to 7997
  155.4029  140.3438  155.4240 H   0  0  0  0  0  0  0  0  0  0  0  0  # atno 8009 bound_to 7997
  156.1442  140.1538  156.8861 H   0  0  0  0  0  0  0  0  0  0  0  0  # atno 8010 bound_to 7997
  139.7496  144.6988  151.0453 H   0  0  0  0  0  0  0  0  0  0  0  0  # atno 10167 bound_to 10162
  157.6857  131.0048  150.2378 H   0  0  0  0  0  0  0  0  0  0  0  0  # atno 10718 bound_to 10713
  153.0501  135.5075  154.7844 H   0  0  0  0  0  0  0  0  0  0  0  0  # atno 10763 bound_to 10752
  154.6714  135.2953  154.9739 H   0  0  0  0  0  0  0  0  0  0  0  0  # atno 10764 bound_to 10752
  154.0557  135.6698  153.4858 H   0  0  0  0  0  0  0  0  0  0  0  0  # atno 10765 bound_to 10752
  140.9290  133.7350  156.0910 H   0  0  0  0  0  0  0  0  0  0  0  0  # atno 11005 bound_to 11000
  144.8092  139.5993  143.7037 LP  0  0  0  0  0  0  0  0  0  0  0  0  # atno 17320 bound_to 7965
  146.2531  139.6243  142.9413 LP  0  0  0  0  0  0  0  0  0  0  0  0  # atno 17321 bound_to 7965
  140.7796  143.4825  150.9999 LP  0  0  0  0  0  0  0  0  0  0  0  0  # atno 17342 bound_to 10162
  139.8513  143.7434  152.3178 LP  0  0  0  0  0  0  0  0  0  0  0  0  # atno 17343 bound_to 10162
  156.2998  130.3757  149.7761 LP  0  0  0  0  0  0  0  0  0  0  0  0  # atno 17370 bound_to 10713
  156.5395  130.8293  151.3264 LP  0  0  0  0  0  0  0  0  0  0  0  0  # atno 17371 bound_to 10713
  140.7887  134.3642  157.5470 LP  0  0  0  0  0  0  0  0  0  0  0  0  # atno 17394 bound_to 11000
  139.8792  134.9127  156.3066 LP  0  0  0  0  0  0  0  0  0  0  0  0  # atno 17395 bound_to 11000

$$$$
