AV-unprocessed.smi:1648|AV-procd|sdf|6633|dock6
  -GOLD-   22720 7333D 1   1.00000     0.00000
 Structure written by MMmdl.
 41 41  0  0  0  0  0  0  0  0  1 V2000
  146.7791  138.7040  151.8781 C   0  0  0  0  0  0  0  0  0  0  0  0
  147.3255  138.9517  153.2855 C   0  0  0  0  0  0  0  0  0  0  0  0
  146.8883  139.8910  153.9461 O   0  0  0  0  0  0  0  0  0  0  0  0
  148.2787  138.1391  153.7745 N   0  0  0  0  0  0  0  0  0  0  0  0
  148.9242  138.2110  155.0886 C   0  0  2  0  0  0  0  0  0  0  0  0
  149.7769  139.4928  155.1493 C   0  0  0  0  0  0  0  0  0  0  0  0
  150.3932  139.8838  154.1567 O   0  0  0  0  0  0  0  0  0  0  0  0
  149.8059  140.1284  156.3309 N   0  0  0  0  0  0  0  0  0  0  0  0
  150.5410  141.3566  156.6158 C   0  0  1  0  0  0  0  0  0  0  0  0
  150.1133  142.4683  155.6389 C   0  0  0  0  0  0  0  0  0  0  0  0
  150.3303  141.7327  158.0961 C   0  0  0  0  0  0  0  0  0  0  0  0
  151.2360  142.7715  158.5493 N   0  0  0  0  0  0  0  0  0  0  0  0
  152.1167  142.7086  159.6216 C   0  0  0  0  0  0  0  0  0  0  0  0
  152.7675  143.9207  159.6671 C   0  0  0  0  0  0  0  0  0  0  0  0
  152.3100  144.7375  158.6357 N   0  0  0  0  0  0  0  0  0  0  0  0
  151.4074  143.9887  158.0154 C   0  0  0  0  0  0  0  0  0  0  0  0
  149.8347  136.9603  155.2697 C   0  0  0  0  0  0  0  0  0  0  0  0
  151.1149  137.0523  154.4155 C   0  0  0  0  0  0  0  0  0  0  0  0
  149.1114  135.6354  154.9486 C   0  0  0  0  0  0  0  0  0  0  0  0
  147.5700  138.8021  151.1343 H   0  0  0  0  0  0  0  0  0  0  0  0
  146.0015  139.4292  151.6356 H   0  0  0  0  0  0  0  0  0  0  0  0
  146.3426  137.7083  151.7987 H   0  0  0  0  0  0  0  0  0  0  0  0
  148.6038  137.4021  153.1656 H   0  0  0  0  0  0  0  0  0  0  0  0
  148.1722  138.2210  155.8796 H   0  0  0  0  0  0  0  0  0  0  0  0
  149.2731  139.7323  157.0917 H   0  0  0  0  0  0  0  0  0  0  0  0
  151.6061  141.1663  156.4701 H   0  0  0  0  0  0  0  0  0  0  0  0
  150.7013  143.3751  155.7824 H   0  0  0  0  0  0  0  0  0  0  0  0
  149.0624  142.7276  155.7706 H   0  0  0  0  0  0  0  0  0  0  0  0
  150.2515  142.1595  154.6021 H   0  0  0  0  0  0  0  0  0  0  0  0
  149.3068  142.0743  158.2585 H   0  0  0  0  0  0  0  0  0  0  0  0
  150.4722  140.8576  158.7320 H   0  0  0  0  0  0  0  0  0  0  0  0
  152.2031  141.8329  160.2479 H   0  0  0  0  0  0  0  0  0  0  0  0
  153.5246  144.2644  160.3563 H   0  0  0  0  0  0  0  0  0  0  0  0
  150.8557  144.3348  157.1534 H   0  0  0  0  0  0  0  0  0  0  0  0
  150.1516  136.9104  156.3132 H   0  0  0  0  0  0  0  0  0  0  0  0
  150.8759  137.1441  153.3555 H   0  0  0  0  0  0  0  0  0  0  0  0
  151.7341  136.1633  154.5391 H   0  0  0  0  0  0  0  0  0  0  0  0
  151.7318  137.9071  154.6930 H   0  0  0  0  0  0  0  0  0  0  0  0
  148.7242  135.6345  153.9293 H   0  0  0  0  0  0  0  0  0  0  0  0
  148.2764  135.4468  155.6232 H   0  0  0  0  0  0  0  0  0  0  0  0
  149.7890  134.7863  155.0442 H   0  0  0  0  0  0  0  0  0  0  0  0
  1  2  1  0  0  0  0
  1 20  1  0  0  0  0
  1 21  1  0  0  0  0
  1 22  1  0  0  0  0
  2  3  2  0  0  0  0
  2  4  1  0  0  0  0
  4  5  1  0  0  0  0
  4 23  1  0  0  0  0
  5  6  1  0  0  0  0
  5 17  1  0  0  0  0
  5 24  1  0  0  0  0
  6  7  2  0  0  0  0
  6  8  1  0  0  0  0
  8  9  1  0  0  0  0
  8 25  1  0  0  0  0
  9 10  1  0  0  0  0
  9 11  1  0  0  0  0
  9 26  1  0  0  0  0
 10 27  1  0  0  0  0
 10 28  1  0  0  0  0
 10 29  1  0  0  0  0
 11 12  1  0  0  0  0
 11 30  1  0  0  0  0
 11 31  1  0  0  0  0
 12 16  1  0  0  0  0
 12 13  1  0  0  0  0
 13 14  2  0  0  0  0
 13 32  1  0  0  0  0
 14 15  1  0  0  0  0
 14 33  1  0  0  0  0
 15 16  2  0  0  0  0
 16 34  1  0  0  0  0
 17 18  1  0  0  0  0
 17 19  1  0  0  0  0
 17 35  1  0  0  0  0
 18 36  1  0  0  0  0
 18 37  1  0  0  0  0
 18 38  1  0  0  0  0
 19 39  1  0  0  0  0
 19 40  1  0  0  0  0
 19 41  1  0  0  0  0
M  END
> <s_m_source_file>
AV-unprocessed.smi

> <i_m_source_file_index>
1648

> <i_lp_mmshare_version>
43012

> <i_f3d_flags>
0

> <s_epik_input>
W0NIM11DKD1PKVtOSF1bQ0BASF0oW0NIXShbQ0gzXSlbQ0gzXSlDKD1PKVtOSF1bQ0BIXShbQ0gzXSlbQ0gyXW4xW2NIXVtjSF1uW2NIXTE=

> <s_epik_cmdline>
J2VwaWtfcHl0aG9uJywgJy1waCcsICc3LjAnLCAnLXRuJywgJzgnLCAnLW1hJywgJzIwMCcsICctbWV0YWxfYmluZGluZycsICctaW1hZScsICc8aW5maWxlLm1hZT4nLCAnLW9tYWUnLCAnPG91dGZpbGUubWFlPic=

> <r_lp_tautomer_probability>
1

> <r_epik_Ionization_Penalty>
0.628885

> <r_epik_Ionization_Penalty_Charging>
0.628884

> <r_epik_Ionization_Penalty_Neutral>
4.35155e-07

> <r_epik_State_Penalty>
0.64556

> <r_epik_Charging_Adjusted_Penalty>
1.27444

> <i_epik_Tot_Q>
0

> <i_epik_Tot_abs_Q>
0

> <r_epik_Metal_State_Penalty>
0.30874

> <b_epik_Metal_Only>
0

> <s_lp_Force_Field>
OPLS_2005

> <r_lp_Energy>
9.63914

> <b_lp_Chiralities_Consistent>
1

> <s_lp_Variant>
AV-unprocessed.smi:1648-7

> <Gold.Version>
5.8.1

> <Gold.Id.Protein>
6NUR|6NUR_protein|mol2

> <Gold.PLP.Fitness>
37.1568

> <Gold.PLP.PLP>
-29.9098

> <Gold.PLP.part.hbond>
-2.0000

> <Gold.PLP.part.metal>
0.0000

> <Gold.PLP.part.buried>
0.7322

> <Gold.PLP.part.nonpolar>
-28.9937

> <Gold.PLP.part.repulsive>
0.4512

> <Gold.PLP.ligand.clash>
0.0000

> <Gold.PLP.ligand.torsion>
0.9258

> <Gold.PLP.Chemscore.Hbond>
2.0000

> <Gold.PLP.Chemscore.CHOScore>
1.0000

> <Gold.PLP.Chemscore.Metal>
0.0000

> <Gold.Chemscore.Hbonds>
donor molecule, donor type, donor heavy atom, donor atom, acceptor molecule, acceptor atom, score
      L1  H     4    23       P1  7948  1.00
      P1  H  7989  7998       L1     7  1.00
      L1  C    16    34       P1  8028  1.00

> <Gold.PLP.Chemscore.Internal.Correction>
0.0986

> <Gold.Rescore>
     Score         DG    S(hbond)    S(metal)    S(lipo)     H(rot)  DE(clash)    DE(int)     intcor
     10.29     -13.89       1.99        0.00      70.17       2.52       1.86       1.75       ----

> <Gold.Chemscore.Fitness>
10.2867

> <Gold.Chemscore.DG>
-13.8907

> <Gold.Chemscore.ZeroCoef>
-5.4800

> <Gold.Chemscore.Hbond>
1.9929

> <Gold.Chemscore.Metal>
0.0000

> <Gold.Chemscore.Lipo>
70.1692

> <Gold.Chemscore.Internal_Hbond>
0.0000

> <Gold.Chemscore.DEClash>
1.8562

> <Gold.Chemscore.DEInternal>
1.7479

> <Gold.Chemscore.Rot>
2.5216

> <Gold.Chemscore.Internal.Correction>
   9.000000E+99

> <Gold.Chemscore.Hbonds>
donor molecule, donor type, donor heavy atom, donor atom, acceptor molecule, acceptor atom, score
      L1  H     4    23       P1  7948  1.00
      P1  H  7989  7998       L1     7  0.99

> <Gold.Chemscore.Hbond.Weighted>
-6.6562

> <Gold.Chemscore.Metal.Weighted>
-0.0000

> <Gold.Chemscore.Lipo.Weighted>
-8.2098

> <Gold.Chemscore.Internal_Hbond.Weighted>
0.0000

> <Gold.Chemscore.DEClash.Weighted>
1.8562

> <Gold.Chemscore.DEInternal.Weighted>
1.7479

> <Gold.Chemscore.Rot.Weighted>
6.4553

> <Gold.Chemscore.Internal.Correction.Weighted>
   9.000000E+99

> <Gold.Protein.RotatedTorsions>
[ 6907 6896 6895 6894 ] final   55.63 input  -60.11 | X-H torsion
[ 7974 7965 7964 7962 ] final  129.90 input  175.53 | X-H torsion
[ 8008 7997 7996 7995 ] final  142.44 input   59.86 | X-H torsion
[ 10167 10162 10161 10158 ] final  -89.69 input  -65.29 | X-H torsion
[ 10718 10713 10712 10709 ] final   62.80 input   66.30 | X-H torsion
[ 10763 10752 10751 10750 ] final -170.85 input  -60.55 | X-H torsion
[ 11005 11000 10999 10996 ] final -105.27 input  -57.11 | X-H torsion

> <Gold.Protein.ActiveResidues>
 VAL166  LYS551  ARG553  GLY616  TRP617  ASP618  TYR619  PRO620  LYS621  CYS622 
 ASP623  PHE694  ASN695  SER759  ASP760  ASP761  ALA762  ILE779  LEU786  VAL792 
 PHE793  MET794  SER795  GLU796  ALA797  LYS798  CYS799  TRP800  GLU811  SER814 

> <Gold.Protein.RotatedAtoms>
  152.3557  134.6943  160.0222 H   0  0  0  0  0  0  0  0  0  0  0  0  # atno 6907 bound_to 6896
  151.7282  133.3311  159.3341 H   0  0  0  0  0  0  0  0  0  0  0  0  # atno 6908 bound_to 6896
  150.7570  134.6321  159.6236 H   0  0  0  0  0  0  0  0  0  0  0  0  # atno 6909 bound_to 6896
  145.0237  139.4109  143.5185 H   0  0  0  0  0  0  0  0  0  0  0  0  # atno 7974 bound_to 7965
  156.2949  140.2288  156.4729 H   0  0  0  0  0  0  0  0  0  0  0  0  # atno 8008 bound_to 7997
  154.7920  140.0453  157.1229 H   0  0  0  0  0  0  0  0  0  0  0  0  # atno 8009 bound_to 7997
  154.9634  140.3057  155.5024 H   0  0  0  0  0  0  0  0  0  0  0  0  # atno 8010 bound_to 7997
  140.3624  143.2835  151.9599 H   0  0  0  0  0  0  0  0  0  0  0  0  # atno 10167 bound_to 10162
  157.5926  130.9070  149.9634 H   0  0  0  0  0  0  0  0  0  0  0  0  # atno 10718 bound_to 10713
  154.6370  135.2894  155.0149 H   0  0  0  0  0  0  0  0  0  0  0  0  # atno 10763 bound_to 10752
  154.1289  135.6536  153.4922 H   0  0  0  0  0  0  0  0  0  0  0  0  # atno 10764 bound_to 10752
  153.0307  135.5305  154.7221 H   0  0  0  0  0  0  0  0  0  0  0  0  # atno 10765 bound_to 10752
  141.1061  133.8794  157.1714 H   0  0  0  0  0  0  0  0  0  0  0  0  # atno 11005 bound_to 11000
  146.3489  139.9748  142.8702 LP  0  0  0  0  0  0  0  0  0  0  0  0  # atno 17320 bound_to 7965
  145.1862  140.9790  143.4237 LP  0  0  0  0  0  0  0  0  0  0  0  0  # atno 17321 bound_to 7965
  139.4812  144.5981  151.7654 LP  0  0  0  0  0  0  0  0  0  0  0  0  # atno 17342 bound_to 10162
  140.5114  144.1019  150.5996 LP  0  0  0  0  0  0  0  0  0  0  0  0  # atno 17343 bound_to 10162
  156.0983  130.3657  150.0265 LP  0  0  0  0  0  0  0  0  0  0  0  0  # atno 17370 bound_to 10713
  156.8384  130.9417  151.3633 LP  0  0  0  0  0  0  0  0  0  0  0  0  # atno 17371 bound_to 10713
  139.9932  135.0057  157.0023 LP  0  0  0  0  0  0  0  0  0  0  0  0  # atno 17394 bound_to 11000
  140.4898  134.1205  155.7231 LP  0  0  0  0  0  0  0  0  0  0  0  0  # atno 17395 bound_to 11000

$$$$
