AV-unprocessed.smi:775|AV-procd|sdf|3696|dock8
  -GOLD-   22720 1113D 1   1.00000     0.00000
 Structure written by MMmdl.
 39 40  0  0  0  0  0  0  0  0  2 V2000
  145.0649  134.4861  153.6897 C   0  0  0  0  0  0  0  0  0  0  0  0
  146.2797  134.8452  152.8128 C   0  0  1  0  0  0  0  0  0  0  0  0
  146.0542  134.5269  151.3182 C   0  0  0  0  0  0  0  0  0  0  0  0
  145.4919  133.2068  151.0801 N   0  0  0  0  0  0  0  0  0  0  0  0
  146.1039  131.9780  151.2179 C   0  0  0  0  0  0  0  0  0  0  0  0
  145.1854  131.0256  150.8822 C   0  0  0  0  0  0  0  0  0  0  0  0
  144.0222  131.7778  150.5568 C   0  0  0  0  0  0  0  0  0  0  0  0
  144.2087  133.0823  150.6781 N   0  0  0  0  0  0  0  0  0  0  0  0
  146.6639  136.2660  152.9747 N   0  3  0  0  0  0  0  0  0  0  0  0
  145.7949  137.2512  152.2940 C   0  0  0  0  0  0  0  0  0  0  0  0
  146.4823  138.6159  152.1281 C   0  0  0  0  0  0  0  0  0  0  0  0
  146.8001  138.9801  150.9942 O   0  0  0  0  0  0  0  0  0  0  0  0
  146.7187  139.3756  153.2270 N   0  0  0  0  0  0  0  0  0  0  0  0
  146.3364  139.0060  154.5937 C   0  0  0  0  0  0  0  0  0  0  0  0
  145.2084  139.9464  155.0528 C   0  0  0  0  0  0  0  0  0  0  0  0
  145.4982  141.3482  154.7452 N   0  0  0  0  0  0  0  0  0  0  0  0
  146.4363  141.7768  153.8805 C   0  0  0  0  0  0  0  0  0  0  0  0
  146.6290  142.9732  153.6787 O   0  0  0  0  0  0  0  0  0  0  0  0
  147.2828  140.7317  153.1279 C   0  0  0  0  0  0  0  0  0  0  0  0
  144.7332  133.4661  153.4936 H   0  0  0  0  0  0  0  0  0  0  0  0
  144.2212  135.1510  153.5031 H   0  0  0  0  0  0  0  0  0  0  0  0
  145.3027  134.5442  154.7515 H   0  0  0  0  0  0  0  0  0  0  0  0
  147.1250  134.2377  153.1394 H   0  0  0  0  0  0  0  0  0  0  0  0
  145.3888  135.2674  150.8719 H   0  0  0  0  0  0  0  0  0  0  0  0
  146.9980  134.6033  150.7756 H   0  0  0  0  0  0  0  0  0  0  0  0
  147.1313  131.8836  151.5379 H   0  0  0  0  0  0  0  0  0  0  0  0
  145.3219  129.9543  150.8741 H   0  0  0  0  0  0  0  0  0  0  0  0
  143.0550  131.4171  150.2391 H   0  0  0  0  0  0  0  0  0  0  0  0
  146.6398  136.4815  153.9612 H   0  0  0  0  0  0  0  0  0  0  0  0
  145.5242  136.8711  151.3090 H   0  0  0  0  0  0  0  0  0  0  0  0
  144.8806  137.3789  152.8746 H   0  0  0  0  0  0  0  0  0  0  0  0
  146.0378  137.9669  154.7212 H   0  0  0  0  0  0  0  0  0  0  0  0
  147.2069  139.1376  155.2386 H   0  0  0  0  0  0  0  0  0  0  0  0
  144.2747  139.6769  154.5580 H   0  0  0  0  0  0  0  0  0  0  0  0
  145.0404  139.8415  156.1249 H   0  0  0  0  0  0  0  0  0  0  0  0
  144.9507  142.0454  155.2292 H   0  0  0  0  0  0  0  0  0  0  0  0
  148.2847  140.7239  153.5584 H   0  0  0  0  0  0  0  0  0  0  0  0
  147.3960  141.0745  152.0984 H   0  0  0  0  0  0  0  0  0  0  0  0
  147.6124  136.3868  152.6491 H   0  0  0  0  0  0  0  0  0  0  0  0
  1  2  1  0  0  0  0
  1 20  1  0  0  0  0
  1 21  1  0  0  0  0
  1 22  1  0  0  0  0
  2  3  1  0  0  0  0
  2  9  1  0  0  0  0
  2 23  1  0  0  0  0
  3  4  1  0  0  0  0
  3 24  1  0  0  0  0
  3 25  1  0  0  0  0
  4  8  1  0  0  0  0
  4  5  1  0  0  0  0
  5  6  2  0  0  0  0
  5 26  1  0  0  0  0
  6  7  1  0  0  0  0
  6 27  1  0  0  0  0
  7  8  2  0  0  0  0
  7 28  1  0  0  0  0
  9 10  1  0  0  0  0
  9 29  1  0  0  0  0
  9 39  1  0  0  0  0
 10 11  1  0  0  0  0
 10 30  1  0  0  0  0
 10 31  1  0  0  0  0
 11 12  2  0  0  0  0
 11 13  1  0  0  0  0
 13 19  1  0  0  0  0
 13 14  1  0  0  0  0
 14 15  1  0  0  0  0
 14 32  1  0  0  0  0
 14 33  1  0  0  0  0
 15 16  1  0  0  0  0
 15 34  1  0  0  0  0
 15 35  1  0  0  0  0
 16 17  1  0  0  0  0
 16 36  1  0  0  0  0
 17 18  2  0  0  0  0
 17 19  1  0  0  0  0
 19 37  1  0  0  0  0
 19 38  1  0  0  0  0
M  CHG  1   9   1
M  END
> <s_m_source_file>
AV-unprocessed.smi

> <i_m_source_file_index>
775

> <i_lp_mmshare_version>
43012

> <i_f3d_flags>
0

> <s_epik_input>
bjFbY0hdW2NIXVtjSF1uMVtDSDJdW0NAQEhdKFtDSDNdKVtOSF1bQ0gyXUMoPU8pTjJbQ0gyXVtDSDJdW05IXUMoPU8pW0NIMl0y

> <s_epik_cmdline>
J2VwaWtfcHl0aG9uJywgJy1waCcsICc3LjAnLCAnLXRuJywgJzgnLCAnLW1hJywgJzIwMCcsICctbWV0YWxfYmluZGluZycsICctaW1hZScsICc8aW5maWxlLm1hZT4nLCAnLW9tYWUnLCAnPG91dGZpbGUubWFlPic=

> <r_lp_tautomer_probability>
1

> <r_epik_Ionization_Penalty>
0.165651

> <r_epik_Ionization_Penalty_Charging>
0.165647

> <r_epik_Ionization_Penalty_Neutral>
3.4358e-06

> <r_epik_State_Penalty>
0.15499

> <r_epik_Charging_Adjusted_Penalty>
0.320637

> <i_epik_Tot_Q>
1

> <i_epik_Tot_abs_Q>
1

> <r_epik_Metal_State_Penalty>
0.155003

> <b_epik_Metal_Only>
0

> <s_lp_Force_Field>
OPLS_2005

> <r_lp_Energy>
22.1436

> <b_lp_Chiralities_Consistent>
1

> <s_lp_Variant>
AV-unprocessed.smi:775-2

> <Gold.Version>
5.8.1

> <Gold.Id.Protein>
6NUR|6NUR_protein|mol2

> <Gold.PLP.Fitness>
42.9826

> <Gold.PLP.PLP>
-29.8961

> <Gold.PLP.part.hbond>
-2.8632

> <Gold.PLP.part.metal>
0.0000

> <Gold.PLP.part.buried>
-3.2678

> <Gold.PLP.part.nonpolar>
-25.3257

> <Gold.PLP.part.repulsive>
1.9103

> <Gold.PLP.ligand.clash>
0.0000

> <Gold.PLP.ligand.torsion>
0.4384

> <Gold.PLP.Chemscore.Hbond>
2.6477

> <Gold.PLP.Chemscore.CHOScore>
1.9968

> <Gold.PLP.Chemscore.Metal>
0.0000

> <Gold.Chemscore.Hbonds>
donor molecule, donor type, donor heavy atom, donor atom, acceptor molecule, acceptor atom, score
      L1  H     9    39       P1  7948  2.00
      P1  H  7954  7966       L1    12  0.74
      L1  C     5    26       P1 10747  0.94
      L1  C     7    28       P1 10952  0.91

> <Gold.PLP.Chemscore.Internal.Correction>
0.0301

> <Gold.Rescore>
     Score         DG    S(hbond)    S(metal)    S(lipo)     H(rot)  DE(clash)    DE(int)     intcor
     11.73     -12.82       1.87        0.00      57.04       2.18       0.82       0.28       ----

> <Gold.Chemscore.Fitness>
11.7252

> <Gold.Chemscore.DG>
-12.8246

> <Gold.Chemscore.ZeroCoef>
-5.4800

> <Gold.Chemscore.Hbond>
1.8740

> <Gold.Chemscore.Metal>
0.0000

> <Gold.Chemscore.Lipo>
57.0387

> <Gold.Chemscore.Internal_Hbond>
0.0000

> <Gold.Chemscore.DEClash>
0.8156

> <Gold.Chemscore.DEInternal>
0.2837

> <Gold.Chemscore.Rot>
2.1828

> <Gold.Chemscore.Internal.Correction>
   9.000000E+99

> <Gold.Chemscore.Hbonds>
donor molecule, donor type, donor heavy atom, donor atom, acceptor molecule, acceptor atom, score
      L1  H     9    39       P1  7948  0.96
      P1  H  7954  7966       L1    12  0.70

> <Gold.Chemscore.Hbond.Weighted>
-6.2590

> <Gold.Chemscore.Metal.Weighted>
-0.0000

> <Gold.Chemscore.Lipo.Weighted>
-6.6735

> <Gold.Chemscore.Internal_Hbond.Weighted>
0.0000

> <Gold.Chemscore.DEClash.Weighted>
0.8156

> <Gold.Chemscore.DEInternal.Weighted>
0.2837

> <Gold.Chemscore.Rot.Weighted>
5.5880

> <Gold.Chemscore.Internal.Correction.Weighted>
   9.000000E+99

> <Gold.Protein.RotatedTorsions>
[ 6907 6896 6895 6894 ] final   95.60 input  -60.11 | X-H torsion
[ 7974 7965 7964 7962 ] final  -49.46 input  175.53 | X-H torsion
[ 8008 7997 7996 7995 ] final   -4.39 input   59.86 | X-H torsion
[ 10167 10162 10161 10158 ] final -100.78 input  -65.29 | X-H torsion
[ 10718 10713 10712 10709 ] final   20.68 input   66.30 | X-H torsion
[ 10763 10752 10751 10750 ] final  102.87 input  -60.55 | X-H torsion
[ 11005 11000 10999 10996 ] final -117.34 input  -57.11 | X-H torsion

> <Gold.Protein.ActiveResidues>
 VAL166  LYS551  ARG553  GLY616  TRP617  ASP618  TYR619  PRO620  LYS621  CYS622 
 ASP623  PHE694  ASN695  SER759  ASP760  ASP761  ALA762  ILE779  LEU786  VAL792 
 PHE793  MET794  SER795  GLU796  ALA797  LYS798  CYS799  TRP800  GLU811  SER814 

> <Gold.Protein.RotatedAtoms>
  152.5442  134.1016  159.8319 H   0  0  0  0  0  0  0  0  0  0  0  0  # atno 6907 bound_to 6896
  151.1093  133.5178  159.2614 H   0  0  0  0  0  0  0  0  0  0  0  0  # atno 6908 bound_to 6896
  151.1903  135.0409  159.8884 H   0  0  0  0  0  0  0  0  0  0  0  0  # atno 6909 bound_to 6896
  145.9403  140.7668  142.9555 H   0  0  0  0  0  0  0  0  0  0  0  0  # atno 7974 bound_to 7965
  154.6148  140.2485  155.7624 H   0  0  0  0  0  0  0  0  0  0  0  0  # atno 8008 bound_to 7997
  156.2392  140.2939  156.0346 H   0  0  0  0  0  0  0  0  0  0  0  0  # atno 8009 bound_to 7997
  155.1994  140.0394  157.2905 H   0  0  0  0  0  0  0  0  0  0  0  0  # atno 8010 bound_to 7997
  140.2482  143.3491  152.0739 H   0  0  0  0  0  0  0  0  0  0  0  0  # atno 10167 bound_to 10162
  157.1279  130.6578  149.5943 H   0  0  0  0  0  0  0  0  0  0  0  0  # atno 10718 bound_to 10713
  153.3452  135.3996  155.1603 H   0  0  0  0  0  0  0  0  0  0  0  0  # atno 10763 bound_to 10752
  154.8651  135.3643  154.5294 H   0  0  0  0  0  0  0  0  0  0  0  0  # atno 10764 bound_to 10752
  153.5742  135.7078  153.5551 H   0  0  0  0  0  0  0  0  0  0  0  0  # atno 10765 bound_to 10752
  141.0361  133.9907  157.3068 H   0  0  0  0  0  0  0  0  0  0  0  0  # atno 11005 bound_to 11000
  144.6778  140.2269  143.7360 LP  0  0  0  0  0  0  0  0  0  0  0  0  # atno 17320 bound_to 7965
  145.8309  139.2085  143.1883 LP  0  0  0  0  0  0  0  0  0  0  0  0  # atno 17321 bound_to 7965
  139.5055  144.6795  151.6044 LP  0  0  0  0  0  0  0  0  0  0  0  0  # atno 17342 bound_to 10162
  140.6061  143.9522  150.6419 LP  0  0  0  0  0  0  0  0  0  0  0  0  # atno 17343 bound_to 10162
  155.9814  130.4821  150.6827 LP  0  0  0  0  0  0  0  0  0  0  0  0  # atno 17370 bound_to 10713
  157.4419  131.0862  151.0935 LP  0  0  0  0  0  0  0  0  0  0  0  0  # atno 17371 bound_to 10713
  139.9242  135.0201  156.8173 LP  0  0  0  0  0  0  0  0  0  0  0  0  # atno 17394 bound_to 11000
  140.6319  133.9897  155.7666 LP  0  0  0  0  0  0  0  0  0  0  0  0  # atno 17395 bound_to 11000

$$$$
