AV-unprocessed.smi:862|AV-procd|sdf|3979|dock8
  -GOLD-   22720 1453D 1   1.00000     0.00000
 Structure written by MMmdl.
 44 46  0  0  0  0  0  0  0  0  2 V2000
  143.3132  134.2114  153.1776 N   0  0  0  0  0  0  0  0  0  0  0  0
  143.0528  135.3258  153.8680 C   0  0  0  0  0  0  0  0  0  0  0  0
  142.4577  135.2793  154.9429 O   0  0  0  0  0  0  0  0  0  0  0  0
  143.5276  136.4725  153.3189 N   0  0  0  0  0  0  0  0  0  0  0  0
  143.5824  137.7897  153.9746 C   0  0  0  0  0  0  0  0  0  0  0  0
  145.0397  138.0798  154.3778 C   0  0  0  0  0  0  0  0  0  0  0  0
  145.9806  138.0205  153.1559 C   0  0  0  0  0  0  0  0  0  0  0  0
  147.3854  138.1740  153.5935 N   0  3  0  0  0  0  0  0  0  0  0  0
  147.9331  139.5473  153.5274 C   0  0  1  0  0  0  0  0  0  0  0  0
  146.8445  140.6247  153.4848 C   0  0  0  0  0  0  0  0  0  0  0  0
  147.5122  141.8965  154.0271 C   0  0  0  0  0  0  0  0  0  0  0  0
  148.7761  141.4437  154.7757 C   0  0  0  0  0  0  0  0  0  0  0  0
  148.7249  139.9090  154.7881 C   0  0  2  0  0  0  0  0  0  0  0  0
  150.0359  139.2800  154.8421 N   0  0  0  0  0  0  0  0  0  0  0  0
  150.5953  138.4467  153.8816 C   0  0  0  0  0  0  0  0  0  0  0  0
  151.8469  138.1002  154.3383 C   0  0  0  0  0  0  0  0  0  0  0  0
  152.0807  138.7073  155.5690 N   0  0  0  0  0  0  0  0  0  0  0  0
  150.9669  139.3880  155.8027 C   0  0  0  0  0  0  0  0  0  0  0  0
  145.7740  136.7060  152.3684 C   0  0  0  0  0  0  0  0  0  0  0  0
  144.2837  136.4731  152.0605 C   0  0  0  0  0  0  0  0  0  0  0  0
  142.9986  133.3200  153.5332 H   0  0  0  0  0  0  0  0  0  0  0  0
  143.8301  134.2599  152.3120 H   0  0  0  0  0  0  0  0  0  0  0  0
  143.2293  138.5515  153.2781 H   0  0  0  0  0  0  0  0  0  0  0  0
  142.9359  137.8749  154.8476 H   0  0  0  0  0  0  0  0  0  0  0  0
  145.1035  139.0603  154.8511 H   0  0  0  0  0  0  0  0  0  0  0  0
  145.3560  137.3529  155.1277 H   0  0  0  0  0  0  0  0  0  0  0  0
  145.7244  138.8593  152.5074 H   0  0  0  0  0  0  0  0  0  0  0  0
  147.4589  137.8621  154.5513 H   0  0  0  0  0  0  0  0  0  0  0  0
  148.5775  139.6581  152.6549 H   0  0  0  0  0  0  0  0  0  0  0  0
  146.4363  140.7686  152.4839 H   0  0  0  0  0  0  0  0  0  0  0  0
  146.0173  140.3465  154.1399 H   0  0  0  0  0  0  0  0  0  0  0  0
  147.7832  142.5665  153.2103 H   0  0  0  0  0  0  0  0  0  0  0  0
  146.8326  142.4425  154.6820 H   0  0  0  0  0  0  0  0  0  0  0  0
  149.6550  141.8053  154.2409 H   0  0  0  0  0  0  0  0  0  0  0  0
  148.8232  141.8523  155.7856 H   0  0  0  0  0  0  0  0  0  0  0  0
  148.1571  139.5952  155.6663 H   0  0  0  0  0  0  0  0  0  0  0  0
  150.0727  138.1749  152.9762 H   0  0  0  0  0  0  0  0  0  0  0  0
  152.5921  137.4678  153.8785 H   0  0  0  0  0  0  0  0  0  0  0  0
  150.8279  139.9828  156.6937 H   0  0  0  0  0  0  0  0  0  0  0  0
  146.3352  136.7227  151.4342 H   0  0  0  0  0  0  0  0  0  0  0  0
  146.1593  135.8630  152.9448 H   0  0  0  0  0  0  0  0  0  0  0  0
  144.1589  135.5476  151.4963 H   0  0  0  0  0  0  0  0  0  0  0  0
  143.9058  137.2650  151.4121 H   0  0  0  0  0  0  0  0  0  0  0  0
  147.9557  137.5708  153.0179 H   0  0  0  0  0  0  0  0  0  0  0  0
  1  2  1  0  0  0  0
  1 21  1  0  0  0  0
  1 22  1  0  0  0  0
  2  3  2  0  0  0  0
  2  4  1  0  0  0  0
  4 20  1  0  0  0  0
  4  5  1  0  0  0  0
  5  6  1  0  0  0  0
  5 23  1  0  0  0  0
  5 24  1  0  0  0  0
  6  7  1  0  0  0  0
  6 25  1  0  0  0  0
  6 26  1  0  0  0  0
  7  8  1  0  0  0  0
  7 19  1  0  0  0  0
  7 27  1  0  0  0  0
  8  9  1  0  0  0  0
  8 28  1  0  0  0  0
  8 44  1  0  0  0  0
  9 13  1  0  0  0  0
  9 10  1  0  0  0  0
  9 29  1  0  0  0  0
 10 11  1  0  0  0  0
 10 30  1  0  0  0  0
 10 31  1  0  0  0  0
 11 12  1  0  0  0  0
 11 32  1  0  0  0  0
 11 33  1  0  0  0  0
 12 13  1  0  0  0  0
 12 34  1  0  0  0  0
 12 35  1  0  0  0  0
 13 14  1  0  0  0  0
 13 36  1  0  0  0  0
 14 18  1  0  0  0  0
 14 15  1  0  0  0  0
 15 16  2  0  0  0  0
 15 37  1  0  0  0  0
 16 17  1  0  0  0  0
 16 38  1  0  0  0  0
 17 18  2  0  0  0  0
 18 39  1  0  0  0  0
 19 20  1  0  0  0  0
 19 40  1  0  0  0  0
 19 41  1  0  0  0  0
 20 42  1  0  0  0  0
 20 43  1  0  0  0  0
M  CHG  1   8   1
M  END
> <s_m_source_file>
AV-unprocessed.smi

> <i_m_source_file_index>
862

> <i_lp_mmshare_version>
43012

> <i_f3d_flags>
0

> <s_epik_input>
W05IMl1DKD1PKU4xW0NIMl1bQ0gyXVtDSF0oW0NIMl1bQ0gyXTEpW05IXVtDQEBIXTJbQ0gyXVtDSDJdW0NIMl1bQ0BIXTJuM1tjSF1bY0hdbltjSF0z

> <s_epik_cmdline>
J2VwaWtfcHl0aG9uJywgJy1waCcsICc3LjAnLCAnLXRuJywgJzgnLCAnLW1hJywgJzIwMCcsICctbWV0YWxfYmluZGluZycsICctaW1hZScsICc8aW5maWxlLm1hZT4nLCAnLW9tYWUnLCAnPG91dGZpbGUubWFlPic=

> <r_lp_tautomer_probability>
1

> <r_epik_Ionization_Penalty>
0.0731506

> <r_epik_Ionization_Penalty_Charging>
0.0731

> <r_epik_Ionization_Penalty_Neutral>
5.05966e-05

> <r_epik_State_Penalty>
0.128895

> <r_epik_Charging_Adjusted_Penalty>
0.201995

> <i_epik_Tot_Q>
1

> <i_epik_Tot_abs_Q>
1

> <r_epik_Metal_State_Penalty>
0.113934

> <b_epik_Metal_Only>
0

> <s_lp_Force_Field>
OPLS_2005

> <r_lp_Energy>
55.4297

> <b_lp_Chiralities_Consistent>
1

> <s_lp_Variant>
AV-unprocessed.smi:862-4

> <Gold.Version>
5.8.1

> <Gold.Id.Protein>
6NUR|6NUR_protein|mol2

> <Gold.PLP.Fitness>
41.7939

> <Gold.PLP.PLP>
-31.1474

> <Gold.PLP.part.hbond>
-3.0000

> <Gold.PLP.part.metal>
0.0000

> <Gold.PLP.part.buried>
-1.4250

> <Gold.PLP.part.nonpolar>
-26.9095

> <Gold.PLP.part.repulsive>
0.0956

> <Gold.PLP.ligand.clash>
1.7015

> <Gold.PLP.ligand.torsion>
1.1325

> <Gold.PLP.Chemscore.Hbond>
3.0811

> <Gold.PLP.Chemscore.CHOScore>
1.7729

> <Gold.PLP.Chemscore.Metal>
0.0000

> <Gold.Chemscore.Hbonds>
donor molecule, donor type, donor heavy atom, donor atom, acceptor molecule, acceptor atom, score
      L1  H     1    21       P1 10957  1.00
      L1  H     8    44       P1  7948  2.00
      P1  H 11000 11005       L1     3  0.08
      L1  C    15    37       P1  7948  1.00
      L1  C    15    37       P1  7949  0.02
      L1  C    15    37       P1  7957  0.61

> <Gold.PLP.Chemscore.Internal.Correction>
0.0508

> <Gold.Rescore>
     Score         DG    S(hbond)    S(metal)    S(lipo)     H(rot)  DE(clash)    DE(int)     intcor
     15.76     -17.02       2.40        0.00      65.96       1.64       0.06       1.19       ----

> <Gold.Chemscore.Fitness>
15.7636

> <Gold.Chemscore.DG>
-17.0198

> <Gold.Chemscore.ZeroCoef>
-5.4800

> <Gold.Chemscore.Hbond>
2.4023

> <Gold.Chemscore.Metal>
0.0000

> <Gold.Chemscore.Lipo>
65.9607

> <Gold.Chemscore.Internal_Hbond>
0.0000

> <Gold.Chemscore.DEClash>
0.0621

> <Gold.Chemscore.DEInternal>
1.1941

> <Gold.Chemscore.Rot>
1.6411

> <Gold.Chemscore.Internal.Correction>
   9.000000E+99

> <Gold.Chemscore.Hbonds>
donor molecule, donor type, donor heavy atom, donor atom, acceptor molecule, acceptor atom, score
      L1  H     1    21       P1 10957  0.93
      L1  H     8    44       P1  7948  0.93
      P1  H 11000 11005       L1     3  0.09

> <Gold.Chemscore.Hbond.Weighted>
-8.0238

> <Gold.Chemscore.Metal.Weighted>
-0.0000

> <Gold.Chemscore.Lipo.Weighted>
-7.7174

> <Gold.Chemscore.Internal_Hbond.Weighted>
0.0000

> <Gold.Chemscore.DEClash.Weighted>
0.0621

> <Gold.Chemscore.DEInternal.Weighted>
1.1941

> <Gold.Chemscore.Rot.Weighted>
4.2013

> <Gold.Chemscore.Internal.Correction.Weighted>
   9.000000E+99

> <Gold.Protein.RotatedTorsions>
[ 6907 6896 6895 6894 ] final  127.00 input  -60.11 | X-H torsion
[ 7974 7965 7964 7962 ] final  119.67 input  175.53 | X-H torsion
[ 8008 7997 7996 7995 ] final  174.77 input   59.86 | X-H torsion
[ 10167 10162 10161 10158 ] final   98.95 input  -65.29 | X-H torsion
[ 10718 10713 10712 10709 ] final  -17.82 input   66.30 | X-H torsion
[ 10763 10752 10751 10750 ] final -115.09 input  -60.55 | X-H torsion
[ 11005 11000 10999 10996 ] final  -11.55 input  -57.11 | X-H torsion

> <Gold.Protein.ActiveResidues>
 VAL166  LYS551  ARG553  GLY616  TRP617  ASP618  TYR619  PRO620  LYS621  CYS622 
 ASP623  PHE694  ASN695  SER759  ASP760  ASP761  ALA762  ILE779  LEU786  VAL792 
 PHE793  MET794  SER795  GLU796  ALA797  LYS798  CYS799  TRP800  GLU811  SER814 

> <Gold.Protein.RotatedAtoms>
  152.3852  133.6602  159.6193 H   0  0  0  0  0  0  0  0  0  0  0  0  # atno 6907 bound_to 6896
  150.7773  133.9047  159.3360 H   0  0  0  0  0  0  0  0  0  0  0  0  # atno 6908 bound_to 6896
  151.6844  135.0958  160.0273 H   0  0  0  0  0  0  0  0  0  0  0  0  # atno 6909 bound_to 6896
  145.1403  139.3272  143.4619 H   0  0  0  0  0  0  0  0  0  0  0  0  # atno 7974 bound_to 7965
  156.0940  140.1426  156.9555 H   0  0  0  0  0  0  0  0  0  0  0  0  # atno 8008 bound_to 7997
  154.4659  140.0926  156.7066 H   0  0  0  0  0  0  0  0  0  0  0  0  # atno 8009 bound_to 7997
  155.4873  140.3447  155.4351 H   0  0  0  0  0  0  0  0  0  0  0  0  # atno 8010 bound_to 7997
  139.7662  144.6938  151.0221 H   0  0  0  0  0  0  0  0  0  0  0  0  # atno 10167 bound_to 10162
  156.5682  130.4743  149.6375 H   0  0  0  0  0  0  0  0  0  0  0  0  # atno 10718 bound_to 10713
  154.8467  135.4394  154.1608 H   0  0  0  0  0  0  0  0  0  0  0  0  # atno 10763 bound_to 10752
  153.2745  135.6948  153.7453 H   0  0  0  0  0  0  0  0  0  0  0  0  # atno 10764 bound_to 10752
  153.6680  135.3423  155.3121 H   0  0  0  0  0  0  0  0  0  0  0  0  # atno 10765 bound_to 10752
  140.7564  133.8550  155.9088 H   0  0  0  0  0  0  0  0  0  0  0  0  # atno 11005 bound_to 11000
  146.3505  140.1438  142.8594 LP  0  0  0  0  0  0  0  0  0  0  0  0  # atno 17320 bound_to 7965
  145.0539  140.9038  143.4979 LP  0  0  0  0  0  0  0  0  0  0  0  0  # atno 17321 bound_to 7965
  140.7811  143.4640  151.0237 LP  0  0  0  0  0  0  0  0  0  0  0  0  # atno 17342 bound_to 10162
  139.8325  143.7671  152.3180 LP  0  0  0  0  0  0  0  0  0  0  0  0  # atno 17343 bound_to 10162
  156.2738  130.7032  151.1837 LP  0  0  0  0  0  0  0  0  0  0  0  0  # atno 17370 bound_to 10713
  157.7354  131.0573  150.5473 LP  0  0  0  0  0  0  0  0  0  0  0  0  # atno 17371 bound_to 10713
  140.9703  134.1539  157.4581 LP  0  0  0  0  0  0  0  0  0  0  0  0  # atno 17394 bound_to 11000
  139.8778  134.9976  156.5856 LP  0  0  0  0  0  0  0  0  0  0  0  0  # atno 17395 bound_to 11000

$$$$
