AV-unprocessed.smi:693|AV-procd|sdf|3374|dock2
  -GOLD-   22720 0353D 1   1.00000     0.00000
 Structure written by MMmdl.
 47 48  0  0  0  0  0  0  0  0  2 V2000
  151.0582  142.9288  157.7936 C   0  0  0  0  0  0  0  0  0  0  0  0
  150.6639  141.7649  156.9095 C   0  0  0  0  0  0  0  0  0  0  0  0
  151.1859  140.4668  157.0957 C   0  0  0  0  0  0  0  0  0  0  0  0
  150.7764  139.4296  156.2321 C   0  0  0  0  0  0  0  0  0  0  0  0
  149.8551  139.7111  155.1995 C   0  0  0  0  0  0  0  0  0  0  0  0
  149.3936  138.6192  154.2546 C   0  0  0  0  0  0  0  0  0  0  0  0
  147.8605  138.5239  154.1833 C   0  0  0  0  0  0  0  0  0  0  0  0
  147.4050  137.1416  154.2674 N   0  0  0  0  0  0  0  0  0  0  0  0
  146.4184  136.6014  153.5316 C   0  0  0  0  0  0  0  0  0  0  0  0
  145.7844  137.2612  152.7064 O   0  0  0  0  0  0  0  0  0  0  0  0
  146.1697  135.2918  153.7881 N   0  0  0  0  0  0  0  0  0  0  0  0
  146.8589  134.4554  154.7840 C   0  0  0  0  0  0  0  0  0  0  0  0
  147.8390  133.5312  154.0437 C   0  0  0  0  0  0  0  0  0  0  0  0
  147.1050  132.6813  152.9889 C   0  0  0  0  0  0  0  0  0  0  0  0
  146.2031  133.5364  152.0617 C   0  0  1  0  0  0  0  0  0  0  0  0
  145.3312  132.6904  151.1051 C   0  0  0  0  0  0  0  0  0  0  0  0
  144.4264  133.5211  150.1886 C   0  0  0  0  0  0  0  0  0  0  0  0
  143.5255  132.8567  149.4608 N   0  0  0  0  0  0  0  0  0  0  0  0
  144.5515  134.7418  150.1186 O   0  0  0  0  0  0  0  0  0  0  0  0
  145.3182  134.4756  152.9133 C   0  0  0  0  0  0  0  0  0  0  0  0
  149.3665  141.0279  155.0618 C   0  0  0  0  0  0  0  0  0  0  0  0
  149.7830  141.9938  155.9098 N   0  3  0  0  0  0  0  0  0  0  0  0
  151.5988  142.5842  158.6758 H   0  0  0  0  0  0  0  0  0  0  0  0
  150.1750  143.4734  158.1289 H   0  0  0  0  0  0  0  0  0  0  0  0
  151.7018  143.6177  157.2462 H   0  0  0  0  0  0  0  0  0  0  0  0
  151.8916  140.2657  157.8887 H   0  0  0  0  0  0  0  0  0  0  0  0
  151.1665  138.4307  156.3630 H   0  0  0  0  0  0  0  0  0  0  0  0
  149.8075  138.8188  153.2654 H   0  0  0  0  0  0  0  0  0  0  0  0
  149.8136  137.6648  154.5756 H   0  0  0  0  0  0  0  0  0  0  0  0
  147.4145  139.0758  155.0111 H   0  0  0  0  0  0  0  0  0  0  0  0
  147.4878  138.9832  153.2661 H   0  0  0  0  0  0  0  0  0  0  0  0
  147.8748  136.5453  154.9331 H   0  0  0  0  0  0  0  0  0  0  0  0
  147.3882  135.0207  155.5509 H   0  0  0  0  0  0  0  0  0  0  0  0
  146.1224  133.8592  155.3247 H   0  0  0  0  0  0  0  0  0  0  0  0
  148.6101  134.1312  153.5587 H   0  0  0  0  0  0  0  0  0  0  0  0
  148.3522  132.8817  154.7531 H   0  0  0  0  0  0  0  0  0  0  0  0
  147.8415  132.1252  152.4097 H   0  0  0  0  0  0  0  0  0  0  0  0
  146.4913  131.9383  153.5001 H   0  0  0  0  0  0  0  0  0  0  0  0
  146.8529  134.1675  151.4525 H   0  0  0  0  0  0  0  0  0  0  0  0
  145.9668  132.0577  150.4844 H   0  0  0  0  0  0  0  0  0  0  0  0
  144.7068  132.0090  151.6849 H   0  0  0  0  0  0  0  0  0  0  0  0
  142.9071  133.3598  148.8413 H   0  0  0  0  0  0  0  0  0  0  0  0
  143.4666  131.8513  149.5325 H   0  0  0  0  0  0  0  0  0  0  0  0
  144.6279  133.8916  153.5238 H   0  0  0  0  0  0  0  0  0  0  0  0
  144.6869  135.0882  152.2677 H   0  0  0  0  0  0  0  0  0  0  0  0
  148.6592  141.3354  154.3049 H   0  0  0  0  0  0  0  0  0  0  0  0
  149.4162  142.9384  155.7899 H   0  0  0  0  0  0  0  0  0  0  0  0
  1  2  1  0  0  0  0
  1 23  1  0  0  0  0
  1 24  1  0  0  0  0
  1 25  1  0  0  0  0
  2 22  1  0  0  0  0
  2  3  2  0  0  0  0
  3  4  1  0  0  0  0
  3 26  1  0  0  0  0
  4  5  2  0  0  0  0
  4 27  1  0  0  0  0
  5  6  1  0  0  0  0
  5 21  1  0  0  0  0
  6  7  1  0  0  0  0
  6 28  1  0  0  0  0
  6 29  1  0  0  0  0
  7  8  1  0  0  0  0
  7 30  1  0  0  0  0
  7 31  1  0  0  0  0
  8  9  1  0  0  0  0
  8 32  1  0  0  0  0
  9 10  2  0  0  0  0
  9 11  1  0  0  0  0
 11 20  1  0  0  0  0
 11 12  1  0  0  0  0
 12 13  1  0  0  0  0
 12 33  1  0  0  0  0
 12 34  1  0  0  0  0
 13 14  1  0  0  0  0
 13 35  1  0  0  0  0
 13 36  1  0  0  0  0
 14 15  1  0  0  0  0
 14 37  1  0  0  0  0
 14 38  1  0  0  0  0
 15 16  1  0  0  0  0
 15 20  1  0  0  0  0
 15 39  1  0  0  0  0
 16 17  1  0  0  0  0
 16 40  1  0  0  0  0
 16 41  1  0  0  0  0
 17 18  1  0  0  0  0
 17 19  2  0  0  0  0
 18 42  1  0  0  0  0
 18 43  1  0  0  0  0
 20 44  1  0  0  0  0
 20 45  1  0  0  0  0
 21 22  2  0  0  0  0
 21 46  1  0  0  0  0
 22 47  1  0  0  0  0
M  CHG  1  22   1
M  END
> <s_m_source_file>
AV-unprocessed.smi

> <i_m_source_file_index>
693

> <i_lp_mmshare_version>
43012

> <i_f3d_flags>
0

> <s_epik_input>
W0NIM11jMVtjSF1bY0hdYyhbY0hdbjEpW0NIMl1bQ0gyXVtOSF1DKD1PKU4yW0NIMl1bQ0gyXVtDSDJdW0NASF0oW0NIMl0yKVtDSDJdQyg9TylbTkgyXQ==

> <s_epik_cmdline>
J2VwaWtfcHl0aG9uJywgJy1waCcsICc3LjAnLCAnLXRuJywgJzgnLCAnLW1hJywgJzIwMCcsICctbWV0YWxfYmluZGluZycsICctaW1hZScsICc8aW5maWxlLm1hZT4nLCAnLW9tYWUnLCAnPG91dGZpbGUubWFlPic=

> <r_epik_Ionization_Penalty>
1.41666

> <r_epik_Ionization_Penalty_Charging>
1.4166

> <r_epik_Ionization_Penalty_Neutral>
5.77403e-05

> <r_epik_State_Penalty>
1.50002

> <r_epik_Charging_Adjusted_Penalty>
2.91662

> <i_epik_Tot_Q>
1

> <i_epik_Tot_abs_Q>
1

> <r_epik_Metal_State_Penalty>
1.55252

> <b_epik_Metal_Only>
0

> <s_lp_Force_Field>
OPLS_2005

> <r_lp_Energy>
32.8943

> <b_lp_Chiralities_Consistent>
1

> <s_lp_Variant>
AV-unprocessed.smi:693-3

> <Gold.Version>
5.8.1

> <Gold.Id.Protein>
6NUR|6NUR_protein|mol2

> <Gold.PLP.Fitness>
43.0377

> <Gold.PLP.PLP>
-35.2069

> <Gold.PLP.part.hbond>
-3.0775

> <Gold.PLP.part.metal>
0.0000

> <Gold.PLP.part.buried>
-1.2576

> <Gold.PLP.part.nonpolar>
-30.7364

> <Gold.PLP.part.repulsive>
0.6531

> <Gold.PLP.ligand.clash>
0.0000

> <Gold.PLP.ligand.torsion>
0.6198

> <Gold.PLP.Chemscore.Hbond>
3.0000

> <Gold.PLP.Chemscore.CHOScore>
0.0000

> <Gold.PLP.Chemscore.Metal>
0.0000

> <Gold.Chemscore.Hbonds>
donor molecule, donor type, donor heavy atom, donor atom, acceptor molecule, acceptor atom, score
      L1  H    18    42       P1 10186  0.18
      L1  H    22    47       P1  8028  2.00

> <Gold.PLP.Chemscore.Internal.Correction>
0.0704

> <Gold.Rescore>
     Score         DG    S(hbond)    S(metal)    S(lipo)     H(rot)  DE(clash)    DE(int)     intcor
     14.82     -15.83       1.95        0.00      83.78       2.34       0.24       0.77       ----

> <Gold.Chemscore.Fitness>
14.8203

> <Gold.Chemscore.DG>
-15.8267

> <Gold.Chemscore.ZeroCoef>
-5.4800

> <Gold.Chemscore.Hbond>
1.9530

> <Gold.Chemscore.Metal>
0.0000

> <Gold.Chemscore.Lipo>
83.7789

> <Gold.Chemscore.Internal_Hbond>
0.0000

> <Gold.Chemscore.DEClash>
0.2379

> <Gold.Chemscore.DEInternal>
0.7685

> <Gold.Chemscore.Rot>
2.3354

> <Gold.Chemscore.Internal.Correction>
   9.000000E+99

> <Gold.Chemscore.Hbonds>
donor molecule, donor type, donor heavy atom, donor atom, acceptor molecule, acceptor atom, score
      L1  H    18    42       P1 10186  0.18
      L1  H    22    47       P1  8028  1.00

> <Gold.Chemscore.Hbond.Weighted>
-6.5231

> <Gold.Chemscore.Metal.Weighted>
-0.0000

> <Gold.Chemscore.Lipo.Weighted>
-9.8021

> <Gold.Chemscore.Internal_Hbond.Weighted>
0.0000

> <Gold.Chemscore.DEClash.Weighted>
0.2379

> <Gold.Chemscore.DEInternal.Weighted>
0.7685

> <Gold.Chemscore.Rot.Weighted>
5.9785

> <Gold.Chemscore.Internal.Correction.Weighted>
   9.000000E+99

> <Gold.Protein.RotatedTorsions>
[ 6907 6896 6895 6894 ] final  -19.51 input  -60.11 | X-H torsion
[ 7974 7965 7964 7962 ] final   -0.37 input  175.53 | X-H torsion
[ 8008 7997 7996 7995 ] final   70.75 input   59.86 | X-H torsion
[ 10167 10162 10161 10158 ] final   73.57 input  -65.29 | X-H torsion
[ 10718 10713 10712 10709 ] final -163.29 input   66.30 | X-H torsion
[ 10763 10752 10751 10750 ] final  176.93 input  -60.55 | X-H torsion
[ 11005 11000 10999 10996 ] final -154.48 input  -57.11 | X-H torsion

> <Gold.Protein.ActiveResidues>
 VAL166  LYS551  ARG553  GLY616  TRP617  ASP618  TYR619  PRO620  LYS621  CYS622 
 ASP623  PHE694  ASN695  SER759  ASP760  ASP761  ALA762  ILE779  LEU786  VAL792 
 PHE793  MET794  SER795  GLU796  ALA797  LYS798  CYS799  TRP800  GLU811  SER814 

> <Gold.Protein.RotatedAtoms>
  151.2620  135.0657  159.9101 H   0  0  0  0  0  0  0  0  0  0  0  0  # atno 6907 bound_to 6896
  152.5364  134.0221  159.7997 H   0  0  0  0  0  0  0  0  0  0  0  0  # atno 6908 bound_to 6896
  151.0446  133.5627  159.2679 H   0  0  0  0  0  0  0  0  0  0  0  0  # atno 6909 bound_to 6896
  146.2428  140.1259  142.8339 H   0  0  0  0  0  0  0  0  0  0  0  0  # atno 7974 bound_to 7965
  155.7435  140.3490  155.5115 H   0  0  0  0  0  0  0  0  0  0  0  0  # atno 8008 bound_to 7997
  155.9072  140.1044  157.1327 H   0  0  0  0  0  0  0  0  0  0  0  0  # atno 8009 bound_to 7997
  154.4051  140.1275  156.4498 H   0  0  0  0  0  0  0  0  0  0  0  0  # atno 8010 bound_to 7997
  140.0230  144.5525  150.7567 H   0  0  0  0  0  0  0  0  0  0  0  0  # atno 10167 bound_to 10162
  156.6226  130.8896  151.2961 H   0  0  0  0  0  0  0  0  0  0  0  0  # atno 10718 bound_to 10713
  154.4877  135.2777  155.1521 H   0  0  0  0  0  0  0  0  0  0  0  0  # atno 10763 bound_to 10752
  154.3206  135.6210  153.5509 H   0  0  0  0  0  0  0  0  0  0  0  0  # atno 10764 bound_to 10752
  152.9883  135.5741  154.5291 H   0  0  0  0  0  0  0  0  0  0  0  0  # atno 10765 bound_to 10752
  140.6969  134.3980  157.5214 H   0  0  0  0  0  0  0  0  0  0  0  0  # atno 11005 bound_to 11000
  145.0367  140.8913  143.5077 LP  0  0  0  0  0  0  0  0  0  0  0  0  # atno 17320 bound_to 7965
  145.1332  139.2618  143.5528 LP  0  0  0  0  0  0  0  0  0  0  0  0  # atno 17321 bound_to 7965
  140.7334  143.2717  151.3868 LP  0  0  0  0  0  0  0  0  0  0  0  0  # atno 17342 bound_to 10162
  139.6127  144.1066  152.2315 LP  0  0  0  0  0  0  0  0  0  0  0  0  # atno 17343 bound_to 10162
  157.7223  130.9575  150.1489 LP  0  0  0  0  0  0  0  0  0  0  0  0  # atno 17370 bound_to 10713
  156.2299  130.3681  149.8457 LP  0  0  0  0  0  0  0  0  0  0  0  0  # atno 17371 bound_to 10713
  139.8907  134.8797  156.2354 LP  0  0  0  0  0  0  0  0  0  0  0  0  # atno 17394 bound_to 11000
  141.0196  133.7049  156.1245 LP  0  0  0  0  0  0  0  0  0  0  0  0  # atno 17395 bound_to 11000

$$$$
