#       Name:                AV-unprocessed.smi:439
#       Creating user name   scv26
#       Creation time:       Thu Mar 26 22:56:44 2020


#       File generated by GOLD software.
#

@<TRIPOS>MOLECULE
AV-unprocessed.smi:439
    56    57     1
SMALL
NO_CHARGES


@<TRIPOS>ATOM
      1 ****        -4.9588   1.7646  -0.7732 C.3            1 S1                 0.0000
      2 ****        -4.1041   2.1302  -1.9942 C.3            1 S1                 0.0000
      3 ****        -2.5938   1.9584  -1.7654 C.3            1 S1                 0.0000
      4 ****        -2.1492   0.4880  -1.6502 C.3            1 S1                 0.0000
      5 ****        -0.6878   0.3822  -1.4516 N.am           1 S1                 0.0000
      6 ****        -0.1645   0.4318  -0.1315 C.2            1 S1                 0.0000
      7 ****        -1.0402   0.5791   0.9352 N.pl3          1 S1                 0.0000
      8 ****         1.1746   0.3094   0.0752 C.2            1 S1                 0.0000
      9 ****         1.7439   0.3701   1.3672 N.am           1 S1                 0.0000
     10 ****         1.7694   1.7028   1.9958 C.3            1 S1                 0.0000
     11 ****         3.0886   2.4413   1.7193 C.3            1 S1                 0.0000
     12 ****         2.3284  -0.6913   2.0026 C.2            1 S1                 0.0000
     13 ****         3.0017  -0.5276   3.0231 O.2            1 S1                 0.0000
     14 ****         2.0929  -2.0259   1.4414 C.2            1 S1                 0.0000
     15 ****         3.0537  -2.9681   1.5822 C.2            1 S1                 0.0000
     16 ****         2.9257  -4.2637   1.1464 O.3            1 S1                 0.0000
     17 ****         1.6126  -4.6297   0.7384 C.3            1 S1                 0.0000
     18 ****         0.9470  -3.4786  -0.0281 C.3            1 S1                 0.0000
     19 ****         0.9163  -2.3141   0.7870 O.3            1 S1                 0.0000
     20 ****         2.0604   0.1710  -1.0893 C.2            1 S1                 0.0000
     21 ****         3.2790   0.0852  -0.9356 O.2            1 S1                 0.0000
     22 ****         1.4876   0.1488  -2.3212 N.pl3          1 S1                -1.0000
     23 ****         0.1450   0.2589  -2.5304 C.2            1 S1                 0.0000
     24 ****        -0.3334   0.2535  -3.6656 O.2            1 S1                 0.0000
     25 ****        -6.0121   1.9705  -0.9646 H              1 S1                 0.0000
     26 ****        -4.6613   2.3420   0.1024 H              1 S1                 0.0000
     27 ****        -4.8730   0.7070  -0.5244 H              1 S1                 0.0000
     28 ****        -4.4181   1.5397  -2.8556 H              1 S1                 0.0000
     29 ****        -4.3006   3.1709  -2.2535 H              1 S1                 0.0000
     30 ****        -2.0630   2.4208  -2.5985 H              1 S1                 0.0000
     31 ****        -2.2942   2.5124  -0.8750 H              1 S1                 0.0000
     32 ****        -2.6830  -0.0139  -0.8441 H              1 S1                 0.0000
     33 ****        -2.4682  -0.0580  -2.5394 H              1 S1                 0.0000
     34 ****        -2.0380   0.6519   0.7989 H              1 S1                 0.0000
     35 ****        -0.7077   0.6771   1.8837 H              1 S1                 0.0000
     36 ****         0.9486   2.3157   1.6219 H              1 S1                 0.0000
     37 ****         1.6015   1.6244   3.0712 H              1 S1                 0.0000
     38 ****         3.0829   3.4277   2.1830 H              1 S1                 0.0000
     39 ****         3.2446   2.5800   0.6490 H              1 S1                 0.0000
     40 ****         3.9462   1.8958   2.1132 H              1 S1                 0.0000
     41 ****         4.0023  -2.8081   2.0747 H              1 S1                 0.0000
     42 ****         1.6676  -5.5221   0.1145 H              1 S1                 0.0000
     43 ****         1.0237  -4.8894   1.6191 H              1 S1                 0.0000
     44 ****         1.4923  -3.2606  -0.9477 H              1 S1                 0.0000
     45 ****        -0.0718  -3.7425  -0.3118 H              1 S1                 0.0000
     46 ****         3.1267   0.3911   3.3976 LP             1 S1                 0.0000
     47 ****         3.4224  -1.3137   3.4759 LP             1 S1                 0.0000
     48 ****         3.2003  -4.8711   1.8918 LP             1 S1                 0.0000
     49 ****         3.5403  -4.3922   0.3681 LP             1 S1                 0.0000
     50 ****         0.6873  -1.5344   0.2042 LP             1 S1                 0.0000
     51 ****         0.2014  -2.4370   1.4754 LP             1 S1                 0.0000
     52 ****         3.6698   0.1095  -0.0155 LP             1 S1                 0.0000
     53 ****         3.8778  -0.0089  -1.7309 LP             1 S1                 0.0000
     54 ****         2.0833   0.0461  -3.1178 LP             1 S1                 0.0000
     55 ****        -1.3217   0.3387  -3.7921 LP             1 S1                 0.0000
     56 ****         0.2665   0.1639  -4.4606 LP             1 S1                 0.0000
@<TRIPOS>BOND
    1    1    2 1     
    2    1   25 1     
    3    1   26 1     
    4    1   27 1     
    5    2    3 1     
    6    2   28 1     
    7    2   29 1     
    8    3    4 1     
    9    3   30 1     
   10    3   31 1     
   11    4    5 1     
   12    4   32 1     
   13    4   33 1     
   14    5   23 am    
   15    5    6 1     
   16    6    7 1     
   17    6    8 2     
   18    7   34 1     
   19    7   35 1     
   20    8    9 1     
   21    8   20 1     
   22    9   10 1     
   23    9   12 am    
   24   10   11 1     
   25   10   36 1     
   26   10   37 1     
   27   11   38 1     
   28   11   39 1     
   29   11   40 1     
   30   12   13 2     
   31   12   14 1     
   32   14   19 1     
   33   14   15 2     
   34   15   16 1     
   35   15   41 1     
   36   16   17 1     
   37   17   18 1     
   38   17   42 1     
   39   17   43 1     
   40   18   19 1     
   41   18   44 1     
   42   18   45 1     
   43   20   21 2     
   44   20   22 1     
   45   22   23 1     
   46   23   24 2     
   47   13   46 1     
   48   13   47 1     
   49   16   48 1     
   50   16   49 1     
   51   19   50 1     
   52   19   51 1     
   53   21   52 1     
   54   21   53 1     
   55   22   54 1     
   56   24   55 1     
   57   24   56 1     
@<TRIPOS>SUBSTRUCTURE
      1 S1             1
@<TRIPOS>SET
LONE_PAIRS      STATIC     ATOMS    <user>   **** ""
11 46 47 48 49 50 51 52 53 54 55 56
DONOR_HYDROGENS      STATIC     ATOMS    <user>   **** ""
2 34 35
ATOM$BLUE        STATIC     ATOMS    COLORGROUP SYSTEM
11 46 47 48 49 50 51 52 53 54 55 56
ATOM$RED        STATIC     ATOMS    COLORGROUP SYSTEM
2 34 35
