AV-unprocessed.smi:1055|AV-procd|sdf|4625|dock6
  -GOLD-   22720 3123D 1   1.00000     0.00000
 Structure written by MMmdl.
 52 53  0  0  0  0  0  0  0  0  3 V2000
  150.0945  136.9886  155.1411 C   0  0  0  0  0  0  0  0  0  0  0  0
  149.5956  138.2281  155.0028 C   0  0  0  0  0  0  0  0  0  0  0  0
  150.4922  139.4451  154.8727 C   0  0  0  0  0  0  0  0  0  0  0  0
  148.0993  138.4974  154.9738 C   0  0  0  0  0  0  0  0  0  0  0  0
  147.4271  137.7691  153.8688 N   0  3  2  0  0  0  0  0  0  0  0  0
  146.9876  138.6812  152.7827 C   0  0  0  0  0  0  0  0  0  0  0  0
  146.4373  137.8923  151.5808 C   0  0  0  0  0  0  0  0  0  0  0  0
  145.3024  136.9353  151.9847 C   0  0  2  0  0  0  0  0  0  0  0  0
  144.0843  137.6829  152.2977 N   0  0  0  0  0  0  0  0  0  0  0  0
  142.9792  137.1611  152.8500 C   0  0  0  0  0  0  0  0  0  0  0  0
  142.8818  135.9807  153.1834 O   0  0  0  0  0  0  0  0  0  0  0  0
  142.0220  138.0929  153.0022 N   0  0  0  0  0  0  0  0  0  0  0  0
  140.7044  137.9320  153.5116 C   0  0  0  0  0  0  0  0  0  0  0  0
  139.7654  138.9498  153.2439 C   0  0  0  0  0  0  0  0  0  0  0  0
  138.4420  138.8268  153.7150 C   0  0  0  0  0  0  0  0  0  0  0  0
  138.0583  137.6764  154.4469 C   0  0  0  0  0  0  0  0  0  0  0  0
  136.7536  137.4791  154.9489 N   0  0  0  0  0  0  0  0  0  0  0  0
  136.5658  136.8601  156.2563 C   0  0  0  0  0  0  0  0  0  0  0  0
  135.6028  137.9131  154.1682 C   0  0  0  0  0  0  0  0  0  0  0  0
  138.9926  136.7199  154.6684 N   0  3  0  0  0  0  0  0  0  0  0  0
  140.2703  136.7977  154.2381 C   0  0  0  0  0  0  0  0  0  0  0  0
  145.7553  136.0553  153.1668 C   0  0  0  0  0  0  0  0  0  0  0  0
  146.3189  136.8912  154.3295 C   0  0  0  0  0  0  0  0  0  0  0  0
  151.1602  136.8120  155.1627 H   0  0  0  0  0  0  0  0  0  0  0  0
  149.4459  136.1299  155.2350 H   0  0  0  0  0  0  0  0  0  0  0  0
  150.2847  140.1556  155.6732 H   0  0  0  0  0  0  0  0  0  0  0  0
  150.3269  139.9448  153.9180 H   0  0  0  0  0  0  0  0  0  0  0  0
  151.5459  139.1696  154.9301 H   0  0  0  0  0  0  0  0  0  0  0  0
  147.6391  138.2288  155.9263 H   0  0  0  0  0  0  0  0  0  0  0  0
  147.9611  139.5725  154.8510 H   0  0  0  0  0  0  0  0  0  0  0  0
  146.2319  139.3687  153.1659 H   0  0  0  0  0  0  0  0  0  0  0  0
  147.8296  139.2908  152.4528 H   0  0  0  0  0  0  0  0  0  0  0  0
  146.0966  138.5789  150.8047 H   0  0  0  0  0  0  0  0  0  0  0  0
  147.2487  137.3141  151.1365 H   0  0  0  0  0  0  0  0  0  0  0  0
  145.0902  136.2904  151.1299 H   0  0  0  0  0  0  0  0  0  0  0  0
  144.0766  138.6633  152.0571 H   0  0  0  0  0  0  0  0  0  0  0  0
  142.2777  139.0373  152.7539 H   0  0  0  0  0  0  0  0  0  0  0  0
  140.0545  139.8267  152.6831 H   0  0  0  0  0  0  0  0  0  0  0  0
  137.7410  139.6203  153.5040 H   0  0  0  0  0  0  0  0  0  0  0  0
  137.0167  135.8674  156.2803 H   0  0  0  0  0  0  0  0  0  0  0  0
  135.5079  136.7503  156.4955 H   0  0  0  0  0  0  0  0  0  0  0  0
  137.0236  137.4688  157.0365 H   0  0  0  0  0  0  0  0  0  0  0  0
  135.5736  137.3955  153.2090 H   0  0  0  0  0  0  0  0  0  0  0  0
  135.6464  138.9870  153.9845 H   0  0  0  0  0  0  0  0  0  0  0  0
  134.6682  137.7026  154.6884 H   0  0  0  0  0  0  0  0  0  0  0  0
  140.8816  135.9430  154.4846 H   0  0  0  0  0  0  0  0  0  0  0  0
  144.9336  135.4305  153.5185 H   0  0  0  0  0  0  0  0  0  0  0  0
  146.5273  135.3666  152.8212 H   0  0  0  0  0  0  0  0  0  0  0  0
  146.6720  136.2149  155.1081 H   0  0  0  0  0  0  0  0  0  0  0  0
  145.5310  137.4994  154.7762 H   0  0  0  0  0  0  0  0  0  0  0  0
  148.1281  137.1651  153.4634 H   0  0  0  0  0  0  0  0  0  0  0  0
  138.7142  135.8881  155.1892 H   0  0  0  0  0  0  0  0  0  0  0  0
  1  2  2  0  0  0  0
  1 24  1  0  0  0  0
  1 25  1  0  0  0  0
  2  3  1  0  0  0  0
  2  4  1  0  0  0  0
  3 26  1  0  0  0  0
  3 27  1  0  0  0  0
  3 28  1  0  0  0  0
  4  5  1  0  0  0  0
  4 29  1  0  0  0  0
  4 30  1  0  0  0  0
  5 23  1  0  0  0  0
  5  6  1  0  0  0  0
  5 51  1  0  0  0  0
  6  7  1  0  0  0  0
  6 31  1  0  0  0  0
  6 32  1  0  0  0  0
  7  8  1  0  0  0  0
  7 33  1  0  0  0  0
  7 34  1  0  0  0  0
  8  9  1  0  0  0  0
  8 22  1  0  0  0  0
  8 35  1  0  0  0  0
  9 10  1  0  0  0  0
  9 36  1  0  0  0  0
 10 11  2  0  0  0  0
 10 12  1  0  0  0  0
 12 13  1  0  0  0  0
 12 37  1  0  0  0  0
 13 21  1  0  0  0  0
 13 14  2  0  0  0  0
 14 15  1  0  0  0  0
 14 38  1  0  0  0  0
 15 16  2  0  0  0  0
 15 39  1  0  0  0  0
 16 17  1  0  0  0  0
 16 20  1  0  0  0  0
 17 18  1  0  0  0  0
 17 19  1  0  0  0  0
 18 40  1  0  0  0  0
 18 41  1  0  0  0  0
 18 42  1  0  0  0  0
 19 43  1  0  0  0  0
 19 44  1  0  0  0  0
 19 45  1  0  0  0  0
 20 21  2  0  0  0  0
 20 52  1  0  0  0  0
 21 46  1  0  0  0  0
 22 23  1  0  0  0  0
 22 47  1  0  0  0  0
 22 48  1  0  0  0  0
 23 49  1  0  0  0  0
 23 50  1  0  0  0  0
M  CHG  1   5   1
M  CHG  1  20   1
M  END
> <s_m_source_file>
AV-unprocessed.smi

> <i_m_source_file_index>
1055

> <i_lp_mmshare_version>
43012

> <i_f3d_flags>
0

> <s_epik_input>
W0NIMl09QyhbQ0gzXSlbQ0gyXU4xW0NIMl1bQ0gyXVtDSF0oW0NIMl1bQ0gyXTEpW05IXUMoPU8pW05IXWMyW2NIXVtjSF1jKE4oW0NIM10pW0NIM10pbltjSF0y

> <s_epik_cmdline>
J2VwaWtfcHl0aG9uJywgJy1waCcsICc3LjAnLCAnLXRuJywgJzgnLCAnLW1hJywgJzIwMCcsICctbWV0YWxfYmluZGluZycsICctaW1hZScsICc8aW5maWxlLm1hZT4nLCAnLW9tYWUnLCAnPG91dGZpbGUubWFlPic=

> <r_lp_tautomer_probability>
0.999994

> <r_epik_Ionization_Penalty>
0.344238

> <r_epik_Ionization_Penalty_Charging>
0.344219

> <r_epik_Ionization_Penalty_Neutral>
1.87459e-05

> <r_epik_State_Penalty>
0.320654

> <r_epik_Charging_Adjusted_Penalty>
0.664873

> <i_epik_Tot_Q>
2

> <i_epik_Tot_abs_Q>
2

> <r_epik_Metal_State_Penalty>
0.58246

> <b_epik_Metal_Only>
0

> <s_lp_Force_Field>
OPLS_2005

> <r_lp_Energy>
26.4869

> <b_lp_Chiralities_Consistent>
1

> <s_lp_Variant>
AV-unprocessed.smi:1055-2

> <Gold.Version>
5.8.1

> <Gold.Id.Protein>
6NUR|6NUR_protein|mol2

> <Gold.PLP.Fitness>
46.1602

> <Gold.PLP.PLP>
-37.0089

> <Gold.PLP.part.hbond>
-4.0000

> <Gold.PLP.part.metal>
0.0000

> <Gold.PLP.part.buried>
0.2225

> <Gold.PLP.part.nonpolar>
-33.7211

> <Gold.PLP.part.repulsive>
0.2822

> <Gold.PLP.ligand.clash>
0.0000

> <Gold.PLP.ligand.torsion>
1.4437

> <Gold.PLP.Chemscore.Hbond>
4.0000

> <Gold.PLP.Chemscore.CHOScore>
0.0000

> <Gold.PLP.Chemscore.Metal>
0.0000

> <Gold.Chemscore.Hbonds>
donor molecule, donor type, donor heavy atom, donor atom, acceptor molecule, acceptor atom, score
      L1  H     5    51       P1  7948  2.00
      L1  H     9    36       P1 10175  1.00
      L1  H    12    37       P1 10175  1.00

> <Gold.PLP.Chemscore.Internal.Correction>
0.0386

> <Gold.Rescore>
     Score         DG    S(hbond)    S(metal)    S(lipo)     H(rot)  DE(clash)    DE(int)     intcor
     16.52     -21.19       2.82        0.00      83.15       1.35       0.85       3.82       ----

> <Gold.Chemscore.Fitness>
16.5178

> <Gold.Chemscore.DG>
-21.1938

> <Gold.Chemscore.ZeroCoef>
-5.4800

> <Gold.Chemscore.Hbond>
2.8241

> <Gold.Chemscore.Metal>
0.0000

> <Gold.Chemscore.Lipo>
83.1490

> <Gold.Chemscore.Internal_Hbond>
0.0000

> <Gold.Chemscore.DEClash>
0.8530

> <Gold.Chemscore.DEInternal>
3.8230

> <Gold.Chemscore.Rot>
1.3465

> <Gold.Chemscore.Internal.Correction>
   9.000000E+99

> <Gold.Chemscore.Hbonds>
donor molecule, donor type, donor heavy atom, donor atom, acceptor molecule, acceptor atom, score
      L1  H     5    51       P1  7948  0.89
      L1  H     9    36       P1 10175  0.95
      L1  H    12    37       P1 10175  0.94

> <Gold.Chemscore.Hbond.Weighted>
-9.4324

> <Gold.Chemscore.Metal.Weighted>
-0.0000

> <Gold.Chemscore.Lipo.Weighted>
-9.7284

> <Gold.Chemscore.Internal_Hbond.Weighted>
0.0000

> <Gold.Chemscore.DEClash.Weighted>
0.8530

> <Gold.Chemscore.DEInternal.Weighted>
3.8230

> <Gold.Chemscore.Rot.Weighted>
3.4470

> <Gold.Chemscore.Internal.Correction.Weighted>
   9.000000E+99

> <Gold.Protein.RotatedTorsions>
[ 6907 6896 6895 6894 ] final   73.58 input  -60.11 | X-H torsion
[ 7974 7965 7964 7962 ] final -111.87 input  175.53 | X-H torsion
[ 8008 7997 7996 7995 ] final -139.32 input   59.86 | X-H torsion
[ 10167 10162 10161 10158 ] final   59.67 input  -65.29 | X-H torsion
[ 10718 10713 10712 10709 ] final  -94.10 input   66.30 | X-H torsion
[ 10763 10752 10751 10750 ] final  174.50 input  -60.55 | X-H torsion
[ 11005 11000 10999 10996 ] final -145.69 input  -57.11 | X-H torsion

> <Gold.Protein.ActiveResidues>
 VAL166  LYS551  ARG553  GLY616  TRP617  ASP618  TYR619  PRO620  LYS621  CYS622 
 ASP623  PHE694  ASN695  SER759  ASP760  ASP761  ALA762  ILE779  LEU786  VAL792 
 PHE793  MET794  SER795  GLU796  ALA797  LYS798  CYS799  TRP800  GLU811  SER814 

> <Gold.Protein.RotatedAtoms>
  152.4931  134.4400  159.9540 H   0  0  0  0  0  0  0  0  0  0  0  0  # atno 6907 bound_to 6896
  151.4383  133.3644  159.2786 H   0  0  0  0  0  0  0  0  0  0  0  0  # atno 6908 bound_to 6896
  150.9105  134.8545  159.7482 H   0  0  0  0  0  0  0  0  0  0  0  0  # atno 6909 bound_to 6896
  145.1508  140.8828  143.3647 H   0  0  0  0  0  0  0  0  0  0  0  0  # atno 7974 bound_to 7965
  155.4430  140.0533  157.3008 H   0  0  0  0  0  0  0  0  0  0  0  0  # atno 8008 bound_to 7997
  154.4810  140.2081  155.9721 H   0  0  0  0  0  0  0  0  0  0  0  0  # atno 8009 bound_to 7997
  156.1205  140.3189  155.8206 H   0  0  0  0  0  0  0  0  0  0  0  0  # atno 8010 bound_to 7997
  140.1739  144.4249  150.6648 H   0  0  0  0  0  0  0  0  0  0  0  0  # atno 10167 bound_to 10162
  156.0022  130.5054  150.5875 H   0  0  0  0  0  0  0  0  0  0  0  0  # atno 10718 bound_to 10713
  154.4547  135.2766  155.1756 H   0  0  0  0  0  0  0  0  0  0  0  0  # atno 10763 bound_to 10752
  154.3568  135.6138  153.5674 H   0  0  0  0  0  0  0  0  0  0  0  0  # atno 10764 bound_to 10752
  152.9850  135.5825  154.4898 H   0  0  0  0  0  0  0  0  0  0  0  0  # atno 10765 bound_to 10752
  140.7897  134.2983  157.5017 H   0  0  0  0  0  0  0  0  0  0  0  0  # atno 11005 bound_to 11000
  145.0432  139.3242  143.5966 LP  0  0  0  0  0  0  0  0  0  0  0  0  # atno 17320 bound_to 7965
  146.3494  139.9813  142.8695 LP  0  0  0  0  0  0  0  0  0  0  0  0  # atno 17321 bound_to 7965
  140.6564  143.2239  151.5959 LP  0  0  0  0  0  0  0  0  0  0  0  0  # atno 17342 bound_to 10162
  139.5326  144.2873  152.1181 LP  0  0  0  0  0  0  0  0  0  0  0  0  # atno 17343 bound_to 10162
  157.3745  131.0771  151.1529 LP  0  0  0  0  0  0  0  0  0  0  0  0  # atno 17370 bound_to 10713
  157.2272  130.6508  149.5835 LP  0  0  0  0  0  0  0  0  0  0  0  0  # atno 17371 bound_to 10713
  139.8732  134.9367  156.3668 LP  0  0  0  0  0  0  0  0  0  0  0  0  # atno 17394 bound_to 11000
  140.9401  133.7520  156.0136 LP  0  0  0  0  0  0  0  0  0  0  0  0  # atno 17395 bound_to 11000

$$$$
