AV-unprocessed.smi:3345|AV-procd|sdf|12899|dock5
  -GOLD-   2272019313D 1   1.00000     0.00000
 Structure written by MMmdl.
 40 41  0  0  0  0  0  0  0  0  1 V2000
  150.0634  139.5772  157.5414 C   0  0  0  0  0  0  0  0  0  0  0  0
  150.0157  140.8496  156.6857 C   0  0  2  0  0  0  0  0  0  0  0  0
  149.8565  142.1158  157.5552 C   0  0  0  0  0  0  0  0  0  0  0  0
  151.1034  142.6830  158.0743 N   0  0  0  0  0  0  0  0  0  0  0  0
  151.7468  141.8252  159.0663 C   0  0  0  0  0  0  0  0  0  0  0  0
  153.0531  142.4437  159.5928 C   0  0  0  0  0  0  0  0  0  0  0  0
  152.7883  143.7351  160.1312 O   0  0  0  0  0  0  0  0  0  0  0  0
  152.1966  144.6162  159.1820 C   0  0  0  0  0  0  0  0  0  0  0  0
  150.8880  144.0031  158.6543 C   0  0  0  0  0  0  0  0  0  0  0  0
  148.9014  140.7640  155.7452 N   0  0  0  0  0  0  0  0  0  0  0  0
  148.9729  140.9722  154.4205 C   0  0  0  0  0  0  0  0  0  0  0  0
  150.0348  141.0886  153.8079 O   0  0  0  0  0  0  0  0  0  0  0  0
  147.6268  141.1170  153.6953 C   0  0  2  0  0  0  0  0  0  0  0  0
  146.7756  142.2852  154.2340 C   0  0  0  0  0  0  0  0  0  0  0  0
  146.9141  139.8444  153.7374 N   0  0  0  0  0  0  0  0  0  0  0  0
  147.1999  138.6829  153.1446 C   0  0  0  0  0  0  0  0  0  0  0  0
  146.3695  137.6983  153.4570 N   0  0  0  0  0  0  0  0  0  0  0  0
  145.5436  138.3627  154.3182 C   0  0  0  0  0  0  0  0  0  0  0  0
  145.8313  139.6465  154.5303 N   0  0  0  0  0  0  0  0  0  0  0  0
  150.8936  139.6123  158.2474 H   0  0  0  0  0  0  0  0  0  0  0  0
  150.1978  138.6913  156.9199 H   0  0  0  0  0  0  0  0  0  0  0  0
  149.1447  139.4467  158.1142 H   0  0  0  0  0  0  0  0  0  0  0  0
  150.9639  140.9095  156.1501 H   0  0  0  0  0  0  0  0  0  0  0  0
  149.3589  142.8730  156.9475 H   0  0  0  0  0  0  0  0  0  0  0  0
  149.1767  141.9065  158.3825 H   0  0  0  0  0  0  0  0  0  0  0  0
  151.0669  141.6495  159.9012 H   0  0  0  0  0  0  0  0  0  0  0  0
  151.9730  140.8501  158.6369 H   0  0  0  0  0  0  0  0  0  0  0  0
  153.4849  141.8138  160.3703 H   0  0  0  0  0  0  0  0  0  0  0  0
  153.7924  142.5194  158.7943 H   0  0  0  0  0  0  0  0  0  0  0  0
  152.0006  145.5760  159.6600 H   0  0  0  0  0  0  0  0  0  0  0  0
  152.8938  144.8020  158.3641 H   0  0  0  0  0  0  0  0  0  0  0  0
  150.4557  144.6698  157.9072 H   0  0  0  0  0  0  0  0  0  0  0  0
  150.1656  143.9361  159.4691 H   0  0  0  0  0  0  0  0  0  0  0  0
  147.9824  140.6660  156.1517 H   0  0  0  0  0  0  0  0  0  0  0  0
  147.8427  141.3298  152.6470 H   0  0  0  0  0  0  0  0  0  0  0  0
  147.3049  143.2337  154.1368 H   0  0  0  0  0  0  0  0  0  0  0  0
  146.5199  142.1566  155.2866 H   0  0  0  0  0  0  0  0  0  0  0  0
  145.8425  142.3744  153.6768 H   0  0  0  0  0  0  0  0  0  0  0  0
  148.0397  138.5521  152.4781 H   0  0  0  0  0  0  0  0  0  0  0  0
  144.7113  137.8829  154.8118 H   0  0  0  0  0  0  0  0  0  0  0  0
  1  2  1  0  0  0  0
  1 20  1  0  0  0  0
  1 21  1  0  0  0  0
  1 22  1  0  0  0  0
  2  3  1  0  0  0  0
  2 10  1  0  0  0  0
  2 23  1  0  0  0  0
  3  4  1  0  0  0  0
  3 24  1  0  0  0  0
  3 25  1  0  0  0  0
  4  9  1  0  0  0  0
  4  5  1  0  0  0  0
  5  6  1  0  0  0  0
  5 26  1  0  0  0  0
  5 27  1  0  0  0  0
  6  7  1  0  0  0  0
  6 28  1  0  0  0  0
  6 29  1  0  0  0  0
  7  8  1  0  0  0  0
  8  9  1  0  0  0  0
  8 30  1  0  0  0  0
  8 31  1  0  0  0  0
  9 32  1  0  0  0  0
  9 33  1  0  0  0  0
 10 11  1  0  0  0  0
 10 34  1  0  0  0  0
 11 12  2  0  0  0  0
 11 13  1  0  0  0  0
 13 14  1  0  0  0  0
 13 15  1  0  0  0  0
 13 35  1  0  0  0  0
 14 36  1  0  0  0  0
 14 37  1  0  0  0  0
 14 38  1  0  0  0  0
 15 19  1  0  0  0  0
 15 16  1  0  0  0  0
 16 17  2  0  0  0  0
 16 39  1  0  0  0  0
 17 18  1  0  0  0  0
 18 19  2  0  0  0  0
 18 40  1  0  0  0  0
M  END
> <s_m_source_file>
AV-unprocessed.smi

> <i_m_source_file_index>
3345

> <i_lp_mmshare_version>
43012

> <i_f3d_flags>
0

> <s_epik_input>
W0NIMl0xW0NIMl1PW0NIMl1bQ0gyXU4xW0NIMl1bQ0BASF0oW0NIM10pW05IXUMoPU8pW0NASF0oW0NIM10pbjJbY0hdbltjSF1uMg==

> <s_epik_cmdline>
J2VwaWtfcHl0aG9uJywgJy1waCcsICc3LjAnLCAnLXRuJywgJzgnLCAnLW1hJywgJzIwMCcsICctbWV0YWxfYmluZGluZycsICctaW1hZScsICc8aW5maWxlLm1hZT4nLCAnLW9tYWUnLCAnPG91dGZpbGUubWFlPic=

> <r_lp_tautomer_probability>
1

> <r_epik_Ionization_Penalty>
0.211373

> <r_epik_Ionization_Penalty_Charging>
0

> <r_epik_Ionization_Penalty_Neutral>
0.211373

> <r_epik_State_Penalty>
0.201459

> <r_epik_Charging_Adjusted_Penalty>
0.201459

> <i_epik_Tot_Q>
0

> <i_epik_Tot_abs_Q>
0

> <r_epik_Metal_State_Penalty>
0.201458

> <b_epik_Metal_Only>
0

> <s_lp_Force_Field>
OPLS_2005

> <r_lp_Energy>
29.1887

> <b_lp_Chiralities_Consistent>
1

> <s_lp_Variant>
AV-unprocessed.smi:3345-1

> <Gold.Version>
5.8.1

> <Gold.Id.Protein>
6NUR|6NUR_protein|mol2

> <Gold.PLP.Fitness>
37.0720

> <Gold.PLP.PLP>
-29.3396

> <Gold.PLP.part.hbond>
-1.0936

> <Gold.PLP.part.metal>
0.0000

> <Gold.PLP.part.buried>
-2.8902

> <Gold.PLP.part.nonpolar>
-27.6330

> <Gold.PLP.part.repulsive>
2.5322

> <Gold.PLP.ligand.clash>
0.0000

> <Gold.PLP.ligand.torsion>
0.8178

> <Gold.PLP.Chemscore.Hbond>
1.2000

> <Gold.PLP.Chemscore.CHOScore>
1.8709

> <Gold.PLP.Chemscore.Metal>
0.0000

> <Gold.Chemscore.Hbonds>
donor molecule, donor type, donor heavy atom, donor atom, acceptor molecule, acceptor atom, score
      P1  H  7989  7998       L1    12  0.35
      P1  H  8011  8017       L1    12  0.82
      L1  C    16    39       P1  7948  0.84
      L1  C    16    39       P1  7957  1.00

> <Gold.PLP.Chemscore.Internal.Correction>
0.1552

> <Gold.Rescore>
     Score         DG    S(hbond)    S(metal)    S(lipo)     H(rot)  DE(clash)    DE(int)     intcor
      9.30     -10.89       1.13        0.00      69.42       2.54       1.01       0.58       ----

> <Gold.Chemscore.Fitness>
9.2994

> <Gold.Chemscore.DG>
-10.8903

> <Gold.Chemscore.ZeroCoef>
-5.4800

> <Gold.Chemscore.Hbond>
1.1312

> <Gold.Chemscore.Metal>
0.0000

> <Gold.Chemscore.Lipo>
69.4237

> <Gold.Chemscore.Internal_Hbond>
0.0000

> <Gold.Chemscore.DEClash>
1.0137

> <Gold.Chemscore.DEInternal>
0.5772

> <Gold.Chemscore.Rot>
2.5353

> <Gold.Chemscore.Internal.Correction>
   9.000000E+99

> <Gold.Chemscore.Hbonds>
donor molecule, donor type, donor heavy atom, donor atom, acceptor molecule, acceptor atom, score
      P1  H  7989  7998       L1    12  0.34
      P1  H  8011  8017       L1    12  0.59

> <Gold.Chemscore.Hbond.Weighted>
-3.7782

> <Gold.Chemscore.Metal.Weighted>
-0.0000

> <Gold.Chemscore.Lipo.Weighted>
-8.1226

> <Gold.Chemscore.Internal_Hbond.Weighted>
0.0000

> <Gold.Chemscore.DEClash.Weighted>
1.0137

> <Gold.Chemscore.DEInternal.Weighted>
0.5772

> <Gold.Chemscore.Rot.Weighted>
6.4905

> <Gold.Chemscore.Internal.Correction.Weighted>
   9.000000E+99

> <Gold.Protein.RotatedTorsions>
[ 6907 6896 6895 6894 ] final   65.50 input  -60.11 | X-H torsion
[ 7974 7965 7964 7962 ] final  -69.07 input  175.53 | X-H torsion
[ 8008 7997 7996 7995 ] final   69.81 input   59.86 | X-H torsion
[ 10167 10162 10161 10158 ] final    6.41 input  -65.29 | X-H torsion
[ 10718 10713 10712 10709 ] final   92.17 input   66.30 | X-H torsion
[ 10763 10752 10751 10750 ] final -126.11 input  -60.55 | X-H torsion
[ 11005 11000 10999 10996 ] final  -20.49 input  -57.11 | X-H torsion

> <Gold.Protein.ActiveResidues>
 VAL166  LYS551  ARG553  GLY616  TRP617  ASP618  TYR619  PRO620  LYS621  CYS622 
 ASP623  PHE694  ASN695  SER759  ASP760  ASP761  ALA762  ILE779  LEU786  VAL792 
 PHE793  MET794  SER795  GLU796  ALA797  LYS798  CYS799  TRP800  GLU811  SER814 

> <Gold.Protein.RotatedAtoms>
  152.4412  134.5587  159.9887 H   0  0  0  0  0  0  0  0  0  0  0  0  # atno 6907 bound_to 6896
  151.5684  133.3387  159.2992 H   0  0  0  0  0  0  0  0  0  0  0  0  # atno 6908 bound_to 6896
  150.8318  134.7609  159.6924 H   0  0  0  0  0  0  0  0  0  0  0  0  # atno 6909 bound_to 6896
  145.7085  140.9088  143.0693 H   0  0  0  0  0  0  0  0  0  0  0  0  # atno 7974 bound_to 7965
  155.7293  140.3492  155.5052 H   0  0  0  0  0  0  0  0  0  0  0  0  # atno 8008 bound_to 7997
  155.9197  140.1065  157.1238 H   0  0  0  0  0  0  0  0  0  0  0  0  # atno 8009 bound_to 7997
  154.4068  140.1252  156.4650 H   0  0  0  0  0  0  0  0  0  0  0  0  # atno 8010 bound_to 7997
  140.6429  143.7731  150.7455 H   0  0  0  0  0  0  0  0  0  0  0  0  # atno 10167 bound_to 10162
  157.6959  131.0434  150.3841 H   0  0  0  0  0  0  0  0  0  0  0  0  # atno 10718 bound_to 10713
  154.8742  135.4006  154.3378 H   0  0  0  0  0  0  0  0  0  0  0  0  # atno 10763 bound_to 10752
  153.4182  135.7022  153.6317 H   0  0  0  0  0  0  0  0  0  0  0  0  # atno 10764 bound_to 10752
  153.4991  135.3731  155.2501 H   0  0  0  0  0  0  0  0  0  0  0  0  # atno 10765 bound_to 10752
  140.8469  133.7885  155.9923 H   0  0  0  0  0  0  0  0  0  0  0  0  # atno 11005 bound_to 11000
  144.6948  139.9043  143.7460 LP  0  0  0  0  0  0  0  0  0  0  0  0  # atno 17320 bound_to 7965
  146.0734  139.3722  143.0509 LP  0  0  0  0  0  0  0  0  0  0  0  0  # atno 17321 bound_to 7965
  140.1366  143.4478  152.2220 LP  0  0  0  0  0  0  0  0  0  0  0  0  # atno 17342 bound_to 10162
  139.5639  144.7423  151.4078 LP  0  0  0  0  0  0  0  0  0  0  0  0  # atno 17343 bound_to 10162
  156.4252  130.3961  149.6798 LP  0  0  0  0  0  0  0  0  0  0  0  0  # atno 17370 bound_to 10713
  156.4035  130.7686  151.2695 LP  0  0  0  0  0  0  0  0  0  0  0  0  # atno 17371 bound_to 10713
  140.8833  134.2585  157.5133 LP  0  0  0  0  0  0  0  0  0  0  0  0  # atno 17394 bound_to 11000
  139.8703  134.9626  156.4433 LP  0  0  0  0  0  0  0  0  0  0  0  0  # atno 17395 bound_to 11000

$$$$
