AV-unprocessed.smi:2474|AV-procd|sdf|9751|dock2
  -GOLD-   2272013393D 1   1.00000     0.00000
 Structure written by MMmdl.
 40 41  0  0  0  0  0  0  0  0  1 V2000
  145.8241  150.7243  157.7492 C   0  0  0  0  0  0  0  0  0  0  0  0
  145.3921  149.2979  157.7878 C   0  0  0  0  0  0  0  0  0  0  0  0
  145.0547  148.4933  156.7279 C   0  0  0  0  0  0  0  0  0  0  0  0
  144.6725  147.2025  157.0986 N   0  0  0  0  0  0  0  0  0  0  0  0
  144.7162  147.0152  158.4208 C   0  0  0  0  0  0  0  0  0  0  0  0
  144.2818  145.7494  159.0984 C   0  0  2  0  0  0  0  0  0  0  0  0
  142.9116  145.8979  159.7755 C   0  0  0  0  0  0  0  0  0  0  0  0
  145.3586  145.1607  160.0384 C   0  0  0  0  0  0  0  0  0  0  0  0
  146.6110  144.8921  159.3342 N   0  0  0  0  0  0  0  0  0  0  0  0
  147.6641  144.2398  159.8470 C   0  0  0  0  0  0  0  0  0  0  0  0
  147.6625  143.6712  160.9387 O   0  0  0  0  0  0  0  0  0  0  0  0
  148.7395  144.3366  159.0539 N   0  0  0  0  0  0  0  0  0  0  0  0
  150.0821  143.8878  159.4094 C   0  0  2  0  0  0  0  0  0  0  0  0
  151.0603  145.0828  159.3831 C   0  0  0  0  0  0  0  0  0  0  0  0
  152.4877  144.6904  159.7936 C   0  0  0  0  0  0  0  0  0  0  0  0
  153.0956  143.6353  158.8591 C   0  0  0  0  0  0  0  0  0  0  0  0
  152.1381  142.0959  158.8958 S   0  0  0  0  0  0  0  0  0  0  0  0
  150.5173  142.7728  158.4429 C   0  0  0  0  0  0  0  0  0  0  0  0
  145.2540  148.4425  159.3009 S   0  0  0  0  0  0  0  0  0  0  0  0
  145.8265  151.1064  156.7281 H   0  0  0  0  0  0  0  0  0  0  0  0
  146.8308  150.8345  158.1526 H   0  0  0  0  0  0  0  0  0  0  0  0
  145.1515  151.3475  158.3392 H   0  0  0  0  0  0  0  0  0  0  0  0
  145.0494  148.7589  155.6812 H   0  0  0  0  0  0  0  0  0  0  0  0
  144.1409  145.0180  158.3014 H   0  0  0  0  0  0  0  0  0  0  0  0
  142.1541  146.2221  159.0614 H   0  0  0  0  0  0  0  0  0  0  0  0
  142.9452  146.6307  160.5822 H   0  0  0  0  0  0  0  0  0  0  0  0
  142.5802  144.9508  160.2017 H   0  0  0  0  0  0  0  0  0  0  0  0
  145.5286  145.8307  160.8831 H   0  0  0  0  0  0  0  0  0  0  0  0
  145.0048  144.2211  160.4636 H   0  0  0  0  0  0  0  0  0  0  0  0
  146.7166  145.3162  158.4243 H   0  0  0  0  0  0  0  0  0  0  0  0
  148.6407  144.8233  158.1752 H   0  0  0  0  0  0  0  0  0  0  0  0
  150.0553  143.4707  160.4181 H   0  0  0  0  0  0  0  0  0  0  0  0
  151.0760  145.5288  158.3878 H   0  0  0  0  0  0  0  0  0  0  0  0
  150.7076  145.8636  160.0583 H   0  0  0  0  0  0  0  0  0  0  0  0
  153.1179  145.5802  159.7897 H   0  0  0  0  0  0  0  0  0  0  0  0
  152.4884  144.3204  160.8196 H   0  0  0  0  0  0  0  0  0  0  0  0
  153.1307  144.0086  157.8351 H   0  0  0  0  0  0  0  0  0  0  0  0
  154.1214  143.4154  159.1550 H   0  0  0  0  0  0  0  0  0  0  0  0
  149.7932  141.9576  158.4509 H   0  0  0  0  0  0  0  0  0  0  0  0
  150.5655  143.1483  157.4200 H   0  0  0  0  0  0  0  0  0  0  0  0
  1  2  1  0  0  0  0
  1 20  1  0  0  0  0
  1 21  1  0  0  0  0
  1 22  1  0  0  0  0
  2 19  1  0  0  0  0
  2  3  2  0  0  0  0
  3  4  1  0  0  0  0
  3 23  1  0  0  0  0
  4  5  2  0  0  0  0
  5  6  1  0  0  0  0
  5 19  1  0  0  0  0
  6  7  1  0  0  0  0
  6  8  1  0  0  0  0
  6 24  1  0  0  0  0
  7 25  1  0  0  0  0
  7 26  1  0  0  0  0
  7 27  1  0  0  0  0
  8  9  1  0  0  0  0
  8 28  1  0  0  0  0
  8 29  1  0  0  0  0
  9 10  1  0  0  0  0
  9 30  1  0  0  0  0
 10 11  2  0  0  0  0
 10 12  1  0  0  0  0
 12 13  1  0  0  0  0
 12 31  1  0  0  0  0
 13 18  1  0  0  0  0
 13 14  1  0  0  0  0
 13 32  1  0  0  0  0
 14 15  1  0  0  0  0
 14 33  1  0  0  0  0
 14 34  1  0  0  0  0
 15 16  1  0  0  0  0
 15 35  1  0  0  0  0
 15 36  1  0  0  0  0
 16 17  1  0  0  0  0
 16 37  1  0  0  0  0
 16 38  1  0  0  0  0
 17 18  1  0  0  0  0
 18 39  1  0  0  0  0
 18 40  1  0  0  0  0
M  END
> <s_m_source_file>
AV-unprocessed.smi

> <i_m_source_file_index>
2474

> <i_lp_mmshare_version>
43012

> <i_f3d_flags>
0

> <s_epik_input>
W0NIM11jMVtjSF1uYyhzMSlbQ0BIXShbQ0gzXSlbQ0gyXVtOSF1DKD1PKVtOSF1bQ0BASF0yW0NIMl1bQ0gyXVtDSDJdU1tDSDJdMg==

> <s_epik_cmdline>
J2VwaWtfcHl0aG9uJywgJy1waCcsICc3LjAnLCAnLXRuJywgJzgnLCAnLW1hJywgJzIwMCcsICctbWV0YWxfYmluZGluZycsICctaW1hZScsICc8aW5maWxlLm1hZT4nLCAnLW9tYWUnLCAnPG91dGZpbGUubWFlPic=

> <r_epik_Ionization_Penalty>
0.000644338

> <r_epik_Ionization_Penalty_Charging>
0

> <r_epik_Ionization_Penalty_Neutral>
0.000644338

> <r_epik_State_Penalty>
0.000374131

> <r_epik_Charging_Adjusted_Penalty>
0.000374131

> <i_epik_Tot_Q>
0

> <i_epik_Tot_abs_Q>
0

> <r_epik_Metal_State_Penalty>
-0

> <b_epik_Metal_Only>
0

> <s_lp_Force_Field>
OPLS_2005

> <r_lp_Energy>
-6.83814

> <b_lp_Chiralities_Consistent>
1

> <s_lp_Variant>
AV-unprocessed.smi:2474-1

> <Gold.Version>
5.8.1

> <Gold.Id.Protein>
6NUR|6NUR_protein|mol2

> <Gold.PLP.Fitness>
49.6178

> <Gold.PLP.PLP>
-41.1565

> <Gold.PLP.part.hbond>
-3.0000

> <Gold.PLP.part.metal>
0.0000

> <Gold.PLP.part.buried>
-6.6722

> <Gold.PLP.part.nonpolar>
-31.7010

> <Gold.PLP.part.repulsive>
0.3537

> <Gold.PLP.ligand.clash>
0.0000

> <Gold.PLP.ligand.torsion>
0.2545

> <Gold.PLP.Chemscore.Hbond>
2.9440

> <Gold.PLP.Chemscore.CHOScore>
0.0000

> <Gold.PLP.Chemscore.Metal>
0.0000

> <Gold.Chemscore.Hbonds>
donor molecule, donor type, donor heavy atom, donor atom, acceptor molecule, acceptor atom, score
      L1  H     9    30       P1  8029  0.91
      L1  H    12    31       P1  8029  1.00
      P1  H  6933  6944       L1    11  1.00

> <Gold.PLP.Chemscore.Internal.Correction>
0.1382

> <Gold.Rescore>
     Score         DG    S(hbond)    S(metal)    S(lipo)     H(rot)  DE(clash)    DE(int)     intcor
     24.86     -25.17       2.89        0.00     117.66       1.46       0.21       0.10       ----

> <Gold.Chemscore.Fitness>
24.8617

> <Gold.Chemscore.DG>
-25.1704

> <Gold.Chemscore.ZeroCoef>
-5.4800

> <Gold.Chemscore.Hbond>
2.8941

> <Gold.Chemscore.Metal>
0.0000

> <Gold.Chemscore.Lipo>
117.6556

> <Gold.Chemscore.Internal_Hbond>
0.0000

> <Gold.Chemscore.DEClash>
0.2130

> <Gold.Chemscore.DEInternal>
0.0957

> <Gold.Chemscore.Rot>
1.4616

> <Gold.Chemscore.Internal.Correction>
   9.000000E+99

> <Gold.Chemscore.Hbonds>
donor molecule, donor type, donor heavy atom, donor atom, acceptor molecule, acceptor atom, score
      L1  H     9    30       P1  8029  0.90
      L1  H    12    31       P1  8029  0.57
      P1  H  6933  6944       L1    11  1.00

> <Gold.Chemscore.Hbond.Weighted>
-9.6663

> <Gold.Chemscore.Metal.Weighted>
-0.0000

> <Gold.Chemscore.Lipo.Weighted>
-13.7657

> <Gold.Chemscore.Internal_Hbond.Weighted>
0.0000

> <Gold.Chemscore.DEClash.Weighted>
0.2130

> <Gold.Chemscore.DEInternal.Weighted>
0.0957

> <Gold.Chemscore.Rot.Weighted>
3.7416

> <Gold.Chemscore.Internal.Correction.Weighted>
   9.000000E+99

> <Gold.Protein.RotatedTorsions>
[ 6907 6896 6895 6894 ] final  113.16 input  -60.11 | X-H torsion
[ 7974 7965 7964 7962 ] final  -96.99 input  175.53 | X-H torsion
[ 8008 7997 7996 7995 ] final  127.57 input   59.86 | X-H torsion
[ 10167 10162 10161 10158 ] final   79.52 input  -65.29 | X-H torsion
[ 10718 10713 10712 10709 ] final  -46.92 input   66.30 | X-H torsion
[ 10763 10752 10751 10750 ] final   37.32 input  -60.55 | X-H torsion
[ 11005 11000 10999 10996 ] final  -22.10 input  -57.11 | X-H torsion

> <Gold.Protein.ActiveResidues>
 VAL166  LYS551  ARG553  GLY616  TRP617  ASP618  TYR619  PRO620  LYS621  CYS622 
 ASP623  PHE694  ASN695  SER759  ASP760  ASP761  ALA762  ILE779  LEU786  VAL792 
 PHE793  MET794  SER795  GLU796  ALA797  LYS798  CYS799  TRP800  GLU811  SER814 

> <Gold.Protein.RotatedAtoms>
  152.4876  133.8414  159.7154 H   0  0  0  0  0  0  0  0  0  0  0  0  # atno 6907 bound_to 6896
  150.8977  133.7150  159.2894 H   0  0  0  0  0  0  0  0  0  0  0  0  # atno 6908 bound_to 6896
  151.4602  135.1041  159.9775 H   0  0  0  0  0  0  0  0  0  0  0  0  # atno 6909 bound_to 6896
  145.3396  140.9457  143.2615 H   0  0  0  0  0  0  0  0  0  0  0  0  # atno 7974 bound_to 7965
  156.2894  140.2665  156.2295 H   0  0  0  0  0  0  0  0  0  0  0  0  # atno 8008 bound_to 7997
  155.0087  140.0387  157.2408 H   0  0  0  0  0  0  0  0  0  0  0  0  # atno 8009 bound_to 7997
  154.7537  140.2748  155.6276 H   0  0  0  0  0  0  0  0  0  0  0  0  # atno 8010 bound_to 7997
  139.9594  144.5971  150.8086 H   0  0  0  0  0  0  0  0  0  0  0  0  # atno 10167 bound_to 10162
  156.2135  130.4162  149.9084 H   0  0  0  0  0  0  0  0  0  0  0  0  # atno 10718 bound_to 10713
  153.0042  135.6281  154.2125 H   0  0  0  0  0  0  0  0  0  0  0  0  # atno 10763 bound_to 10752
  154.1869  135.2810  155.3036 H   0  0  0  0  0  0  0  0  0  0  0  0  # atno 10764 bound_to 10752
  154.5791  135.5653  153.7227 H   0  0  0  0  0  0  0  0  0  0  0  0  # atno 10765 bound_to 10752
  140.8625  133.7778  156.0091 H   0  0  0  0  0  0  0  0  0  0  0  0  # atno 11005 bound_to 11000
  144.8800  139.4917  143.6727 LP  0  0  0  0  0  0  0  0  0  0  0  0  # atno 17320 bound_to 7965
  146.3013  139.7435  142.9089 LP  0  0  0  0  0  0  0  0  0  0  0  0  # atno 17321 bound_to 7965
  140.7558  143.3053  151.2978 LP  0  0  0  0  0  0  0  0  0  0  0  0  # atno 17342 bound_to 10162
  139.6565  144.0266  152.2663 LP  0  0  0  0  0  0  0  0  0  0  0  0  # atno 17343 bound_to 10162
  156.6754  130.8837  151.3568 LP  0  0  0  0  0  0  0  0  0  0  0  0  # atno 17370 bound_to 10713
  157.7051  130.9376  150.0905 LP  0  0  0  0  0  0  0  0  0  0  0  0  # atno 17371 bound_to 10713
  140.8667  134.2776  157.5210 LP  0  0  0  0  0  0  0  0  0  0  0  0  # atno 17394 bound_to 11000
  139.8707  134.9546  156.4181 LP  0  0  0  0  0  0  0  0  0  0  0  0  # atno 17395 bound_to 11000

$$$$
