AV-unprocessed.smi:478|AV-procd|sdf|2671|dock8
  -GOLD-   2262023 83D 1   1.00000     0.00000
 Structure written by MMmdl.
 41 42  0  0  0  0  0  0  0  0  1 V2000
  150.8450  141.3035  157.3409 C   0  0  0  0  0  0  0  0  0  0  0  0
  150.1483  140.4934  156.3364 N   0  0  0  0  0  0  0  0  0  0  0  0
  149.1806  141.2679  155.5512 C   0  0  0  0  0  0  0  0  0  0  0  0
  151.1086  139.3348  155.4789 S   0  0  0  0  0  0  0  0  0  0  0  0
  150.6562  139.3383  154.0789 O   0  0  0  0  0  0  0  0  0  0  0  0
  152.5200  139.6108  155.7903 O   0  0  0  0  0  0  0  0  0  0  0  0
  150.7057  137.7144  156.1865 C   0  0  0  0  0  0  0  0  0  0  0  0
  150.4723  137.5680  157.6052 C   0  0  0  0  0  0  0  0  0  0  0  0
  150.0330  136.3948  158.1026 C   0  0  0  0  0  0  0  0  0  0  0  0
  149.7751  135.2389  157.2357 C   0  0  0  0  0  0  0  0  0  0  0  0
  149.3878  134.1594  157.6836 O   0  0  0  0  0  0  0  0  0  0  0  0
  149.9857  135.4376  155.8978 N   0  0  0  0  0  0  0  0  0  0  0  0
  149.7397  134.3579  154.9281 C   0  0  0  0  0  0  0  0  0  0  0  0
  148.2477  134.1925  154.6068 C   0  0  0  0  0  0  0  0  0  0  0  0
  147.4135  134.7457  155.3272 O   0  0  0  0  0  0  0  0  0  0  0  0
  147.9734  133.4297  153.5230 N   0  0  0  0  0  0  0  0  0  0  0  0
  146.7944  133.0704  152.9610 C   0  0  0  0  0  0  0  0  0  0  0  0
  145.7345  133.5174  153.3967 O   0  0  0  0  0  0  0  0  0  0  0  0
  146.8458  132.2162  151.9219 N   0  0  0  0  0  0  0  0  0  0  0  0
  145.7261  131.7362  151.1791 C   0  0  0  0  0  0  0  0  0  0  0  0
  145.7518  131.9274  149.6780 C   0  0  0  0  0  0  0  0  0  0  0  0
  144.8254  132.7588  150.5211 C   0  0  0  0  0  0  0  0  0  0  0  0
  150.4253  136.6739  155.3845 C   0  0  0  0  0  0  0  0  0  0  0  0
  150.1352  141.8848  157.9303 H   0  0  0  0  0  0  0  0  0  0  0  0
  151.5428  141.9874  156.8566 H   0  0  0  0  0  0  0  0  0  0  0  0
  151.4038  140.6647  158.0248 H   0  0  0  0  0  0  0  0  0  0  0  0
  148.5244  141.8420  156.2060 H   0  0  0  0  0  0  0  0  0  0  0  0
  148.5570  140.6067  154.9507 H   0  0  0  0  0  0  0  0  0  0  0  0
  149.6991  141.9573  154.8836 H   0  0  0  0  0  0  0  0  0  0  0  0
  150.6530  138.3982  158.2720 H   0  0  0  0  0  0  0  0  0  0  0  0
  149.8656  136.3011  159.1655 H   0  0  0  0  0  0  0  0  0  0  0  0
  150.2678  134.5514  153.9933 H   0  0  0  0  0  0  0  0  0  0  0  0
  150.1549  133.4186  155.2990 H   0  0  0  0  0  0  0  0  0  0  0  0
  148.7867  133.0654  153.0487 H   0  0  0  0  0  0  0  0  0  0  0  0
  147.7547  131.8750  151.6419 H   0  0  0  0  0  0  0  0  0  0  0  0
  145.2404  130.8287  151.5353 H   0  0  0  0  0  0  0  0  0  0  0  0
  146.6151  132.4266  149.2422 H   0  0  0  0  0  0  0  0  0  0  0  0
  145.3084  131.1452  149.0652 H   0  0  0  0  0  0  0  0  0  0  0  0
  143.7622  132.5320  150.4720 H   0  0  0  0  0  0  0  0  0  0  0  0
  145.0714  133.8113  150.6490 H   0  0  0  0  0  0  0  0  0  0  0  0
  150.4998  136.7215  154.3076 H   0  0  0  0  0  0  0  0  0  0  0  0
  1  2  1  0  0  0  0
  1 24  1  0  0  0  0
  1 25  1  0  0  0  0
  1 26  1  0  0  0  0
  2  3  1  0  0  0  0
  2  4  1  0  0  0  0
  3 27  1  0  0  0  0
  3 28  1  0  0  0  0
  3 29  1  0  0  0  0
  4  5  2  0  0  0  0
  4  6  2  0  0  0  0
  4  7  1  0  0  0  0
  7 23  2  0  0  0  0
  7  8  1  0  0  0  0
  8  9  2  0  0  0  0
  8 30  1  0  0  0  0
  9 10  1  0  0  0  0
  9 31  1  0  0  0  0
 10 11  2  0  0  0  0
 10 12  1  0  0  0  0
 12 13  1  0  0  0  0
 12 23  1  0  0  0  0
 13 14  1  0  0  0  0
 13 32  1  0  0  0  0
 13 33  1  0  0  0  0
 14 15  2  0  0  0  0
 14 16  1  0  0  0  0
 16 17  1  0  0  0  0
 16 34  1  0  0  0  0
 17 18  2  0  0  0  0
 17 19  1  0  0  0  0
 19 20  1  0  0  0  0
 19 35  1  0  0  0  0
 20 22  1  0  0  0  0
 20 21  1  0  0  0  0
 20 36  1  0  0  0  0
 21 22  1  0  0  0  0
 21 37  1  0  0  0  0
 21 38  1  0  0  0  0
 22 39  1  0  0  0  0
 22 40  1  0  0  0  0
 23 41  1  0  0  0  0
M  END
> <s_m_source_file>
AV-unprocessed.smi

> <i_m_source_file_index>
478

> <i_lp_mmshare_version>
43012

> <i_f3d_flags>
0

> <s_epik_input>
W0NIM11OKFtDSDNdKVMoPU8pKD1PKWMxW2NIXVtjSF1jKD1PKW4oW2NIXTEpW0NIMl1DKD1PKVtOSF1DKD1PKVtOSF1bQ0hdMltDSDJdW0NIMl0y

> <s_epik_cmdline>
J2VwaWtfcHl0aG9uJywgJy1waCcsICc3LjAnLCAnLXRuJywgJzgnLCAnLW1hJywgJzIwMCcsICctbWV0YWxfYmluZGluZycsICctaW1hZScsICc8aW5maWxlLm1hZT4nLCAnLW9tYWUnLCAnPG91dGZpbGUubWFlPic=

> <r_lp_tautomer_probability>
1

> <r_epik_Ionization_Penalty>
3.37124e-05

> <r_epik_Ionization_Penalty_Charging>
7.23904e-09

> <r_epik_Ionization_Penalty_Neutral>
3.37051e-05

> <r_epik_State_Penalty>
-0

> <r_epik_Charging_Adjusted_Penalty>
7.23904e-09

> <i_epik_Tot_Q>
0

> <i_epik_Tot_abs_Q>
0

> <r_epik_Metal_State_Penalty>
-0

> <b_epik_Metal_Only>
0

> <s_lp_Force_Field>
OPLS_2005

> <r_lp_Energy>
28.3578

> <b_lp_Chiralities_Consistent>
1

> <s_lp_Variant>
AV-unprocessed.smi:478-1

> <Gold.Version>
5.8.1

> <Gold.Id.Protein>
6NUR|6NUR_protein|mol2

> <Gold.PLP.Fitness>
41.0334

> <Gold.PLP.PLP>
-30.5616

> <Gold.PLP.part.hbond>
-4.0924

> <Gold.PLP.part.metal>
0.0000

> <Gold.PLP.part.buried>
-4.9388

> <Gold.PLP.part.nonpolar>
-23.1572

> <Gold.PLP.part.repulsive>
0.3912

> <Gold.PLP.ligand.clash>
0.0000

> <Gold.PLP.ligand.torsion>
1.9214

> <Gold.PLP.Chemscore.Hbond>
3.6175

> <Gold.PLP.Chemscore.CHOScore>
0.2806

> <Gold.PLP.Chemscore.Metal>
0.0000

> <Gold.Chemscore.Hbonds>
donor molecule, donor type, donor heavy atom, donor atom, acceptor molecule, acceptor atom, score
      L1  H    19    35       P1 10747  0.84
      P1  H  6896  6908       L1    11  0.81
      P1  H  7989  7998       L1     5  0.95
      P1  H  7997  8010       L1     6  1.00
      L1  C    23    41       P1  7948  0.08

> <Gold.PLP.Chemscore.Internal.Correction>
2.6202

> <Gold.Rescore>
     Score         DG    S(hbond)    S(metal)    S(lipo)     H(rot)  DE(clash)    DE(int)     intcor
     13.10     -17.31       2.88        0.00      61.48       1.95       0.01       4.21       ----

> <Gold.Chemscore.Fitness>
13.0986

> <Gold.Chemscore.DG>
-17.3127

> <Gold.Chemscore.ZeroCoef>
-5.4800

> <Gold.Chemscore.Hbond>
2.8804

> <Gold.Chemscore.Metal>
0.0000

> <Gold.Chemscore.Lipo>
61.4839

> <Gold.Chemscore.Internal_Hbond>
0.0000

> <Gold.Chemscore.DEClash>
0.0084

> <Gold.Chemscore.DEInternal>
4.2057

> <Gold.Chemscore.Rot>
1.9459

> <Gold.Chemscore.Internal.Correction>
   9.000000E+99

> <Gold.Chemscore.Hbonds>
donor molecule, donor type, donor heavy atom, donor atom, acceptor molecule, acceptor atom, score
      L1  H    19    35       P1 10747  0.78
      P1  H  6896  6908       L1    11  0.20
      P1  H  7989  7998       L1     5  0.21
      P1  H  7997  8010       L1     6  0.95

> <Gold.Chemscore.Hbond.Weighted>
-9.6206

> <Gold.Chemscore.Metal.Weighted>
-0.0000

> <Gold.Chemscore.Lipo.Weighted>
-7.1936

> <Gold.Chemscore.Internal_Hbond.Weighted>
0.0000

> <Gold.Chemscore.DEClash.Weighted>
0.0084

> <Gold.Chemscore.DEInternal.Weighted>
4.2057

> <Gold.Chemscore.Rot.Weighted>
4.9815

> <Gold.Chemscore.Internal.Correction.Weighted>
   9.000000E+99

> <Gold.Protein.RotatedTorsions>
[ 6907 6896 6895 6894 ] final  126.99 input  -60.11 | X-H torsion
[ 7974 7965 7964 7962 ] final  102.52 input  175.53 | X-H torsion
[ 8008 7997 7996 7995 ] final  101.82 input   59.86 | X-H torsion
[ 10167 10162 10161 10158 ] final   79.04 input  -65.29 | X-H torsion
[ 10718 10713 10712 10709 ] final  163.62 input   66.30 | X-H torsion
[ 10763 10752 10751 10750 ] final -169.56 input  -60.55 | X-H torsion
[ 11005 11000 10999 10996 ] final -114.65 input  -57.11 | X-H torsion

> <Gold.Protein.ActiveResidues>
 VAL166  LYS551  ARG553  GLY616  TRP617  ASP618  TYR619  PRO620  LYS621  CYS622 
 ASP623  PHE694  ASN695  SER759  ASP760  ASP761  ALA762  ILE779  LEU786  VAL792 
 PHE793  MET794  SER795  GLU796  ALA797  LYS798  CYS799  TRP800  GLU811  SER814 

> <Gold.Protein.RotatedAtoms>
  152.3853  133.6603  159.6193 H   0  0  0  0  0  0  0  0  0  0  0  0  # atno 6907 bound_to 6896
  150.7774  133.9045  159.3360 H   0  0  0  0  0  0  0  0  0  0  0  0  # atno 6908 bound_to 6896
  151.6842  135.0958  160.0273 H   0  0  0  0  0  0  0  0  0  0  0  0  # atno 6909 bound_to 6896
  145.3581  139.2424  143.3522 H   0  0  0  0  0  0  0  0  0  0  0  0  # atno 7974 bound_to 7965
  156.1335  140.3191  155.8386 H   0  0  0  0  0  0  0  0  0  0  0  0  # atno 8008 bound_to 7997
  155.4287  140.0517  157.3037 H   0  0  0  0  0  0  0  0  0  0  0  0  # atno 8009 bound_to 7997
  154.4918  140.2095  155.9544 H   0  0  0  0  0  0  0  0  0  0  0  0  # atno 8010 bound_to 7997
  139.9645  144.5938  150.8041 H   0  0  0  0  0  0  0  0  0  0  0  0  # atno 10167 bound_to 10162
  157.1060  131.0455  151.2478 H   0  0  0  0  0  0  0  0  0  0  0  0  # atno 10718 bound_to 10713
  154.6510  135.2911  154.9987 H   0  0  0  0  0  0  0  0  0  0  0  0  # atno 10763 bound_to 10752
  154.1080  135.6567  153.4884 H   0  0  0  0  0  0  0  0  0  0  0  0  # atno 10764 bound_to 10752
  153.0376  135.5258  154.7418 H   0  0  0  0  0  0  0  0  0  0  0  0  # atno 10765 bound_to 10752
  141.0538  133.9645  157.2790 H   0  0  0  0  0  0  0  0  0  0  0  0  # atno 11005 bound_to 11000
  146.2939  140.4209  142.8729 LP  0  0  0  0  0  0  0  0  0  0  0  0  # atno 17320 bound_to 7965
  144.8667  140.7216  143.6073 LP  0  0  0  0  0  0  0  0  0  0  0  0  # atno 17321 bound_to 7965
  140.7542  143.3023  151.3049 LP  0  0  0  0  0  0  0  0  0  0  0  0  # atno 17342 bound_to 10162
  139.6528  144.0331  152.2638 LP  0  0  0  0  0  0  0  0  0  0  0  0  # atno 17343 bound_to 10162
  157.4600  130.7648  149.7228 LP  0  0  0  0  0  0  0  0  0  0  0  0  # atno 17370 bound_to 10713
  155.9862  130.3977  150.3224 LP  0  0  0  0  0  0  0  0  0  0  0  0  # atno 17371 bound_to 10713
  139.9373  135.0195  156.8596 LP  0  0  0  0  0  0  0  0  0  0  0  0  # atno 17394 bound_to 11000
  140.6003  134.0178  155.7535 LP  0  0  0  0  0  0  0  0  0  0  0  0  # atno 17395 bound_to 11000

$$$$
