#       Name:                AV-unprocessed.smi:1867
#       Creating user name   scv26
#       Creation time:       Fri Mar 27 09:28:11 2020


#       File generated by GOLD software.
#

@<TRIPOS>MOLECULE
AV-unprocessed.smi:1867
    55    58     1
SMALL
NO_CHARGES


@<TRIPOS>ATOM
      1 ****        -1.0451   2.9566   1.1831 O.2            1 S1                 0.0000
      2 ****        -1.4008   1.8001   0.9700 C.2            1 S1                 0.0000
      3 ****        -0.5640   0.7529   0.8376 N.am           1 S1                 0.0000
      4 ****         0.8526   0.7340   0.9287 C.ar           1 S1                 0.0000
      5 ****         1.5407  -0.3315   0.3172 C.ar           1 S1                 0.0000
      6 ****         2.9438  -0.3888   0.4103 C.ar           1 S1                 0.0000
      7 ****         3.6263   0.6235   1.1254 C.ar           1 S1                 0.0000
      8 ****         5.0291   0.6005   1.2522 N.pl3          1 S1                 0.0000
      9 ****         5.7641   1.6967   1.8637 C.3            1 S1                 0.0000
     10 ****         7.2343   1.3242   1.6806 C.3            1 S1                 0.0000
     11 ****         7.2357   0.5606   0.3562 C.3            1 S1                 0.0000
     12 ****         5.8743  -0.1441   0.3291 C.3            1 S1                 0.0000
     13 ****         2.9636   1.6378   1.7302 N.ar           1 S1                 0.0000
     14 ****         1.6185   1.6913   1.6349 C.ar           1 S1                 0.0000
     15 ****        -2.7021   1.4916   0.8225 N.am           1 S1                 0.0000
     16 ****        -3.8687   2.3738   0.9017 C.3            1 S1                 0.0000
     17 ****        -5.0226   1.9050   0.0229 C.3            1 S1                 0.0000
     18 ****        -6.2180   2.6331   0.6393 C.3            1 S1                 0.0000
     19 ****        -5.9390   2.7163   2.0912 N.4            1 S1                 1.0000
     20 ****        -6.4244   3.9583   2.7410 C.3            1 S1                 0.0000
     21 ****        -6.1100   3.9442   4.2484 C.3            1 S1                 0.0000
     22 ****        -4.6422   3.5820   4.5573 C.3            1 S1                 0.0000
     23 ****        -3.8073   3.3789   3.2836 C.3            1 S1                 0.0000
     24 ****        -4.4979   2.4000   2.3063 C.3            1 S1                 0.0000
     25 ****        -0.9909  -0.1248   0.5817 H              1 S1                 0.0000
     26 ****         1.0021  -1.0982  -0.2205 H              1 S1                 0.0000
     27 ****         3.4724  -1.2069  -0.0558 H              1 S1                 0.0000
     28 ****         5.5340   2.6261   1.3413 H              1 S1                 0.0000
     29 ****         5.5068   1.8177   2.9164 H              1 S1                 0.0000
     30 ****         7.8945   2.1918   1.6760 H              1 S1                 0.0000
     31 ****         7.5507   0.6621   2.4876 H              1 S1                 0.0000
     32 ****         7.2962   1.2693  -0.4708 H              1 S1                 0.0000
     33 ****         8.0727  -0.1320   0.2649 H              1 S1                 0.0000
     34 ****         5.9636  -1.1710   0.6845 H              1 S1                 0.0000
     35 ****         5.4652  -0.1640  -0.6815 H              1 S1                 0.0000
     36 ****         1.1612   2.5136   2.1624 H              1 S1                 0.0000
     37 ****        -2.9037   0.5225   0.6220 H              1 S1                 0.0000
     38 ****        -3.6173   3.3888   0.5872 H              1 S1                 0.0000
     39 ****        -4.8797   2.1445  -1.0314 H              1 S1                 0.0000
     40 ****        -5.1579   0.8258   0.1107 H              1 S1                 0.0000
     41 ****        -6.2847   3.6362   0.2147 H              1 S1                 0.0000
     42 ****        -7.1630   2.1260   0.4438 H              1 S1                 0.0000
     43 ****        -5.9597   4.8256   2.2694 H              1 S1                 0.0000
     44 ****        -7.4993   4.0552   2.5844 H              1 S1                 0.0000
     45 ****        -6.3507   4.9175   4.6772 H              1 S1                 0.0000
     46 ****        -6.7652   3.2283   4.7465 H              1 S1                 0.0000
     47 ****        -4.1874   4.3532   5.1796 H              1 S1                 0.0000
     48 ****        -4.6178   2.6654   5.1477 H              1 S1                 0.0000
     49 ****        -3.6489   4.3438   2.7998 H              1 S1                 0.0000
     50 ****        -2.8170   3.0086   3.5499 H              1 S1                 0.0000
     51 ****        -4.4723   1.3958   2.7330 H              1 S1                 0.0000
     52 ****        -6.4461   1.9571   2.5235 H              1 S1                 0.0000
     53 ****        -0.0726   3.1726   1.2703 LP             1 S1                 0.0000
     54 ****        -1.7281   3.6820   1.2694 LP             1 S1                 0.0000
     55 ****         3.4639   2.3374   2.2403 LP             1 S1                 0.0000
@<TRIPOS>BOND
    1    1    2 2     
    2    2    3 am    
    3    2   15 am    
    4    3    4 1     
    5    3   25 1     
    6    4   14 ar    
    7    4    5 ar    
    8    5    6 ar    
    9    5   26 1     
   10    6    7 ar    
   11    6   27 1     
   12    7    8 1     
   13    7   13 ar    
   14    8   12 1     
   15    8    9 1     
   16    9   10 1     
   17    9   28 1     
   18    9   29 1     
   19   10   11 1     
   20   10   30 1     
   21   10   31 1     
   22   11   12 1     
   23   11   32 1     
   24   11   33 1     
   25   12   34 1     
   26   12   35 1     
   27   13   14 ar    
   28   14   36 1     
   29   15   16 1     
   30   15   37 1     
   31   16   24 1     
   32   16   17 1     
   33   16   38 1     
   34   17   18 1     
   35   17   39 1     
   36   17   40 1     
   37   18   19 1     
   38   18   41 1     
   39   18   42 1     
   40   19   24 1     
   41   19   20 1     
   42   19   52 1     
   43   20   21 1     
   44   20   43 1     
   45   20   44 1     
   46   21   22 1     
   47   21   45 1     
   48   21   46 1     
   49   22   23 1     
   50   22   47 1     
   51   22   48 1     
   52   23   24 1     
   53   23   49 1     
   54   23   50 1     
   55   24   51 1     
   56    1   53 1     
   57    1   54 1     
   58   13   55 1     
@<TRIPOS>SUBSTRUCTURE
      1 S1             1
@<TRIPOS>SET
LONE_PAIRS      STATIC     ATOMS    <user>   **** ""
3 53 54 55
DONOR_HYDROGENS      STATIC     ATOMS    <user>   **** ""
3 25 37 52
ATOM$BLUE        STATIC     ATOMS    COLORGROUP SYSTEM
3 53 54 55
ATOM$RED        STATIC     ATOMS    COLORGROUP SYSTEM
3 25 37 52
