AV-unprocessed.smi:3148|AV-procd|sdf|11995|dock6
  -GOLD-   2272017403D 1   1.00000     0.00000
 Structure written by MMmdl.
 35 37  0  0  0  0  0  0  0  0  2 V2000
  153.7300  141.3559  160.9127 C   0  0  0  0  0  0  0  0  0  0  0  0
  152.7617  140.9180  159.9655 O   0  0  0  0  0  0  0  0  0  0  0  0
  152.0588  141.8728  159.2601 C   0  0  0  0  0  0  0  0  0  0  0  0
  152.2276  143.2312  159.5747 C   0  0  0  0  0  0  0  0  0  0  0  0
  151.4859  144.1603  158.8199 C   0  0  0  0  0  0  0  0  0  0  0  0
  151.5848  145.6519  159.0573 C   0  0  0  0  0  0  0  0  0  0  0  0
  150.6526  143.7297  157.8401 N   0  3  0  0  0  0  0  0  0  0  0  0
  150.5371  142.4174  157.5879 C   0  0  0  0  0  0  0  0  0  0  0  0
  149.6803  142.0334  156.5722 N   0  0  0  0  0  0  0  0  0  0  0  0
  149.4484  140.6490  156.1799 C   0  0  2  0  0  0  0  0  0  0  0  0
  150.7336  139.8117  156.1503 C   0  0  0  0  0  0  0  0  0  0  0  0
  150.7350  139.2862  154.7095 C   0  0  1  0  0  0  0  0  0  0  0  0
  149.6199  138.2607  154.4641 C   0  0  0  0  0  0  0  0  0  0  0  0
  148.3768  139.1497  154.4431 C   0  0  0  0  0  0  0  0  0  0  0  0
  148.9740  140.5358  154.7218 C   0  0  2  0  0  0  0  0  0  0  0  0
  150.2086  140.4144  154.0339 O   0  0  0  0  0  0  0  0  0  0  0  0
  151.2169  141.4874  158.2730 N   0  0  0  0  0  0  0  0  0  0  0  0
  154.1884  140.4886  161.3874 H   0  0  0  0  0  0  0  0  0  0  0  0
  153.2750  141.9608  161.6987 H   0  0  0  0  0  0  0  0  0  0  0  0
  154.5253  141.9300  160.4349 H   0  0  0  0  0  0  0  0  0  0  0  0
  152.8996  143.5441  160.3607 H   0  0  0  0  0  0  0  0  0  0  0  0
  152.1949  145.8716  159.9340 H   0  0  0  0  0  0  0  0  0  0  0  0
  150.5945  146.0794  159.2169 H   0  0  0  0  0  0  0  0  0  0  0  0
  152.0372  146.1423  158.1950 H   0  0  0  0  0  0  0  0  0  0  0  0
  149.3069  142.7600  155.9791 H   0  0  0  0  0  0  0  0  0  0  0  0
  148.7047  140.2131  156.8485 H   0  0  0  0  0  0  0  0  0  0  0  0
  151.6197  140.4237  156.3269 H   0  0  0  0  0  0  0  0  0  0  0  0
  150.7280  139.0078  156.8871 H   0  0  0  0  0  0  0  0  0  0  0  0
  151.7160  138.9681  154.3558 H   0  0  0  0  0  0  0  0  0  0  0  0
  149.7511  137.7643  153.5019 H   0  0  0  0  0  0  0  0  0  0  0  0
  149.5825  137.4966  155.2411 H   0  0  0  0  0  0  0  0  0  0  0  0
  147.9053  139.1230  153.4598 H   0  0  0  0  0  0  0  0  0  0  0  0
  147.6332  138.8573  155.1851 H   0  0  0  0  0  0  0  0  0  0  0  0
  148.3422  141.3580  154.3836 H   0  0  0  0  0  0  0  0  0  0  0  0
  150.1227  144.4130  157.2986 H   0  0  0  0  0  0  0  0  0  0  0  0
  1  2  1  0  0  0  0
  1 18  1  0  0  0  0
  1 19  1  0  0  0  0
  1 20  1  0  0  0  0
  2  3  1  0  0  0  0
  3 17  1  0  0  0  0
  3  4  2  0  0  0  0
  4  5  1  0  0  0  0
  4 21  1  0  0  0  0
  5  6  1  0  0  0  0
  5  7  2  0  0  0  0
  6 22  1  0  0  0  0
  6 23  1  0  0  0  0
  6 24  1  0  0  0  0
  7  8  1  0  0  0  0
  7 35  1  0  0  0  0
  8  9  1  0  0  0  0
  8 17  2  0  0  0  0
  9 10  1  0  0  0  0
  9 25  1  0  0  0  0
 10 15  1  0  0  0  0
 10 11  1  0  0  0  0
 10 26  1  0  0  0  0
 11 12  1  0  0  0  0
 11 27  1  0  0  0  0
 11 28  1  0  0  0  0
 12 16  1  0  0  0  0
 12 13  1  0  0  0  0
 12 29  1  0  0  0  0
 13 14  1  0  0  0  0
 13 30  1  0  0  0  0
 13 31  1  0  0  0  0
 14 15  1  0  0  0  0
 14 32  1  0  0  0  0
 14 33  1  0  0  0  0
 15 16  1  0  0  0  0
 15 34  1  0  0  0  0
M  CHG  1   7   1
M  END
> <s_m_source_file>
AV-unprocessed.smi

> <i_m_source_file_index>
3148

> <i_lp_mmshare_version>
43012

> <i_f3d_flags>
0

> <s_epik_input>
W0NIM11PYzFbY0hdYyhbQ0gzXSluYyhuMSlbTkhdW0NASF0oW0NIMl1bQ0BASF0yMylbQ0BASF0oTzMpW0NIMl1bQ0gyXTI=

> <s_epik_cmdline>
J2VwaWtfcHl0aG9uJywgJy1waCcsICc3LjAnLCAnLXRuJywgJzgnLCAnLW1hJywgJzIwMCcsICctbWV0YWxfYmluZGluZycsICctaW1hZScsICc8aW5maWxlLm1hZT4nLCAnLW9tYWUnLCAnPG91dGZpbGUubWFlPic=

> <r_lp_tautomer_probability>
0.999985

> <r_epik_Ionization_Penalty>
1.09461

> <r_epik_Ionization_Penalty_Charging>
1.0946

> <r_epik_Ionization_Penalty_Neutral>
6.69406e-06

> <r_epik_State_Penalty>
1.15119

> <r_epik_Charging_Adjusted_Penalty>
2.24579

> <i_epik_Tot_Q>
1

> <i_epik_Tot_abs_Q>
1

> <r_epik_Metal_State_Penalty>
1.2392

> <b_epik_Metal_Only>
0

> <s_lp_Force_Field>
OPLS_2005

> <r_lp_Energy>
35.8621

> <b_lp_Chiralities_Consistent>
1

> <s_lp_Variant>
AV-unprocessed.smi:3148-5

> <Gold.Version>
5.8.1

> <Gold.Id.Protein>
6NUR|6NUR_protein|mol2

> <Gold.PLP.Fitness>
44.0404

> <Gold.PLP.PLP>
-31.3924

> <Gold.PLP.part.hbond>
-2.7100

> <Gold.PLP.part.metal>
0.0000

> <Gold.PLP.part.buried>
-3.4476

> <Gold.PLP.part.nonpolar>
-27.5098

> <Gold.PLP.part.repulsive>
1.3131

> <Gold.PLP.ligand.clash>
0.1027

> <Gold.PLP.ligand.torsion>
0.3314

> <Gold.PLP.Chemscore.Hbond>
4.4648

> <Gold.PLP.Chemscore.CHOScore>
0.0000

> <Gold.PLP.Chemscore.Metal>
0.0000

> <Gold.Chemscore.Hbonds>
donor molecule, donor type, donor heavy atom, donor atom, acceptor molecule, acceptor atom, score
      L1  H     7    35       P1  8028  1.84
      L1  H     9    25       P1  8028  2.00
      P1  H  7989  7998       L1    16  0.62

> <Gold.PLP.Chemscore.Internal.Correction>
0.0190

> <Gold.Rescore>
     Score         DG    S(hbond)    S(metal)    S(lipo)     H(rot)  DE(clash)    DE(int)     intcor
     17.01     -19.09       2.30        0.00      77.86       1.24       0.08       2.00       ----

> <Gold.Chemscore.Fitness>
17.0130

> <Gold.Chemscore.DG>
-19.0913

> <Gold.Chemscore.ZeroCoef>
-5.4800

> <Gold.Chemscore.Hbond>
2.2965

> <Gold.Chemscore.Metal>
0.0000

> <Gold.Chemscore.Lipo>
77.8564

> <Gold.Chemscore.Internal_Hbond>
0.0000

> <Gold.Chemscore.DEClash>
0.0799

> <Gold.Chemscore.DEInternal>
1.9984

> <Gold.Chemscore.Rot>
1.2376

> <Gold.Chemscore.Internal.Correction>
   9.000000E+99

> <Gold.Chemscore.Hbonds>
donor molecule, donor type, donor heavy atom, donor atom, acceptor molecule, acceptor atom, score
      L1  H     7    35       P1  8028  0.41
      L1  H     9    25       P1  8028  0.88
      P1  H  7989  7998       L1    16  0.08

> <Gold.Chemscore.Hbond.Weighted>
-7.6703

> <Gold.Chemscore.Metal.Weighted>
-0.0000

> <Gold.Chemscore.Lipo.Weighted>
-9.1092

> <Gold.Chemscore.Internal_Hbond.Weighted>
0.0000

> <Gold.Chemscore.DEClash.Weighted>
0.0799

> <Gold.Chemscore.DEInternal.Weighted>
1.9984

> <Gold.Chemscore.Rot.Weighted>
3.1681

> <Gold.Chemscore.Internal.Correction.Weighted>
   9.000000E+99

> <Gold.Protein.RotatedTorsions>
[ 6907 6896 6895 6894 ] final -149.13 input  -60.11 | X-H torsion
[ 7974 7965 7964 7962 ] final  174.05 input  175.53 | X-H torsion
[ 8008 7997 7996 7995 ] final  -68.80 input   59.86 | X-H torsion
[ 10167 10162 10161 10158 ] final  -13.96 input  -65.29 | X-H torsion
[ 10718 10713 10712 10709 ] final  -52.07 input   66.30 | X-H torsion
[ 10763 10752 10751 10750 ] final  110.73 input  -60.55 | X-H torsion
[ 11005 11000 10999 10996 ] final   41.51 input  -57.11 | X-H torsion

> <Gold.Protein.ActiveResidues>
 VAL166  LYS551  ARG553  GLY616  TRP617  ASP618  TYR619  PRO620  LYS621  CYS622 
 ASP623  PHE694  ASN695  SER759  ASP760  ASP761  ALA762  ILE779  LEU786  VAL792 
 PHE793  MET794  SER795  GLU796  ALA797  LYS798  CYS799  TRP800  GLU811  SER814 

> <Gold.Protein.RotatedAtoms>
  151.1798  133.4732  159.2593 H   0  0  0  0  0  0  0  0  0  0  0  0  # atno 6907 bound_to 6896
  151.1271  135.0110  159.8575 H   0  0  0  0  0  0  0  0  0  0  0  0  # atno 6908 bound_to 6896
  152.5458  134.1704  159.8647 H   0  0  0  0  0  0  0  0  0  0  0  0  # atno 6909 bound_to 6896
  144.7230  139.9738  143.6437 H   0  0  0  0  0  0  0  0  0  0  0  0  # atno 7974 bound_to 7965
  154.4894  140.0866  156.7559 H   0  0  0  0  0  0  0  0  0  0  0  0  # atno 8008 bound_to 7997
  155.4269  140.3448  155.4258 H   0  0  0  0  0  0  0  0  0  0  0  0  # atno 8009 bound_to 7997
  156.1307  140.1500  156.9057 H   0  0  0  0  0  0  0  0  0  0  0  0  # atno 8010 bound_to 7997
  140.7192  143.5371  150.9452 H   0  0  0  0  0  0  0  0  0  0  0  0  # atno 10167 bound_to 10162
  156.1654  130.4149  149.9728 H   0  0  0  0  0  0  0  0  0  0  0  0  # atno 10718 bound_to 10713
  153.4532  135.3739  155.2295 H   0  0  0  0  0  0  0  0  0  0  0  0  # atno 10763 bound_to 10752
  154.8756  135.3890  154.4014 H   0  0  0  0  0  0  0  0  0  0  0  0  # atno 10764 bound_to 10752
  153.4576  135.7086  153.6134 H   0  0  0  0  0  0  0  0  0  0  0  0  # atno 10765 bound_to 10752
  140.1827  134.4083  155.8190 H   0  0  0  0  0  0  0  0  0  0  0  0  # atno 11005 bound_to 11000
  146.0541  139.3540  143.0621 LP  0  0  0  0  0  0  0  0  0  0  0  0  # atno 17320 bound_to 7965
  145.8177  140.9695  143.0915 LP  0  0  0  0  0  0  0  0  0  0  0  0  # atno 17321 bound_to 7965
  139.9093  143.6740  152.3118 LP  0  0  0  0  0  0  0  0  0  0  0  0  # atno 17342 bound_to 10162
  139.7117  144.7619  151.1101 LP  0  0  0  0  0  0  0  0  0  0  0  0  # atno 17343 bound_to 10162
  156.7545  130.9127  151.3639 LP  0  0  0  0  0  0  0  0  0  0  0  0  # atno 17370 bound_to 10713
  157.6764  130.9098  150.0160 LP  0  0  0  0  0  0  0  0  0  0  0  0  # atno 17371 bound_to 10713
  141.2223  133.7008  156.7959 LP  0  0  0  0  0  0  0  0  0  0  0  0  # atno 17394 bound_to 11000
  140.2248  134.8730  157.3415 LP  0  0  0  0  0  0  0  0  0  0  0  0  # atno 17395 bound_to 11000

$$$$
