AV-unprocessed.smi:1550|AV-procd|sdf|6228|dock2
  -GOLD-   22720 6403D 1   1.00000     0.00000
 Structure written by MMmdl.
 42 43  0  0  0  0  0  0  0  0  2 V2000
  152.6087  138.0030  157.7973 C   0  0  0  0  0  0  0  0  0  0  0  0
  151.0921  138.2450  157.8109 C   0  0  2  0  0  0  0  0  0  0  0  0
  150.8694  139.5534  158.3295 O   0  0  0  0  0  0  0  0  0  0  0  0
  151.0881  140.6183  157.4107 C   0  0  0  0  0  0  0  0  0  0  0  0
  151.2294  141.9274  158.1978 C   0  0  2  0  0  0  0  0  0  0  0  0
  151.5662  143.1176  157.2780 C   0  0  0  0  0  0  0  0  0  0  0  0
  151.7873  144.3904  158.1032 C   0  0  0  0  0  0  0  0  0  0  0  0
  152.8315  144.1249  159.1927 C   0  0  0  0  0  0  0  0  0  0  0  0
  152.4421  142.8844  160.0119 C   0  0  0  0  0  0  0  0  0  0  0  0
  152.2831  141.7652  159.1457 O   0  0  0  0  0  0  0  0  0  0  0  0
  150.3649  137.2010  158.6738 C   0  0  0  0  0  0  0  0  0  0  0  0
  150.7188  137.0312  159.8401 O   0  0  0  0  0  0  0  0  0  0  0  0
  149.3465  136.5618  158.0651 N   0  0  0  0  0  0  0  0  0  0  0  0
  148.4787  135.5706  158.5562 C   0  0  0  0  0  0  0  0  0  0  0  0
  148.0698  135.4577  159.8507 C   0  0  0  0  0  0  0  0  0  0  0  0
  147.1699  134.4010  160.2956 C   0  0  0  0  0  0  0  0  0  0  0  0
  146.7519  134.2035  161.7421 C   0  0  0  0  0  0  0  0  0  0  0  0
  147.2501  133.0696  162.2358 F   0  0  0  0  0  0  0  0  0  0  0  0
  147.1725  135.2141  162.5032 F   0  0  0  0  0  0  0  0  0  0  0  0
  145.4236  134.1448  161.8262 F   0  0  0  0  0  0  0  0  0  0  0  0
  146.8264  133.5393  159.2723 C   0  0  0  0  0  0  0  0  0  0  0  0
  147.1793  133.5830  157.9690 N   0  5  0  0  0  0  0  0  0  0  0  0
  148.0107  134.5831  157.5613 C   0  0  0  0  0  0  0  0  0  0  0  0
  148.3754  134.6788  156.3888 O   0  0  0  0  0  0  0  0  0  0  0  0
  152.8467  137.0047  157.4278 H   0  0  0  0  0  0  0  0  0  0  0  0
  153.0419  138.1059  158.7930 H   0  0  0  0  0  0  0  0  0  0  0  0
  153.1079  138.7216  157.1472 H   0  0  0  0  0  0  0  0  0  0  0  0
  150.7311  138.1955  156.7813 H   0  0  0  0  0  0  0  0  0  0  0  0
  151.9810  140.4343  156.8114 H   0  0  0  0  0  0  0  0  0  0  0  0
  150.2449  140.7008  156.7242 H   0  0  0  0  0  0  0  0  0  0  0  0
  150.2922  142.1292  158.7198 H   0  0  0  0  0  0  0  0  0  0  0  0
  152.4650  142.8953  156.7013 H   0  0  0  0  0  0  0  0  0  0  0  0
  150.7644  143.2780  156.5565 H   0  0  0  0  0  0  0  0  0  0  0  0
  152.1065  145.2118  157.4610 H   0  0  0  0  0  0  0  0  0  0  0  0
  150.8469  144.6968  158.5631 H   0  0  0  0  0  0  0  0  0  0  0  0
  153.8085  143.9654  158.7344 H   0  0  0  0  0  0  0  0  0  0  0  0
  152.9281  144.9939  159.8438 H   0  0  0  0  0  0  0  0  0  0  0  0
  153.2194  142.6577  160.7419 H   0  0  0  0  0  0  0  0  0  0  0  0
  151.5218  143.0594  160.5712 H   0  0  0  0  0  0  0  0  0  0  0  0
  149.1447  136.8522  157.1193 H   0  0  0  0  0  0  0  0  0  0  0  0
  148.4085  136.1484  160.6042 H   0  0  0  0  0  0  0  0  0  0  0  0
  146.1691  132.6851  159.5417 H   0  0  0  0  0  0  0  0  0  0  0  0
  1  2  1  0  0  0  0
  1 25  1  0  0  0  0
  1 26  1  0  0  0  0
  1 27  1  0  0  0  0
  2  3  1  0  0  0  0
  2 11  1  0  0  0  0
  2 28  1  0  0  0  0
  3  4  1  0  0  0  0
  4  5  1  0  0  0  0
  4 29  1  0  0  0  0
  4 30  1  0  0  0  0
  5 10  1  0  0  0  0
  5  6  1  0  0  0  0
  5 31  1  0  0  0  0
  6  7  1  0  0  0  0
  6 32  1  0  0  0  0
  6 33  1  0  0  0  0
  7  8  1  0  0  0  0
  7 34  1  0  0  0  0
  7 35  1  0  0  0  0
  8  9  1  0  0  0  0
  8 36  1  0  0  0  0
  8 37  1  0  0  0  0
  9 10  1  0  0  0  0
  9 38  1  0  0  0  0
  9 39  1  0  0  0  0
 11 12  2  0  0  0  0
 11 13  1  0  0  0  0
 13 14  1  0  0  0  0
 13 40  1  0  0  0  0
 14 23  1  0  0  0  0
 14 15  2  0  0  0  0
 15 16  1  0  0  0  0
 15 41  1  0  0  0  0
 16 17  1  0  0  0  0
 16 21  2  0  0  0  0
 17 18  1  0  0  0  0
 17 19  1  0  0  0  0
 17 20  1  0  0  0  0
 21 22  1  0  0  0  0
 21 42  1  0  0  0  0
 22 23  1  0  0  0  0
 23 24  2  0  0  0  0
M  CHG  1  22  -1
M  END
> <s_m_source_file>
AV-unprocessed.smi

> <i_m_source_file_index>
1550

> <i_lp_mmshare_version>
43012

> <i_f3d_flags>
0

> <s_epik_input>
TzFbQ0gyXVtDSDJdW0NIMl1bQ0gyXVtDQEhdMVtDSDJdT1tDQEBIXShbQ0gzXSlDKD1PKVtOSF1jMltjSF1jKEMoRikoRilGKVtjSF1bbkhdYzI9Tw==

> <s_epik_cmdline>
J2VwaWtfcHl0aG9uJywgJy1waCcsICc3LjAnLCAnLXRuJywgJzgnLCAnLW1hJywgJzIwMCcsICctbWV0YWxfYmluZGluZycsICctaW1hZScsICc8aW5maWxlLm1hZT4nLCAnLW9tYWUnLCAnPG91dGZpbGUubWFlPic=

> <r_epik_Ionization_Penalty>
2.54933

> <r_epik_Ionization_Penalty_Charging>
0.0583423

> <r_epik_Ionization_Penalty_Neutral>
2.49099

> <r_epik_State_Penalty>
2.65532

> <r_epik_Charging_Adjusted_Penalty>
2.71366

> <i_epik_Tot_Q>
-1

> <i_epik_Tot_abs_Q>
1

> <r_epik_Metal_State_Penalty>
0.516364

> <b_epik_Metal_Only>
0

> <s_lp_Force_Field>
OPLS_2005

> <r_lp_Energy>
27.7019

> <b_lp_Chiralities_Consistent>
1

> <s_lp_Variant>
AV-unprocessed.smi:1550-5

> <Gold.Version>
5.8.1

> <Gold.Id.Protein>
6NUR|6NUR_protein|mol2

> <Gold.PLP.Fitness>
42.9996

> <Gold.PLP.PLP>
-41.1986

> <Gold.PLP.part.hbond>
-1.2060

> <Gold.PLP.part.metal>
0.0000

> <Gold.PLP.part.buried>
-5.8814

> <Gold.PLP.part.nonpolar>
-35.4257

> <Gold.PLP.part.repulsive>
0.0941

> <Gold.PLP.ligand.clash>
0.0000

> <Gold.PLP.ligand.torsion>
0.6404

> <Gold.PLP.Chemscore.Hbond>
0.9588

> <Gold.PLP.Chemscore.CHOScore>
0.0000

> <Gold.PLP.Chemscore.Metal>
0.0000

> <Gold.Chemscore.Hbonds>
donor molecule, donor type, donor heavy atom, donor atom, acceptor molecule, acceptor atom, score
      P1  H  6896  6907       L1    12  1.00

> <Gold.PLP.Chemscore.Internal.Correction>
0.2055

> <Gold.Rescore>
     Score         DG    S(hbond)    S(metal)    S(lipo)     H(rot)  DE(clash)    DE(int)     intcor
     14.43     -15.23       0.96        0.00      95.93       1.82       0.03       0.77       ----

> <Gold.Chemscore.Fitness>
14.4297

> <Gold.Chemscore.DG>
-15.2294

> <Gold.Chemscore.ZeroCoef>
-5.4800

> <Gold.Chemscore.Hbond>
0.9562

> <Gold.Chemscore.Metal>
0.0000

> <Gold.Chemscore.Lipo>
95.9326

> <Gold.Chemscore.Internal_Hbond>
0.0000

> <Gold.Chemscore.DEClash>
0.0268

> <Gold.Chemscore.DEInternal>
0.7729

> <Gold.Chemscore.Rot>
1.8236

> <Gold.Chemscore.Internal.Correction>
   9.000000E+99

> <Gold.Chemscore.Hbonds>
donor molecule, donor type, donor heavy atom, donor atom, acceptor molecule, acceptor atom, score
      P1  H  6896  6907       L1    12  0.39

> <Gold.Chemscore.Hbond.Weighted>
-3.1937

> <Gold.Chemscore.Metal.Weighted>
-0.0000

> <Gold.Chemscore.Lipo.Weighted>
-11.2241

> <Gold.Chemscore.Internal_Hbond.Weighted>
0.0000

> <Gold.Chemscore.DEClash.Weighted>
0.0268

> <Gold.Chemscore.DEInternal.Weighted>
0.7729

> <Gold.Chemscore.Rot.Weighted>
4.6684

> <Gold.Chemscore.Internal.Correction.Weighted>
   9.000000E+99

> <Gold.Protein.RotatedTorsions>
[ 6907 6896 6895 6894 ] final  -24.91 input  -60.11 | X-H torsion
[ 7974 7965 7964 7962 ] final -154.89 input  175.53 | X-H torsion
[ 8008 7997 7996 7995 ] final   79.48 input   59.86 | X-H torsion
[ 10167 10162 10161 10158 ] final   60.43 input  -65.29 | X-H torsion
[ 10718 10713 10712 10709 ] final   68.00 input   66.30 | X-H torsion
[ 10763 10752 10751 10750 ] final  107.98 input  -60.55 | X-H torsion
[ 11005 11000 10999 10996 ] final  102.57 input  -57.11 | X-H torsion

> <Gold.Protein.ActiveResidues>
 VAL166  LYS551  ARG553  GLY616  TRP617  ASP618  TYR619  PRO620  LYS621  CYS622 
 ASP623  PHE694  ASN695  SER759  ASP760  ASP761  ALA762  ILE779  LEU786  VAL792 
 PHE793  MET794  SER795  GLU796  ALA797  LYS798  CYS799  TRP800  GLU811  SER814 

> <Gold.Protein.RotatedAtoms>
  151.1827  135.0368  159.8798 H   0  0  0  0  0  0  0  0  0  0  0  0  # atno 6907 bound_to 6896
  152.5444  134.1045  159.8342 H   0  0  0  0  0  0  0  0  0  0  0  0  # atno 6908 bound_to 6896
  151.1164  133.5089  159.2636 H   0  0  0  0  0  0  0  0  0  0  0  0  # atno 6909 bound_to 6896
  144.7667  140.4325  143.5937 H   0  0  0  0  0  0  0  0  0  0  0  0  # atno 7974 bound_to 7965
  155.8703  140.3449  155.5816 H   0  0  0  0  0  0  0  0  0  0  0  0  # atno 8008 bound_to 7997
  155.7835  140.0861  157.2066 H   0  0  0  0  0  0  0  0  0  0  0  0  # atno 8009 bound_to 7997
  154.4017  140.1496  156.3067 H   0  0  0  0  0  0  0  0  0  0  0  0  # atno 8010 bound_to 7997
  140.1657  144.4326  150.6686 H   0  0  0  0  0  0  0  0  0  0  0  0  # atno 10167 bound_to 10162
  157.6263  130.9350  150.0318 H   0  0  0  0  0  0  0  0  0  0  0  0  # atno 10718 bound_to 10713
  153.4142  135.3827  155.2070 H   0  0  0  0  0  0  0  0  0  0  0  0  # atno 10763 bound_to 10752
  154.8740  135.3801  154.4463 H   0  0  0  0  0  0  0  0  0  0  0  0  # atno 10764 bound_to 10752
  153.4975  135.7088  153.5912 H   0  0  0  0  0  0  0  0  0  0  0  0  # atno 10765 bound_to 10752
  139.8778  134.9229  156.5078 H   0  0  0  0  0  0  0  0  0  0  0  0  # atno 11005 bound_to 11000
  145.6449  139.1555  143.2895 LP  0  0  0  0  0  0  0  0  0  0  0  0  # atno 17320 bound_to 7965
  146.1780  140.6542  142.9202 LP  0  0  0  0  0  0  0  0  0  0  0  0  # atno 17321 bound_to 7965
  140.6614  143.2253  151.5846 LP  0  0  0  0  0  0  0  0  0  0  0  0  # atno 17342 bound_to 10162
  139.5360  144.2779  152.1253 LP  0  0  0  0  0  0  0  0  0  0  0  0  # atno 17343 bound_to 10162
  156.1438  130.3642  149.9542 LP  0  0  0  0  0  0  0  0  0  0  0  0  # atno 17370 bound_to 10713
  156.7577  130.9139  151.3640 LP  0  0  0  0  0  0  0  0  0  0  0  0  # atno 17371 bound_to 10713
  140.8543  133.8108  155.9200 LP  0  0  0  0  0  0  0  0  0  0  0  0  # atno 17394 bound_to 11000
  140.9113  134.2256  157.4984 LP  0  0  0  0  0  0  0  0  0  0  0  0  # atno 17395 bound_to 11000

$$$$
