AV-unprocessed.smi:281|AV-procd|sdf|2109|dock6
  -GOLD-   2262021403D 1   1.00000     0.00000
 Structure written by MMmdl.
 55 59  0  0  0  0  0  0  0  0  1 V2000
  148.9606  131.7719  159.2106 C   0  0  0  0  0  0  0  0  0  0  0  0
  147.9094  132.8598  158.9688 C   0  0  2  0  0  0  0  0  0  0  0  0
  147.6454  133.0826  157.4696 C   0  0  0  0  0  0  0  0  0  0  0  0
  146.7270  134.1997  157.2847 N   0  0  0  0  0  0  0  0  0  0  0  0
  146.1666  134.2894  156.0519 C   0  0  0  0  0  0  0  0  0  0  0  0
  144.9284  134.8334  155.9060 N   0  0  0  0  0  0  0  0  0  0  0  0
  144.3730  134.9349  154.6952 C   0  0  0  0  0  0  0  0  0  0  0  0
  144.8693  134.5583  153.5157 N   0  0  0  0  0  0  0  0  0  0  0  0
  146.1052  133.9992  153.6547 C   0  0  0  0  0  0  0  0  0  0  0  0
  146.8214  133.8305  154.8737 C   0  0  0  0  0  0  0  0  0  0  0  0
  148.0444  133.2203  154.6214 N   0  0  0  0  0  0  0  0  0  0  0  0
  148.0553  133.0494  153.3280 C   0  0  0  0  0  0  0  0  0  0  0  0
  146.9236  133.4745  152.6690 N   0  0  0  0  0  0  0  0  0  0  0  0
  146.6663  133.3960  151.2386 C   0  0  0  0  0  0  0  0  0  0  0  0
  146.0459  132.0551  150.7637 C   0  0  1  0  0  0  0  0  0  0  0  0
  146.8239  131.0097  151.3135 O   0  0  0  0  0  0  0  0  0  0  0  0
  144.5816  131.8638  151.1571 C   0  0  0  0  0  0  0  0  0  0  0  0
  143.7853  132.2458  149.9032 C   0  0  0  0  0  0  0  0  0  0  0  0
  144.7443  132.5227  148.8899 O   0  0  0  0  0  0  0  0  0  0  0  0
  145.9703  131.9020  149.2415 C   0  0  0  0  0  0  0  0  0  0  0  0
  147.1925  135.4284  157.9214 C   0  0  0  0  0  0  0  0  0  0  0  0
  147.4960  135.1868  159.4219 C   0  0  2  0  0  0  0  0  0  0  0  0
  146.2337  134.9968  160.2583 C   0  0  0  0  0  0  0  0  0  0  0  0
  145.8118  136.4265  160.5749 C   0  0  0  0  0  0  0  0  0  0  0  0
  147.0219  137.1680  160.6631 O   0  0  0  0  0  0  0  0  0  0  0  0
  148.1084  136.4028  160.1470 C   0  0  2  0  0  0  0  0  0  0  0  0
  149.0611  137.2905  159.3334 C   0  0  0  0  0  0  0  0  0  0  0  0
  148.3827  134.0718  159.5570 O   0  0  0  0  0  0  0  0  0  0  0  0
  148.6411  130.8176  158.7912 H   0  0  0  0  0  0  0  0  0  0  0  0
  149.1307  131.6255  160.2775 H   0  0  0  0  0  0  0  0  0  0  0  0
  149.9149  132.0362  158.7541 H   0  0  0  0  0  0  0  0  0  0  0  0
  146.9846  132.5519  159.4581 H   0  0  0  0  0  0  0  0  0  0  0  0
  148.5796  133.3075  156.9530 H   0  0  0  0  0  0  0  0  0  0  0  0
  147.2554  132.1659  157.0290 H   0  0  0  0  0  0  0  0  0  0  0  0
  143.3901  135.3816  154.6680 H   0  0  0  0  0  0  0  0  0  0  0  0
  148.8926  132.5965  152.8174 H   0  0  0  0  0  0  0  0  0  0  0  0
  146.0140  134.2267  150.9659 H   0  0  0  0  0  0  0  0  0  0  0  0
  147.6100  133.5717  150.7203 H   0  0  0  0  0  0  0  0  0  0  0  0
  147.7371  131.2258  151.2025 H   0  0  0  0  0  0  0  0  0  0  0  0
  144.3769  130.8183  151.3941 H   0  0  0  0  0  0  0  0  0  0  0  0
  144.2970  132.4478  152.0324 H   0  0  0  0  0  0  0  0  0  0  0  0
  143.1415  131.4239  149.5881 H   0  0  0  0  0  0  0  0  0  0  0  0
  143.1587  133.1228  150.0680 H   0  0  0  0  0  0  0  0  0  0  0  0
  146.8199  132.3406  148.7187 H   0  0  0  0  0  0  0  0  0  0  0  0
  145.9115  130.8498  148.9567 H   0  0  0  0  0  0  0  0  0  0  0  0
  148.0945  135.7515  157.4005 H   0  0  0  0  0  0  0  0  0  0  0  0
  146.4523  136.2212  157.8062 H   0  0  0  0  0  0  0  0  0  0  0  0
  145.4498  134.4277  159.7578 H   0  0  0  0  0  0  0  0  0  0  0  0
  146.4786  134.4799  161.1874 H   0  0  0  0  0  0  0  0  0  0  0  0
  145.2075  136.8369  159.7653 H   0  0  0  0  0  0  0  0  0  0  0  0
  145.2334  136.4957  161.4963 H   0  0  0  0  0  0  0  0  0  0  0  0
  148.6498  136.0352  161.0205 H   0  0  0  0  0  0  0  0  0  0  0  0
  149.8837  136.7068  158.9195 H   0  0  0  0  0  0  0  0  0  0  0  0
  149.4916  138.0699  159.9623 H   0  0  0  0  0  0  0  0  0  0  0  0
  148.5458  137.7850  158.5098 H   0  0  0  0  0  0  0  0  0  0  0  0
  1  2  1  0  0  0  0
  1 29  1  0  0  0  0
  1 30  1  0  0  0  0
  1 31  1  0  0  0  0
  2 28  1  0  0  0  0
  2  3  1  0  0  0  0
  2 32  1  0  0  0  0
  3  4  1  0  0  0  0
  3 33  1  0  0  0  0
  3 34  1  0  0  0  0
  4  5  1  0  0  0  0
  4 21  1  0  0  0  0
  5 10  1  0  0  0  0
  5  6  2  0  0  0  0
  6  7  1  0  0  0  0
  7  8  2  0  0  0  0
  7 35  1  0  0  0  0
  8  9  1  0  0  0  0
  9 13  1  0  0  0  0
  9 10  2  0  0  0  0
 10 11  1  0  0  0  0
 11 12  2  0  0  0  0
 12 13  1  0  0  0  0
 12 36  1  0  0  0  0
 13 14  1  0  0  0  0
 14 15  1  0  0  0  0
 14 37  1  0  0  0  0
 14 38  1  0  0  0  0
 15 20  1  0  0  0  0
 15 16  1  0  0  0  0
 15 17  1  0  0  0  0
 16 39  1  0  0  0  0
 17 18  1  0  0  0  0
 17 40  1  0  0  0  0
 17 41  1  0  0  0  0
 18 19  1  0  0  0  0
 18 42  1  0  0  0  0
 18 43  1  0  0  0  0
 19 20  1  0  0  0  0
 20 44  1  0  0  0  0
 20 45  1  0  0  0  0
 21 22  1  0  0  0  0
 21 46  1  0  0  0  0
 21 47  1  0  0  0  0
 22 26  1  0  0  0  0
 22 23  1  0  0  0  0
 22 28  1  0  0  0  0
 23 24  1  0  0  0  0
 23 48  1  0  0  0  0
 23 49  1  0  0  0  0
 24 25  1  0  0  0  0
 24 50  1  0  0  0  0
 24 51  1  0  0  0  0
 25 26  1  0  0  0  0
 26 27  1  0  0  0  0
 26 52  1  0  0  0  0
 27 53  1  0  0  0  0
 27 54  1  0  0  0  0
 27 55  1  0  0  0  0
M  END
> <s_m_source_file>
AV-unprocessed.smi

> <i_m_source_file_index>
281

> <i_lp_mmshare_version>
43012

> <i_f3d_flags>
0

> <s_epik_input>
W0NIM11bQ0BASF0xT1tDSDJdW0NIMl1bQ0BAXTEyW0NIMl1OKFtDSDJdW0NASF0oTzIpW0NIM10pYyhuW2NIXW4zKWMoYzM0KW5bY0hdbjRbQ0gyXVtDQEBdNShbT0hdKVtDSDJdW0NIMl1PW0NIMl01

> <s_epik_cmdline>
J2VwaWtfcHl0aG9uJywgJy1waCcsICc3LjAnLCAnLXRuJywgJzgnLCAnLW1hJywgJzIwMCcsICctbWV0YWxfYmluZGluZycsICctaW1hZScsICc8aW5maWxlLm1hZT4nLCAnLW9tYWUnLCAnPG91dGZpbGUubWFlPic=

> <r_lp_tautomer_probability>
1

> <r_epik_Ionization_Penalty>
0.00571331

> <r_epik_Ionization_Penalty_Charging>
0

> <r_epik_Ionization_Penalty_Neutral>
0.00571331

> <r_epik_State_Penalty>
0.00399586

> <r_epik_Charging_Adjusted_Penalty>
0.00399586

> <i_epik_Tot_Q>
0

> <i_epik_Tot_abs_Q>
0

> <r_epik_Metal_State_Penalty>
-0

> <b_epik_Metal_Only>
0

> <s_lp_Force_Field>
OPLS_2005

> <r_lp_Energy>
56.9386

> <b_lp_Chiralities_Consistent>
1

> <s_lp_Variant>
AV-unprocessed.smi:281-9

> <Gold.Version>
5.8.1

> <Gold.Id.Protein>
6NUR|6NUR_protein|mol2

> <Gold.PLP.Fitness>
44.1293

> <Gold.PLP.PLP>
-34.4100

> <Gold.PLP.part.hbond>
-4.2443

> <Gold.PLP.part.metal>
0.0000

> <Gold.PLP.part.buried>
-5.6556

> <Gold.PLP.part.nonpolar>
-26.5068

> <Gold.PLP.part.repulsive>
2.1412

> <Gold.PLP.ligand.clash>
0.0000

> <Gold.PLP.ligand.torsion>
0.9468

> <Gold.PLP.Chemscore.Hbond>
2.9957

> <Gold.PLP.Chemscore.CHOScore>
0.7727

> <Gold.PLP.Chemscore.Metal>
0.0000

> <Gold.Chemscore.Hbonds>
donor molecule, donor type, donor heavy atom, donor atom, acceptor molecule, acceptor atom, score
      L1  H    16    39       P1 10747  0.80
      P1  H  6896  6909       L1    28  0.33
      P1  H  6934  6947       L1    25  1.00

> <Gold.PLP.Chemscore.Internal.Correction>
0.3078

> <Gold.Rescore>
     Score         DG    S(hbond)    S(metal)    S(lipo)     H(rot)  DE(clash)    DE(int)     intcor
     16.45     -18.52       2.77        0.00      78.12       2.09       0.05       2.02       ----

> <Gold.Chemscore.Fitness>
16.4520

> <Gold.Chemscore.DG>
-18.5225

> <Gold.Chemscore.ZeroCoef>
-5.4800

> <Gold.Chemscore.Hbond>
2.7724

> <Gold.Chemscore.Metal>
0.0000

> <Gold.Chemscore.Lipo>
78.1188

> <Gold.Chemscore.Internal_Hbond>
0.0000

> <Gold.Chemscore.DEClash>
0.0542

> <Gold.Chemscore.DEInternal>
2.0163

> <Gold.Chemscore.Rot>
2.0927

> <Gold.Chemscore.Internal.Correction>
   9.000000E+99

> <Gold.Chemscore.Hbonds>
donor molecule, donor type, donor heavy atom, donor atom, acceptor molecule, acceptor atom, score
      L1  H    16    39       P1 10747  0.78
      P1  H  6896  6909       L1    28  0.22
      P1  H  6934  6947       L1    25  0.98

> <Gold.Chemscore.Hbond.Weighted>
-9.2600

> <Gold.Chemscore.Metal.Weighted>
-0.0000

> <Gold.Chemscore.Lipo.Weighted>
-9.1399

> <Gold.Chemscore.Internal_Hbond.Weighted>
0.0000

> <Gold.Chemscore.DEClash.Weighted>
0.0542

> <Gold.Chemscore.DEInternal.Weighted>
2.0163

> <Gold.Chemscore.Rot.Weighted>
5.3573

> <Gold.Chemscore.Internal.Correction.Weighted>
   9.000000E+99

> <Gold.Protein.RotatedTorsions>
[ 6907 6896 6895 6894 ] final   18.40 input  -60.11 | X-H torsion
[ 7974 7965 7964 7962 ] final  -70.97 input  175.53 | X-H torsion
[ 8008 7997 7996 7995 ] final  -80.79 input   59.86 | X-H torsion
[ 10167 10162 10161 10158 ] final  166.25 input  -65.29 | X-H torsion
[ 10718 10713 10712 10709 ] final   14.10 input   66.30 | X-H torsion
[ 10763 10752 10751 10750 ] final -166.50 input  -60.55 | X-H torsion
[ 11005 11000 10999 10996 ] final -122.82 input  -57.11 | X-H torsion

> <Gold.Protein.ActiveResidues>
 VAL166  LYS551  ARG553  GLY616  TRP617  ASP618  TYR619  PRO620  LYS621  CYS622 
 ASP623  PHE694  ASN695  SER759  ASP760  ASP761  ALA762  ILE779  LEU786  VAL792 
 PHE793  MET794  SER795  GLU796  ALA797  LYS798  CYS799  TRP800  GLU811  SER814 

> <Gold.Protein.RotatedAtoms>
  151.8647  135.0511  160.0472 H   0  0  0  0  0  0  0  0  0  0  0  0  # atno 6907 bound_to 6896
  152.2635  133.5314  159.5404 H   0  0  0  0  0  0  0  0  0  0  0  0  # atno 6908 bound_to 6896
  150.7125  134.0712  159.3907 H   0  0  0  0  0  0  0  0  0  0  0  0  # atno 6909 bound_to 6896
  145.6841  140.9177  143.0816 H   0  0  0  0  0  0  0  0  0  0  0  0  # atno 7974 bound_to 7965
  154.5919  140.0657  156.9250 H   0  0  0  0  0  0  0  0  0  0  0  0  # atno 8008 bound_to 7997
  155.2281  140.3335  155.4288 H   0  0  0  0  0  0  0  0  0  0  0  0  # atno 8009 bound_to 7997
  156.2261  140.1820  156.7343 H   0  0  0  0  0  0  0  0  0  0  0  0  # atno 8010 bound_to 7997
  139.4921  144.4047  151.9369 H   0  0  0  0  0  0  0  0  0  0  0  0  # atno 10167 bound_to 10162
  157.0343  130.6205  149.5740 H   0  0  0  0  0  0  0  0  0  0  0  0  # atno 10718 bound_to 10713
  154.6827  135.2957  154.9591 H   0  0  0  0  0  0  0  0  0  0  0  0  # atno 10763 bound_to 10752
  154.0581  135.6635  153.4812 H   0  0  0  0  0  0  0  0  0  0  0  0  # atno 10764 bound_to 10752
  153.0558  135.5145  154.7878 H   0  0  0  0  0  0  0  0  0  0  0  0  # atno 10765 bound_to 10752
  140.9966  134.0463  157.3590 H   0  0  0  0  0  0  0  0  0  0  0  0  # atno 11005 bound_to 11000
  144.7017  139.8736  143.7442 LP  0  0  0  0  0  0  0  0  0  0  0  0  # atno 17320 bound_to 7965
  146.0938  139.3930  143.0389 LP  0  0  0  0  0  0  0  0  0  0  0  0  # atno 17321 bound_to 7965
  140.3487  144.3115  150.5953 LP  0  0  0  0  0  0  0  0  0  0  0  0  # atno 17342 bound_to 10162
  140.5504  143.2207  151.7937 LP  0  0  0  0  0  0  0  0  0  0  0  0  # atno 17343 bound_to 10162
  156.0059  130.5145  150.7827 LP  0  0  0  0  0  0  0  0  0  0  0  0  # atno 17370 bound_to 10713
  157.5153  131.0928  151.0146 LP  0  0  0  0  0  0  0  0  0  0  0  0  # atno 17371 bound_to 10713
  139.9018  135.0167  156.7302 LP  0  0  0  0  0  0  0  0  0  0  0  0  # atno 17394 bound_to 11000
  140.6956  133.9351  155.7993 LP  0  0  0  0  0  0  0  0  0  0  0  0  # atno 17395 bound_to 11000

$$$$
