AV-unprocessed.smi:2078|AV-procd|sdf|8464|dock10
  -GOLD-   2272011163D 1   1.00000     0.00000
 Structure written by MMmdl.
 42 43  0  0  0  0  0  0  0  0  2 V2000
  150.2025  141.6986  157.8950 C   0  0  0  0  0  0  0  0  0  0  0  0
  150.1252  141.0375  156.5609 C   0  0  0  0  0  0  0  0  0  0  0  0
  149.0773  140.7085  155.7475 C   0  0  0  0  0  0  0  0  0  0  0  0
  149.7155  140.1013  154.6335 C   0  0  0  0  0  0  0  0  0  0  0  0
  148.9585  139.6088  153.5400 N   0  0  0  0  0  0  0  0  0  0  0  0
  147.7633  138.9958  153.5827 C   0  0  0  0  0  0  0  0  0  0  0  0
  147.1222  138.7571  154.6066 O   0  0  0  0  0  0  0  0  0  0  0  0
  147.3394  138.6630  152.3547 N   0  0  0  0  0  0  0  0  0  0  0  0
  146.0756  137.9961  152.0646 C   0  0  0  0  0  0  0  0  0  0  0  0
  145.9066  136.7119  152.8997 C   0  0  0  0  0  0  0  0  0  0  0  0
  146.4500  135.5166  152.2079 N   0  3  2  0  0  0  0  0  0  0  0  0
  145.7378  135.2021  150.9408 C   0  0  0  0  0  0  0  0  0  0  0  0
  146.4281  134.0530  150.1894 C   0  0  0  0  0  0  0  0  0  0  0  0
  146.5471  132.8068  151.0781 C   0  0  0  0  0  0  0  0  0  0  0  0
  147.2261  133.1395  152.4198 C   0  0  1  0  0  0  0  0  0  0  0  0
  148.7426  133.3624  152.2819 C   0  0  0  0  0  0  0  0  0  0  0  0
  146.5218  134.3307  153.1024 C   0  0  0  0  0  0  0  0  0  0  0  0
  151.0336  140.0644  154.7545 N   0  0  0  0  0  0  0  0  0  0  0  0
  151.3030  140.6637  155.9905 O   0  0  0  0  0  0  0  0  0  0  0  0
  149.6062  142.6110  157.9090 H   0  0  0  0  0  0  0  0  0  0  0  0
  151.2303  141.9646  158.1431 H   0  0  0  0  0  0  0  0  0  0  0  0
  149.8273  141.0364  158.6753 H   0  0  0  0  0  0  0  0  0  0  0  0
  148.0250  140.8762  155.9247 H   0  0  0  0  0  0  0  0  0  0  0  0
  149.3712  139.7401  152.6285 H   0  0  0  0  0  0  0  0  0  0  0  0
  147.9255  138.8976  151.5665 H   0  0  0  0  0  0  0  0  0  0  0  0
  145.2571  138.6965  152.2332 H   0  0  0  0  0  0  0  0  0  0  0  0
  146.0587  137.7515  151.0021 H   0  0  0  0  0  0  0  0  0  0  0  0
  146.4340  136.8555  153.8440 H   0  0  0  0  0  0  0  0  0  0  0  0
  144.8603  136.5393  153.1568 H   0  0  0  0  0  0  0  0  0  0  0  0
  144.7021  134.9378  151.1604 H   0  0  0  0  0  0  0  0  0  0  0  0
  145.7069  136.0767  150.2921 H   0  0  0  0  0  0  0  0  0  0  0  0
  145.8665  133.8103  149.2866 H   0  0  0  0  0  0  0  0  0  0  0  0
  147.4167  134.3712  149.8568 H   0  0  0  0  0  0  0  0  0  0  0  0
  145.5488  132.4109  151.2702 H   0  0  0  0  0  0  0  0  0  0  0  0
  147.0922  132.0190  150.5567 H   0  0  0  0  0  0  0  0  0  0  0  0
  147.1023  132.2716  153.0691 H   0  0  0  0  0  0  0  0  0  0  0  0
  148.9733  134.2316  151.6660 H   0  0  0  0  0  0  0  0  0  0  0  0
  149.2264  132.4969  151.8280 H   0  0  0  0  0  0  0  0  0  0  0  0
  149.2039  133.5196  153.2574 H   0  0  0  0  0  0  0  0  0  0  0  0
  147.0520  134.5864  154.0209 H   0  0  0  0  0  0  0  0  0  0  0  0
  145.5100  134.0459  153.3964 H   0  0  0  0  0  0  0  0  0  0  0  0
  147.4046  135.7385  151.9635 H   0  0  0  0  0  0  0  0  0  0  0  0
  1  2  1  0  0  0  0
  1 20  1  0  0  0  0
  1 21  1  0  0  0  0
  1 22  1  0  0  0  0
  2 19  1  0  0  0  0
  2  3  2  0  0  0  0
  3  4  1  0  0  0  0
  3 23  1  0  0  0  0
  4  5  1  0  0  0  0
  4 18  2  0  0  0  0
  5  6  1  0  0  0  0
  5 24  1  0  0  0  0
  6  7  2  0  0  0  0
  6  8  1  0  0  0  0
  8  9  1  0  0  0  0
  8 25  1  0  0  0  0
  9 10  1  0  0  0  0
  9 26  1  0  0  0  0
  9 27  1  0  0  0  0
 10 11  1  0  0  0  0
 10 28  1  0  0  0  0
 10 29  1  0  0  0  0
 11 17  1  0  0  0  0
 11 12  1  0  0  0  0
 11 42  1  0  0  0  0
 12 13  1  0  0  0  0
 12 30  1  0  0  0  0
 12 31  1  0  0  0  0
 13 14  1  0  0  0  0
 13 32  1  0  0  0  0
 13 33  1  0  0  0  0
 14 15  1  0  0  0  0
 14 34  1  0  0  0  0
 14 35  1  0  0  0  0
 15 16  1  0  0  0  0
 15 17  1  0  0  0  0
 15 36  1  0  0  0  0
 16 37  1  0  0  0  0
 16 38  1  0  0  0  0
 16 39  1  0  0  0  0
 17 40  1  0  0  0  0
 17 41  1  0  0  0  0
 18 19  1  0  0  0  0
M  CHG  1  11   1
M  END
> <s_m_source_file>
AV-unprocessed.smi

> <i_m_source_file_index>
2078

> <i_lp_mmshare_version>
43012

> <i_f3d_flags>
0

> <s_epik_input>
W0NIM11jMVtjSF1jKG5vMSlbTkhdQyg9TylbTkhdW0NIMl1bQ0gyXU4yW0NIMl1bQ0gyXVtDSDJdW0NAQEhdKFtDSDNdKVtDSDJdMg==

> <s_epik_cmdline>
J2VwaWtfcHl0aG9uJywgJy1waCcsICc3LjAnLCAnLXRuJywgJzgnLCAnLW1hJywgJzIwMCcsICctbWV0YWxfYmluZGluZycsICctaW1hZScsICc8aW5maWxlLm1hZT4nLCAnLW9tYWUnLCAnPG91dGZpbGUubWFlPic=

> <r_epik_Ionization_Penalty>
0.00216453

> <r_epik_Ionization_Penalty_Charging>
0.00212879

> <r_epik_Ionization_Penalty_Neutral>
3.57418e-05

> <r_epik_State_Penalty>
0.00146033

> <r_epik_Charging_Adjusted_Penalty>
0.00358912

> <i_epik_Tot_Q>
1

> <i_epik_Tot_abs_Q>
1

> <r_epik_Metal_State_Penalty>
0.0215827

> <b_epik_Metal_Only>
0

> <s_lp_Force_Field>
OPLS_2005

> <r_lp_Energy>
15.3902

> <b_lp_Chiralities_Consistent>
1

> <s_lp_Variant>
AV-unprocessed.smi:2078-2

> <Gold.Version>
5.8.1

> <Gold.Id.Protein>
6NUR|6NUR_protein|mol2

> <Gold.PLP.Fitness>
45.7078

> <Gold.PLP.PLP>
-32.6038

> <Gold.PLP.part.hbond>
-4.9069

> <Gold.PLP.part.metal>
0.0000

> <Gold.PLP.part.buried>
-3.9962

> <Gold.PLP.part.nonpolar>
-23.0805

> <Gold.PLP.part.repulsive>
0.4042

> <Gold.PLP.ligand.clash>
0.0000

> <Gold.PLP.ligand.torsion>
0.5239

> <Gold.PLP.Chemscore.Hbond>
4.7120

> <Gold.PLP.Chemscore.CHOScore>
0.0000

> <Gold.PLP.Chemscore.Metal>
0.0000

> <Gold.Chemscore.Hbonds>
donor molecule, donor type, donor heavy atom, donor atom, acceptor molecule, acceptor atom, score
      L1  H     5    24       P1  7957  0.96
      L1  H     8    25       P1  7957  0.81
      L1  H    11    42       P1  7948  2.00
      P1  H  7989  7998       L1    18  1.00

> <Gold.PLP.Chemscore.Internal.Correction>
0.0158

> <Gold.Rescore>
     Score         DG    S(hbond)    S(metal)    S(lipo)     H(rot)  DE(clash)    DE(int)     intcor
     16.15     -19.44       3.37        0.00      57.44       1.57       0.28       3.01       ----

> <Gold.Chemscore.Fitness>
16.1490

> <Gold.Chemscore.DG>
-19.4396

> <Gold.Chemscore.ZeroCoef>
-5.4800

> <Gold.Chemscore.Hbond>
3.3706

> <Gold.Chemscore.Metal>
0.0000

> <Gold.Chemscore.Lipo>
57.4390

> <Gold.Chemscore.Internal_Hbond>
0.0000

> <Gold.Chemscore.DEClash>
0.2788

> <Gold.Chemscore.DEInternal>
3.0117

> <Gold.Chemscore.Rot>
1.5697

> <Gold.Chemscore.Internal.Correction>
   9.000000E+99

> <Gold.Chemscore.Hbonds>
donor molecule, donor type, donor heavy atom, donor atom, acceptor molecule, acceptor atom, score
      L1  H     5    24       P1  7957  0.91
      L1  H     8    25       P1  7957  0.59
      L1  H    11    42       P1  7948  0.99
      P1  H  7989  7998       L1    18  0.53

> <Gold.Chemscore.Hbond.Weighted>
-11.2577

> <Gold.Chemscore.Metal.Weighted>
-0.0000

> <Gold.Chemscore.Lipo.Weighted>
-6.7204

> <Gold.Chemscore.Internal_Hbond.Weighted>
0.0000

> <Gold.Chemscore.DEClash.Weighted>
0.2788

> <Gold.Chemscore.DEInternal.Weighted>
3.0117

> <Gold.Chemscore.Rot.Weighted>
4.0185

> <Gold.Chemscore.Internal.Correction.Weighted>
   9.000000E+99

> <Gold.Protein.RotatedTorsions>
[ 6907 6896 6895 6894 ] final   40.69 input  -60.11 | X-H torsion
[ 7974 7965 7964 7962 ] final   92.27 input  175.53 | X-H torsion
[ 8008 7997 7996 7995 ] final -118.41 input   59.86 | X-H torsion
[ 10167 10162 10161 10158 ] final -142.15 input  -65.29 | X-H torsion
[ 10718 10713 10712 10709 ] final -170.43 input   66.30 | X-H torsion
[ 10763 10752 10751 10750 ] final  -30.66 input  -60.55 | X-H torsion
[ 11005 11000 10999 10996 ] final  174.19 input  -57.11 | X-H torsion

> <Gold.Protein.ActiveResidues>
 VAL166  LYS551  ARG553  GLY616  TRP617  ASP618  TYR619  PRO620  LYS621  CYS622 
 ASP623  PHE694  ASN695  SER759  ASP760  ASP761  ALA762  ILE779  LEU786  VAL792 
 PHE793  MET794  SER795  GLU796  ALA797  LYS798  CYS799  TRP800  GLU811  SER814 

> <Gold.Protein.RotatedAtoms>
  152.1857  134.8716  160.0522 H   0  0  0  0  0  0  0  0  0  0  0  0  # atno 6907 bound_to 6896
  151.9623  133.3694  159.4048 H   0  0  0  0  0  0  0  0  0  0  0  0  # atno 6908 bound_to 6896
  150.6925  134.4151  159.5223 H   0  0  0  0  0  0  0  0  0  0  0  0  # atno 6909 bound_to 6896
  145.4945  139.2276  143.2812 H   0  0  0  0  0  0  0  0  0  0  0  0  # atno 7974 bound_to 7965
  155.0992  140.0396  157.2692 H   0  0  0  0  0  0  0  0  0  0  0  0  # atno 8008 bound_to 7997
  154.6771  140.2625  155.6921 H   0  0  0  0  0  0  0  0  0  0  0  0  # atno 8009 bound_to 7997
  156.2681  140.2786  156.1302 H   0  0  0  0  0  0  0  0  0  0  0  0  # atno 8010 bound_to 7997
  139.8116  143.7695  152.2663 H   0  0  0  0  0  0  0  0  0  0  0  0  # atno 10167 bound_to 10162
  156.7261  130.9289  151.3101 H   0  0  0  0  0  0  0  0  0  0  0  0  # atno 10718 bound_to 10713
  153.7847  135.6902  153.4882 H   0  0  0  0  0  0  0  0  0  0  0  0  # atno 10763 bound_to 10752
  153.1789  135.4514  155.0000 H   0  0  0  0  0  0  0  0  0  0  0  0  # atno 10764 bound_to 10752
  154.8068  135.3360  154.7347 H   0  0  0  0  0  0  0  0  0  0  0  0  # atno 10765 bound_to 10752
  140.3486  134.7214  157.4252 H   0  0  0  0  0  0  0  0  0  0  0  0  # atno 11005 bound_to 11000
  146.2264  140.5741  142.8994 LP  0  0  0  0  0  0  0  0  0  0  0  0  # atno 17320 bound_to 7965
  144.7815  140.5850  143.6602 LP  0  0  0  0  0  0  0  0  0  0  0  0  # atno 17321 bound_to 7965
  139.7845  144.7432  151.0041 LP  0  0  0  0  0  0  0  0  0  0  0  0  # atno 17342 bound_to 10162
  140.7817  143.4506  151.0418 LP  0  0  0  0  0  0  0  0  0  0  0  0  # atno 17343 bound_to 10162
  157.6878  130.9203  150.0432 LP  0  0  0  0  0  0  0  0  0  0  0  0  # atno 17370 bound_to 10713
  156.1561  130.3643  149.9367 LP  0  0  0  0  0  0  0  0  0  0  0  0  # atno 17371 bound_to 10713
  140.0721  134.5848  155.8630 LP  0  0  0  0  0  0  0  0  0  0  0  0  # atno 17394 bound_to 11000
  141.2018  133.6621  156.5973 LP  0  0  0  0  0  0  0  0  0  0  0  0  # atno 17395 bound_to 11000

$$$$
