#       Name:                AV-unprocessed.smi:869
#       Creating user name   scv26
#       Creation time:       Fri Mar 27 01:49:06 2020


#       File generated by GOLD software.
#

@<TRIPOS>MOLECULE
AV-unprocessed.smi:869
    53    55     1
SMALL
NO_CHARGES


@<TRIPOS>ATOM
      1 ****         0.0085   3.4302   4.0710 C.3            1 S1                 0.0000
      2 ****        -0.5750   3.6870   2.8057 O.3            1 S1                 0.0000
      3 ****        -0.5968   2.5378   1.9748 C.3            1 S1                 0.0000
      4 ****        -1.1987   2.8269   0.6389 C.2            1 S1                 0.0000
      5 ****        -1.7610   4.0055   0.2480 N.pl3          1 S1                 1.0000
      6 ****        -2.2156   3.8997  -1.0666 C.ar           1 S1                 0.0000
      7 ****        -2.8489   4.8271  -1.8883 C.ar           1 S1                 0.0000
      8 ****        -3.1802   4.3969  -3.1899 C.ar           1 S1                 0.0000
      9 ****        -2.8806   3.0913  -3.6299 C.ar           1 S1                 0.0000
     10 ****        -2.2393   2.1597  -2.7871 C.ar           1 S1                 0.0000
     11 ****        -1.9163   2.5919  -1.5007 C.ar           1 S1                 0.0000
     12 ****        -1.2906   1.9666  -0.4150 N.pl3          1 S1                 0.0000
     13 ****        -0.8424   0.5698  -0.5346 C.3            1 S1                 0.0000
     14 ****         0.6407   0.4485  -0.9397 C.3            1 S1                 0.0000
     15 ****         0.8570   1.0700  -2.1910 O.3            1 S1                 0.0000
     16 ****         1.1028  -1.0124  -1.0387 C.3            1 S1                 0.0000
     17 ****         1.0853  -1.5919   0.2590 O.3            1 S1                 0.0000
     18 ****         1.4521  -2.9144   0.3879 C.ar           1 S1                 0.0000
     19 ****         1.3969  -3.4706   1.6825 C.ar           1 S1                 0.0000
     20 ****         1.7561  -4.8134   1.9073 C.ar           1 S1                 0.0000
     21 ****         2.1792  -5.6209   0.8336 C.ar           1 S1                 0.0000
     22 ****         2.5646  -7.0660   1.0732 C.3            1 S1                 0.0000
     23 ****         2.2364  -5.0769  -0.4647 C.ar           1 S1                 0.0000
     24 ****         1.8763  -3.7336  -0.6888 C.ar           1 S1                 0.0000
     25 ****        -0.0080   4.3385   4.6734 H              1 S1                 0.0000
     26 ****         1.0472   3.1131   3.9686 H              1 S1                 0.0000
     27 ****        -0.5419   2.6585   4.6108 H              1 S1                 0.0000
     28 ****         0.4180   2.1647   1.8290 H              1 S1                 0.0000
     29 ****        -1.1737   1.7447   2.4524 H              1 S1                 0.0000
     30 ****        -3.0772   5.8283  -1.5537 H              1 S1                 0.0000
     31 ****        -3.6718   5.0824  -3.8649 H              1 S1                 0.0000
     32 ****        -3.1460   2.7983  -4.6353 H              1 S1                 0.0000
     33 ****        -2.0087   1.1648  -3.1379 H              1 S1                 0.0000
     34 ****        -1.0025   0.0974   0.4352 H              1 S1                 0.0000
     35 ****        -1.4891   0.0416  -1.2351 H              1 S1                 0.0000
     36 ****         1.2612   0.9676  -0.2085 H              1 S1                 0.0000
     37 ****         1.7768   1.0088  -2.4003 H              1 S1                 0.0000
     38 ****         0.4522  -1.5658  -1.7183 H              1 S1                 0.0000
     39 ****         2.1185  -1.0490  -1.4367 H              1 S1                 0.0000
     40 ****         1.0749  -2.8608   2.5137 H              1 S1                 0.0000
     41 ****         1.7064  -5.2204   2.9067 H              1 S1                 0.0000
     42 ****         3.2907  -7.4038   0.3330 H              1 S1                 0.0000
     43 ****         1.6840  -7.7053   1.0083 H              1 S1                 0.0000
     44 ****         3.0084  -7.1899   2.0615 H              1 S1                 0.0000
     45 ****         2.5574  -5.6885  -1.2952 H              1 S1                 0.0000
     46 ****         1.9363  -3.3558  -1.6979 H              1 S1                 0.0000
     47 ****        -1.8243   4.8214   0.8432 H              1 S1                 0.0000
     48 ****        -0.0476   4.4033   2.3487 LP             1 S1                 0.0000
     49 ****        -1.5143   4.0011   2.9435 LP             1 S1                 0.0000
     50 ****         0.5852   2.0311  -2.1420 LP             1 S1                 0.0000
     51 ****         0.3190   0.6070  -2.8954 LP             1 S1                 0.0000
     52 ****         0.1522  -1.5078   0.6085 LP             1 S1                 0.0000
     53 ****         1.7053  -1.0553   0.8315 LP             1 S1                 0.0000
@<TRIPOS>BOND
    1    1    2 1     
    2    1   25 1     
    3    1   26 1     
    4    1   27 1     
    5    2    3 1     
    6    3    4 1     
    7    3   28 1     
    8    3   29 1     
    9    4   12 1     
   10    4    5 2     
   11    5    6 1     
   12    5   47 1     
   13    6   11 ar    
   14    6    7 ar    
   15    7    8 ar    
   16    7   30 1     
   17    8    9 ar    
   18    8   31 1     
   19    9   10 ar    
   20    9   32 1     
   21   10   11 ar    
   22   10   33 1     
   23   11   12 1     
   24   12   13 1     
   25   13   14 1     
   26   13   34 1     
   27   13   35 1     
   28   14   15 1     
   29   14   16 1     
   30   14   36 1     
   31   15   37 1     
   32   16   17 1     
   33   16   38 1     
   34   16   39 1     
   35   17   18 1     
   36   18   24 ar    
   37   18   19 ar    
   38   19   20 ar    
   39   19   40 1     
   40   20   21 ar    
   41   20   41 1     
   42   21   22 1     
   43   21   23 ar    
   44   22   42 1     
   45   22   43 1     
   46   22   44 1     
   47   23   24 ar    
   48   23   45 1     
   49   24   46 1     
   50    2   48 1     
   51    2   49 1     
   52   15   50 1     
   53   15   51 1     
   54   17   52 1     
   55   17   53 1     
@<TRIPOS>SUBSTRUCTURE
      1 S1             1
@<TRIPOS>SET
LONE_PAIRS      STATIC     ATOMS    <user>   **** ""
6 48 49 50 51 52 53
DONOR_HYDROGENS      STATIC     ATOMS    <user>   **** ""
2 47 37
ATOM$BLUE        STATIC     ATOMS    COLORGROUP SYSTEM
6 48 49 50 51 52 53
ATOM$RED        STATIC     ATOMS    COLORGROUP SYSTEM
2 47 37
