#       Name:                AV-unprocessed.smi:1756
#       Creating user name   scv26
#       Creation time:       Fri Mar 27 08:29:22 2020


#       File generated by GOLD software.
#

@<TRIPOS>MOLECULE
AV-unprocessed.smi:1756
    44    45     1
SMALL
NO_CHARGES


@<TRIPOS>ATOM
      1 ****         0.2331   1.0577  -0.9047 O.2            1 S1                 0.0000
      2 ****        -0.3275  -0.0250  -1.0721 C.2            1 S1                 0.0000
      3 ****         0.3334  -1.1887  -1.1529 N.am           1 S1                 0.0000
      4 ****         1.7820  -1.3505  -1.0732 C.3            1 S1                 0.0000
      5 ****         2.2398  -1.8124   0.3221 C.3            1 S1                 0.0000
      6 ****         2.0152  -0.7571   1.4267 C.3            1 S1                 0.0000
      7 ****         2.5890  -1.2404   2.7634 C.3            1 S1                 0.0000
      8 ****         4.0511  -1.6583   2.5795 C.3            1 S1                 0.0000
      9 ****         4.1737  -2.6675   1.4278 C.3            1 S1                 0.0000
     10 ****         3.6323  -2.1083   0.2349 O.3            1 S1                 0.0000
     11 ****        -1.6536  -0.2238  -1.1824 N.am           1 S1                 0.0000
     12 ****        -2.7090   0.7052  -1.1724 C.2            1 S1                 0.0000
     13 ****        -2.5637   2.0579  -1.2442 C.2            1 S1                 0.0000
     14 ****        -3.7031   2.9669  -1.2404 C.2            1 S1                 0.0000
     15 ****        -3.5803   4.4719  -1.4013 C.3            1 S1                 0.0000
     16 ****        -4.6126   4.9681  -2.0838 F              1 S1                 0.0000
     17 ****        -3.5548   5.0554  -0.2041 F              1 S1                 0.0000
     18 ****        -2.4577   4.7937  -2.0444 F              1 S1                 0.0000
     19 ****        -4.9091   2.2958  -1.1850 C.2            1 S1                 0.0000
     20 ****        -5.1400   0.9673  -1.1011 N.pl3          1 S1                -1.0000
     21 ****        -4.0671   0.1270  -1.0977 C.2            1 S1                 0.0000
     22 ****        -4.2078  -1.0950  -1.0335 O.2            1 S1                 0.0000
     23 ****        -0.2088  -2.0303  -1.2832 H              1 S1                 0.0000
     24 ****         2.0636  -2.1020  -1.8113 H              1 S1                 0.0000
     25 ****         2.3005  -0.4348  -1.3624 H              1 S1                 0.0000
     26 ****         1.7054  -2.7289   0.5788 H              1 S1                 0.0000
     27 ****         2.4935   0.1807   1.1412 H              1 S1                 0.0000
     28 ****         0.9531  -0.5427   1.5450 H              1 S1                 0.0000
     29 ****         2.5078  -0.4575   3.5179 H              1 S1                 0.0000
     30 ****         2.0073  -2.0885   3.1264 H              1 S1                 0.0000
     31 ****         4.6595  -0.7797   2.3605 H              1 S1                 0.0000
     32 ****         4.4405  -2.0879   3.5027 H              1 S1                 0.0000
     33 ****         5.2214  -2.9149   1.2566 H              1 S1                 0.0000
     34 ****         3.6625  -3.6005   1.6703 H              1 S1                 0.0000
     35 ****        -1.9543  -1.1838  -1.2672 H              1 S1                 0.0000
     36 ****        -1.5894   2.5106  -1.3190 H              1 S1                 0.0000
     37 ****        -5.8273   2.9202  -1.2183 H              1 S1                 0.0000
     38 ****         1.2289   1.0977  -0.8220 LP             1 S1                 0.0000
     39 ****        -0.3071   1.8975  -0.8513 LP             1 S1                 0.0000
     40 ****         4.1232  -1.2610   0.0322 LP             1 S1                 0.0000
     41 ****         3.7707  -2.7602  -0.5106 LP             1 S1                 0.0000
     42 ****        -6.0723   0.6105  -1.0431 LP             1 S1                 0.0000
     43 ****        -3.4050  -1.6913  -1.0321 LP             1 S1                 0.0000
     44 ****        -5.1247  -1.4907  -0.9828 LP             1 S1                 0.0000
@<TRIPOS>BOND
    1    1    2 2     
    2    2    3 am    
    3    2   11 am    
    4    3    4 1     
    5    3   23 1     
    6    4    5 1     
    7    4   24 1     
    8    4   25 1     
    9    5   10 1     
   10    5    6 1     
   11    5   26 1     
   12    6    7 1     
   13    6   27 1     
   14    6   28 1     
   15    7    8 1     
   16    7   29 1     
   17    7   30 1     
   18    8    9 1     
   19    8   31 1     
   20    8   32 1     
   21    9   10 1     
   22    9   33 1     
   23    9   34 1     
   24   11   12 1     
   25   11   35 1     
   26   12   21 1     
   27   12   13 2     
   28   13   14 1     
   29   13   36 1     
   30   14   15 1     
   31   14   19 2     
   32   15   16 1     
   33   15   17 1     
   34   15   18 1     
   35   19   20 1     
   36   19   37 1     
   37   20   21 1     
   38   21   22 2     
   39    1   38 1     
   40    1   39 1     
   41   10   40 1     
   42   10   41 1     
   43   20   42 1     
   44   22   43 1     
   45   22   44 1     
@<TRIPOS>SUBSTRUCTURE
      1 S1             1
@<TRIPOS>SET
LONE_PAIRS      STATIC     ATOMS    <user>   **** ""
7 38 39 40 41 42 43 44
DONOR_HYDROGENS      STATIC     ATOMS    <user>   **** ""
2 23 35
ATOM$BLUE        STATIC     ATOMS    COLORGROUP SYSTEM
7 38 39 40 41 42 43 44
ATOM$RED        STATIC     ATOMS    COLORGROUP SYSTEM
2 23 35
