AV-unprocessed.smi:189|AV-procd|sdf|1480|dock2
  -GOLD-   2262019303D 1   1.00000     0.00000
 Structure written by MMmdl.
 53 57  0  0  0  0  0  0  0  0  1 V2000
  141.9613  136.7968  153.2672 C   0  0  0  0  0  0  0  0  0  0  0  0
  142.6978  135.4924  153.6372 C   0  0  1  0  0  0  0  0  0  0  0  0
  142.4376  134.3933  152.5777 C   0  0  0  0  0  0  0  0  0  0  0  0
  143.8150  133.7759  152.3550 C   0  0  1  0  0  0  0  0  0  0  0  0
  144.1056  133.0820  151.0190 C   0  0  0  0  0  0  0  0  0  0  0  0
  145.5771  132.6166  151.0043 C   0  0  0  0  0  0  0  0  0  0  0  0
  146.5607  133.7622  151.3356 C   0  0  0  0  0  0  0  0  0  0  0  0
  146.1897  134.5031  152.6378 C   0  0  0  0  0  0  0  0  0  0  0  0
  144.7279  134.9779  152.5454 C   0  0  2  0  0  0  0  0  0  0  0  0
  144.1601  135.6240  153.7186 N   0  0  0  0  0  0  0  0  0  0  0  0
  144.6941  136.7487  154.2576 C   0  0  0  0  0  0  0  0  0  0  0  0
  144.4290  137.0754  155.5496 N   0  0  0  0  0  0  0  0  0  0  0  0
  144.9710  138.1695  156.0922 C   0  0  0  0  0  0  0  0  0  0  0  0
  145.7939  139.0585  155.5324 N   0  0  0  0  0  0  0  0  0  0  0  0
  146.0611  138.7370  154.2343 C   0  0  0  0  0  0  0  0  0  0  0  0
  145.5579  137.6097  153.5259 C   0  0  0  0  0  0  0  0  0  0  0  0
  146.0464  137.6099  152.2251 N   0  0  0  0  0  0  0  0  0  0  0  0
  146.8001  138.6735  152.1690 C   0  0  0  0  0  0  0  0  0  0  0  0
  146.8613  139.4127  153.3290 N   0  0  0  0  0  0  0  0  0  0  0  0
  147.6233  140.6341  153.5393 C   0  0  0  0  0  0  0  0  0  0  0  0
  148.8325  140.4520  154.4858 C   0  0  1  0  0  0  0  0  0  0  0  0
  149.8535  139.7457  153.8013 O   0  0  0  0  0  0  0  0  0  0  0  0
  149.4171  141.7591  155.0133 C   0  0  0  0  0  0  0  0  0  0  0  0
  149.9300  141.3678  156.3919 C   0  0  0  0  0  0  0  0  0  0  0  0
  148.9140  140.4981  156.8605 O   0  0  0  0  0  0  0  0  0  0  0  0
  148.4867  139.6805  155.7756 C   0  0  0  0  0  0  0  0  0  0  0  0
  140.8935  136.6146  153.1431 H   0  0  0  0  0  0  0  0  0  0  0  0
  142.3372  137.2145  152.3325 H   0  0  0  0  0  0  0  0  0  0  0  0
  142.0667  137.5585  154.0395 H   0  0  0  0  0  0  0  0  0  0  0  0
  142.3448  135.1374  154.6059 H   0  0  0  0  0  0  0  0  0  0  0  0
  141.6997  133.6611  152.9065 H   0  0  0  0  0  0  0  0  0  0  0  0
  142.0781  134.8299  151.6443 H   0  0  0  0  0  0  0  0  0  0  0  0
  143.9913  133.0622  153.1629 H   0  0  0  0  0  0  0  0  0  0  0  0
  143.4387  132.2309  150.8796 H   0  0  0  0  0  0  0  0  0  0  0  0
  143.9226  133.7676  150.1907 H   0  0  0  0  0  0  0  0  0  0  0  0
  145.7059  131.8153  151.7330 H   0  0  0  0  0  0  0  0  0  0  0  0
  145.8209  132.1866  150.0324 H   0  0  0  0  0  0  0  0  0  0  0  0
  147.5753  133.3695  151.4094 H   0  0  0  0  0  0  0  0  0  0  0  0
  146.5685  134.4751  150.5099 H   0  0  0  0  0  0  0  0  0  0  0  0
  146.3173  133.8399  153.4943 H   0  0  0  0  0  0  0  0  0  0  0  0
  146.8709  135.3401  152.7867 H   0  0  0  0  0  0  0  0  0  0  0  0
  144.6223  135.6594  151.6988 H   0  0  0  0  0  0  0  0  0  0  0  0
  144.7094  138.3582  157.1229 H   0  0  0  0  0  0  0  0  0  0  0  0
  147.3329  138.9534  151.2717 H   0  0  0  0  0  0  0  0  0  0  0  0
  147.9563  141.0020  152.5681 H   0  0  0  0  0  0  0  0  0  0  0  0
  146.9474  141.3929  153.9364 H   0  0  0  0  0  0  0  0  0  0  0  0
  149.5787  139.6165  152.9063 H   0  0  0  0  0  0  0  0  0  0  0  0
  150.1861  142.1917  154.3718 H   0  0  0  0  0  0  0  0  0  0  0  0
  148.6298  142.5032  155.1365 H   0  0  0  0  0  0  0  0  0  0  0  0
  150.8761  140.8290  156.3215 H   0  0  0  0  0  0  0  0  0  0  0  0
  150.0654  142.2238  157.0529 H   0  0  0  0  0  0  0  0  0  0  0  0
  147.4171  139.4922  155.8732 H   0  0  0  0  0  0  0  0  0  0  0  0
  148.9929  138.7148  155.8253 H   0  0  0  0  0  0  0  0  0  0  0  0
  1  2  1  0  0  0  0
  1 27  1  0  0  0  0
  1 28  1  0  0  0  0
  1 29  1  0  0  0  0
  2 10  1  0  0  0  0
  2  3  1  0  0  0  0
  2 30  1  0  0  0  0
  3  4  1  0  0  0  0
  3 31  1  0  0  0  0
  3 32  1  0  0  0  0
  4  9  1  0  0  0  0
  4  5  1  0  0  0  0
  4 33  1  0  0  0  0
  5  6  1  0  0  0  0
  5 34  1  0  0  0  0
  5 35  1  0  0  0  0
  6  7  1  0  0  0  0
  6 36  1  0  0  0  0
  6 37  1  0  0  0  0
  7  8  1  0  0  0  0
  7 38  1  0  0  0  0
  7 39  1  0  0  0  0
  8  9  1  0  0  0  0
  8 40  1  0  0  0  0
  8 41  1  0  0  0  0
  9 10  1  0  0  0  0
  9 42  1  0  0  0  0
 10 11  1  0  0  0  0
 11 16  1  0  0  0  0
 11 12  2  0  0  0  0
 12 13  1  0  0  0  0
 13 14  2  0  0  0  0
 13 43  1  0  0  0  0
 14 15  1  0  0  0  0
 15 19  1  0  0  0  0
 15 16  2  0  0  0  0
 16 17  1  0  0  0  0
 17 18  2  0  0  0  0
 18 19  1  0  0  0  0
 18 44  1  0  0  0  0
 19 20  1  0  0  0  0
 20 21  1  0  0  0  0
 20 45  1  0  0  0  0
 20 46  1  0  0  0  0
 21 26  1  0  0  0  0
 21 22  1  0  0  0  0
 21 23  1  0  0  0  0
 22 47  1  0  0  0  0
 23 24  1  0  0  0  0
 23 48  1  0  0  0  0
 23 49  1  0  0  0  0
 24 25  1  0  0  0  0
 24 50  1  0  0  0  0
 24 51  1  0  0  0  0
 25 26  1  0  0  0  0
 26 52  1  0  0  0  0
 26 53  1  0  0  0  0
M  END
> <s_m_source_file>
AV-unprocessed.smi

> <i_m_source_file_index>
189

> <i_lp_mmshare_version>
43012

> <i_f3d_flags>
0

> <s_epik_input>
W0NIMl0xW0NIMl1bQ0gyXVtDSDJdW0NASF0oW0NASF0xMilOKFtDQEhdKFtDSDNdKVtDSDJdMiljKG5bY0hdbjMpYyhjMzQpbltjSF1uNFtDSDJdW0NAQF01KFtPSF0pW0NIMl1bQ0gyXU9bQ0gyXTU=

> <s_epik_cmdline>
J2VwaWtfcHl0aG9uJywgJy1waCcsICc3LjAnLCAnLXRuJywgJzgnLCAnLW1hJywgJzIwMCcsICctbWV0YWxfYmluZGluZycsICctaW1hZScsICc8aW5maWxlLm1hZT4nLCAnLW9tYWUnLCAnPG91dGZpbGUubWFlPic=

> <r_lp_tautomer_probability>
1

> <r_epik_Ionization_Penalty>
0.00594261

> <r_epik_Ionization_Penalty_Charging>
0

> <r_epik_Ionization_Penalty_Neutral>
0.00594261

> <r_epik_State_Penalty>
0.00429776

> <r_epik_Charging_Adjusted_Penalty>
0.00429776

> <i_epik_Tot_Q>
0

> <i_epik_Tot_abs_Q>
0

> <r_epik_Metal_State_Penalty>
-0

> <b_epik_Metal_Only>
0

> <s_lp_Force_Field>
OPLS_2005

> <r_lp_Energy>
58.915

> <b_lp_Chiralities_Consistent>
1

> <s_lp_Variant>
AV-unprocessed.smi:189-6

> <Gold.Version>
5.8.1

> <Gold.Id.Protein>
6NUR|6NUR_protein|mol2

> <Gold.PLP.Fitness>
44.4909

> <Gold.PLP.PLP>
-37.0349

> <Gold.PLP.part.hbond>
-2.0000

> <Gold.PLP.part.metal>
0.0000

> <Gold.PLP.part.buried>
-4.4424

> <Gold.PLP.part.nonpolar>
-30.8083

> <Gold.PLP.part.repulsive>
0.4001

> <Gold.PLP.ligand.clash>
0.0000

> <Gold.PLP.ligand.torsion>
0.5275

> <Gold.PLP.Chemscore.Hbond>
1.8000

> <Gold.PLP.Chemscore.CHOScore>
0.9039

> <Gold.PLP.Chemscore.Metal>
0.0000

> <Gold.Chemscore.Hbonds>
donor molecule, donor type, donor heavy atom, donor atom, acceptor molecule, acceptor atom, score
      L1  H    22    47       P1  7957  1.00
      P1  H  7989  7998       L1    22  0.64
      L1  C    18    44       P1  7957  0.96

> <Gold.PLP.Chemscore.Internal.Correction>
0.3991

> <Gold.Rescore>
     Score         DG    S(hbond)    S(metal)    S(lipo)     H(rot)  DE(clash)    DE(int)     intcor
     12.50     -14.47       1.46        0.00      79.63       2.03       0.02       1.95       ----

> <Gold.Chemscore.Fitness>
12.5030

> <Gold.Chemscore.DG>
-14.4742

> <Gold.Chemscore.ZeroCoef>
-5.4800

> <Gold.Chemscore.Hbond>
1.4592

> <Gold.Chemscore.Metal>
0.0000

> <Gold.Chemscore.Lipo>
79.6264

> <Gold.Chemscore.Internal_Hbond>
0.0000

> <Gold.Chemscore.DEClash>
0.0174

> <Gold.Chemscore.DEInternal>
1.9538

> <Gold.Chemscore.Rot>
2.0297

> <Gold.Chemscore.Internal.Correction>
   9.000000E+99

> <Gold.Chemscore.Hbonds>
donor molecule, donor type, donor heavy atom, donor atom, acceptor molecule, acceptor atom, score
      L1  H    22    47       P1  7957  0.96
      P1  H  7989  7998       L1    22  0.12

> <Gold.Chemscore.Hbond.Weighted>
-4.8739

> <Gold.Chemscore.Metal.Weighted>
-0.0000

> <Gold.Chemscore.Lipo.Weighted>
-9.3163

> <Gold.Chemscore.Internal_Hbond.Weighted>
0.0000

> <Gold.Chemscore.DEClash.Weighted>
0.0174

> <Gold.Chemscore.DEInternal.Weighted>
1.9538

> <Gold.Chemscore.Rot.Weighted>
5.1960

> <Gold.Chemscore.Internal.Correction.Weighted>
   9.000000E+99

> <Gold.Protein.RotatedTorsions>
[ 6907 6896 6895 6894 ] final -128.74 input  -60.11 | X-H torsion
[ 7974 7965 7964 7962 ] final  130.42 input  175.53 | X-H torsion
[ 8008 7997 7996 7995 ] final   89.76 input   59.86 | X-H torsion
[ 10167 10162 10161 10158 ] final -125.40 input  -65.29 | X-H torsion
[ 10718 10713 10712 10709 ] final  104.52 input   66.30 | X-H torsion
[ 10763 10752 10751 10750 ] final  -96.62 input  -60.55 | X-H torsion
[ 11005 11000 10999 10996 ] final   72.37 input  -57.11 | X-H torsion

> <Gold.Protein.ActiveResidues>
 VAL166  LYS551  ARG553  GLY616  TRP617  ASP618  TYR619  PRO620  LYS621  CYS622 
 ASP623  PHE694  ASN695  SER759  ASP760  ASP761  ALA762  ILE779  LEU786  VAL792 
 PHE793  MET794  SER795  GLU796  ALA797  LYS798  CYS799  TRP800  GLU811  SER814 

> <Gold.Protein.RotatedAtoms>
  150.9211  133.6879  159.2831 H   0  0  0  0  0  0  0  0  0  0  0  0  # atno 6907 bound_to 6896
  151.4333  135.1011  159.9658 H   0  0  0  0  0  0  0  0  0  0  0  0  # atno 6908 bound_to 6896
  152.4980  133.8636  159.7318 H   0  0  0  0  0  0  0  0  0  0  0  0  # atno 6909 bound_to 6896
  145.0181  139.4158  143.5211 H   0  0  0  0  0  0  0  0  0  0  0  0  # atno 7974 bound_to 7965
  156.0038  140.3357  155.6872 H   0  0  0  0  0  0  0  0  0  0  0  0  # atno 8008 bound_to 7997
  155.6253  140.0679  157.2683 H   0  0  0  0  0  0  0  0  0  0  0  0  # atno 8009 bound_to 7997
  154.4258  140.1769  156.1403 H   0  0  0  0  0  0  0  0  0  0  0  0  # atno 8010 bound_to 7997
  139.9825  143.5727  152.2373 H   0  0  0  0  0  0  0  0  0  0  0  0  # atno 10167 bound_to 10162
  157.6737  131.0806  150.5719 H   0  0  0  0  0  0  0  0  0  0  0  0  # atno 10718 bound_to 10713
  154.7255  135.5077  153.8880 H   0  0  0  0  0  0  0  0  0  0  0  0  # atno 10763 bound_to 10752
  153.0901  135.6657  153.9879 H   0  0  0  0  0  0  0  0  0  0  0  0  # atno 10764 bound_to 10752
  153.9692  135.3040  155.3408 H   0  0  0  0  0  0  0  0  0  0  0  0  # atno 10765 bound_to 10752
  139.9494  134.7254  156.0899 H   0  0  0  0  0  0  0  0  0  0  0  0  # atno 11005 bound_to 11000
  146.3481  139.9662  142.8711 LP  0  0  0  0  0  0  0  0  0  0  0  0  # atno 17320 bound_to 7965
  145.1933  140.9821  143.4198 LP  0  0  0  0  0  0  0  0  0  0  0  0  # atno 17321 bound_to 7965
  139.6399  144.7653  151.2360 LP  0  0  0  0  0  0  0  0  0  0  0  0  # atno 17342 bound_to 10162
  140.7484  143.6335  150.8401 LP  0  0  0  0  0  0  0  0  0  0  0  0  # atno 17343 bound_to 10162
  156.6020  130.4357  149.5893 LP  0  0  0  0  0  0  0  0  0  0  0  0  # atno 17370 bound_to 10713
  156.2498  130.6901  151.1634 LP  0  0  0  0  0  0  0  0  0  0  0  0  # atno 17371 bound_to 10713
  141.1153  133.6630  156.3079 LP  0  0  0  0  0  0  0  0  0  0  0  0  # atno 17394 bound_to 11000
  140.5755  134.5797  157.5467 LP  0  0  0  0  0  0  0  0  0  0  0  0  # atno 17395 bound_to 11000

$$$$
