#       Name:                AV-unprocessed.smi:437
#       Creating user name   scv26
#       Creation time:       Thu Mar 26 22:52:40 2020


#       File generated by GOLD software.
#

@<TRIPOS>MOLECULE
AV-unprocessed.smi:437
    56    57     1
SMALL
NO_CHARGES


@<TRIPOS>ATOM
      1 ****        -5.8151   2.5235   2.2117 C.3            1 S1                 0.0000
      2 ****        -5.1175   1.2018   2.0337 C.2            1 S1                 0.0000
      3 ****        -3.8265   1.2302   1.9792 N.2            1 S1                 0.0000
      4 ****        -3.0878   0.0750   1.8115 N.am           1 S1                 0.0000
      5 ****        -1.6353   0.2964   1.7550 C.3            1 S1                 0.0000
      6 ****        -1.0865   0.3428   0.3204 C.2            1 S1                 0.0000
      7 ****        -1.8454   0.5663  -0.6266 O.2            1 S1                 0.0000
      8 ****         0.2416   0.1355   0.2131 N.am           1 S1                 0.0000
      9 ****         0.9830   0.1230  -0.9114 C.2            1 S1                 0.0000
     10 ****         0.5564   0.2881  -2.0564 O.2            1 S1                 0.0000
     11 ****         2.2765  -0.0930  -0.6304 N.am           1 S1                 0.0000
     12 ****         3.3605  -0.1447  -1.6097 C.3            1 S1                 0.0000
     13 ****         3.5241  -1.5895  -2.1263 C.3            1 S1                 0.0000
     14 ****         4.6959  -1.7108  -3.1110 C.3            1 S1                 0.0000
     15 ****         5.9995  -1.2048  -2.4792 C.3            1 S1                 0.0000
     16 ****         5.8457   0.2402  -1.9813 C.3            1 S1                 0.0000
     17 ****         4.6765   0.3842  -0.9860 C.3            1 S1                 0.0000
     18 ****         4.5551   1.8405  -0.5018 C.3            1 S1                 0.0000
     19 ****        -3.6181  -1.1771   1.7020 C.2            1 S1                 0.0000
     20 ****        -2.9193  -2.1821   1.5615 O.2            1 S1                 0.0000
     21 ****        -5.0811  -1.2019   1.7640 C.2            1 S1                 0.0000
     22 ****        -5.6779  -2.4926   1.6425 C.1            1 S1                 0.0000
     23 ****        -6.1799  -3.5315   1.5481 N.1            1 S1                 0.0000
     24 ****        -5.8178  -0.0739   1.9239 C.2            1 S1                 0.0000
     25 ****        -7.3384  -0.0465   1.9942 C.3            1 S1                 0.0000
     26 ****        -6.3547   2.5507   3.1585 H              1 S1                 0.0000
     27 ****        -6.5310   2.6958   1.4076 H              1 S1                 0.0000
     28 ****        -5.1123   3.3582   2.2091 H              1 S1                 0.0000
     29 ****        -1.3787   1.2372   2.2453 H              1 S1                 0.0000
     30 ****        -1.1150  -0.4784   2.3215 H              1 S1                 0.0000
     31 ****         0.7372  -0.0256   1.0772 H              1 S1                 0.0000
     32 ****         2.5377  -0.2190   0.3364 H              1 S1                 0.0000
     33 ****         3.1107   0.4981  -2.4564 H              1 S1                 0.0000
     34 ****         3.6889  -2.2660  -1.2863 H              1 S1                 0.0000
     35 ****         2.6054  -1.9208  -2.6123 H              1 S1                 0.0000
     36 ****         4.8125  -2.7485  -3.4250 H              1 S1                 0.0000
     37 ****         4.4776  -1.1367  -4.0124 H              1 S1                 0.0000
     38 ****         6.2795  -1.8520  -1.6472 H              1 S1                 0.0000
     39 ****         6.8115  -1.2636  -3.2047 H              1 S1                 0.0000
     40 ****         6.7760   0.5620  -1.5122 H              1 S1                 0.0000
     41 ****         5.6870   0.9017  -2.8342 H              1 S1                 0.0000
     42 ****         4.9097  -0.2308  -0.1152 H              1 S1                 0.0000
     43 ****         4.2904   2.5085  -1.3221 H              1 S1                 0.0000
     44 ****         5.4965   2.1919  -0.0786 H              1 S1                 0.0000
     45 ****         3.7949   1.9471   0.2721 H              1 S1                 0.0000
     46 ****        -7.7694  -1.0471   1.9993 H              1 S1                 0.0000
     47 ****        -7.7489   0.4857   1.1356 H              1 S1                 0.0000
     48 ****        -7.6741   0.4548   2.9024 H              1 S1                 0.0000
     49 ****        -3.3524   2.1069   2.0602 LP             1 S1                 0.0000
     50 ****        -2.8200   0.7177  -0.4614 LP             1 S1                 0.0000
     51 ****        -1.4858   0.5959  -1.5592 LP             1 S1                 0.0000
     52 ****        -0.4189   0.4482  -2.2083 LP             1 S1                 0.0000
     53 ****         1.1857   0.2618  -2.8331 LP             1 S1                 0.0000
     54 ****        -1.9236  -2.0976   1.5240 LP             1 S1                 0.0000
     55 ****        -3.3478  -3.0824   1.4850 LP             1 S1                 0.0000
     56 ****        -6.6135  -4.4289   1.4666 LP             1 S1                 0.0000
@<TRIPOS>BOND
    1    1    2 1     
    2    1   26 1     
    3    1   27 1     
    4    1   28 1     
    5    2   24 1     
    6    2    3 2     
    7    3    4 1     
    8    4    5 1     
    9    4   19 am    
   10    5    6 1     
   11    5   29 1     
   12    5   30 1     
   13    6    7 2     
   14    6    8 1     
   15    8    9 1     
   16    8   31 1     
   17    9   10 2     
   18    9   11 1     
   19   11   12 1     
   20   11   32 1     
   21   12   17 1     
   22   12   13 1     
   23   12   33 1     
   24   13   14 1     
   25   13   34 1     
   26   13   35 1     
   27   14   15 1     
   28   14   36 1     
   29   14   37 1     
   30   15   16 1     
   31   15   38 1     
   32   15   39 1     
   33   16   17 1     
   34   16   40 1     
   35   16   41 1     
   36   17   18 1     
   37   17   42 1     
   38   18   43 1     
   39   18   44 1     
   40   18   45 1     
   41   19   20 2     
   42   19   21 1     
   43   21   22 1     
   44   21   24 2     
   45   22   23 3     
   46   24   25 1     
   47   25   46 1     
   48   25   47 1     
   49   25   48 1     
   50    3   49 1     
   51    7   50 1     
   52    7   51 1     
   53   10   52 1     
   54   10   53 1     
   55   20   54 1     
   56   20   55 1     
   57   23   56 1     
@<TRIPOS>SUBSTRUCTURE
      1 S1             1
@<TRIPOS>SET
LONE_PAIRS      STATIC     ATOMS    <user>   **** ""
8 49 50 51 52 53 54 55 56
DONOR_HYDROGENS      STATIC     ATOMS    <user>   **** ""
2 31 32
ATOM$BLUE        STATIC     ATOMS    COLORGROUP SYSTEM
8 49 50 51 52 53 54 55 56
ATOM$RED        STATIC     ATOMS    COLORGROUP SYSTEM
2 31 32
