AV-unprocessed.smi:2400|AV-procd|sdf|9501|dock10
  -GOLD-   2272013133D 1   1.00000     0.00000
 Structure written by MMmdl.
 44 45  0  0  0  0  0  0  0  0  1 V2000
  150.8759  136.9068  154.6684 C   0  0  0  0  0  0  0  0  0  0  0  0
  149.6787  136.1795  154.8837 O   0  0  0  0  0  0  0  0  0  0  0  0
  149.8619  134.8430  154.9423 C   0  0  0  0  0  0  0  0  0  0  0  0
  149.3227  133.8126  154.2227 C   0  0  0  0  0  0  0  0  0  0  0  0
  148.3744  133.8391  153.1687 N   0  0  0  0  0  0  0  0  0  0  0  0
  147.3423  133.0004  152.9869 C   0  0  0  0  0  0  0  0  0  0  0  0
  147.0374  132.0825  153.7480 O   0  0  0  0  0  0  0  0  0  0  0  0
  146.6605  133.3023  151.8731 N   0  0  0  0  0  0  0  0  0  0  0  0
  145.4683  132.6017  151.3947 C   0  0  2  0  0  0  0  0  0  0  0  0
  145.8139  131.7264  150.1730 C   0  0  0  0  0  0  0  0  0  0  0  0
  144.9338  132.2145  149.0238 C   0  0  0  0  0  0  0  0  0  0  0  0
  143.7336  132.8562  149.7129 C   0  0  0  0  0  0  0  0  0  0  0  0
  144.3074  133.5493  150.9615 C   0  0  0  0  0  0  0  0  0  0  0  0
  143.2383  133.6672  152.0641 C   0  0  0  0  0  0  0  0  0  0  0  0
  144.7820  134.9723  150.5784 C   0  0  0  0  0  0  0  0  0  0  0  0
  149.8717  132.6336  154.7989 C   0  0  0  0  0  0  0  0  0  0  0  0
  149.6249  131.1959  154.4418 C   0  0  0  0  0  0  0  0  0  0  0  0
  150.7257  132.9289  155.7727 N   0  0  0  0  0  0  0  0  0  0  0  0
  150.7283  134.2817  155.8567 N   0  0  0  0  0  0  0  0  0  0  0  0
  151.5589  134.9368  156.8460 C   0  0  0  0  0  0  0  0  0  0  0  0
  150.6510  137.9713  154.6098 H   0  0  0  0  0  0  0  0  0  0  0  0
  151.3503  136.6107  153.7319 H   0  0  0  0  0  0  0  0  0  0  0  0
  151.5883  136.7595  155.4806 H   0  0  0  0  0  0  0  0  0  0  0  0
  148.4454  134.6177  152.5304 H   0  0  0  0  0  0  0  0  0  0  0  0
  146.9825  134.0793  151.3151 H   0  0  0  0  0  0  0  0  0  0  0  0
  145.1158  131.9242  152.1754 H   0  0  0  0  0  0  0  0  0  0  0  0
  146.8701  131.7629  149.9023 H   0  0  0  0  0  0  0  0  0  0  0  0
  145.5800  130.6846  150.3962 H   0  0  0  0  0  0  0  0  0  0  0  0
  145.4696  132.9624  148.4384 H   0  0  0  0  0  0  0  0  0  0  0  0
  144.6467  131.4095  148.3471 H   0  0  0  0  0  0  0  0  0  0  0  0
  143.1909  133.5356  149.0544 H   0  0  0  0  0  0  0  0  0  0  0  0
  143.0368  132.0696  150.0068 H   0  0  0  0  0  0  0  0  0  0  0  0
  142.3936  134.2718  151.7327 H   0  0  0  0  0  0  0  0  0  0  0  0
  143.6470  134.1343  152.9605 H   0  0  0  0  0  0  0  0  0  0  0  0
  142.8487  132.6905  152.3526 H   0  0  0  0  0  0  0  0  0  0  0  0
  143.9608  135.5645  150.1730 H   0  0  0  0  0  0  0  0  0  0  0  0
  145.5695  134.9501  149.8246 H   0  0  0  0  0  0  0  0  0  0  0  0
  145.1668  135.5158  151.4421 H   0  0  0  0  0  0  0  0  0  0  0  0
  148.9195  131.1044  153.6160 H   0  0  0  0  0  0  0  0  0  0  0  0
  149.2145  130.6467  155.2891 H   0  0  0  0  0  0  0  0  0  0  0  0
  150.5495  130.7031  154.1407 H   0  0  0  0  0  0  0  0  0  0  0  0
  151.7952  135.9509  156.5228 H   0  0  0  0  0  0  0  0  0  0  0  0
  152.4904  134.3858  156.9801 H   0  0  0  0  0  0  0  0  0  0  0  0
  151.0279  134.9807  157.7970 H   0  0  0  0  0  0  0  0  0  0  0  0
  1  2  1  0  0  0  0
  1 21  1  0  0  0  0
  1 22  1  0  0  0  0
  1 23  1  0  0  0  0
  2  3  1  0  0  0  0
  3 19  1  0  0  0  0
  3  4  2  0  0  0  0
  4  5  1  0  0  0  0
  4 16  1  0  0  0  0
  5  6  1  0  0  0  0
  5 24  1  0  0  0  0
  6  7  2  0  0  0  0
  6  8  1  0  0  0  0
  8  9  1  0  0  0  0
  8 25  1  0  0  0  0
  9 13  1  0  0  0  0
  9 10  1  0  0  0  0
  9 26  1  0  0  0  0
 10 11  1  0  0  0  0
 10 27  1  0  0  0  0
 10 28  1  0  0  0  0
 11 12  1  0  0  0  0
 11 29  1  0  0  0  0
 11 30  1  0  0  0  0
 12 13  1  0  0  0  0
 12 31  1  0  0  0  0
 12 32  1  0  0  0  0
 13 14  1  0  0  0  0
 13 15  1  0  0  0  0
 14 33  1  0  0  0  0
 14 34  1  0  0  0  0
 14 35  1  0  0  0  0
 15 36  1  0  0  0  0
 15 37  1  0  0  0  0
 15 38  1  0  0  0  0
 16 17  1  0  0  0  0
 16 18  2  0  0  0  0
 17 39  1  0  0  0  0
 17 40  1  0  0  0  0
 17 41  1  0  0  0  0
 18 19  1  0  0  0  0
 19 20  1  0  0  0  0
 20 42  1  0  0  0  0
 20 43  1  0  0  0  0
 20 44  1  0  0  0  0
M  END
> <s_m_source_file>
AV-unprocessed.smi

> <i_m_source_file_index>
2400

> <i_lp_mmshare_version>
43012

> <i_f3d_flags>
0

> <s_epik_input>
W0NIM11uMW5jKFtDSDNdKWMoYzFPW0NIM10pW05IXUMoPU8pW05IXVtDQEBIXShDMihbQ0gzXSlbQ0gzXSlbQ0gyXVtDSDJdW0NIMl0y

> <s_epik_cmdline>
J2VwaWtfcHl0aG9uJywgJy1waCcsICc3LjAnLCAnLXRuJywgJzgnLCAnLW1hJywgJzIwMCcsICctbWV0YWxfYmluZGluZycsICctaW1hZScsICc8aW5maWxlLm1hZT4nLCAnLW9tYWUnLCAnPG91dGZpbGUubWFlPic=

> <r_lp_tautomer_probability>
1

> <r_epik_Ionization_Penalty>
0.000423583

> <r_epik_Ionization_Penalty_Charging>
0

> <r_epik_Ionization_Penalty_Neutral>
0.000423583

> <r_epik_State_Penalty>
-0

> <r_epik_Charging_Adjusted_Penalty>
0

> <i_epik_Tot_Q>
0

> <i_epik_Tot_abs_Q>
0

> <r_epik_Metal_State_Penalty>
-0

> <b_epik_Metal_Only>
0

> <s_lp_Force_Field>
OPLS_2005

> <r_lp_Energy>
29.9339

> <b_lp_Chiralities_Consistent>
1

> <s_lp_Variant>
AV-unprocessed.smi:2400-1

> <Gold.Version>
5.8.1

> <Gold.Id.Protein>
6NUR|6NUR_protein|mol2

> <Gold.PLP.Fitness>
36.0034

> <Gold.PLP.PLP>
-34.1009

> <Gold.PLP.part.hbond>
-1.0000

> <Gold.PLP.part.metal>
0.0000

> <Gold.PLP.part.buried>
-1.3040

> <Gold.PLP.part.nonpolar>
-33.1807

> <Gold.PLP.part.repulsive>
0.5752

> <Gold.PLP.ligand.clash>
0.0000

> <Gold.PLP.ligand.torsion>
0.4744

> <Gold.PLP.Chemscore.Hbond>
0.9500

> <Gold.PLP.Chemscore.CHOScore>
0.0000

> <Gold.PLP.Chemscore.Metal>
0.0000

> <Gold.Chemscore.Hbonds>
donor molecule, donor type, donor heavy atom, donor atom, acceptor molecule, acceptor atom, score
      L1  H     5    24       P1  7948  0.85

> <Gold.PLP.Chemscore.Internal.Correction>
0.0014

> <Gold.Rescore>
     Score         DG    S(hbond)    S(metal)    S(lipo)     H(rot)  DE(clash)    DE(int)     intcor
     12.14     -13.93       0.50        0.00      84.56       1.21       0.03       1.76       ----

> <Gold.Chemscore.Fitness>
12.1403

> <Gold.Chemscore.DG>
-13.9304

> <Gold.Chemscore.ZeroCoef>
-5.4800

> <Gold.Chemscore.Hbond>
0.4968

> <Gold.Chemscore.Metal>
0.0000

> <Gold.Chemscore.Lipo>
84.5579

> <Gold.Chemscore.Internal_Hbond>
0.0000

> <Gold.Chemscore.DEClash>
0.0277

> <Gold.Chemscore.DEInternal>
1.7623

> <Gold.Chemscore.Rot>
1.2119

> <Gold.Chemscore.Internal.Correction>
   9.000000E+99

> <Gold.Chemscore.Hbonds>
donor molecule, donor type, donor heavy atom, donor atom, acceptor molecule, acceptor atom, score
      L1  H     5    24       P1  7948  0.15

> <Gold.Chemscore.Hbond.Weighted>
-1.6595

> <Gold.Chemscore.Metal.Weighted>
-0.0000

> <Gold.Chemscore.Lipo.Weighted>
-9.8933

> <Gold.Chemscore.Internal_Hbond.Weighted>
0.0000

> <Gold.Chemscore.DEClash.Weighted>
0.0277

> <Gold.Chemscore.DEInternal.Weighted>
1.7623

> <Gold.Chemscore.Rot.Weighted>
3.1024

> <Gold.Chemscore.Internal.Correction.Weighted>
   9.000000E+99

> <Gold.Protein.RotatedTorsions>
[ 6907 6896 6895 6894 ] final  -13.61 input  -60.11 | X-H torsion
[ 7974 7965 7964 7962 ] final -105.47 input  175.53 | X-H torsion
[ 8008 7997 7996 7995 ] final  135.47 input   59.86 | X-H torsion
[ 10167 10162 10161 10158 ] final  -48.28 input  -65.29 | X-H torsion
[ 10718 10713 10712 10709 ] final  -71.97 input   66.30 | X-H torsion
[ 10763 10752 10751 10750 ] final  -39.32 input  -60.55 | X-H torsion
[ 11005 11000 10999 10996 ] final  135.35 input  -57.11 | X-H torsion

> <Gold.Protein.ActiveResidues>
 VAL166  LYS551  ARG553  GLY616  TRP617  ASP618  TYR619  PRO620  LYS621  CYS622 
 ASP623  PHE694  ASN695  SER759  ASP760  ASP761  ALA762  ILE779  LEU786  VAL792 
 PHE793  MET794  SER795  GLU796  ALA797  LYS798  CYS799  TRP800  GLU811  SER814 

> <Gold.Protein.RotatedAtoms>
  151.3523  135.0887  159.9406 H   0  0  0  0  0  0  0  0  0  0  0  0  # atno 6907 bound_to 6896
  152.5184  133.9340  159.7605 H   0  0  0  0  0  0  0  0  0  0  0  0  # atno 6908 bound_to 6896
  150.9718  133.6282  159.2766 H   0  0  0  0  0  0  0  0  0  0  0  0  # atno 6909 bound_to 6896
  145.2300  140.9167  143.3210 H   0  0  0  0  0  0  0  0  0  0  0  0  # atno 7974 bound_to 7965
  156.3003  140.2470  156.3586 H   0  0  0  0  0  0  0  0  0  0  0  0  # atno 8008 bound_to 7997
  154.8898  140.0409  157.1851 H   0  0  0  0  0  0  0  0  0  0  0  0  # atno 8009 bound_to 7997
  154.8609  140.2920  155.5544 H   0  0  0  0  0  0  0  0  0  0  0  0  # atno 8010 bound_to 7997
  140.6738  143.2747  151.4048 H   0  0  0  0  0  0  0  0  0  0  0  0  # atno 10167 bound_to 10162
  156.0340  130.4362  150.2523 H   0  0  0  0  0  0  0  0  0  0  0  0  # atno 10718 bound_to 10713
  153.9274  135.6775  153.4746 H   0  0  0  0  0  0  0  0  0  0  0  0  # atno 10763 bound_to 10752
  153.0997  135.4834  154.8841 H   0  0  0  0  0  0  0  0  0  0  0  0  # atno 10764 bound_to 10752
  154.7446  135.3169  154.8625 H   0  0  0  0  0  0  0  0  0  0  0  0  # atno 10765 bound_to 10752
  139.9974  134.9492  156.9995 H   0  0  0  0  0  0  0  0  0  0  0  0  # atno 11005 bound_to 11000
  144.9685  139.3905  143.6320 LP  0  0  0  0  0  0  0  0  0  0  0  0  # atno 17320 bound_to 7965
  146.3355  139.8772  142.8830 LP  0  0  0  0  0  0  0  0  0  0  0  0  # atno 17321 bound_to 7965
  139.6019  144.1277  152.2207 LP  0  0  0  0  0  0  0  0  0  0  0  0  # atno 17342 bound_to 10162
  140.0664  144.5815  150.7224 LP  0  0  0  0  0  0  0  0  0  0  0  0  # atno 17343 bound_to 10162
  157.0624  131.0093  151.3218 LP  0  0  0  0  0  0  0  0  0  0  0  0  # atno 17370 bound_to 10713
  157.5061  130.7909  149.7655 LP  0  0  0  0  0  0  0  0  0  0  0  0  # atno 17371 bound_to 10713
  140.4793  134.1306  155.7214 LP  0  0  0  0  0  0  0  0  0  0  0  0  # atno 17394 bound_to 11000
  141.1615  133.8784  157.1835 LP  0  0  0  0  0  0  0  0  0  0  0  0  # atno 17395 bound_to 11000

$$$$
