#       Name:                AV-unprocessed.smi:2855
#       Creating user name   scv26
#       Creation time:       Fri Mar 27 15:43:44 2020


#       File generated by GOLD software.
#

@<TRIPOS>MOLECULE
AV-unprocessed.smi:2855
    53    54     1
SMALL
NO_CHARGES


@<TRIPOS>ATOM
      1 ****        -1.5415  -3.4454  -2.1911 C.3            1 S1                 0.0000
      2 ****        -1.5083  -1.9105  -2.1866 C.3            1 S1                 0.0000
      3 ****        -0.5490  -1.3616  -3.2635 C.3            1 S1                 0.0000
      4 ****        -0.4408   0.1753  -3.2113 C.3            1 S1                 0.0000
      5 ****         0.0067   0.6820  -1.8166 C.3            1 S1                 0.0000
      6 ****         1.4985   0.3208  -1.4859 C.3            1 S1                 0.0000
      7 ****         1.9926   0.8425  -0.1225 C.3            1 S1                 0.0000
      8 ****         2.4733   0.8206  -2.5717 C.3            1 S1                 0.0000
      9 ****        -1.0774   0.1803  -0.8163 C.3            1 S1                 0.0000
     10 ****        -0.9500   0.7227   0.5317 N.am           1 S1                 0.0000
     11 ****        -1.3679   1.9339   0.9384 C.2            1 S1                 0.0000
     12 ****        -1.9278   2.7322   0.1878 O.2            1 S1                 0.0000
     13 ****        -1.1175   2.3355   2.4025 C.3            1 S1                 0.0000
     14 ****        -0.3558   1.3537   3.1932 N.am           1 S1                 0.0000
     15 ****         1.0166   1.4949   3.3428 C.2            1 S1                 0.0000
     16 ****         1.7840   0.6277   4.0445 C.2            1 S1                 0.0000
     17 ****         1.1821  -0.5305   4.6963 C.2            1 S1                 0.0000
     18 ****         1.7921  -1.3720   5.3520 O.2            1 S1                 0.0000
     19 ****        -0.2006  -0.6373   4.5243 N.am           1 S1                 0.0000
     20 ****        -0.9971   0.2524   3.8020 C.2            1 S1                 0.0000
     21 ****        -2.2082   0.0593   3.7052 O.2            1 S1                 0.0000
     22 ****        -1.1551  -1.3569  -0.7907 C.3            1 S1                 0.0000
     23 ****        -0.6611  -1.4247   4.9574 H              1 S1                 0.0000
     24 ****        -0.5630  -3.8636  -1.9524 H              1 S1                 0.0000
     25 ****        -1.8386  -3.8288  -3.1677 H              1 S1                 0.0000
     26 ****        -2.2537  -3.8250  -1.4580 H              1 S1                 0.0000
     27 ****        -2.5124  -1.5622  -2.4338 H              1 S1                 0.0000
     28 ****         0.4389  -1.8067  -3.1440 H              1 S1                 0.0000
     29 ****        -0.8960  -1.6654  -4.2516 H              1 S1                 0.0000
     30 ****         0.2132   0.5365  -4.0031 H              1 S1                 0.0000
     31 ****        -1.4172   0.6008  -3.4480 H              1 S1                 0.0000
     32 ****        -0.0537   1.7711  -1.8440 H              1 S1                 0.0000
     33 ****         1.6019  -0.7632  -1.4543 H              1 S1                 0.0000
     34 ****         1.7648   1.9008   0.0093 H              1 S1                 0.0000
     35 ****         3.0713   0.7230  -0.0173 H              1 S1                 0.0000
     36 ****         1.5531   0.2871   0.7042 H              1 S1                 0.0000
     37 ****         2.3574   1.8905  -2.7473 H              1 S1                 0.0000
     38 ****         2.3316   0.3029  -3.5196 H              1 S1                 0.0000
     39 ****         3.5106   0.6445  -2.2856 H              1 S1                 0.0000
     40 ****        -2.0474   0.5247  -1.1816 H              1 S1                 0.0000
     41 ****        -0.4993   0.1310   1.2145 H              1 S1                 0.0000
     42 ****        -0.5961   3.2940   2.4036 H              1 S1                 0.0000
     43 ****        -2.0802   2.5386   2.8749 H              1 S1                 0.0000
     44 ****         1.5063   2.3358   2.8724 H              1 S1                 0.0000
     45 ****         2.8492   0.7911   4.1230 H              1 S1                 0.0000
     46 ****        -1.9161  -1.6734  -0.0758 H              1 S1                 0.0000
     47 ****        -0.2140  -1.7799  -0.4387 H              1 S1                 0.0000
     48 ****        -2.0888   2.4903  -0.7691 LP             1 S1                 0.0000
     49 ****        -2.2217   3.6229   0.5346 LP             1 S1                 0.0000
     50 ****         2.7817  -1.2916   5.4716 LP             1 S1                 0.0000
     51 ****         1.2990  -2.1371   5.7659 LP             1 S1                 0.0000
     52 ****        -2.7754   0.6942   3.1806 LP             1 S1                 0.0000
     53 ****        -2.6254  -0.7326   4.1511 LP             1 S1                 0.0000
@<TRIPOS>BOND
    1    1    2 1     
    2    1   24 1     
    3    1   25 1     
    4    1   26 1     
    5    2   22 1     
    6    2    3 1     
    7    2   27 1     
    8    3    4 1     
    9    3   28 1     
   10    3   29 1     
   11    4    5 1     
   12    4   30 1     
   13    4   31 1     
   14    5    6 1     
   15    5    9 1     
   16    5   32 1     
   17    6    7 1     
   18    6    8 1     
   19    6   33 1     
   20    7   34 1     
   21    7   35 1     
   22    7   36 1     
   23    8   37 1     
   24    8   38 1     
   25    8   39 1     
   26    9   10 1     
   27    9   22 1     
   28    9   40 1     
   29   10   11 am    
   30   10   41 1     
   31   11   12 2     
   32   11   13 1     
   33   13   14 1     
   34   13   42 1     
   35   13   43 1     
   36   14   20 1     
   37   14   15 1     
   38   15   16 2     
   39   15   44 1     
   40   16   17 1     
   41   16   45 1     
   42   17   18 2     
   43   17   19 1     
   44   19   23 1     
   45   19   20 1     
   46   20   21 2     
   47   22   46 1     
   48   22   47 1     
   49   12   48 1     
   50   12   49 1     
   51   18   50 1     
   52   18   51 1     
   53   21   52 1     
   54   21   53 1     
@<TRIPOS>SUBSTRUCTURE
      1 S1             1
@<TRIPOS>SET
LONE_PAIRS      STATIC     ATOMS    <user>   **** ""
6 48 49 50 51 52 53
DONOR_HYDROGENS      STATIC     ATOMS    <user>   **** ""
2 41 23
ATOM$BLUE        STATIC     ATOMS    COLORGROUP SYSTEM
6 48 49 50 51 52 53
ATOM$RED        STATIC     ATOMS    COLORGROUP SYSTEM
2 41 23
