AV-unprocessed.smi:1686|AV-procd|sdf|6759|dock8
  -GOLD-   22720 7523D 1   1.00000     0.00000
 Structure written by MMmdl.
 41 43  0  0  0  0  0  0  0  0  1 V2000
  148.5135  130.6457  155.9338 C   0  0  0  0  0  0  0  0  0  0  0  0
  149.1697  131.9650  156.2256 C   0  0  0  0  0  0  0  0  0  0  0  0
  149.4111  132.3128  157.4830 N   0  0  0  0  0  0  0  0  0  0  0  0
  150.0063  133.5788  157.4340 O   0  0  0  0  0  0  0  0  0  0  0  0
  150.0904  133.9272  156.1294 C   0  0  0  0  0  0  0  0  0  0  0  0
  150.7502  135.4302  155.6181 Cl  0  0  0  0  0  0  0  0  0  0  0  0
  149.5879  132.9658  155.3007 C   0  0  0  0  0  0  0  0  0  0  0  0
  149.4810  132.9531  153.7977 C   0  0  0  0  0  0  0  0  0  0  0  0
  148.0085  132.8934  153.3960 C   0  0  0  0  0  0  0  0  0  0  0  0
  147.3480  131.8817  153.6297 O   0  0  0  0  0  0  0  0  0  0  0  0
  147.5094  133.9896  152.8042 N   0  0  0  0  0  0  0  0  0  0  0  0
  146.1284  134.1671  152.3642 C   0  0  1  0  0  0  0  0  0  0  0  0
  145.7204  135.6355  152.5684 C   0  0  0  0  0  0  0  0  0  0  0  0
  145.9866  133.7220  150.8900 C   0  0  2  0  0  0  0  0  0  0  0  0
  144.6089  134.0167  150.2545 C   0  0  0  0  0  0  0  0  0  0  0  0
  144.2181  132.6638  149.6303 C   0  0  2  0  0  0  0  0  0  0  0  0
  143.8137  131.6903  150.7527 C   0  0  0  0  0  0  0  0  0  0  0  0
  145.1644  131.3530  151.4096 C   0  0  0  0  0  0  0  0  0  0  0  0
  146.1614  132.2090  150.6011 C   0  0  1  0  0  0  0  0  0  0  0  0
  145.5693  132.1049  149.1993 C   0  0  0  0  0  0  0  0  0  0  0  0
  147.4801  130.7883  155.6179 H   0  0  0  0  0  0  0  0  0  0  0  0
  148.5068  129.9947  156.8086 H   0  0  0  0  0  0  0  0  0  0  0  0
  149.0342  130.1180  155.1346 H   0  0  0  0  0  0  0  0  0  0  0  0
  149.9411  133.8366  153.3532 H   0  0  0  0  0  0  0  0  0  0  0  0
  150.0015  132.0955  153.3696 H   0  0  0  0  0  0  0  0  0  0  0  0
  148.1338  134.7697  152.6574 H   0  0  0  0  0  0  0  0  0  0  0  0
  145.4665  133.5535  152.9769 H   0  0  0  0  0  0  0  0  0  0  0  0
  144.6842  135.8053  152.2762 H   0  0  0  0  0  0  0  0  0  0  0  0
  146.3458  136.3075  151.9798 H   0  0  0  0  0  0  0  0  0  0  0  0
  145.8144  135.9263  153.6151 H   0  0  0  0  0  0  0  0  0  0  0  0
  146.7463  134.2499  150.3101 H   0  0  0  0  0  0  0  0  0  0  0  0
  143.8659  134.3546  150.9780 H   0  0  0  0  0  0  0  0  0  0  0  0
  144.6994  134.7896  149.4902 H   0  0  0  0  0  0  0  0  0  0  0  0
  143.4763  132.7465  148.8354 H   0  0  0  0  0  0  0  0  0  0  0  0
  143.1097  132.1374  151.4555 H   0  0  0  0  0  0  0  0  0  0  0  0
  143.3517  130.7911  150.3434 H   0  0  0  0  0  0  0  0  0  0  0  0
  145.1798  131.5613  152.4788 H   0  0  0  0  0  0  0  0  0  0  0  0
  145.3881  130.2927  151.2856 H   0  0  0  0  0  0  0  0  0  0  0  0
  147.1932  131.8650  150.6801 H   0  0  0  0  0  0  0  0  0  0  0  0
  145.5143  131.0807  148.8256 H   0  0  0  0  0  0  0  0  0  0  0  0
  146.0807  132.7271  148.4625 H   0  0  0  0  0  0  0  0  0  0  0  0
  1  2  1  0  0  0  0
  1 21  1  0  0  0  0
  1 22  1  0  0  0  0
  1 23  1  0  0  0  0
  2  7  1  0  0  0  0
  2  3  2  0  0  0  0
  3  4  1  0  0  0  0
  4  5  1  0  0  0  0
  5  6  1  0  0  0  0
  5  7  2  0  0  0  0
  7  8  1  0  0  0  0
  8  9  1  0  0  0  0
  8 24  1  0  0  0  0
  8 25  1  0  0  0  0
  9 10  2  0  0  0  0
  9 11  1  0  0  0  0
 11 12  1  0  0  0  0
 11 26  1  0  0  0  0
 12 13  1  0  0  0  0
 12 14  1  0  0  0  0
 12 27  1  0  0  0  0
 13 28  1  0  0  0  0
 13 29  1  0  0  0  0
 13 30  1  0  0  0  0
 14 19  1  0  0  0  0
 14 15  1  0  0  0  0
 14 31  1  0  0  0  0
 15 16  1  0  0  0  0
 15 32  1  0  0  0  0
 15 33  1  0  0  0  0
 16 20  1  0  0  0  0
 16 17  1  0  0  0  0
 16 34  1  0  0  0  0
 17 18  1  0  0  0  0
 17 35  1  0  0  0  0
 17 36  1  0  0  0  0
 18 19  1  0  0  0  0
 18 37  1  0  0  0  0
 18 38  1  0  0  0  0
 19 20  1  0  0  0  0
 19 39  1  0  0  0  0
 20 40  1  0  0  0  0
 20 41  1  0  0  0  0
M  END
> <s_m_source_file>
AV-unprocessed.smi

> <i_m_source_file_index>
1686

> <i_lp_mmshare_version>
43012

> <i_f3d_flags>
0

> <s_epik_input>
W0NIM11jMW5vYyhDbCljMVtDSDJdQyg9TylbTkhdW0NASF0oW0NIM10pW0NASF0oW0NIMl1bQ0BIXTIzKVtDQEhdKFtDSDJdMylbQ0gyXVtDSDJdMg==

> <s_epik_cmdline>
J2VwaWtfcHl0aG9uJywgJy1waCcsICc3LjAnLCAnLXRuJywgJzgnLCAnLW1hJywgJzIwMCcsICctbWV0YWxfYmluZGluZycsICctaW1hZScsICc8aW5maWxlLm1hZT4nLCAnLW9tYWUnLCAnPG91dGZpbGUubWFlPic=

> <r_lp_tautomer_probability>
1

> <r_epik_Ionization_Penalty>
2.01576e-08

> <r_epik_Ionization_Penalty_Charging>
0

> <r_epik_Ionization_Penalty_Neutral>
2.01576e-08

> <r_epik_State_Penalty>
-0

> <r_epik_Charging_Adjusted_Penalty>
0

> <i_epik_Tot_Q>
0

> <i_epik_Tot_abs_Q>
0

> <r_epik_Metal_State_Penalty>
-0

> <b_epik_Metal_Only>
0

> <s_lp_Force_Field>
OPLS_2005

> <r_lp_Energy>
45.5395

> <b_lp_Chiralities_Consistent>
1

> <s_lp_Variant>
AV-unprocessed.smi:1686-2

> <Gold.Version>
5.8.1

> <Gold.Id.Protein>
6NUR|6NUR_protein|mol2

> <Gold.PLP.Fitness>
40.1624

> <Gold.PLP.PLP>
-35.1376

> <Gold.PLP.part.hbond>
-2.0000

> <Gold.PLP.part.metal>
0.0000

> <Gold.PLP.part.buried>
-2.9446

> <Gold.PLP.part.nonpolar>
-29.9508

> <Gold.PLP.part.repulsive>
0.0748

> <Gold.PLP.ligand.clash>
0.0000

> <Gold.PLP.ligand.torsion>
0.4946

> <Gold.PLP.Chemscore.Hbond>
2.0000

> <Gold.PLP.Chemscore.CHOScore>
0.0000

> <Gold.PLP.Chemscore.Metal>
0.0000

> <Gold.Chemscore.Hbonds>
donor molecule, donor type, donor heavy atom, donor atom, acceptor molecule, acceptor atom, score
      L1  H    11    26       P1  7948  1.00
      P1  H  6896  6909       L1     4  1.00

> <Gold.PLP.Chemscore.Internal.Correction>
0.0140

> <Gold.Rescore>
     Score         DG    S(hbond)    S(metal)    S(lipo)     H(rot)  DE(clash)    DE(int)     intcor
     17.26     -19.06       1.82        0.00      96.14       1.46       0.00       1.79       ----

> <Gold.Chemscore.Fitness>
17.2635

> <Gold.Chemscore.DG>
-19.0595

> <Gold.Chemscore.ZeroCoef>
-5.4800

> <Gold.Chemscore.Hbond>
1.8206

> <Gold.Chemscore.Metal>
0.0000

> <Gold.Chemscore.Lipo>
96.1423

> <Gold.Chemscore.Internal_Hbond>
0.0000

> <Gold.Chemscore.DEClash>
0.0015

> <Gold.Chemscore.DEInternal>
1.7946

> <Gold.Chemscore.Rot>
1.4648

> <Gold.Chemscore.Internal.Correction>
   9.000000E+99

> <Gold.Chemscore.Hbonds>
donor molecule, donor type, donor heavy atom, donor atom, acceptor molecule, acceptor atom, score
      L1  H    11    26       P1  7948  0.65
      P1  H  6896  6909       L1     4  0.28

> <Gold.Chemscore.Hbond.Weighted>
-6.0808

> <Gold.Chemscore.Metal.Weighted>
-0.0000

> <Gold.Chemscore.Lipo.Weighted>
-11.2487

> <Gold.Chemscore.Internal_Hbond.Weighted>
0.0000

> <Gold.Chemscore.DEClash.Weighted>
0.0015

> <Gold.Chemscore.DEInternal.Weighted>
1.7946

> <Gold.Chemscore.Rot.Weighted>
3.7500

> <Gold.Chemscore.Internal.Correction.Weighted>
   9.000000E+99

> <Gold.Protein.RotatedTorsions>
[ 6907 6896 6895 6894 ] final  -12.83 input  -60.11 | X-H torsion
[ 7974 7965 7964 7962 ] final  150.78 input  175.53 | X-H torsion
[ 8008 7997 7996 7995 ] final  -73.20 input   59.86 | X-H torsion
[ 10167 10162 10161 10158 ] final -128.31 input  -65.29 | X-H torsion
[ 10718 10713 10712 10709 ] final -162.90 input   66.30 | X-H torsion
[ 10763 10752 10751 10750 ] final   89.68 input  -60.55 | X-H torsion
[ 11005 11000 10999 10996 ] final   79.00 input  -57.11 | X-H torsion

> <Gold.Protein.ActiveResidues>
 VAL166  LYS551  ARG553  GLY616  TRP617  ASP618  TYR619  PRO620  LYS621  CYS622 
 ASP623  PHE694  ASN695  SER759  ASP760  ASP761  ALA762  ILE779  LEU786  VAL792 
 PHE793  MET794  SER795  GLU796  ALA797  LYS798  CYS799  TRP800  GLU811  SER814 

> <Gold.Protein.RotatedAtoms>
  151.3644  135.0910  159.9444 H   0  0  0  0  0  0  0  0  0  0  0  0  # atno 6907 bound_to 6896
  152.5153  133.9226  159.7552 H   0  0  0  0  0  0  0  0  0  0  0  0  # atno 6908 bound_to 6896
  150.9627  133.6373  159.2781 H   0  0  0  0  0  0  0  0  0  0  0  0  # atno 6909 bound_to 6896
  144.8340  139.6452  143.6046 H   0  0  0  0  0  0  0  0  0  0  0  0  # atno 7974 bound_to 7965
  154.5228  140.0783  156.8203 H   0  0  0  0  0  0  0  0  0  0  0  0  # atno 8008 bound_to 7997
  155.3540  140.3414  155.4221 H   0  0  0  0  0  0  0  0  0  0  0  0  # atno 8009 bound_to 7997
  156.1699  140.1616  156.8452 H   0  0  0  0  0  0  0  0  0  0  0  0  # atno 8010 bound_to 7997
  139.9517  143.6049  152.2473 H   0  0  0  0  0  0  0  0  0  0  0  0  # atno 10167 bound_to 10162
  156.6170  130.8874  151.2949 H   0  0  0  0  0  0  0  0  0  0  0  0  # atno 10718 bound_to 10713
  153.1896  135.4461  155.0132 H   0  0  0  0  0  0  0  0  0  0  0  0  # atno 10763 bound_to 10752
  154.8082  135.3283  154.7378 H   0  0  0  0  0  0  0  0  0  0  0  0  # atno 10764 bound_to 10752
  153.7833  135.6976  153.4939 H   0  0  0  0  0  0  0  0  0  0  0  0  # atno 10765 bound_to 10752
  139.9190  134.7808  156.1722 H   0  0  0  0  0  0  0  0  0  0  0  0  # atno 11005 bound_to 11000
  146.2640  139.6476  142.9342 LP  0  0  0  0  0  0  0  0  0  0  0  0  # atno 17320 bound_to 7965
  145.4835  141.0438  143.2632 LP  0  0  0  0  0  0  0  0  0  0  0  0  # atno 17321 bound_to 7965
  139.6623  144.7662  151.1938 LP  0  0  0  0  0  0  0  0  0  0  0  0  # atno 17342 bound_to 10162
  140.7581  143.5991  150.8718 LP  0  0  0  0  0  0  0  0  0  0  0  0  # atno 17343 bound_to 10162
  157.7238  130.9595  150.1549 LP  0  0  0  0  0  0  0  0  0  0  0  0  # atno 17370 bound_to 10713
  156.2343  130.3685  149.8409 LP  0  0  0  0  0  0  0  0  0  0  0  0  # atno 17371 bound_to 10713
  141.0694  133.6804  156.2109 LP  0  0  0  0  0  0  0  0  0  0  0  0  # atno 17394 bound_to 11000
  140.6532  134.5045  157.5579 LP  0  0  0  0  0  0  0  0  0  0  0  0  # atno 17395 bound_to 11000

$$$$
