#       Name:                AV-unprocessed.smi:1240
#       Creating user name   scv26
#       Creation time:       Fri Mar 27 04:28:37 2020


#       File generated by GOLD software.
#

@<TRIPOS>MOLECULE
AV-unprocessed.smi:1240
    55    57     1
SMALL
NO_CHARGES


@<TRIPOS>ATOM
      1 ****        -3.0072   0.2531  -0.6055 O.2            1 S1                 0.0000
      2 ****        -2.2473   1.0006   0.0096 C.2            1 S1                 0.0000
      3 ****        -1.0867   0.5948   0.5422 N.am           1 S1                 0.0000
      4 ****        -0.5426  -0.7539   0.4358 C.3            1 S1                 0.0000
      5 ****         1.0072  -0.7775   0.5223 C.3            1 S1                 0.0000
      6 ****         1.7107  -0.0582  -0.6645 C.3            1 S1                 0.0000
      7 ****         3.2286  -0.1450  -0.6327 C.3            1 S1                 0.0000
      8 ****         3.6326   0.9668  -1.5907 C.3            1 S1                 0.0000
      9 ****         2.6809   1.9985  -1.3719 O.3            1 S1                 0.0000
     10 ****         1.5234   1.4648  -0.7356 C.3            1 S1                 0.0000
     11 ****         1.5353  -2.1691   0.6558 N.4            1 S1                 1.0000
     12 ****         1.4100  -2.7388   2.0197 C.3            1 S1                 0.0000
     13 ****         2.1551  -4.0823   2.1014 C.3            1 S1                 0.0000
     14 ****         1.6542  -4.9715   1.1099 O.3            1 S1                 0.0000
     15 ****         1.8427  -4.4674  -0.2072 C.3            1 S1                 0.0000
     16 ****         1.0748  -3.1451  -0.3650 C.3            1 S1                 0.0000
     17 ****        -2.4582   2.3061   0.2512 N.am           1 S1                 0.0000
     18 ****        -3.5267   3.1365  -0.1849 C.ar           1 S1                 0.0000
     19 ****        -3.6996   4.3739   0.4690 C.ar           1 S1                 0.0000
     20 ****        -4.7387   5.2270   0.0469 C.ar           1 S1                 0.0000
     21 ****        -5.5804   4.9264  -0.9641 N.ar           1 S1                 0.0000
     22 ****        -5.4057   3.7475  -1.5980 C.ar           1 S1                 0.0000
     23 ****        -4.3992   2.8222  -1.2550 C.ar           1 S1                 0.0000
     24 ****        -0.5315   1.2735   1.0427 H              1 S1                 0.0000
     25 ****        -0.9858  -1.3451   1.2368 H              1 S1                 0.0000
     26 ****        -0.8658  -1.2041  -0.5040 H              1 S1                 0.0000
     27 ****         1.2993  -0.2458   1.4296 H              1 S1                 0.0000
     28 ****         1.3655  -0.4818  -1.6087 H              1 S1                 0.0000
     29 ****         3.6044   0.0702   0.3687 H              1 S1                 0.0000
     30 ****         3.6127  -1.1178  -0.9414 H              1 S1                 0.0000
     31 ****         4.6512   1.3175  -1.4241 H              1 S1                 0.0000
     32 ****         3.5525   0.6272  -2.6241 H              1 S1                 0.0000
     33 ****         0.6245   1.7452  -1.2852 H              1 S1                 0.0000
     34 ****         1.4588   1.8997   0.2626 H              1 S1                 0.0000
     35 ****         1.8251  -2.0481   2.7544 H              1 S1                 0.0000
     36 ****         0.3594  -2.8846   2.2721 H              1 S1                 0.0000
     37 ****         3.2291  -3.9410   1.9695 H              1 S1                 0.0000
     38 ****         2.0121  -4.5323   3.0840 H              1 S1                 0.0000
     39 ****         2.9060  -4.3274  -0.4089 H              1 S1                 0.0000
     40 ****         1.4760  -5.2029  -0.9234 H              1 S1                 0.0000
     41 ****         0.0070  -3.3360  -0.2536 H              1 S1                 0.0000
     42 ****         1.2312  -2.7525  -1.3693 H              1 S1                 0.0000
     43 ****        -1.7783   2.7610   0.8425 H              1 S1                 0.0000
     44 ****        -3.0527   4.6678   1.2827 H              1 S1                 0.0000
     45 ****        -4.8956   6.1781   0.5338 H              1 S1                 0.0000
     46 ****        -6.0858   3.5368  -2.4100 H              1 S1                 0.0000
     47 ****        -4.3139   1.9094  -1.8231 H              1 S1                 0.0000
     48 ****         2.5303  -2.0766   0.5086 H              1 S1                 0.0000
     49 ****        -2.7698  -0.7105  -0.7281 LP             1 S1                 0.0000
     50 ****        -3.8620   0.6094  -0.9827 LP             1 S1                 0.0000
     51 ****         2.4208   2.4010  -2.2496 LP             1 S1                 0.0000
     52 ****         3.0845   2.7034  -0.7886 LP             1 S1                 0.0000
     53 ****         0.6760  -5.1093   1.2652 LP             1 S1                 0.0000
     54 ****         2.1312  -5.8466   1.1913 LP             1 S1                 0.0000
     55 ****        -6.3089   5.5557  -1.2346 LP             1 S1                 0.0000
@<TRIPOS>BOND
    1    1    2 2     
    2    2    3 am    
    3    2   17 am    
    4    3    4 1     
    5    3   24 1     
    6    4    5 1     
    7    4   25 1     
    8    4   26 1     
    9    5    6 1     
   10    5   11 1     
   11    5   27 1     
   12    6   10 1     
   13    6    7 1     
   14    6   28 1     
   15    7    8 1     
   16    7   29 1     
   17    7   30 1     
   18    8    9 1     
   19    8   31 1     
   20    8   32 1     
   21    9   10 1     
   22   10   33 1     
   23   10   34 1     
   24   11   16 1     
   25   11   12 1     
   26   11   48 1     
   27   12   13 1     
   28   12   35 1     
   29   12   36 1     
   30   13   14 1     
   31   13   37 1     
   32   13   38 1     
   33   14   15 1     
   34   15   16 1     
   35   15   39 1     
   36   15   40 1     
   37   16   41 1     
   38   16   42 1     
   39   17   18 1     
   40   17   43 1     
   41   18   23 ar    
   42   18   19 ar    
   43   19   20 ar    
   44   19   44 1     
   45   20   21 ar    
   46   20   45 1     
   47   21   22 ar    
   48   22   23 ar    
   49   22   46 1     
   50   23   47 1     
   51    1   49 1     
   52    1   50 1     
   53    9   51 1     
   54    9   52 1     
   55   14   53 1     
   56   14   54 1     
   57   21   55 1     
@<TRIPOS>SUBSTRUCTURE
      1 S1             1
@<TRIPOS>SET
LONE_PAIRS      STATIC     ATOMS    <user>   **** ""
7 49 50 51 52 53 54 55
DONOR_HYDROGENS      STATIC     ATOMS    <user>   **** ""
3 24 48 43
ATOM$BLUE        STATIC     ATOMS    COLORGROUP SYSTEM
7 49 50 51 52 53 54 55
ATOM$RED        STATIC     ATOMS    COLORGROUP SYSTEM
3 24 48 43
