AV-unprocessed.smi:157|AV-procd|sdf|1299|dock5
  -GOLD-   2262018583D 1   1.00000     0.00000
 Structure written by MMmdl.
 35 37  0  0  0  0  0  0  0  0  1 V2000
  150.2708  136.3509  158.0067 O   0  0  0  0  0  0  0  0  0  0  0  0
  151.0161  136.5351  156.8218 C   0  0  0  0  0  0  0  0  0  0  0  0
  150.3537  137.6230  155.9484 C   0  0  1  0  0  0  0  0  0  0  0  0
  150.2190  138.8000  156.7515 O   0  0  0  0  0  0  0  0  0  0  0  0
  151.1258  139.7875  156.3528 C   0  0  1  0  0  0  0  0  0  0  0  0
  151.8526  140.3031  157.5560 N   0  0  0  0  0  0  0  0  0  0  0  0
  152.6160  139.5930  158.3979 C   0  0  0  0  0  0  0  0  0  0  0  0
  153.1573  140.2986  159.3763 N   0  0  0  0  0  0  0  0  0  0  0  0
  152.6957  141.5943  159.1519 C   0  0  0  0  0  0  0  0  0  0  0  0
  151.8812  141.6181  158.0290 C   0  0  0  0  0  0  0  0  0  0  0  0
  151.1713  142.5788  157.3341 N   0  0  0  0  0  0  0  0  0  0  0  0
  150.9029  143.6927  157.9396 C   0  0  0  0  0  0  0  0  0  0  0  0
  151.2980  144.1512  159.1883 N   0  0  0  0  0  0  0  0  0  0  0  0
  152.6736  144.1076  159.6541 C   0  0  0  0  0  0  0  0  0  0  0  0
  153.1377  142.7040  160.0616 C   0  0  1  0  0  0  0  0  0  0  0  0
  152.6389  142.4051  161.3492 O   0  0  0  0  0  0  0  0  0  0  0  0
  152.1013  139.1303  155.3826 C   0  0  0  0  0  0  0  0  0  0  0  0
  151.1948  138.0994  154.7505 C   0  0  1  0  0  0  0  0  0  0  0  0
  151.9255  137.0826  154.0949 O   0  0  0  0  0  0  0  0  0  0  0  0
  149.3772  137.2801  155.6028 H   0  0  0  0  0  0  0  0  0  0  0  0
  150.5910  140.6409  155.9341 H   0  0  0  0  0  0  0  0  0  0  0  0
  154.2255  142.7088  160.1378 H   0  0  0  0  0  0  0  0  0  0  0  0
  150.5459  138.5893  154.0230 H   0  0  0  0  0  0  0  0  0  0  0  0
  150.0610  137.1997  158.3648 H   0  0  0  0  0  0  0  0  0  0  0  0
  152.0509  136.7803  157.0605 H   0  0  0  0  0  0  0  0  0  0  0  0
  151.0246  135.5737  156.3088 H   0  0  0  0  0  0  0  0  0  0  0  0
  152.7849  138.5317  158.2926 H   0  0  0  0  0  0  0  0  0  0  0  0
  150.2763  144.4233  157.4261 H   0  0  0  0  0  0  0  0  0  0  0  0
  150.7987  144.9285  159.5960 H   0  0  0  0  0  0  0  0  0  0  0  0
  153.3028  144.4624  158.8365 H   0  0  0  0  0  0  0  0  0  0  0  0
  152.8112  144.8146  160.4726 H   0  0  0  0  0  0  0  0  0  0  0  0
  153.1616  142.8723  161.9832 H   0  0  0  0  0  0  0  0  0  0  0  0
  152.5138  139.8551  154.6801 H   0  0  0  0  0  0  0  0  0  0  0  0
  152.9154  138.6570  155.9349 H   0  0  0  0  0  0  0  0  0  0  0  0
  151.4880  136.8744  153.2834 H   0  0  0  0  0  0  0  0  0  0  0  0
  1  2  1  0  0  0  0
  1 24  1  0  0  0  0
  2  3  1  0  0  0  0
  2 25  1  0  0  0  0
  2 26  1  0  0  0  0
  3 20  1  0  0  0  0
  3 18  1  0  0  0  0
  3  4  1  0  0  0  0
  4  5  1  0  0  0  0
  5 21  1  0  0  0  0
  5  6  1  0  0  0  0
  5 17  1  0  0  0  0
  6 10  1  0  0  0  0
  6  7  1  0  0  0  0
  7  8  2  0  0  0  0
  7 27  1  0  0  0  0
  8  9  1  0  0  0  0
  9 15  1  0  0  0  0
  9 10  2  0  0  0  0
 10 11  1  0  0  0  0
 11 12  2  0  0  0  0
 12 13  1  0  0  0  0
 12 28  1  0  0  0  0
 13 14  1  0  0  0  0
 13 29  1  0  0  0  0
 14 15  1  0  0  0  0
 14 30  1  0  0  0  0
 14 31  1  0  0  0  0
 15 22  1  0  0  0  0
 15 16  1  0  0  0  0
 16 32  1  0  0  0  0
 17 18  1  0  0  0  0
 17 33  1  0  0  0  0
 17 34  1  0  0  0  0
 18 23  1  0  0  0  0
 18 19  1  0  0  0  0
 19 35  1  0  0  0  0
M  END
> <s_m_source_file>
AV-unprocessed.smi

> <i_m_source_file_index>
157

> <i_lp_mmshare_version>
43012

> <i_f3d_flags>
0

> <s_epik_input>
W09IXVtDSDJdW0NASF0xT1tDQEhdKFtDSDJdW0NAQEhdMVtPSF0pbihbY0hdbjIpYyhjMjMpTj1bQ0hdW05IXVtDSDJdW0NASF0zW09IXQ==

> <s_epik_cmdline>
J2VwaWtfcHl0aG9uJywgJy1waCcsICc3LjAnLCAnLXRuJywgJzgnLCAnLW1hJywgJzIwMCcsICctbWV0YWxfYmluZGluZycsICctaW1hZScsICc8aW5maWxlLm1hZT4nLCAnLW9tYWUnLCAnPG91dGZpbGUubWFlPic=

> <r_lp_tautomer_probability>
1

> <r_epik_Ionization_Penalty>
0.0357149

> <r_epik_Ionization_Penalty_Charging>
0.0355056

> <r_epik_Ionization_Penalty_Neutral>
0.000209255

> <r_epik_State_Penalty>
0.0296046

> <r_epik_Charging_Adjusted_Penalty>
0.0651102

> <i_epik_Tot_Q>
0

> <i_epik_Tot_abs_Q>
0

> <r_epik_Metal_State_Penalty>
3.03559e-05

> <b_epik_Metal_Only>
0

> <s_epik_Chemistry_Notes>
This compound has an imine and may undergo hydrolysis. This compound contains an acetal/aminal-like group ( X-CH(R)-Y where X, Y are N, S, or O) that may be acid/base labile, releasing an aldehyde.

> <s_lp_Force_Field>
OPLS_2005

> <r_lp_Energy>
47.2619

> <b_lp_Chiralities_Consistent>
1

> <s_lp_Variant>
AV-unprocessed.smi:157-9

> <Gold.Version>
5.8.1

> <Gold.Id.Protein>
6NUR|6NUR_protein|mol2

> <Gold.PLP.Fitness>
42.4298

> <Gold.PLP.PLP>
-31.6748

> <Gold.PLP.part.hbond>
-3.0000

> <Gold.PLP.part.metal>
0.0000

> <Gold.PLP.part.buried>
-6.3386

> <Gold.PLP.part.nonpolar>
-23.6350

> <Gold.PLP.part.repulsive>
0.1899

> <Gold.PLP.ligand.clash>
0.0000

> <Gold.PLP.ligand.torsion>
0.0386

> <Gold.PLP.Chemscore.Hbond>
2.4867

> <Gold.PLP.Chemscore.CHOScore>
1.1192

> <Gold.PLP.Chemscore.Metal>
0.0000

> <Gold.Chemscore.Hbonds>
donor molecule, donor type, donor heavy atom, donor atom, acceptor molecule, acceptor atom, score
      L1  H    19    35       P1  7949  1.00
      P1  H  6896  6907       L1     1  0.27
      P1  H 10752 10764       L1    19  1.00
      L1  C    12    28       P1  8028  1.00

> <Gold.PLP.Chemscore.Internal.Correction>
0.0144

> <Gold.Rescore>
     Score         DG    S(hbond)    S(metal)    S(lipo)     H(rot)  DE(clash)    DE(int)     intcor
      9.95     -10.13       2.23        0.00      55.63       3.64       0.01       0.17       ----

> <Gold.Chemscore.Fitness>
9.9526

> <Gold.Chemscore.DG>
-10.1287

> <Gold.Chemscore.ZeroCoef>
-5.4800

> <Gold.Chemscore.Hbond>
2.2301

> <Gold.Chemscore.Metal>
0.0000

> <Gold.Chemscore.Lipo>
55.6321

> <Gold.Chemscore.Internal_Hbond>
0.0000

> <Gold.Chemscore.DEClash>
0.0089

> <Gold.Chemscore.DEInternal>
0.1673

> <Gold.Chemscore.Rot>
3.6362

> <Gold.Chemscore.Internal.Correction>
   9.000000E+99

> <Gold.Chemscore.Hbonds>
donor molecule, donor type, donor heavy atom, donor atom, acceptor molecule, acceptor atom, score
      L1  H    19    35       P1  7949  0.82
      P1  H  6896  6907       L1     1  0.21
      P1  H 10752 10764       L1    19  0.29

> <Gold.Chemscore.Hbond.Weighted>
-7.4485

> <Gold.Chemscore.Metal.Weighted>
-0.0000

> <Gold.Chemscore.Lipo.Weighted>
-6.5090

> <Gold.Chemscore.Internal_Hbond.Weighted>
0.0000

> <Gold.Chemscore.DEClash.Weighted>
0.0089

> <Gold.Chemscore.DEInternal.Weighted>
0.1673

> <Gold.Chemscore.Rot.Weighted>
9.3087

> <Gold.Chemscore.Internal.Correction.Weighted>
   9.000000E+99

> <Gold.Protein.RotatedTorsions>
[ 6907 6896 6895 6894 ] final  -49.19 input  -60.11 | X-H torsion
[ 7974 7965 7964 7962 ] final -103.88 input  175.53 | X-H torsion
[ 8008 7997 7996 7995 ] final   63.81 input   59.86 | X-H torsion
[ 10167 10162 10161 10158 ] final   73.38 input  -65.29 | X-H torsion
[ 10718 10713 10712 10709 ] final   29.75 input   66.30 | X-H torsion
[ 10763 10752 10751 10750 ] final  -76.62 input  -60.55 | X-H torsion
[ 11005 11000 10999 10996 ] final  -42.06 input  -57.11 | X-H torsion

> <Gold.Protein.ActiveResidues>
 VAL166  LYS551  ARG553  GLY616  TRP617  ASP618  TYR619  PRO620  LYS621  CYS622 
 ASP623  PHE694  ASN695  SER759  ASP760  ASP761  ALA762  ILE779  LEU786  VAL792 
 PHE793  MET794  SER795  GLU796  ALA797  LYS798  CYS799  TRP800  GLU811  SER814 

> <Gold.Protein.RotatedAtoms>
  150.8830  134.8224  159.7238 H   0  0  0  0  0  0  0  0  0  0  0  0  # atno 6907 bound_to 6896
  152.4790  134.4766  159.9662 H   0  0  0  0  0  0  0  0  0  0  0  0  # atno 6908 bound_to 6896
  151.4839  133.3501  159.2878 H   0  0  0  0  0  0  0  0  0  0  0  0  # atno 6909 bound_to 6896
  145.2503  140.9235  143.3099 H   0  0  0  0  0  0  0  0  0  0  0  0  # atno 7974 bound_to 7965
  155.6361  140.3496  155.4699 H   0  0  0  0  0  0  0  0  0  0  0  0  # atno 8008 bound_to 7997
  155.9964  140.1204  157.0613 H   0  0  0  0  0  0  0  0  0  0  0  0  # atno 8009 bound_to 7997
  154.4235  140.1109  156.5622 H   0  0  0  0  0  0  0  0  0  0  0  0  # atno 8010 bound_to 7997
  140.0251  144.5510  150.7551 H   0  0  0  0  0  0  0  0  0  0  0  0  # atno 10167 bound_to 10162
  157.2506  130.7113  149.6403 H   0  0  0  0  0  0  0  0  0  0  0  0  # atno 10718 bound_to 10713
  154.5023  135.5791  153.6540 H   0  0  0  0  0  0  0  0  0  0  0  0  # atno 10763 bound_to 10752
  152.9881  135.6138  154.2987 H   0  0  0  0  0  0  0  0  0  0  0  0  # atno 10764 bound_to 10752
  154.2895  135.2849  155.2640 H   0  0  0  0  0  0  0  0  0  0  0  0  # atno 10765 bound_to 10752
  141.0289  133.6829  156.2543 H   0  0  0  0  0  0  0  0  0  0  0  0  # atno 11005 bound_to 11000
  144.9509  139.4084  143.6403 LP  0  0  0  0  0  0  0  0  0  0  0  0  # atno 17320 bound_to 7965
  146.3304  139.8516  142.8872 LP  0  0  0  0  0  0  0  0  0  0  0  0  # atno 17321 bound_to 7965
  140.7326  143.2707  151.3897 LP  0  0  0  0  0  0  0  0  0  0  0  0  # atno 17342 bound_to 10162
  139.6113  144.1092  152.2302 LP  0  0  0  0  0  0  0  0  0  0  0  0  # atno 17343 bound_to 10162
  155.9666  130.4429  150.5398 LP  0  0  0  0  0  0  0  0  0  0  0  0  # atno 17370 bound_to 10713
  157.3281  131.0694  151.1881 LP  0  0  0  0  0  0  0  0  0  0  0  0  # atno 17371 bound_to 10713
  140.6441  134.5135  157.5572 LP  0  0  0  0  0  0  0  0  0  0  0  0  # atno 17394 bound_to 11000
  139.9194  134.8178  156.1258 LP  0  0  0  0  0  0  0  0  0  0  0  0  # atno 17395 bound_to 11000

$$$$
