AV-unprocessed.smi:219|AV-procd|sdf|1681|dock7
  -GOLD-   2262020113D 1   1.00000     0.00000
 Structure written by MMmdl.
 50 53  0  0  0  0  0  0  0  0  1 V2000
  153.9986  138.3889  160.8924 N   0  0  0  0  0  0  0  0  0  0  0  0
  153.7770  138.9699  159.7109 C   0  0  0  0  0  0  0  0  0  0  0  0
  154.6943  139.3362  158.9790 O   0  0  0  0  0  0  0  0  0  0  0  0
  152.3147  139.2032  159.3105 C   0  0  0  0  0  0  0  0  0  0  0  0
  151.8769  140.6966  159.2398 C   0  0  1  0  0  0  0  0  0  0  0  0
  152.5775  141.4755  160.3778 C   0  0  0  0  0  0  0  0  0  0  0  0
  152.2206  142.9676  160.3661 C   0  0  0  0  0  0  0  0  0  0  0  0
  152.5407  143.5666  158.9935 C   0  0  0  0  0  0  0  0  0  0  0  0
  151.8115  142.7842  157.8948 C   0  0  0  0  0  0  0  0  0  0  0  0
  152.1414  141.3583  157.9466 N   0  0  0  0  0  0  0  0  0  0  0  0
  151.6929  140.7169  156.8445 C   0  0  0  0  0  0  0  0  0  0  0  0
  152.5025  139.8435  156.1885 N   0  0  0  0  0  0  0  0  0  0  0  0
  152.0656  139.2358  155.0814 C   0  0  0  0  0  0  0  0  0  0  0  0
  150.8862  139.3628  154.4689 N   0  0  0  0  0  0  0  0  0  0  0  0
  150.0758  140.2409  155.1279 C   0  0  0  0  0  0  0  0  0  0  0  0
  150.3941  140.9450  156.3217 C   0  0  0  0  0  0  0  0  0  0  0  0
  149.3261  141.7429  156.7087 N   0  0  0  0  0  0  0  0  0  0  0  0
  148.4287  141.5339  155.7843 C   0  0  0  0  0  0  0  0  0  0  0  0
  148.8017  140.6596  154.7872 N   0  0  0  0  0  0  0  0  0  0  0  0
  148.0114  140.2683  153.6305 C   0  0  0  0  0  0  0  0  0  0  0  0
  147.3549  138.8751  153.7797 C   0  0  2  0  0  0  0  0  0  0  0  0
  148.3723  137.9061  153.9681 O   0  0  0  0  0  0  0  0  0  0  0  0
  146.5321  138.4721  152.5632 C   0  0  0  0  0  0  0  0  0  0  0  0
  145.4855  137.5415  153.1609 C   0  0  0  0  0  0  0  0  0  0  0  0
  145.1630  138.1710  154.3894 O   0  0  0  0  0  0  0  0  0  0  0  0
  146.3426  138.7519  154.9384 C   0  0  0  0  0  0  0  0  0  0  0  0
  154.9465  138.2127  161.1926 H   0  0  0  0  0  0  0  0  0  0  0  0
  153.2208  138.1237  161.4789 H   0  0  0  0  0  0  0  0  0  0  0  0
  152.1940  138.7382  158.3311 H   0  0  0  0  0  0  0  0  0  0  0  0
  151.6545  138.6465  159.9772 H   0  0  0  0  0  0  0  0  0  0  0  0
  150.8019  140.7551  159.4179 H   0  0  0  0  0  0  0  0  0  0  0  0
  152.3084  141.0508  161.3456 H   0  0  0  0  0  0  0  0  0  0  0  0
  153.6589  141.3655  160.2832 H   0  0  0  0  0  0  0  0  0  0  0  0
  151.1606  143.0964  160.5891 H   0  0  0  0  0  0  0  0  0  0  0  0
  152.7722  143.4942  161.1451 H   0  0  0  0  0  0  0  0  0  0  0  0
  152.2493  144.6164  158.9624 H   0  0  0  0  0  0  0  0  0  0  0  0
  153.6166  143.5341  158.8166 H   0  0  0  0  0  0  0  0  0  0  0  0
  150.7345  142.9150  158.0108 H   0  0  0  0  0  0  0  0  0  0  0  0
  152.0796  143.1921  156.9188 H   0  0  0  0  0  0  0  0  0  0  0  0
  152.7641  138.5568  154.6150 H   0  0  0  0  0  0  0  0  0  0  0  0
  147.4672  142.0261  155.7971 H   0  0  0  0  0  0  0  0  0  0  0  0
  147.2458  141.0280  153.4681 H   0  0  0  0  0  0  0  0  0  0  0  0
  148.6559  140.2913  152.7510 H   0  0  0  0  0  0  0  0  0  0  0  0
  148.6270  137.5722  153.1216 H   0  0  0  0  0  0  0  0  0  0  0  0
  146.0311  139.3433  152.1390 H   0  0  0  0  0  0  0  0  0  0  0  0
  147.1185  138.0073  151.7693 H   0  0  0  0  0  0  0  0  0  0  0  0
  144.6080  137.4269  152.5244 H   0  0  0  0  0  0  0  0  0  0  0  0
  145.9041  136.5528  153.3551 H   0  0  0  0  0  0  0  0  0  0  0  0
  146.7216  138.1392  155.7578 H   0  0  0  0  0  0  0  0  0  0  0  0
  146.0713  139.7203  155.3563 H   0  0  0  0  0  0  0  0  0  0  0  0
  1  2  1  0  0  0  0
  1 27  1  0  0  0  0
  1 28  1  0  0  0  0
  2  3  2  0  0  0  0
  2  4  1  0  0  0  0
  4  5  1  0  0  0  0
  4 29  1  0  0  0  0
  4 30  1  0  0  0  0
  5 10  1  0  0  0  0
  5  6  1  0  0  0  0
  5 31  1  0  0  0  0
  6  7  1  0  0  0  0
  6 32  1  0  0  0  0
  6 33  1  0  0  0  0
  7  8  1  0  0  0  0
  7 34  1  0  0  0  0
  7 35  1  0  0  0  0
  8  9  1  0  0  0  0
  8 36  1  0  0  0  0
  8 37  1  0  0  0  0
  9 10  1  0  0  0  0
  9 38  1  0  0  0  0
  9 39  1  0  0  0  0
 10 11  1  0  0  0  0
 11 16  1  0  0  0  0
 11 12  2  0  0  0  0
 12 13  1  0  0  0  0
 13 14  2  0  0  0  0
 13 40  1  0  0  0  0
 14 15  1  0  0  0  0
 15 19  1  0  0  0  0
 15 16  2  0  0  0  0
 16 17  1  0  0  0  0
 17 18  2  0  0  0  0
 18 19  1  0  0  0  0
 18 41  1  0  0  0  0
 19 20  1  0  0  0  0
 20 21  1  0  0  0  0
 20 42  1  0  0  0  0
 20 43  1  0  0  0  0
 21 26  1  0  0  0  0
 21 22  1  0  0  0  0
 21 23  1  0  0  0  0
 22 44  1  0  0  0  0
 23 24  1  0  0  0  0
 23 45  1  0  0  0  0
 23 46  1  0  0  0  0
 24 25  1  0  0  0  0
 24 47  1  0  0  0  0
 24 48  1  0  0  0  0
 25 26  1  0  0  0  0
 26 49  1  0  0  0  0
 26 50  1  0  0  0  0
M  END
> <s_m_source_file>
AV-unprocessed.smi

> <i_m_source_file_index>
219

> <i_lp_mmshare_version>
43012

> <i_f3d_flags>
0

> <s_epik_input>
W05IMl1DKD1PKVtDSDJdW0NAQEhdMVtDSDJdW0NIMl1bQ0gyXVtDSDJdTjFjKG5bY0hdbjIpYyhjMjMpbltjSF1uM1tDSDJdW0NAQF00KFtPSF0pW0NIMl1bQ0gyXU9bQ0gyXTQ=

> <s_epik_cmdline>
J2VwaWtfcHl0aG9uJywgJy1waCcsICc3LjAnLCAnLXRuJywgJzgnLCAnLW1hJywgJzIwMCcsICctbWV0YWxfYmluZGluZycsICctaW1hZScsICc8aW5maWxlLm1hZT4nLCAnLW9tYWUnLCAnPG91dGZpbGUubWFlPic=

> <r_lp_tautomer_probability>
1

> <r_epik_Ionization_Penalty>
0.00228532

> <r_epik_Ionization_Penalty_Charging>
0

> <r_epik_Ionization_Penalty_Neutral>
0.00228532

> <r_epik_State_Penalty>
0.00140978

> <r_epik_Charging_Adjusted_Penalty>
0.00140978

> <i_epik_Tot_Q>
0

> <i_epik_Tot_abs_Q>
0

> <r_epik_Metal_State_Penalty>
-0

> <b_epik_Metal_Only>
0

> <s_lp_Force_Field>
OPLS_2005

> <r_lp_Energy>
35.4504

> <b_lp_Chiralities_Consistent>
1

> <s_lp_Variant>
AV-unprocessed.smi:219-4

> <Gold.Version>
5.8.1

> <Gold.Id.Protein>
6NUR|6NUR_protein|mol2

> <Gold.PLP.Fitness>
48.3407

> <Gold.PLP.PLP>
-40.7549

> <Gold.PLP.part.hbond>
-4.0000

> <Gold.PLP.part.metal>
0.0000

> <Gold.PLP.part.buried>
-1.2831

> <Gold.PLP.part.nonpolar>
-35.0753

> <Gold.PLP.part.repulsive>
0.3642

> <Gold.PLP.ligand.clash>
0.0000

> <Gold.PLP.ligand.torsion>
1.1222

> <Gold.PLP.Chemscore.Hbond>
3.1765

> <Gold.PLP.Chemscore.CHOScore>
0.0000

> <Gold.PLP.Chemscore.Metal>
0.0000

> <Gold.Chemscore.Hbonds>
donor molecule, donor type, donor heavy atom, donor atom, acceptor molecule, acceptor atom, score
      L1  H    22    44       P1  7948  1.00
      P1  H  7989  7998       L1    14  0.18
      P1  H  7997  8009       L1     3  0.98
      P1  H  7997  8010       L1    12  0.96

> <Gold.PLP.Chemscore.Internal.Correction>
0.3008

> <Gold.Rescore>
     Score         DG    S(hbond)    S(metal)    S(lipo)     H(rot)  DE(clash)    DE(int)     intcor
     12.52     -15.41       2.62        0.00      83.74       3.37       1.26       1.63       ----

> <Gold.Chemscore.Fitness>
12.5190

> <Gold.Chemscore.DG>
-15.4070

> <Gold.Chemscore.ZeroCoef>
-5.4800

> <Gold.Chemscore.Hbond>
2.6214

> <Gold.Chemscore.Metal>
0.0000

> <Gold.Chemscore.Lipo>
83.7412

> <Gold.Chemscore.Internal_Hbond>
0.0000

> <Gold.Chemscore.DEClash>
1.2566

> <Gold.Chemscore.DEInternal>
1.6313

> <Gold.Chemscore.Rot>
3.3697

> <Gold.Chemscore.Internal.Correction>
   9.000000E+99

> <Gold.Chemscore.Hbonds>
donor molecule, donor type, donor heavy atom, donor atom, acceptor molecule, acceptor atom, score
      L1  H    22    44       P1  7948  0.98
      P1  H  7997  8009       L1     3  0.93
      P1  H  7997  8010       L1    12  0.63

> <Gold.Chemscore.Hbond.Weighted>
-8.7556

> <Gold.Chemscore.Metal.Weighted>
-0.0000

> <Gold.Chemscore.Lipo.Weighted>
-9.7977

> <Gold.Chemscore.Internal_Hbond.Weighted>
0.0000

> <Gold.Chemscore.DEClash.Weighted>
1.2566

> <Gold.Chemscore.DEInternal.Weighted>
1.6313

> <Gold.Chemscore.Rot.Weighted>
8.6264

> <Gold.Chemscore.Internal.Correction.Weighted>
   9.000000E+99

> <Gold.Protein.RotatedTorsions>
[ 6907 6896 6895 6894 ] final  -35.61 input  -60.11 | X-H torsion
[ 7974 7965 7964 7962 ] final  -65.86 input  175.53 | X-H torsion
[ 8008 7997 7996 7995 ] final   99.23 input   59.86 | X-H torsion
[ 10167 10162 10161 10158 ] final   -9.17 input  -65.29 | X-H torsion
[ 10718 10713 10712 10709 ] final  102.41 input   66.30 | X-H torsion
[ 10763 10752 10751 10750 ] final  -38.09 input  -60.55 | X-H torsion
[ 11005 11000 10999 10996 ] final  105.41 input  -57.11 | X-H torsion

> <Gold.Protein.ActiveResidues>
 VAL166  LYS551  ARG553  GLY616  TRP617  ASP618  TYR619  PRO620  LYS621  CYS622 
 ASP623  PHE694  ASN695  SER759  ASP760  ASP761  ALA762  ILE779  LEU786  VAL792 
 PHE793  MET794  SER795  GLU796  ALA797  LYS798  CYS799  TRP800  GLU811  SER814 

> <Gold.Protein.RotatedAtoms>
  151.0376  134.9584  159.8144 H   0  0  0  0  0  0  0  0  0  0  0  0  # atno 6907 bound_to 6896
  152.5358  134.2699  159.8977 H   0  0  0  0  0  0  0  0  0  0  0  0  # atno 6908 bound_to 6896
  151.2710  133.4212  159.2655 H   0  0  0  0  0  0  0  0  0  0  0  0  # atno 6909 bound_to 6896
  145.7490  140.8917  143.0490 H   0  0  0  0  0  0  0  0  0  0  0  0  # atno 7974 bound_to 7965
  156.1084  140.3232  155.8039 H   0  0  0  0  0  0  0  0  0  0  0  0  # atno 8008 bound_to 7997
  155.4715  140.0547  157.2996 H   0  0  0  0  0  0  0  0  0  0  0  0  # atno 8009 bound_to 7997
  154.4743  140.2025  155.9930 H   0  0  0  0  0  0  0  0  0  0  0  0  # atno 8010 bound_to 7997
  140.7080  143.5888  150.8915 H   0  0  0  0  0  0  0  0  0  0  0  0  # atno 10167 bound_to 10162
  157.6803  131.0752  150.5399 H   0  0  0  0  0  0  0  0  0  0  0  0  # atno 10718 bound_to 10713
  153.9072  135.6796  153.4752 H   0  0  0  0  0  0  0  0  0  0  0  0  # atno 10763 bound_to 10752
  153.1098  135.4788  154.9012 H   0  0  0  0  0  0  0  0  0  0  0  0  # atno 10764 bound_to 10752
  154.7545  135.3194  154.8450 H   0  0  0  0  0  0  0  0  0  0  0  0  # atno 10765 bound_to 10752
  139.8802  134.9334  156.5509 H   0  0  0  0  0  0  0  0  0  0  0  0  # atno 11005 bound_to 11000
  144.6854  139.9565  143.7479 LP  0  0  0  0  0  0  0  0  0  0  0  0  # atno 17320 bound_to 7965
  146.0375  139.3391  143.0718 LP  0  0  0  0  0  0  0  0  0  0  0  0  # atno 17321 bound_to 7965
  139.9613  143.6160  152.3001 LP  0  0  0  0  0  0  0  0  0  0  0  0  # atno 17342 bound_to 10162
  139.6714  144.7660  151.1776 LP  0  0  0  0  0  0  0  0  0  0  0  0  # atno 17343 bound_to 10162
  156.5706  130.4279  149.6021 LP  0  0  0  0  0  0  0  0  0  0  0  0  # atno 17370 bound_to 10713
  156.2743  130.7035  151.1841 LP  0  0  0  0  0  0  0  0  0  0  0  0  # atno 17371 bound_to 10713
  140.8240  133.8331  155.8922 LP  0  0  0  0  0  0  0  0  0  0  0  0  # atno 17394 bound_to 11000
  140.9391  134.1924  157.4810 LP  0  0  0  0  0  0  0  0  0  0  0  0  # atno 17395 bound_to 11000

$$$$
