#       Name:                AV-unprocessed.smi:2424
#       Creating user name   scv26
#       Creation time:       Fri Mar 27 13:19:53 2020


#       File generated by GOLD software.
#

@<TRIPOS>MOLECULE
AV-unprocessed.smi:2424
    56    57     1
SMALL
NO_CHARGES


@<TRIPOS>ATOM
      1 ****        -1.6898  -2.3712   2.9823 C.3            1 S1                 0.0000
      2 ****        -1.2174  -1.2584   2.0327 C.3            1 S1                 0.0000
      3 ****        -2.0771  -1.0743   0.7541 C.3            1 S1                 0.0000
      4 ****        -3.5140  -0.6818   1.1785 C.3            1 S1                 0.0000
      5 ****        -3.6336   0.6386   1.9581 C.3            1 S1                 0.0000
      6 ****        -1.4959  -0.1891  -0.3878 C.3            1 S1                 0.0000
      7 ****        -0.0340  -0.1043  -0.3770 N.am           1 S1                 0.0000
      8 ****         0.6814   1.0242  -0.4638 C.2            1 S1                 0.0000
      9 ****         0.1754   2.1395  -0.5858 O.2            1 S1                 0.0000
     10 ****         1.9970   0.7574  -0.3883 N.am           1 S1                 0.0000
     11 ****         3.0760   1.6478  -0.4538 C.2            1 S1                 0.0000
     12 ****         4.3649   1.1955  -0.2568 C.2            1 S1                 0.0000
     13 ****         5.5208   1.8936  -0.2796 N.pl3          1 S1                -1.0000
     14 ****         5.4575   3.2329  -0.5291 C.2            1 S1                 0.0000
     15 ****         6.4680   3.9344  -0.5588 O.2            1 S1                 0.0000
     16 ****         4.1380   3.8508  -0.7703 C.2            1 S1                 0.0000
     17 ****         4.0719   5.3402  -1.0619 C.3            1 S1                 0.0000
     18 ****         3.0204   3.0831  -0.7298 C.2            1 S1                 0.0000
     19 ****        -2.0022  -1.2145  -1.4166 C.3            1 S1                 0.0000
     20 ****        -1.2320  -1.4878  -2.7069 C.3            1 S1                 0.0000
     21 ****        -2.0348  -2.2421  -0.2696 C.3            1 S1                 0.0000
     22 ****        -0.8293  -2.9936  -0.1736 O.3            1 S1                 0.0000
     23 ****        -0.9179  -4.2699  -0.7836 C.3            1 S1                 0.0000
     24 ****        -0.9648  -2.5210   3.7826 H              1 S1                 0.0000
     25 ****        -1.8017  -3.3208   2.4586 H              1 S1                 0.0000
     26 ****        -2.6410  -2.1291   3.4550 H              1 S1                 0.0000
     27 ****        -1.1347  -0.3213   2.5821 H              1 S1                 0.0000
     28 ****        -0.1888  -1.5012   1.7670 H              1 S1                 0.0000
     29 ****        -4.1454  -0.5883   0.2951 H              1 S1                 0.0000
     30 ****        -3.9805  -1.4811   1.7535 H              1 S1                 0.0000
     31 ****        -4.6818   0.8994   2.1055 H              1 S1                 0.0000
     32 ****        -3.1621   1.4651   1.4271 H              1 S1                 0.0000
     33 ****        -3.1810   0.5698   2.9468 H              1 S1                 0.0000
     34 ****        -1.9975   0.7741  -0.4911 H              1 S1                 0.0000
     35 ****         0.4666  -0.9758  -0.2810 H              1 S1                 0.0000
     36 ****         2.2539  -0.2107  -0.2623 H              1 S1                 0.0000
     37 ****         4.4848   0.1112  -0.0438 H              1 S1                 0.0000
     38 ****         3.0462   5.6665  -1.2361 H              1 S1                 0.0000
     39 ****         4.6568   5.5811  -1.9500 H              1 S1                 0.0000
     40 ****         4.4691   5.9107  -0.2218 H              1 S1                 0.0000
     41 ****         2.0763   3.5675  -0.9182 H              1 S1                 0.0000
     42 ****        -3.0314  -0.9541  -1.6689 H              1 S1                 0.0000
     43 ****        -0.2146  -1.8281  -2.5129 H              1 S1                 0.0000
     44 ****        -1.1642  -0.5883  -3.3190 H              1 S1                 0.0000
     45 ****        -1.7260  -2.2536  -3.3045 H              1 S1                 0.0000
     46 ****        -2.9341  -2.8608  -0.2449 H              1 S1                 0.0000
     47 ****         0.0456  -4.7744  -0.7153 H              1 S1                 0.0000
     48 ****        -1.1851  -4.1955  -1.8377 H              1 S1                 0.0000
     49 ****        -1.6588  -4.8917  -0.2796 H              1 S1                 0.0000
     50 ****        -0.8192   2.2358  -0.6247 LP             1 S1                 0.0000
     51 ****         0.7589   2.9494  -0.6460 LP             1 S1                 0.0000
     52 ****         6.3980   1.4414  -0.1181 LP             1 S1                 0.0000
     53 ****         7.3659   3.5248  -0.3975 LP             1 S1                 0.0000
     54 ****         6.3913   4.9140  -0.7442 LP             1 S1                 0.0000
     55 ****        -0.6084  -3.1181   0.7937 LP             1 S1                 0.0000
     56 ****        -0.0971  -2.4784  -0.6190 LP             1 S1                 0.0000
@<TRIPOS>BOND
    1    1    2 1     
    2    1   24 1     
    3    1   25 1     
    4    1   26 1     
    5    2    3 1     
    6    2   27 1     
    7    2   28 1     
    8    3   21 1     
    9    3    4 1     
   10    3    6 1     
   11    4    5 1     
   12    4   29 1     
   13    4   30 1     
   14    5   31 1     
   15    5   32 1     
   16    5   33 1     
   17    6    7 1     
   18    6   19 1     
   19    6   34 1     
   20    7    8 am    
   21    7   35 1     
   22    8    9 2     
   23    8   10 am    
   24   10   11 1     
   25   10   36 1     
   26   11   18 1     
   27   11   12 2     
   28   12   13 1     
   29   12   37 1     
   30   13   14 1     
   31   14   15 2     
   32   14   16 1     
   33   16   17 1     
   34   16   18 2     
   35   17   38 1     
   36   17   39 1     
   37   17   40 1     
   38   18   41 1     
   39   19   20 1     
   40   19   21 1     
   41   19   42 1     
   42   20   43 1     
   43   20   44 1     
   44   20   45 1     
   45   21   22 1     
   46   21   46 1     
   47   22   23 1     
   48   23   47 1     
   49   23   48 1     
   50   23   49 1     
   51    9   50 1     
   52    9   51 1     
   53   13   52 1     
   54   15   53 1     
   55   15   54 1     
   56   22   55 1     
   57   22   56 1     
@<TRIPOS>SUBSTRUCTURE
      1 S1             1
@<TRIPOS>SET
LONE_PAIRS      STATIC     ATOMS    <user>   **** ""
7 50 51 52 53 54 55 56
DONOR_HYDROGENS      STATIC     ATOMS    <user>   **** ""
2 35 36
ATOM$BLUE        STATIC     ATOMS    COLORGROUP SYSTEM
7 50 51 52 53 54 55 56
ATOM$RED        STATIC     ATOMS    COLORGROUP SYSTEM
2 35 36
