AV-unprocessed.smi:2147|AV-procd|sdf|8742|dock7
  -GOLD-   2272011513D 1   1.00000     0.00000
 Structure written by MMmdl.
 41 43  0  0  0  0  0  0  0  0  1 V2000
  142.3600  146.4545  154.9247 C   0  0  0  0  0  0  0  0  0  0  0  0
  143.3020  145.9864  153.8167 C   0  0  0  0  0  0  0  0  0  0  0  0
  143.3312  146.6170  152.7604 O   0  0  0  0  0  0  0  0  0  0  0  0
  144.1395  144.7814  154.0787 C   0  0  0  0  0  0  0  0  0  0  0  0
  144.0761  144.0803  155.3051 C   0  0  0  0  0  0  0  0  0  0  0  0
  144.8791  142.9436  155.5198 C   0  0  0  0  0  0  0  0  0  0  0  0
  145.7604  142.4800  154.5232 C   0  0  0  0  0  0  0  0  0  0  0  0
  146.5062  141.3587  154.8169 O   0  0  0  0  0  0  0  0  0  0  0  0
  147.5520  140.9950  153.9250 C   0  0  0  0  0  0  0  0  0  0  0  0
  148.9037  141.1955  154.6254 C   0  0  2  0  0  0  0  0  0  0  0  0
  149.9299  140.8600  153.7123 O   0  0  0  0  0  0  0  0  0  0  0  0
  149.0371  140.3409  155.9012 C   0  0  0  0  0  0  0  0  0  0  0  0
  150.2159  140.6797  156.6787 N   0  0  0  0  0  0  0  0  0  0  0  0
  151.3754  139.9963  156.7307 C   0  0  0  0  0  0  0  0  0  0  0  0
  152.3361  140.4845  157.5100 N   0  0  0  0  0  0  0  0  0  0  0  0
  151.7306  141.6189  158.0230 C   0  0  0  0  0  0  0  0  0  0  0  0
  152.2195  142.5924  158.9233 C   0  0  0  0  0  0  0  0  0  0  0  0
  151.4075  143.6788  159.3109 C   0  0  0  0  0  0  0  0  0  0  0  0
  150.0968  143.8076  158.8071 C   0  0  0  0  0  0  0  0  0  0  0  0
  149.5876  142.8503  157.9088 C   0  0  0  0  0  0  0  0  0  0  0  0
  150.4018  141.7692  157.5228 C   0  0  0  0  0  0  0  0  0  0  0  0
  145.8271  143.1833  153.2956 C   0  0  0  0  0  0  0  0  0  0  0  0
  145.0243  144.3196  153.0786 C   0  0  0  0  0  0  0  0  0  0  0  0
  141.6373  145.6752  155.1671 H   0  0  0  0  0  0  0  0  0  0  0  0
  141.8107  147.3418  154.6087 H   0  0  0  0  0  0  0  0  0  0  0  0
  142.9221  146.7051  155.8244 H   0  0  0  0  0  0  0  0  0  0  0  0
  143.4158  144.3958  156.0990 H   0  0  0  0  0  0  0  0  0  0  0  0
  144.8166  142.4199  156.4624 H   0  0  0  0  0  0  0  0  0  0  0  0
  147.4477  139.9556  153.6086 H   0  0  0  0  0  0  0  0  0  0  0  0
  147.5024  141.6264  153.0359 H   0  0  0  0  0  0  0  0  0  0  0  0
  149.0211  142.2502  154.8779 H   0  0  0  0  0  0  0  0  0  0  0  0
  149.6393  140.1264  153.1917 H   0  0  0  0  0  0  0  0  0  0  0  0
  148.1614  140.4740  156.5376 H   0  0  0  0  0  0  0  0  0  0  0  0
  149.0779  139.2804  155.6494 H   0  0  0  0  0  0  0  0  0  0  0  0
  151.5220  139.0882  156.1641 H   0  0  0  0  0  0  0  0  0  0  0  0
  153.2215  142.5035  159.3165 H   0  0  0  0  0  0  0  0  0  0  0  0
  151.7923  144.4172  159.9989 H   0  0  0  0  0  0  0  0  0  0  0  0
  149.4819  144.6422  159.1110 H   0  0  0  0  0  0  0  0  0  0  0  0
  148.5835  142.9445  157.5226 H   0  0  0  0  0  0  0  0  0  0  0  0
  146.4875  142.8720  152.5006 H   0  0  0  0  0  0  0  0  0  0  0  0
  145.0975  144.8325  152.1303 H   0  0  0  0  0  0  0  0  0  0  0  0
  1  2  1  0  0  0  0
  1 24  1  0  0  0  0
  1 25  1  0  0  0  0
  1 26  1  0  0  0  0
  2  3  2  0  0  0  0
  2  4  1  0  0  0  0
  4 23  1  0  0  0  0
  4  5  2  0  0  0  0
  5  6  1  0  0  0  0
  5 27  1  0  0  0  0
  6  7  2  0  0  0  0
  6 28  1  0  0  0  0
  7  8  1  0  0  0  0
  7 22  1  0  0  0  0
  8  9  1  0  0  0  0
  9 10  1  0  0  0  0
  9 29  1  0  0  0  0
  9 30  1  0  0  0  0
 10 11  1  0  0  0  0
 10 12  1  0  0  0  0
 10 31  1  0  0  0  0
 11 32  1  0  0  0  0
 12 13  1  0  0  0  0
 12 33  1  0  0  0  0
 12 34  1  0  0  0  0
 13 21  1  0  0  0  0
 13 14  1  0  0  0  0
 14 15  2  0  0  0  0
 14 35  1  0  0  0  0
 15 16  1  0  0  0  0
 16 21  2  0  0  0  0
 16 17  1  0  0  0  0
 17 18  2  0  0  0  0
 17 36  1  0  0  0  0
 18 19  1  0  0  0  0
 18 37  1  0  0  0  0
 19 20  2  0  0  0  0
 19 38  1  0  0  0  0
 20 21  1  0  0  0  0
 20 39  1  0  0  0  0
 22 23  2  0  0  0  0
 22 40  1  0  0  0  0
 23 41  1  0  0  0  0
M  END
> <s_m_source_file>
AV-unprocessed.smi

> <i_m_source_file_index>
2147

> <i_lp_mmshare_version>
43012

> <i_f3d_flags>
0

> <s_epik_input>
W0NIM11DKD1PKWMxW2NIXVtjSF1jKFtjSF1bY0hdMSlPW0NIMl1bQ0BIXShbT0hdKVtDSDJdbihbY0hdbjIpYyhjMjMpW2NIXVtjSF1bY0hdW2NIXTM=

> <s_epik_cmdline>
J2VwaWtfcHl0aG9uJywgJy1waCcsICc3LjAnLCAnLXRuJywgJzgnLCAnLW1hJywgJzIwMCcsICctbWV0YWxfYmluZGluZycsICctaW1hZScsICc8aW5maWxlLm1hZT4nLCAnLW9tYWUnLCAnPG91dGZpbGUubWFlPic=

> <r_lp_tautomer_probability>
0.99995

> <r_epik_Ionization_Penalty>
0.0583018

> <r_epik_Ionization_Penalty_Charging>
0

> <r_epik_Ionization_Penalty_Neutral>
0.0583018

> <r_epik_State_Penalty>
0.0504087

> <r_epik_Charging_Adjusted_Penalty>
0.0504087

> <i_epik_Tot_Q>
0

> <i_epik_Tot_abs_Q>
0

> <r_epik_Metal_State_Penalty>
5.26129e-05

> <b_epik_Metal_Only>
0

> <s_lp_Force_Field>
OPLS_2005

> <r_lp_Energy>
19.9149

> <b_lp_Chiralities_Consistent>
1

> <s_lp_Variant>
AV-unprocessed.smi:2147-1

> <Gold.Version>
5.8.1

> <Gold.Id.Protein>
6NUR|6NUR_protein|mol2

> <Gold.PLP.Fitness>
53.2097

> <Gold.PLP.PLP>
-45.7643

> <Gold.PLP.part.hbond>
-5.3144

> <Gold.PLP.part.metal>
0.0000

> <Gold.PLP.part.buried>
-4.5739

> <Gold.PLP.part.nonpolar>
-34.9934

> <Gold.PLP.part.repulsive>
0.1795

> <Gold.PLP.ligand.clash>
0.0000

> <Gold.PLP.ligand.torsion>
0.7297

> <Gold.PLP.Chemscore.Hbond>
2.9520

> <Gold.PLP.Chemscore.CHOScore>
0.0000

> <Gold.PLP.Chemscore.Metal>
0.0000

> <Gold.Chemscore.Hbonds>
donor molecule, donor type, donor heavy atom, donor atom, acceptor molecule, acceptor atom, score
      L1  H    11    32       P1  7957  0.51
      P1  H  7989  7998       L1    11  0.42
      P1  H  7997  8010       L1    15  0.40
      P1  H  8011  8017       L1    11  0.84

> <Gold.PLP.Chemscore.Internal.Correction>
0.0489

> <Gold.Rescore>
     Score         DG    S(hbond)    S(metal)    S(lipo)     H(rot)  DE(clash)    DE(int)     intcor
     16.11     -18.16       2.07        0.00     101.76       2.40       1.29       0.76       ----

> <Gold.Chemscore.Fitness>
16.1123

> <Gold.Chemscore.DG>
-18.1638

> <Gold.Chemscore.ZeroCoef>
-5.4800

> <Gold.Chemscore.Hbond>
2.0727

> <Gold.Chemscore.Metal>
0.0000

> <Gold.Chemscore.Lipo>
101.7640

> <Gold.Chemscore.Internal_Hbond>
0.0000

> <Gold.Chemscore.DEClash>
1.2931

> <Gold.Chemscore.DEInternal>
0.7583

> <Gold.Chemscore.Rot>
2.4005

> <Gold.Chemscore.Internal.Correction>
   9.000000E+99

> <Gold.Chemscore.Hbonds>
donor molecule, donor type, donor heavy atom, donor atom, acceptor molecule, acceptor atom, score
      L1  H    11    32       P1  7957  0.48
      P1  H  7989  7998       L1    11  0.19
      P1  H  7997  8010       L1    15  0.31
      P1  H  8011  8017       L1    11  0.08

> <Gold.Chemscore.Hbond.Weighted>
-6.9227

> <Gold.Chemscore.Metal.Weighted>
-0.0000

> <Gold.Chemscore.Lipo.Weighted>
-11.9064

> <Gold.Chemscore.Internal_Hbond.Weighted>
0.0000

> <Gold.Chemscore.DEClash.Weighted>
1.2931

> <Gold.Chemscore.DEInternal.Weighted>
0.7583

> <Gold.Chemscore.Rot.Weighted>
6.1453

> <Gold.Chemscore.Internal.Correction.Weighted>
   9.000000E+99

> <Gold.Protein.RotatedTorsions>
[ 6907 6896 6895 6894 ] final   50.76 input  -60.11 | X-H torsion
[ 7974 7965 7964 7962 ] final   59.25 input  175.53 | X-H torsion
[ 8008 7997 7996 7995 ] final   62.84 input   59.86 | X-H torsion
[ 10167 10162 10161 10158 ] final    1.77 input  -65.29 | X-H torsion
[ 10718 10713 10712 10709 ] final -135.40 input   66.30 | X-H torsion
[ 10763 10752 10751 10750 ] final -105.46 input  -60.55 | X-H torsion
[ 11005 11000 10999 10996 ] final  157.23 input  -57.11 | X-H torsion

> <Gold.Protein.ActiveResidues>
 VAL166  LYS551  ARG553  GLY616  TRP617  ASP618  TYR619  PRO620  LYS621  CYS622 
 ASP623  PHE694  ASN695  SER759  ASP760  ASP761  ALA762  ILE779  LEU786  VAL792 
 PHE793  MET794  SER795  GLU796  ALA797  LYS798  CYS799  TRP800  GLU811  SER814 

> <Gold.Protein.RotatedAtoms>
  152.3053  134.7562  160.0348 H   0  0  0  0  0  0  0  0  0  0  0  0  # atno 6907 bound_to 6896
  151.8062  133.3370  159.3550 H   0  0  0  0  0  0  0  0  0  0  0  0  # atno 6908 bound_to 6896
  150.7293  134.5637  159.5899 H   0  0  0  0  0  0  0  0  0  0  0  0  # atno 6909 bound_to 6896
  145.9092  139.3640  143.0546 H   0  0  0  0  0  0  0  0  0  0  0  0  # atno 7974 bound_to 7965
  155.6208  140.3495  155.4651 H   0  0  0  0  0  0  0  0  0  0  0  0  # atno 8008 bound_to 7997
  156.0081  140.1227  157.0505 H   0  0  0  0  0  0  0  0  0  0  0  0  # atno 8009 bound_to 7997
  154.4271  140.1087  156.5777 H   0  0  0  0  0  0  0  0  0  0  0  0  # atno 8010 bound_to 7997
  140.6667  143.7161  150.7840 H   0  0  0  0  0  0  0  0  0  0  0  0  # atno 10167 bound_to 10162
  156.2657  130.7236  151.1186 H   0  0  0  0  0  0  0  0  0  0  0  0  # atno 10718 bound_to 10713
  154.7948  135.4748  154.0136 H   0  0  0  0  0  0  0  0  0  0  0  0  # atno 10763 bound_to 10752
  153.1687  135.6821  153.8646 H   0  0  0  0  0  0  0  0  0  0  0  0  # atno 10764 bound_to 10752
  153.8236  135.3201  155.3390 H   0  0  0  0  0  0  0  0  0  0  0  0  # atno 10765 bound_to 10752
  140.1749  134.8516  157.2735 H   0  0  0  0  0  0  0  0  0  0  0  0  # atno 11005 bound_to 11000
  145.8693  140.9429  143.0659 LP  0  0  0  0  0  0  0  0  0  0  0  0  # atno 17320 bound_to 7965
  144.6742  140.0634  143.7475 LP  0  0  0  0  0  0  0  0  0  0  0  0  # atno 17321 bound_to 7965
  140.0839  143.4942  152.2515 LP  0  0  0  0  0  0  0  0  0  0  0  0  # atno 17342 bound_to 10162
  139.5918  144.7553  151.3382 LP  0  0  0  0  0  0  0  0  0  0  0  0  # atno 17343 bound_to 10162
  157.7266  131.0645  150.5900 LP  0  0  0  0  0  0  0  0  0  0  0  0  # atno 17370 bound_to 10713
  156.5992  130.4350  149.5904 LP  0  0  0  0  0  0  0  0  0  0  0  0  # atno 17371 bound_to 10713
  140.2334  134.3882  155.7512 LP  0  0  0  0  0  0  0  0  0  0  0  0  # atno 17394 bound_to 11000
  141.2220  133.7227  156.8676 LP  0  0  0  0  0  0  0  0  0  0  0  0  # atno 17395 bound_to 11000

$$$$
