AV-unprocessed.smi:1385|AV-procd|sdf|5631|dock1
  -GOLD-   22720 5243D 1   1.00000     0.00000
 Structure written by MMmdl.
 37 38  0  0  0  0  0  0  0  0  2 V2000
  153.9755  137.2523  162.5080 C   0  0  0  0  0  0  0  0  0  0  0  0
  153.6663  137.5649  161.0839 C   0  0  0  0  0  0  0  0  0  0  0  0
  153.1838  136.6560  160.2331 N   0  0  0  0  0  0  0  0  0  0  0  0
  152.9778  137.1833  158.9665 N   0  0  0  0  0  0  0  0  0  0  0  0
  153.3180  138.4770  158.8737 C   0  0  0  0  0  0  0  0  0  0  0  0
  153.1943  139.1759  157.7333 N   0  5  0  0  0  0  0  0  0  0  0  0
  151.9756  139.3371  157.1696 C   0  0  0  0  0  0  0  0  0  0  0  0
  150.9035  138.9237  157.6176 O   0  0  0  0  0  0  0  0  0  0  0  0
  152.0010  140.0198  156.0159 N   0  0  0  0  0  0  0  0  0  0  0  0
  150.8429  140.3544  155.1917 C   0  0  0  0  0  0  0  0  0  0  0  0
  149.9746  141.3994  155.9050 C   0  0  0  0  0  0  0  0  0  0  0  0
  148.6886  141.6838  155.1098 C   0  0  0  0  0  0  0  0  0  0  0  0
  147.9127  140.4532  154.9221 N   0  0  0  0  0  0  0  0  0  0  0  0
  146.6267  140.7825  154.2668 C   0  0  0  0  0  0  0  0  0  0  0  0
  145.7391  141.7453  155.0642 C   0  0  0  0  0  0  0  0  0  0  0  0
  144.4884  141.9236  154.6318 N   0  0  0  0  0  0  0  0  0  0  0  0
  146.1772  142.3147  156.0614 O   0  0  0  0  0  0  0  0  0  0  0  0
  148.6974  139.4679  154.1629 C   0  0  0  0  0  0  0  0  0  0  0  0
  149.9905  139.1060  154.9139 C   0  0  0  0  0  0  0  0  0  0  0  0
  153.9118  139.1578  160.3882 S   0  0  0  0  0  0  0  0  0  0  0  0
  154.9424  136.7540  162.5780 H   0  0  0  0  0  0  0  0  0  0  0  0
  153.2106  136.5976  162.9266 H   0  0  0  0  0  0  0  0  0  0  0  0
  154.0098  138.1688  163.0972 H   0  0  0  0  0  0  0  0  0  0  0  0
  152.9005  140.3400  155.6885 H   0  0  0  0  0  0  0  0  0  0  0  0
  151.1804  140.7781  154.2439 H   0  0  0  0  0  0  0  0  0  0  0  0
  149.7129  141.0497  156.9052 H   0  0  0  0  0  0  0  0  0  0  0  0
  150.5380  142.3237  156.0380 H   0  0  0  0  0  0  0  0  0  0  0  0
  148.0934  142.4167  155.6562 H   0  0  0  0  0  0  0  0  0  0  0  0
  148.9329  142.1304  154.1443 H   0  0  0  0  0  0  0  0  0  0  0  0
  146.8226  141.2563  153.3036 H   0  0  0  0  0  0  0  0  0  0  0  0
  146.0764  139.8643  154.0518 H   0  0  0  0  0  0  0  0  0  0  0  0
  143.8686  142.5510  155.1233 H   0  0  0  0  0  0  0  0  0  0  0  0
  144.1685  141.4310  153.8106 H   0  0  0  0  0  0  0  0  0  0  0  0
  148.1301  138.5496  154.0125 H   0  0  0  0  0  0  0  0  0  0  0  0
  148.9341  139.8590  153.1719 H   0  0  0  0  0  0  0  0  0  0  0  0
  150.5625  138.3835  154.3305 H   0  0  0  0  0  0  0  0  0  0  0  0
  149.7371  138.6116  155.8532 H   0  0  0  0  0  0  0  0  0  0  0  0
  1  2  1  0  0  0  0
  1 21  1  0  0  0  0
  1 22  1  0  0  0  0
  1 23  1  0  0  0  0
  2 20  1  0  0  0  0
  2  3  2  0  0  0  0
  3  4  1  0  0  0  0
  4  5  2  0  0  0  0
  5  6  1  0  0  0  0
  5 20  1  0  0  0  0
  6  7  1  0  0  0  0
  7  8  2  0  0  0  0
  7  9  1  0  0  0  0
  9 10  1  0  0  0  0
  9 24  1  0  0  0  0
 10 19  1  0  0  0  0
 10 11  1  0  0  0  0
 10 25  1  0  0  0  0
 11 12  1  0  0  0  0
 11 26  1  0  0  0  0
 11 27  1  0  0  0  0
 12 13  1  0  0  0  0
 12 28  1  0  0  0  0
 12 29  1  0  0  0  0
 13 14  1  0  0  0  0
 13 18  1  0  0  0  0
 14 15  1  0  0  0  0
 14 30  1  0  0  0  0
 14 31  1  0  0  0  0
 15 16  1  0  0  0  0
 15 17  2  0  0  0  0
 16 32  1  0  0  0  0
 16 33  1  0  0  0  0
 18 19  1  0  0  0  0
 18 34  1  0  0  0  0
 18 35  1  0  0  0  0
 19 36  1  0  0  0  0
 19 37  1  0  0  0  0
M  CHG  1   6  -1
M  END
> <s_m_source_file>
AV-unprocessed.smi

> <i_m_source_file_index>
1385

> <i_lp_mmshare_version>
43012

> <i_f3d_flags>
0

> <s_epik_input>
W0NIM11jMW5uYyhzMSlbTkhdQyg9TylbTkhdW0NIXTJbQ0gyXVtDSDJdTihbQ0gyXVtDSDJdMilbQ0gyXUMoPU8pW05IMl0=

> <s_epik_cmdline>
J2VwaWtfcHl0aG9uJywgJy1waCcsICc3LjAnLCAnLXRuJywgJzgnLCAnLW1hJywgJzIwMCcsICctbWV0YWxfYmluZGluZycsICctaW1hZScsICc8aW5maWxlLm1hZT4nLCAnLW9tYWUnLCAnPG91dGZpbGUubWFlPic=

> <r_lp_tautomer_probability>
1

> <r_epik_Ionization_Penalty>
3.72698

> <r_epik_Ionization_Penalty_Charging>
3.38897

> <r_epik_Ionization_Penalty_Neutral>
0.338006

> <r_epik_State_Penalty>
3.53372

> <r_epik_Charging_Adjusted_Penalty>
6.92269

> <i_epik_Tot_Q>
-1

> <i_epik_Tot_abs_Q>
1

> <r_epik_Metal_State_Penalty>
0.657042

> <b_epik_Metal_Only>
1

> <s_lp_Force_Field>
OPLS_2005

> <r_lp_Energy>
7.29134

> <b_lp_Chiralities_Consistent>
1

> <s_lp_Variant>
AV-unprocessed.smi:1385-4

> <Gold.Version>
5.8.1

> <Gold.Id.Protein>
6NUR|6NUR_protein|mol2

> <Gold.PLP.Fitness>
35.4232

> <Gold.PLP.PLP>
-24.8529

> <Gold.PLP.part.hbond>
-3.5232

> <Gold.PLP.part.metal>
0.0000

> <Gold.PLP.part.buried>
0.1704

> <Gold.PLP.part.nonpolar>
-21.7318

> <Gold.PLP.part.repulsive>
0.3572

> <Gold.PLP.ligand.clash>
0.0000

> <Gold.PLP.ligand.torsion>
0.7574

> <Gold.PLP.Chemscore.Hbond>
4.0000

> <Gold.PLP.Chemscore.CHOScore>
0.0000

> <Gold.PLP.Chemscore.Metal>
0.0000

> <Gold.Chemscore.Hbonds>
donor molecule, donor type, donor heavy atom, donor atom, acceptor molecule, acceptor atom, score
      L1  H    16    33       P1 10175  0.85
      P1  H  6896  6907       L1     3  0.90
      P1  H  7997  8010       L1     6  2.00

> <Gold.PLP.Chemscore.Internal.Correction>
0.0852

> <Gold.Rescore>
     Score         DG    S(hbond)    S(metal)    S(lipo)     H(rot)  DE(clash)    DE(int)     intcor
     11.12     -15.49       2.67        0.00      53.40       2.02       0.06       4.31       ----

> <Gold.Chemscore.Fitness>
11.1158

> <Gold.Chemscore.DG>
-15.4854

> <Gold.Chemscore.ZeroCoef>
-5.4800

> <Gold.Chemscore.Hbond>
2.6705

> <Gold.Chemscore.Metal>
0.0000

> <Gold.Chemscore.Lipo>
53.3983

> <Gold.Chemscore.Internal_Hbond>
0.0000

> <Gold.Chemscore.DEClash>
0.0558

> <Gold.Chemscore.DEInternal>
4.3138

> <Gold.Chemscore.Rot>
2.0163

> <Gold.Chemscore.Internal.Correction>
   9.000000E+99

> <Gold.Chemscore.Hbonds>
donor molecule, donor type, donor heavy atom, donor atom, acceptor molecule, acceptor atom, score
      L1  H    16    33       P1 10175  0.15
      P1  H  6896  6907       L1     3  0.17
      P1  H  7997  8010       L1     6  0.85

> <Gold.Chemscore.Hbond.Weighted>
-8.9195

> <Gold.Chemscore.Metal.Weighted>
-0.0000

> <Gold.Chemscore.Lipo.Weighted>
-6.2476

> <Gold.Chemscore.Internal_Hbond.Weighted>
0.0000

> <Gold.Chemscore.DEClash.Weighted>
0.0558

> <Gold.Chemscore.DEInternal.Weighted>
4.3138

> <Gold.Chemscore.Rot.Weighted>
5.1617

> <Gold.Chemscore.Internal.Correction.Weighted>
   9.000000E+99

> <Gold.Protein.RotatedTorsions>
[ 6907 6896 6895 6894 ] final   24.99 input  -60.11 | X-H torsion
[ 7974 7965 7964 7962 ] final -179.94 input  175.53 | X-H torsion
[ 8008 7997 7996 7995 ] final   45.73 input   59.86 | X-H torsion
[ 10167 10162 10161 10158 ] final  -24.82 input  -65.29 | X-H torsion
[ 10718 10713 10712 10709 ] final  167.44 input   66.30 | X-H torsion
[ 10763 10752 10751 10750 ] final -151.01 input  -60.55 | X-H torsion
[ 11005 11000 10999 10996 ] final   51.05 input  -57.11 | X-H torsion

> <Gold.Protein.ActiveResidues>
 VAL166  LYS551  ARG553  GLY616  TRP617  ASP618  TYR619  PRO620  LYS621  CYS622 
 ASP623  PHE694  ASN695  SER759  ASP760  ASP761  ALA762  ILE779  LEU786  VAL792 
 PHE793  MET794  SER795  GLU796  ALA797  LYS798  CYS799  TRP800  GLU811  SER814 

> <Gold.Protein.RotatedAtoms>
  151.9658  135.0101  160.0549 H   0  0  0  0  0  0  0  0  0  0  0  0  # atno 6907 bound_to 6896
  152.1828  133.4714  159.4975 H   0  0  0  0  0  0  0  0  0  0  0  0  # atno 6908 bound_to 6896
  150.6920  134.1729  159.4262 H   0  0  0  0  0  0  0  0  0  0  0  0  # atno 6909 bound_to 6896
  144.7140  140.0642  143.6431 H   0  0  0  0  0  0  0  0  0  0  0  0  # atno 7974 bound_to 7965
  155.3407  140.3408  155.4239 H   0  0  0  0  0  0  0  0  0  0  0  0  # atno 8008 bound_to 7997
  156.1814  140.1665  156.8302 H   0  0  0  0  0  0  0  0  0  0  0  0  # atno 8009 bound_to 7997
  154.5338  140.0739  156.8375 H   0  0  0  0  0  0  0  0  0  0  0  0  # atno 8010 bound_to 7997
  140.7287  143.4319  151.0789 H   0  0  0  0  0  0  0  0  0  0  0  0  # atno 10167 bound_to 10162
  157.0515  131.0315  151.2679 H   0  0  0  0  0  0  0  0  0  0  0  0  # atno 10718 bound_to 10713
  154.8084  135.3270  154.7370 H   0  0  0  0  0  0  0  0  0  0  0  0  # atno 10763 bound_to 10752
  153.8024  135.6902  153.4858 H   0  0  0  0  0  0  0  0  0  0  0  0  # atno 10764 bound_to 10752
  153.1845  135.4574  155.0016 H   0  0  0  0  0  0  0  0  0  0  0  0  # atno 10765 bound_to 10752
  140.0965  134.5138  155.8802 H   0  0  0  0  0  0  0  0  0  0  0  0  # atno 11005 bound_to 11000
  145.9838  139.2962  143.1026 LP  0  0  0  0  0  0  0  0  0  0  0  0  # atno 17320 bound_to 7965
  145.8980  140.9261  143.0517 LP  0  0  0  0  0  0  0  0  0  0  0  0  # atno 17321 bound_to 7965
  139.7977  143.8128  152.3159 LP  0  0  0  0  0  0  0  0  0  0  0  0  # atno 17342 bound_to 10162
  139.8134  144.7326  150.9667 LP  0  0  0  0  0  0  0  0  0  0  0  0  # atno 17343 bound_to 10162
  157.5026  130.7889  149.7621 LP  0  0  0  0  0  0  0  0  0  0  0  0  # atno 17370 bound_to 10713
  156.0006  130.3882  150.2621 LP  0  0  0  0  0  0  0  0  0  0  0  0  # atno 17371 bound_to 10713
  141.2093  133.6683  156.6433 LP  0  0  0  0  0  0  0  0  0  0  0  0  # atno 17394 bound_to 11000
  140.3279  134.7953  157.4303 LP  0  0  0  0  0  0  0  0  0  0  0  0  # atno 17395 bound_to 11000

$$$$
