AV-unprocessed.smi:1019|AV-procd|sdf|4444|dock3
  -GOLD-   22720 2403D 1   1.00000     0.00000
 Structure written by MMmdl.
 44 46  0  0  0  0  0  0  0  0  2 V2000
  146.2189  136.6213  150.8082 C   0  0  0  0  0  0  0  0  0  0  0  0
  146.2739  136.4694  152.2840 N   0  3  2  0  0  0  0  0  0  0  0  0
  145.3129  135.4568  152.7911 C   0  0  0  0  0  0  0  0  0  0  0  0
  145.4084  134.1434  152.0346 C   0  0  0  0  0  0  0  0  0  0  0  0
  146.6587  133.6948  151.5588 C   0  0  0  0  0  0  0  0  0  0  0  0
  146.7530  132.4788  150.8546 C   0  0  0  0  0  0  0  0  0  0  0  0
  145.5986  131.7055  150.6258 C   0  0  0  0  0  0  0  0  0  0  0  0
  144.3493  132.1485  151.1019 C   0  0  0  0  0  0  0  0  0  0  0  0
  144.2537  133.3648  151.8057 C   0  0  0  0  0  0  0  0  0  0  0  0
  146.1497  137.7677  152.9963 C   0  0  0  0  0  0  0  0  0  0  0  0
  147.1622  138.8221  152.4920 C   0  0  2  0  0  0  0  0  0  0  0  0
  148.4277  138.5611  153.0655 O   0  0  0  0  0  0  0  0  0  0  0  0
  146.7771  140.2704  152.8573 C   0  0  0  0  0  0  0  0  0  0  0  0
  146.7428  140.4962  154.2912 N   0  0  0  0  0  0  0  0  0  0  0  0
  145.7052  140.2769  155.1223 C   0  0  0  0  0  0  0  0  0  0  0  0
  145.8815  140.5698  156.4072 N   0  0  0  0  0  0  0  0  0  0  0  0
  147.1912  141.0174  156.4154 C   0  0  0  0  0  0  0  0  0  0  0  0
  147.9935  141.4861  157.4801 C   0  0  0  0  0  0  0  0  0  0  0  0
  149.3229  141.8957  157.2465 C   0  0  0  0  0  0  0  0  0  0  0  0
  149.8703  141.8407  155.9483 C   0  0  0  0  0  0  0  0  0  0  0  0
  149.0900  141.3786  154.8711 C   0  0  0  0  0  0  0  0  0  0  0  0
  147.7623  140.9755  155.1075 C   0  0  0  0  0  0  0  0  0  0  0  0
  145.2306  136.9536  150.4874 H   0  0  0  0  0  0  0  0  0  0  0  0
  146.4388  135.6793  150.3060 H   0  0  0  0  0  0  0  0  0  0  0  0
  146.9486  137.3461  150.4498 H   0  0  0  0  0  0  0  0  0  0  0  0
  145.5165  135.2393  153.8406 H   0  0  0  0  0  0  0  0  0  0  0  0
  144.2960  135.8509  152.7475 H   0  0  0  0  0  0  0  0  0  0  0  0
  147.5483  134.2827  151.7313 H   0  0  0  0  0  0  0  0  0  0  0  0
  147.7114  132.1387  150.4903 H   0  0  0  0  0  0  0  0  0  0  0  0
  145.6716  130.7724  150.0867 H   0  0  0  0  0  0  0  0  0  0  0  0
  143.4643  131.5542  150.9276 H   0  0  0  0  0  0  0  0  0  0  0  0
  143.2914  133.6978  152.1668 H   0  0  0  0  0  0  0  0  0  0  0  0
  145.1224  138.1176  152.8869 H   0  0  0  0  0  0  0  0  0  0  0  0
  146.3054  137.6341  154.0679 H   0  0  0  0  0  0  0  0  0  0  0  0
  147.2705  138.7607  151.4104 H   0  0  0  0  0  0  0  0  0  0  0  0
  148.7173  137.7028  152.7974 H   0  0  0  0  0  0  0  0  0  0  0  0
  147.4850  140.9728  152.4140 H   0  0  0  0  0  0  0  0  0  0  0  0
  145.7957  140.5173  152.4501 H   0  0  0  0  0  0  0  0  0  0  0  0
  144.7624  139.8914  154.7623 H   0  0  0  0  0  0  0  0  0  0  0  0
  147.5862  141.5295  158.4795 H   0  0  0  0  0  0  0  0  0  0  0  0
  149.9266  142.2512  158.0687 H   0  0  0  0  0  0  0  0  0  0  0  0
  150.8909  142.1524  155.7806 H   0  0  0  0  0  0  0  0  0  0  0  0
  149.5089  141.3338  153.8770 H   0  0  0  0  0  0  0  0  0  0  0  0
  147.1908  136.1132  152.5126 H   0  0  0  0  0  0  0  0  0  0  0  0
  1  2  1  0  0  0  0
  1 23  1  0  0  0  0
  1 24  1  0  0  0  0
  1 25  1  0  0  0  0
  2  3  1  0  0  0  0
  2 10  1  0  0  0  0
  2 44  1  0  0  0  0
  3  4  1  0  0  0  0
  3 26  1  0  0  0  0
  3 27  1  0  0  0  0
  4  9  1  0  0  0  0
  4  5  2  0  0  0  0
  5  6  1  0  0  0  0
  5 28  1  0  0  0  0
  6  7  2  0  0  0  0
  6 29  1  0  0  0  0
  7  8  1  0  0  0  0
  7 30  1  0  0  0  0
  8  9  2  0  0  0  0
  8 31  1  0  0  0  0
  9 32  1  0  0  0  0
 10 11  1  0  0  0  0
 10 33  1  0  0  0  0
 10 34  1  0  0  0  0
 11 12  1  0  0  0  0
 11 13  1  0  0  0  0
 11 35  1  0  0  0  0
 12 36  1  0  0  0  0
 13 14  1  0  0  0  0
 13 37  1  0  0  0  0
 13 38  1  0  0  0  0
 14 22  1  0  0  0  0
 14 15  1  0  0  0  0
 15 16  2  0  0  0  0
 15 39  1  0  0  0  0
 16 17  1  0  0  0  0
 17 22  2  0  0  0  0
 17 18  1  0  0  0  0
 18 19  2  0  0  0  0
 18 40  1  0  0  0  0
 19 20  1  0  0  0  0
 19 41  1  0  0  0  0
 20 21  2  0  0  0  0
 20 42  1  0  0  0  0
 21 22  1  0  0  0  0
 21 43  1  0  0  0  0
M  CHG  1   2   1
M  END
> <s_m_source_file>
AV-unprocessed.smi

> <i_m_source_file_index>
1019

> <i_lp_mmshare_version>
43012

> <i_f3d_flags>
0

> <s_epik_input>
W2NIXTFbY0hdW2NIXVtjSF1bY0hdYzFbQ0gyXU4oW0NIM10pW0NIMl1bQ0BIXShbT0hdKVtDSDJdbihbY0hdbjIpYyhjMjMpW2NIXVtjSF1bY0hdW2NIXTM=

> <s_epik_cmdline>
J2VwaWtfcHl0aG9uJywgJy1waCcsICc3LjAnLCAnLXRuJywgJzgnLCAnLW1hJywgJzIwMCcsICctbWV0YWxfYmluZGluZycsICctaW1hZScsICc8aW5maWxlLm1hZT4nLCAnLW9tYWUnLCAnPG91dGZpbGUubWFlPic=

> <r_epik_Ionization_Penalty>
0.0996557

> <r_epik_Ionization_Penalty_Charging>
0.0475377

> <r_epik_Ionization_Penalty_Neutral>
0.0521179

> <r_epik_State_Penalty>
0.0851777

> <r_epik_Charging_Adjusted_Penalty>
0.132715

> <i_epik_Tot_Q>
1

> <i_epik_Tot_abs_Q>
1

> <r_epik_Metal_State_Penalty>
0.0423478

> <b_epik_Metal_Only>
0

> <s_lp_Force_Field>
OPLS_2005

> <r_lp_Energy>
17.6047

> <b_lp_Chiralities_Consistent>
1

> <s_lp_Variant>
AV-unprocessed.smi:1019-2

> <Gold.Version>
5.8.1

> <Gold.Id.Protein>
6NUR|6NUR_protein|mol2

> <Gold.PLP.Fitness>
50.6523

> <Gold.PLP.PLP>
-40.1330

> <Gold.PLP.part.hbond>
-2.4695

> <Gold.PLP.part.metal>
0.0000

> <Gold.PLP.part.buried>
2.1439

> <Gold.PLP.part.nonpolar>
-38.9551

> <Gold.PLP.part.repulsive>
0.0687

> <Gold.PLP.ligand.clash>
0.0000

> <Gold.PLP.ligand.torsion>
0.9300

> <Gold.PLP.Chemscore.Hbond>
3.0000

> <Gold.PLP.Chemscore.CHOScore>
1.0000

> <Gold.PLP.Chemscore.Metal>
0.0000

> <Gold.Chemscore.Hbonds>
donor molecule, donor type, donor heavy atom, donor atom, acceptor molecule, acceptor atom, score
      L1  H     2    44       P1  7948  1.54
      L1  H    12    36       P1  7948  1.00
      L1  C    15    39       P1 10175  0.79

> <Gold.PLP.Chemscore.Internal.Correction>
0.3793

> <Gold.Rescore>
     Score         DG    S(hbond)    S(metal)    S(lipo)     H(rot)  DE(clash)    DE(int)     intcor
     15.51     -19.41       1.98        0.00     114.08       2.36       3.30       0.59       ----

> <Gold.Chemscore.Fitness>
15.5142

> <Gold.Chemscore.DG>
-19.4115

> <Gold.Chemscore.ZeroCoef>
-5.4800

> <Gold.Chemscore.Hbond>
1.9849

> <Gold.Chemscore.Metal>
0.0000

> <Gold.Chemscore.Lipo>
114.0838

> <Gold.Chemscore.Internal_Hbond>
0.0000

> <Gold.Chemscore.DEClash>
3.3042

> <Gold.Chemscore.DEInternal>
0.5931

> <Gold.Chemscore.Rot>
2.3616

> <Gold.Chemscore.Internal.Correction>
   9.000000E+99

> <Gold.Chemscore.Hbonds>
donor molecule, donor type, donor heavy atom, donor atom, acceptor molecule, acceptor atom, score
      L1  H     2    44       P1  7948  0.76
      L1  H    12    36       P1  7948  1.00

> <Gold.Chemscore.Hbond.Weighted>
-6.6294

> <Gold.Chemscore.Metal.Weighted>
-0.0000

> <Gold.Chemscore.Lipo.Weighted>
-13.3478

> <Gold.Chemscore.Internal_Hbond.Weighted>
0.0000

> <Gold.Chemscore.DEClash.Weighted>
3.3042

> <Gold.Chemscore.DEInternal.Weighted>
0.5931

> <Gold.Chemscore.Rot.Weighted>
6.0457

> <Gold.Chemscore.Internal.Correction.Weighted>
   9.000000E+99

> <Gold.Protein.RotatedTorsions>
[ 6907 6896 6895 6894 ] final   -3.93 input  -60.11 | X-H torsion
[ 7974 7965 7964 7962 ] final   97.28 input  175.53 | X-H torsion
[ 8008 7997 7996 7995 ] final  -10.99 input   59.86 | X-H torsion
[ 10167 10162 10161 10158 ] final  -78.97 input  -65.29 | X-H torsion
[ 10718 10713 10712 10709 ] final   -7.15 input   66.30 | X-H torsion
[ 10763 10752 10751 10750 ] final    4.85 input  -60.55 | X-H torsion
[ 11005 11000 10999 10996 ] final  -34.29 input  -57.11 | X-H torsion

> <Gold.Protein.ActiveResidues>
 VAL166  LYS551  ARG553  GLY616  TRP617  ASP618  TYR619  PRO620  LYS621  CYS622 
 ASP623  PHE694  ASN695  SER759  ASP760  ASP761  ALA762  ILE779  LEU786  VAL792 
 PHE793  MET794  SER795  GLU796  ALA797  LYS798  CYS799  TRP800  GLU811  SER814 

> <Gold.Protein.RotatedAtoms>
  151.5058  135.1063  159.9840 H   0  0  0  0  0  0  0  0  0  0  0  0  # atno 6907 bound_to 6896
  152.4683  133.7967  159.6942 H   0  0  0  0  0  0  0  0  0  0  0  0  # atno 6908 bound_to 6896
  150.8678  133.7486  159.2997 H   0  0  0  0  0  0  0  0  0  0  0  0  # atno 6909 bound_to 6896
  145.4276  139.2314  143.3161 H   0  0  0  0  0  0  0  0  0  0  0  0  # atno 7974 bound_to 7965
  154.5505  140.2314  155.8493 H   0  0  0  0  0  0  0  0  0  0  0  0  # atno 8008 bound_to 7997
  156.1942  140.3069  155.9355 H   0  0  0  0  0  0  0  0  0  0  0  0  # atno 8009 bound_to 7997
  155.3080  140.0434  157.3024 H   0  0  0  0  0  0  0  0  0  0  0  0  # atno 8010 bound_to 7997
  140.4634  143.2447  151.8314 H   0  0  0  0  0  0  0  0  0  0  0  0  # atno 10167 bound_to 10162
  156.7214  130.5152  149.5867 H   0  0  0  0  0  0  0  0  0  0  0  0  # atno 10718 bound_to 10713
  153.2663  135.6928  153.7526 H   0  0  0  0  0  0  0  0  0  0  0  0  # atno 10763 bound_to 10752
  153.6566  135.3367  155.3116 H   0  0  0  0  0  0  0  0  0  0  0  0  # atno 10764 bound_to 10752
  154.8448  135.4467  154.1671 H   0  0  0  0  0  0  0  0  0  0  0  0  # atno 10765 bound_to 10752
  140.9704  133.7112  156.1515 H   0  0  0  0  0  0  0  0  0  0  0  0  # atno 11005 bound_to 11000
  146.2624  140.5009  142.8848 LP  0  0  0  0  0  0  0  0  0  0  0  0  # atno 17320 bound_to 7965
  144.8204  140.6539  143.6357 LP  0  0  0  0  0  0  0  0  0  0  0  0  # atno 17321 bound_to 7965
  139.4809  144.4980  151.9099 LP  0  0  0  0  0  0  0  0  0  0  0  0  # atno 17342 bound_to 10162
  140.4065  144.2425  150.5890 LP  0  0  0  0  0  0  0  0  0  0  0  0  # atno 17343 bound_to 10162
  156.1592  130.6362  151.0696 LP  0  0  0  0  0  0  0  0  0  0  0  0  # atno 17370 bound_to 10713
  157.6896  131.0814  150.7145 LP  0  0  0  0  0  0  0  0  0  0  0  0  # atno 17371 bound_to 10713
  140.7337  134.4227  157.5563 LP  0  0  0  0  0  0  0  0  0  0  0  0  # atno 17394 bound_to 11000
  139.8910  134.8790  156.2340 LP  0  0  0  0  0  0  0  0  0  0  0  0  # atno 17395 bound_to 11000

$$$$
