AV-unprocessed.smi:677|AV-procd|sdf|3312|dock1
  -GOLD-   22720 0273D 1   1.00000     0.00000
 Structure written by MMmdl.
 44 45  0  0  0  0  0  0  0  0  2 V2000
  144.1176  132.0801  150.9952 C   0  0  0  0  0  0  0  0  0  0  0  0
  144.2206  133.4741  151.5769 C   0  0  0  0  0  0  0  0  0  0  0  0
  144.8146  134.5444  150.8741 C   0  0  0  0  0  0  0  0  0  0  0  0
  144.8756  135.8167  151.4798 C   0  0  0  0  0  0  0  0  0  0  0  0
  144.3418  135.9939  152.7757 C   0  0  0  0  0  0  0  0  0  0  0  0
  144.3998  137.3483  153.4587 C   0  0  0  0  0  0  0  0  0  0  0  0
  145.7900  137.9605  153.2883 C   0  0  0  0  0  0  0  0  0  0  0  0
  146.7904  137.2810  153.5176 O   0  0  0  0  0  0  0  0  0  0  0  0
  145.8371  139.2329  152.8639 N   0  0  0  0  0  0  0  0  0  0  0  0
  147.0554  139.9924  152.5989 C   0  0  0  0  0  0  0  0  0  0  0  0
  147.9712  140.0800  153.8374 C   0  0  0  0  0  0  0  0  0  0  0  0
  148.5884  141.4768  154.0465 C   0  0  0  0  0  0  0  0  0  0  0  0
  149.5610  141.4863  155.2393 C   0  0  0  0  0  0  0  0  0  0  0  0
  150.6295  140.5076  155.0378 N   0  0  0  0  0  0  0  0  0  0  0  0
  151.5632  140.5939  156.1558 C   0  0  0  0  0  0  0  0  0  0  0  0
  152.5156  139.4711  156.1869 C   0  0  0  0  0  0  0  0  0  0  0  0
  153.2634  138.5884  156.2113 N   0  0  0  0  0  0  0  0  0  0  0  0
  150.0566  139.1618  154.9619 C   0  0  0  0  0  0  0  0  0  0  0  0
  149.1130  139.0538  153.7517 C   0  0  0  0  0  0  0  0  0  0  0  0
  143.7599  134.8863  153.4299 C   0  0  0  0  0  0  0  0  0  0  0  0
  143.7216  133.6838  152.8156 N   0  3  0  0  0  0  0  0  0  0  0  0
  144.5508  132.0378  149.9955 H   0  0  0  0  0  0  0  0  0  0  0  0
  143.0735  131.7731  150.9271 H   0  0  0  0  0  0  0  0  0  0  0  0
  144.6470  131.3657  151.6263 H   0  0  0  0  0  0  0  0  0  0  0  0
  145.2200  134.3953  149.8839 H   0  0  0  0  0  0  0  0  0  0  0  0
  145.3301  136.6448  150.9555 H   0  0  0  0  0  0  0  0  0  0  0  0
  143.6339  138.0070  153.0457 H   0  0  0  0  0  0  0  0  0  0  0  0
  144.1821  137.2383  154.5218 H   0  0  0  0  0  0  0  0  0  0  0  0
  144.9624  139.7119  152.7052 H   0  0  0  0  0  0  0  0  0  0  0  0
  147.5834  139.4859  151.7904 H   0  0  0  0  0  0  0  0  0  0  0  0
  146.8231  140.9914  152.2257 H   0  0  0  0  0  0  0  0  0  0  0  0
  147.3722  139.8404  154.7175 H   0  0  0  0  0  0  0  0  0  0  0  0
  149.1134  141.7913  153.1433 H   0  0  0  0  0  0  0  0  0  0  0  0
  147.8068  142.2159  154.2227 H   0  0  0  0  0  0  0  0  0  0  0  0
  149.9963  142.4808  155.3421 H   0  0  0  0  0  0  0  0  0  0  0  0
  149.0277  141.2733  156.1672 H   0  0  0  0  0  0  0  0  0  0  0  0
  152.1554  141.5061  156.0749 H   0  0  0  0  0  0  0  0  0  0  0  0
  151.0325  140.6305  157.1084 H   0  0  0  0  0  0  0  0  0  0  0  0
  150.8529  138.4245  154.8587 H   0  0  0  0  0  0  0  0  0  0  0  0
  149.5221  138.9274  155.8839 H   0  0  0  0  0  0  0  0  0  0  0  0
  148.7037  138.0445  153.6980 H   0  0  0  0  0  0  0  0  0  0  0  0
  149.6822  139.2048  152.8331 H   0  0  0  0  0  0  0  0  0  0  0  0
  143.3324  134.9240  154.4215 H   0  0  0  0  0  0  0  0  0  0  0  0
  143.2985  132.8981  153.3101 H   0  0  0  0  0  0  0  0  0  0  0  0
  1  2  1  0  0  0  0
  1 22  1  0  0  0  0
  1 23  1  0  0  0  0
  1 24  1  0  0  0  0
  2 21  1  0  0  0  0
  2  3  2  0  0  0  0
  3  4  1  0  0  0  0
  3 25  1  0  0  0  0
  4  5  2  0  0  0  0
  4 26  1  0  0  0  0
  5  6  1  0  0  0  0
  5 20  1  0  0  0  0
  6  7  1  0  0  0  0
  6 27  1  0  0  0  0
  6 28  1  0  0  0  0
  7  8  2  0  0  0  0
  7  9  1  0  0  0  0
  9 10  1  0  0  0  0
  9 29  1  0  0  0  0
 10 11  1  0  0  0  0
 10 30  1  0  0  0  0
 10 31  1  0  0  0  0
 11 19  1  0  0  0  0
 11 12  1  0  0  0  0
 11 32  1  0  0  0  0
 12 13  1  0  0  0  0
 12 33  1  0  0  0  0
 12 34  1  0  0  0  0
 13 14  1  0  0  0  0
 13 35  1  0  0  0  0
 13 36  1  0  0  0  0
 14 15  1  0  0  0  0
 14 18  1  0  0  0  0
 15 16  1  0  0  0  0
 15 37  1  0  0  0  0
 15 38  1  0  0  0  0
 16 17  3  0  0  0  0
 18 19  1  0  0  0  0
 18 39  1  0  0  0  0
 18 40  1  0  0  0  0
 19 41  1  0  0  0  0
 19 42  1  0  0  0  0
 20 21  2  0  0  0  0
 20 43  1  0  0  0  0
 21 44  1  0  0  0  0
M  CHG  1  21   1
M  END
> <s_m_source_file>
AV-unprocessed.smi

> <i_m_source_file_index>
677

> <i_lp_mmshare_version>
43012

> <i_f3d_flags>
0

> <s_epik_input>
W0NIM11jMVtjSF1bY0hdYyhbY0hdbjEpW0NIMl1DKD1PKVtOSF1bQ0gyXVtDSF0yW0NIMl1bQ0gyXU4oW0NIMl1DI04pW0NIMl1bQ0gyXTI=

> <s_epik_cmdline>
J2VwaWtfcHl0aG9uJywgJy1waCcsICc3LjAnLCAnLXRuJywgJzgnLCAnLW1hJywgJzIwMCcsICctbWV0YWxfYmluZGluZycsICctaW1hZScsICc8aW5maWxlLm1hZT4nLCAnLW9tYWUnLCAnPG91dGZpbGUubWFlPic=

> <r_epik_Ionization_Penalty>
2.12868

> <r_epik_Ionization_Penalty_Charging>
2.12771

> <r_epik_Ionization_Penalty_Neutral>
0.000970756

> <r_epik_State_Penalty>
2.26584

> <r_epik_Charging_Adjusted_Penalty>
4.39355

> <i_epik_Tot_Q>
1

> <i_epik_Tot_abs_Q>
1

> <r_epik_Metal_State_Penalty>
2.28211

> <b_epik_Metal_Only>
0

> <s_lp_Force_Field>
OPLS_2005

> <r_lp_Energy>
22.0212

> <b_lp_Chiralities_Consistent>
1

> <s_lp_Variant>
AV-unprocessed.smi:677-2

> <Gold.Version>
5.8.1

> <Gold.Id.Protein>
6NUR|6NUR_protein|mol2

> <Gold.PLP.Fitness>
44.9485

> <Gold.PLP.PLP>
-34.8113

> <Gold.PLP.part.hbond>
-4.0000

> <Gold.PLP.part.metal>
0.0000

> <Gold.PLP.part.buried>
1.3327

> <Gold.PLP.part.nonpolar>
-33.3774

> <Gold.PLP.part.repulsive>
1.6541

> <Gold.PLP.ligand.clash>
0.0000

> <Gold.PLP.ligand.torsion>
0.9539

> <Gold.PLP.Chemscore.Hbond>
4.0000

> <Gold.PLP.Chemscore.CHOScore>
0.0000

> <Gold.PLP.Chemscore.Metal>
0.0000

> <Gold.Chemscore.Hbonds>
donor molecule, donor type, donor heavy atom, donor atom, acceptor molecule, acceptor atom, score
      L1  H     9    29       P1 10175  0.94
      L1  H    21    44       P1 10957  2.00
      P1  H  7989  7998       L1    14  1.00

> <Gold.PLP.Chemscore.Internal.Correction>
0.0450

> <Gold.Rescore>
     Score         DG    S(hbond)    S(metal)    S(lipo)     H(rot)  DE(clash)    DE(int)     intcor
     13.91     -16.42       1.95        0.00      78.41       1.86       1.48       1.03       ----

> <Gold.Chemscore.Fitness>
13.9115

> <Gold.Chemscore.DG>
-16.4214

> <Gold.Chemscore.ZeroCoef>
-5.4800

> <Gold.Chemscore.Hbond>
1.9544

> <Gold.Chemscore.Metal>
0.0000

> <Gold.Chemscore.Lipo>
78.4102

> <Gold.Chemscore.Internal_Hbond>
0.0000

> <Gold.Chemscore.DEClash>
1.4805

> <Gold.Chemscore.DEInternal>
1.0295

> <Gold.Chemscore.Rot>
1.8595

> <Gold.Chemscore.Internal.Correction>
   9.000000E+99

> <Gold.Chemscore.Hbonds>
donor molecule, donor type, donor heavy atom, donor atom, acceptor molecule, acceptor atom, score
      L1  H     9    29       P1 10175  0.90
      L1  H    21    44       P1 10957  0.64
      P1  H  7989  7998       L1    14  0.32

> <Gold.Chemscore.Hbond.Weighted>
-6.5277

> <Gold.Chemscore.Metal.Weighted>
-0.0000

> <Gold.Chemscore.Lipo.Weighted>
-9.1740

> <Gold.Chemscore.Internal_Hbond.Weighted>
0.0000

> <Gold.Chemscore.DEClash.Weighted>
1.4805

> <Gold.Chemscore.DEInternal.Weighted>
1.0295

> <Gold.Chemscore.Rot.Weighted>
4.7603

> <Gold.Chemscore.Internal.Correction.Weighted>
   9.000000E+99

> <Gold.Protein.RotatedTorsions>
[ 6907 6896 6895 6894 ] final  123.82 input  -60.11 | X-H torsion
[ 7974 7965 7964 7962 ] final   22.97 input  175.53 | X-H torsion
[ 8008 7997 7996 7995 ] final  -33.19 input   59.86 | X-H torsion
[ 10167 10162 10161 10158 ] final   22.43 input  -65.29 | X-H torsion
[ 10718 10713 10712 10709 ] final -113.40 input   66.30 | X-H torsion
[ 10763 10752 10751 10750 ] final   61.61 input  -60.55 | X-H torsion
[ 11005 11000 10999 10996 ] final -117.06 input  -57.11 | X-H torsion

> <Gold.Protein.ActiveResidues>
 VAL166  LYS551  ARG553  GLY616  TRP617  ASP618  TYR619  PRO620  LYS621  CYS622 
 ASP623  PHE694  ASN695  SER759  ASP760  ASP761  ALA762  ILE779  LEU786  VAL792 
 PHE793  MET794  SER795  GLU796  ALA797  LYS798  CYS799  TRP800  GLU811  SER814 

> <Gold.Protein.RotatedAtoms>
  152.4130  133.6993  159.6414 H   0  0  0  0  0  0  0  0  0  0  0  0  # atno 6907 bound_to 6896
  150.8009  133.8590  159.3235 H   0  0  0  0  0  0  0  0  0  0  0  0  # atno 6908 bound_to 6896
  151.6328  135.1023  160.0176 H   0  0  0  0  0  0  0  0  0  0  0  0  # atno 6909 bound_to 6896
  146.2005  139.7810  142.8765 H   0  0  0  0  0  0  0  0  0  0  0  0  # atno 7974 bound_to 7965
  154.4156  140.1717  156.1847 H   0  0  0  0  0  0  0  0  0  0  0  0  # atno 8008 bound_to 7997
  155.9653  140.3390  155.6503 H   0  0  0  0  0  0  0  0  0  0  0  0  # atno 8009 bound_to 7997
  155.6696  140.0710  157.2515 H   0  0  0  0  0  0  0  0  0  0  0  0  # atno 8010 bound_to 7997
  140.5349  143.9778  150.6486 H   0  0  0  0  0  0  0  0  0  0  0  0  # atno 10167 bound_to 10162
  156.0764  130.5971  150.8637 H   0  0  0  0  0  0  0  0  0  0  0  0  # atno 10718 bound_to 10713
  152.9956  135.5494  154.6061 H   0  0  0  0  0  0  0  0  0  0  0  0  # atno 10763 bound_to 10752
  154.5392  135.2818  155.1113 H   0  0  0  0  0  0  0  0  0  0  0  0  # atno 10764 bound_to 10752
  154.2397  135.6418  153.5256 H   0  0  0  0  0  0  0  0  0  0  0  0  # atno 10765 bound_to 10752
  141.0380  133.9880  157.3040 H   0  0  0  0  0  0  0  0  0  0  0  0  # atno 11005 bound_to 11000
  145.3499  141.0305  143.3344 LP  0  0  0  0  0  0  0  0  0  0  0  0  # atno 17320 bound_to 7965
  144.8673  139.5089  143.6784 LP  0  0  0  0  0  0  0  0  0  0  0  0  # atno 17321 bound_to 7965
  140.3163  143.3166  152.0829 LP  0  0  0  0  0  0  0  0  0  0  0  0  # atno 17342 bound_to 10162
  139.4967  144.6603  151.6479 LP  0  0  0  0  0  0  0  0  0  0  0  0  # atno 17343 bound_to 10162
  157.5862  131.0945  150.9193 LP  0  0  0  0  0  0  0  0  0  0  0  0  # atno 17370 bound_to 10713
  156.9378  130.5373  149.5280 LP  0  0  0  0  0  0  0  0  0  0  0  0  # atno 17371 bound_to 10713
  139.9255  135.0201  156.8217 LP  0  0  0  0  0  0  0  0  0  0  0  0  # atno 17394 bound_to 11000
  140.6287  133.9926  155.7651 LP  0  0  0  0  0  0  0  0  0  0  0  0  # atno 17395 bound_to 11000

$$$$
