#       Name:                AV-unprocessed.smi:3303
#       Creating user name   scv26
#       Creation time:       Fri Mar 27 19:00:39 2020


#       File generated by GOLD software.
#

@<TRIPOS>MOLECULE
AV-unprocessed.smi:3303
    46    47     1
SMALL
NO_CHARGES


@<TRIPOS>ATOM
      1 ****        -0.4120  -2.2293   2.3773 C.3            1 S1                 0.0000
      2 ****        -0.9860  -0.8179   2.1316 C.3            1 S1                 0.0000
      3 ****        -2.5255  -0.8207   2.2016 C.3            1 S1                 0.0000
      4 ****        -3.1401  -1.5206   1.0412 N.4            1 S1                 1.0000
      5 ****        -4.6094  -1.6318   1.2117 C.3            1 S1                 0.0000
      6 ****        -2.7233  -0.9255  -0.2655 C.3            1 S1                 0.0000
      7 ****        -3.3107  -1.6806  -1.4739 C.3            1 S1                 0.0000
      8 ****        -1.1833  -0.8830  -0.3856 C.3            1 S1                 0.0000
      9 ****        -0.5314  -0.1626   0.8098 C.3            1 S1                 0.0000
     10 ****         0.9471  -0.1215   0.7123 N.4            1 S1                 1.0000
     11 ****         1.4922   0.8298  -0.2792 C.3            1 S1                 0.0000
     12 ****         3.0270   0.8343  -0.2486 C.3            1 S1                 0.0000
     13 ****         3.6205   1.8061  -1.2510 C.ar           1 S1                 0.0000
     14 ****         4.1465   3.0466  -0.8306 C.ar           1 S1                 0.0000
     15 ****         4.6887   3.9090  -1.8033 C.ar           1 S1                 0.0000
     16 ****         4.6810   3.5013  -3.1512 C.ar           1 S1                 0.0000
     17 ****         4.1302   2.2435  -3.4682 C.ar           1 S1                 0.0000
     18 ****         3.6086   1.4084  -2.5431 N.ar           1 S1                 0.0000
     19 ****        -0.7312  -2.9419   1.6170 H              1 S1                 0.0000
     20 ****        -0.7406  -2.6172   3.3421 H              1 S1                 0.0000
     21 ****         0.6779  -2.2251   2.3918 H              1 S1                 0.0000
     22 ****        -0.6274  -0.1906   2.9491 H              1 S1                 0.0000
     23 ****        -2.8460  -1.2940   3.1310 H              1 S1                 0.0000
     24 ****        -2.8966   0.2051   2.2352 H              1 S1                 0.0000
     25 ****        -5.0910  -0.6589   1.1043 H              1 S1                 0.0000
     26 ****        -4.8557  -2.0234   2.1994 H              1 S1                 0.0000
     27 ****        -5.0481  -2.3185   0.4885 H              1 S1                 0.0000
     28 ****        -3.0947   0.1003  -0.2976 H              1 S1                 0.0000
     29 ****        -2.9123  -1.2872  -2.4096 H              1 S1                 0.0000
     30 ****        -4.3941  -1.5801  -1.5346 H              1 S1                 0.0000
     31 ****        -3.0699  -2.7435  -1.4354 H              1 S1                 0.0000
     32 ****        -0.7889  -1.8962  -0.4730 H              1 S1                 0.0000
     33 ****        -0.9188  -0.3773  -1.3143 H              1 S1                 0.0000
     34 ****        -0.8836   0.8706   0.8211 H              1 S1                 0.0000
     35 ****         1.3062   0.1532   1.6157 H              1 S1                 0.0000
     36 ****         1.1474   0.5609  -1.2774 H              1 S1                 0.0000
     37 ****         1.1157   1.8308  -0.0649 H              1 S1                 0.0000
     38 ****         3.3797   1.0903   0.7514 H              1 S1                 0.0000
     39 ****         3.4089  -0.1652  -0.4622 H              1 S1                 0.0000
     40 ****         4.1394   3.3332   0.2108 H              1 S1                 0.0000
     41 ****         5.1031   4.8655  -1.5205 H              1 S1                 0.0000
     42 ****         5.0879   4.1371  -3.9236 H              1 S1                 0.0000
     43 ****         4.1082   1.8992  -4.4916 H              1 S1                 0.0000
     44 ****         1.2886  -1.0492   0.5040 H              1 S1                 0.0000
     45 ****        -2.7829  -2.4655   1.0571 H              1 S1                 0.0000
     46 ****         3.2253   0.5230  -2.8061 LP             1 S1                 0.0000
@<TRIPOS>BOND
    1    1    2 1     
    2    1   19 1     
    3    1   20 1     
    4    1   21 1     
    5    2    9 1     
    6    2    3 1     
    7    2   22 1     
    8    3    4 1     
    9    3   23 1     
   10    3   24 1     
   11    4    5 1     
   12    4    6 1     
   13    4   45 1     
   14    5   25 1     
   15    5   26 1     
   16    5   27 1     
   17    6    7 1     
   18    6    8 1     
   19    6   28 1     
   20    7   29 1     
   21    7   30 1     
   22    7   31 1     
   23    8    9 1     
   24    8   32 1     
   25    8   33 1     
   26    9   10 1     
   27    9   34 1     
   28   10   11 1     
   29   10   35 1     
   30   10   44 1     
   31   11   12 1     
   32   11   36 1     
   33   11   37 1     
   34   12   13 1     
   35   12   38 1     
   36   12   39 1     
   37   13   18 ar    
   38   13   14 ar    
   39   14   15 ar    
   40   14   40 1     
   41   15   16 ar    
   42   15   41 1     
   43   16   17 ar    
   44   16   42 1     
   45   17   18 ar    
   46   17   43 1     
   47   18   46 1     
@<TRIPOS>SUBSTRUCTURE
      1 S1             1
@<TRIPOS>SET
LONE_PAIRS      STATIC     ATOMS    <user>   **** ""
1 46
DONOR_HYDROGENS      STATIC     ATOMS    <user>   **** ""
3 45 35 44
ATOM$BLUE        STATIC     ATOMS    COLORGROUP SYSTEM
1 46
ATOM$RED        STATIC     ATOMS    COLORGROUP SYSTEM
3 45 35 44
