AV-unprocessed.smi:2226|AV-procd|sdf|9005|dock4
  -GOLD-   2272012213D 1   1.00000     0.00000
 Structure written by MMmdl.
 41 43  0  0  0  0  0  0  0  0  3 V2000
  146.5790  138.5082  152.0454 C   0  0  0  0  0  0  0  0  0  0  0  0
  147.5031  138.5532  153.2038 N   0  3  2  0  0  0  0  0  0  0  0  0
  146.8471  138.4366  154.5282 C   0  0  2  0  0  0  0  0  0  0  0  0
  146.0330  139.7095  154.8714 C   0  0  0  0  0  0  0  0  0  0  0  0
  146.8227  141.0225  154.7215 C   0  0  0  0  0  0  0  0  0  0  0  0
  147.7168  141.0354  153.4693 C   0  0  0  0  0  0  0  0  0  0  0  0
  148.4475  139.6961  153.2029 C   0  0  1  0  0  0  0  0  0  0  0  0
  149.6191  139.3868  154.1643 C   0  0  0  0  0  0  0  0  0  0  0  0
  149.2217  138.8444  155.5662 C   0  0  1  0  0  0  0  0  0  0  0  0
  149.2302  139.8694  156.6088 N   0  0  0  0  0  0  0  0  0  0  0  0
  150.2291  140.7333  156.8493 C   0  0  0  0  0  0  0  0  0  0  0  0
  151.2691  140.7730  156.1916 O   0  0  0  0  0  0  0  0  0  0  0  0
  149.9504  141.5378  157.8864 N   0  0  0  0  0  0  0  0  0  0  0  0
  150.7832  142.5706  158.3750 C   0  0  0  0  0  0  0  0  0  0  0  0
  150.7520  143.8259  157.9308 N   0  3  0  0  0  0  0  0  0  0  0  0
  151.6896  144.5586  158.6156 C   0  0  0  0  0  0  0  0  0  0  0  0
  152.2839  143.6808  159.4902 C   0  0  0  0  0  0  0  0  0  0  0  0
  151.7244  142.4265  159.3509 O   0  0  0  0  0  0  0  0  0  0  0  0
  147.9039  138.0276  155.5810 C   0  0  0  0  0  0  0  0  0  0  0  0
  145.8928  139.3545  152.0286 H   0  0  0  0  0  0  0  0  0  0  0  0
  145.9856  137.5938  152.0690 H   0  0  0  0  0  0  0  0  0  0  0  0
  147.1409  138.5112  151.1110 H   0  0  0  0  0  0  0  0  0  0  0  0
  146.1364  137.6105  154.4743 H   0  0  0  0  0  0  0  0  0  0  0  0
  145.1645  139.7561  154.2137 H   0  0  0  0  0  0  0  0  0  0  0  0
  145.6260  139.6352  155.8803 H   0  0  0  0  0  0  0  0  0  0  0  0
  146.1272  141.8613  154.6792 H   0  0  0  0  0  0  0  0  0  0  0  0
  147.4172  141.2103  155.6088 H   0  0  0  0  0  0  0  0  0  0  0  0
  147.0949  141.2734  152.6060 H   0  0  0  0  0  0  0  0  0  0  0  0
  148.4384  141.8500  153.5380 H   0  0  0  0  0  0  0  0  0  0  0  0
  148.8826  139.7650  152.2046 H   0  0  0  0  0  0  0  0  0  0  0  0
  150.2229  138.6141  153.6856 H   0  0  0  0  0  0  0  0  0  0  0  0
  150.2821  140.2490  154.2420 H   0  0  0  0  0  0  0  0  0  0  0  0
  150.0059  138.1454  155.8647 H   0  0  0  0  0  0  0  0  0  0  0  0
  148.4148  139.9122  157.2031 H   0  0  0  0  0  0  0  0  0  0  0  0
  150.1540  144.2159  157.2130 H   0  0  0  0  0  0  0  0  0  0  0  0
  151.8381  145.6104  158.4165 H   0  0  0  0  0  0  0  0  0  0  0  0
  153.0661  143.7781  160.2292 H   0  0  0  0  0  0  0  0  0  0  0  0
  147.4640  138.0125  156.5793 H   0  0  0  0  0  0  0  0  0  0  0  0
  148.1685  136.9892  155.3755 H   0  0  0  0  0  0  0  0  0  0  0  0
  148.0741  137.7257  153.1061 H   0  0  0  0  0  0  0  0  0  0  0  0
  149.0699  141.4059  158.3615 H   0  0  0  0  0  0  0  0  0  0  0  0
  1  2  1  0  0  0  0
  1 20  1  0  0  0  0
  1 21  1  0  0  0  0
  1 22  1  0  0  0  0
  2  7  1  0  0  0  0
  2  3  1  0  0  0  0
  2 40  1  0  0  0  0
  3 19  1  0  0  0  0
  3  4  1  0  0  0  0
  3 23  1  0  0  0  0
  4  5  1  0  0  0  0
  4 24  1  0  0  0  0
  4 25  1  0  0  0  0
  5  6  1  0  0  0  0
  5 26  1  0  0  0  0
  5 27  1  0  0  0  0
  6  7  1  0  0  0  0
  6 28  1  0  0  0  0
  6 29  1  0  0  0  0
  7  8  1  0  0  0  0
  7 30  1  0  0  0  0
  8  9  1  0  0  0  0
  8 31  1  0  0  0  0
  8 32  1  0  0  0  0
  9 10  1  0  0  0  0
  9 19  1  0  0  0  0
  9 33  1  0  0  0  0
 10 34  1  0  0  0  0
 10 11  1  0  0  0  0
 11 13  1  0  0  0  0
 11 12  2  0  0  0  0
 13 14  1  0  0  0  0
 13 41  1  0  0  0  0
 14 18  1  0  0  0  0
 14 15  2  0  0  0  0
 15 35  1  0  0  0  0
 15 16  1  0  0  0  0
 16 36  1  0  0  0  0
 16 17  2  0  0  0  0
 17 37  1  0  0  0  0
 17 18  1  0  0  0  0
 19 38  1  0  0  0  0
 19 39  1  0  0  0  0
M  CHG  1   2   1
M  CHG  1  15   1
M  END
> <s_m_source_file>
AV-unprocessed.smi

> <i_m_source_file_index>
2226

> <i_lp_mmshare_version>
43012

> <i_f3d_flags>
0

> <s_epik_input>
W0NIMl0xW0NIMl1bQ0gyXVtDQEhdKE4oW0NIM10pW0NIXTEyKVtDSDJdW0NASF0oW0NIMl0yKVtOSF1DKD1PKVtOSF1jM25bY0hdW2NIXW8z

> <s_epik_cmdline>
J2VwaWtfcHl0aG9uJywgJy1waCcsICc3LjAnLCAnLXRuJywgJzgnLCAnLW1hJywgJzIwMCcsICctbWV0YWxfYmluZGluZycsICctaW1hZScsICc8aW5maWxlLm1hZT4nLCAnLW9tYWUnLCAnPG91dGZpbGUubWFlPic=

> <r_epik_Ionization_Penalty>
6.92532

> <r_epik_Ionization_Penalty_Charging>
6.82059

> <r_epik_Ionization_Penalty_Neutral>
0.104727

> <r_epik_State_Penalty>
2.17671

> <r_epik_Charging_Adjusted_Penalty>
8.99731

> <i_epik_Tot_Q>
2

> <i_epik_Tot_abs_Q>
2

> <r_epik_Metal_State_Penalty>
2.20618

> <b_epik_Metal_Only>
0

> <s_lp_Force_Field>
OPLS_2005

> <r_lp_Energy>
47.9723

> <b_lp_Chiralities_Consistent>
1

> <s_lp_Variant>
AV-unprocessed.smi:2226-5

> <Gold.Version>
5.8.1

> <Gold.Id.Protein>
6NUR|6NUR_protein|mol2

> <Gold.PLP.Fitness>
35.1271

> <Gold.PLP.PLP>
-24.8224

> <Gold.PLP.part.hbond>
-2.3660

> <Gold.PLP.part.metal>
0.0000

> <Gold.PLP.part.buried>
2.9674

> <Gold.PLP.part.nonpolar>
-26.0232

> <Gold.PLP.part.repulsive>
0.1819

> <Gold.PLP.ligand.clash>
0.0000

> <Gold.PLP.ligand.torsion>
0.8009

> <Gold.PLP.Chemscore.Hbond>
3.9500

> <Gold.PLP.Chemscore.CHOScore>
0.0000

> <Gold.PLP.Chemscore.Metal>
0.0000

> <Gold.Chemscore.Hbonds>
donor molecule, donor type, donor heavy atom, donor atom, acceptor molecule, acceptor atom, score
      L1  H     2    40       P1  7948  1.49
      L1  H    15    35       P1  8028  1.95

> <Gold.PLP.Chemscore.Internal.Correction>
0.0566

> <Gold.Rescore>
     Score         DG    S(hbond)    S(metal)    S(lipo)     H(rot)  DE(clash)    DE(int)     intcor
     13.27     -17.08       1.74        0.00      71.26       1.00       2.01       1.80       ----

> <Gold.Chemscore.Fitness>
13.2745

> <Gold.Chemscore.DG>
-17.0838

> <Gold.Chemscore.ZeroCoef>
-5.4800

> <Gold.Chemscore.Hbond>
1.7444

> <Gold.Chemscore.Metal>
0.0000

> <Gold.Chemscore.Lipo>
71.2611

> <Gold.Chemscore.Internal_Hbond>
0.0000

> <Gold.Chemscore.DEClash>
2.0109

> <Gold.Chemscore.DEInternal>
1.7984

> <Gold.Chemscore.Rot>
1.0000

> <Gold.Chemscore.Internal.Correction>
   9.000000E+99

> <Gold.Chemscore.Hbonds>
donor molecule, donor type, donor heavy atom, donor atom, acceptor molecule, acceptor atom, score
      L1  H     2    40       P1  7948  0.72
      L1  H    15    35       P1  8028  0.72

> <Gold.Chemscore.Hbond.Weighted>
-5.8263

> <Gold.Chemscore.Metal.Weighted>
-0.0000

> <Gold.Chemscore.Lipo.Weighted>
-8.3376

> <Gold.Chemscore.Internal_Hbond.Weighted>
0.0000

> <Gold.Chemscore.DEClash.Weighted>
2.0109

> <Gold.Chemscore.DEInternal.Weighted>
1.7984

> <Gold.Chemscore.Rot.Weighted>
2.5600

> <Gold.Chemscore.Internal.Correction.Weighted>
   9.000000E+99

> <Gold.Protein.RotatedTorsions>
[ 6907 6896 6895 6894 ] final   52.59 input  -60.11 | X-H torsion
[ 7974 7965 7964 7962 ] final  -99.93 input  175.53 | X-H torsion
[ 8008 7997 7996 7995 ] final -142.25 input   59.86 | X-H torsion
[ 10167 10162 10161 10158 ] final  -73.44 input  -65.29 | X-H torsion
[ 10718 10713 10712 10709 ] final  -42.44 input   66.30 | X-H torsion
[ 10763 10752 10751 10750 ] final -132.98 input  -60.55 | X-H torsion
[ 11005 11000 10999 10996 ] final  -17.58 input  -57.11 | X-H torsion

> <Gold.Protein.ActiveResidues>
 VAL166  LYS551  ARG553  GLY616  TRP617  ASP618  TYR619  PRO620  LYS621  CYS622 
 ASP623  PHE694  ASN695  SER759  ASP760  ASP761  ALA762  ILE779  LEU786  VAL792 
 PHE793  MET794  SER795  GLU796  ALA797  LYS798  CYS799  TRP800  GLU811  SER814 

> <Gold.Protein.RotatedAtoms>
  152.3249  134.7333  160.0304 H   0  0  0  0  0  0  0  0  0  0  0  0  # atno 6907 bound_to 6896
  151.7769  133.3341  159.3468 H   0  0  0  0  0  0  0  0  0  0  0  0  # atno 6908 bound_to 6896
  150.7390  134.5898  159.6026 H   0  0  0  0  0  0  0  0  0  0  0  0  # atno 6909 bound_to 6896
  145.3011  140.9377  143.2823 H   0  0  0  0  0  0  0  0  0  0  0  0  # atno 7974 bound_to 7965
  155.4912  140.0568  157.2953 H   0  0  0  0  0  0  0  0  0  0  0  0  # atno 8008 bound_to 7997
  154.4622  140.2002  156.0164 H   0  0  0  0  0  0  0  0  0  0  0  0  # atno 8009 bound_to 7997
  156.0911  140.3233  155.7822 H   0  0  0  0  0  0  0  0  0  0  0  0  # atno 8010 bound_to 7997
  140.5110  143.2345  151.7593 H   0  0  0  0  0  0  0  0  0  0  0  0  # atno 10167 bound_to 10162
  156.2595  130.4195  149.8558 H   0  0  0  0  0  0  0  0  0  0  0  0  # atno 10718 bound_to 10713
  154.8737  135.3780  154.4499 H   0  0  0  0  0  0  0  0  0  0  0  0  # atno 10763 bound_to 10752
  153.5176  135.7029  153.5753 H   0  0  0  0  0  0  0  0  0  0  0  0  # atno 10764 bound_to 10752
  153.4015  135.3947  155.1956 H   0  0  0  0  0  0  0  0  0  0  0  0  # atno 10765 bound_to 10752
  140.8183  133.8088  155.9633 H   0  0  0  0  0  0  0  0  0  0  0  0  # atno 11005 bound_to 11000
  144.9093  139.4549  143.6595 LP  0  0  0  0  0  0  0  0  0  0  0  0  # atno 17320 bound_to 7965
  146.3151  139.7891  142.8989 LP  0  0  0  0  0  0  0  0  0  0  0  0  # atno 17321 bound_to 7965
  139.4896  144.4390  151.9786 LP  0  0  0  0  0  0  0  0  0  0  0  0  # atno 17342 bound_to 10162
  140.3482  144.3120  150.5954 LP  0  0  0  0  0  0  0  0  0  0  0  0  # atno 17343 bound_to 10162
  156.6078  130.8574  151.3447 LP  0  0  0  0  0  0  0  0  0  0  0  0  # atno 17370 bound_to 10713
  157.7245  130.9604  150.1577 LP  0  0  0  0  0  0  0  0  0  0  0  0  # atno 17371 bound_to 10713
  140.9126  134.2241  157.4976 LP  0  0  0  0  0  0  0  0  0  0  0  0  # atno 17394 bound_to 11000
  139.8710  134.9757  156.4892 LP  0  0  0  0  0  0  0  0  0  0  0  0  # atno 17395 bound_to 11000

$$$$
