AV-unprocessed.smi:2072|AV-procd|sdf|8447|dock3
  -GOLD-   2272011143D 1   1.00000     0.00000
 Structure written by MMmdl.
 40 42  0  0  0  0  0  0  0  0  2 V2000
  145.5822  137.9457  154.0664 O   0  0  0  0  0  0  0  0  0  0  0  0
  146.5664  137.4178  153.5507 C   0  0  0  0  0  0  0  0  0  0  0  0
  147.7918  137.9629  153.4573 N   0  0  0  0  0  0  0  0  0  0  0  0
  148.2546  139.2333  153.9018 C   0  0  0  0  0  0  0  0  0  0  0  0
  147.5124  140.4388  153.8362 C   0  0  0  0  0  0  0  0  0  0  0  0
  148.1010  141.6272  154.3096 C   0  0  0  0  0  0  0  0  0  0  0  0
  149.4086  141.5716  154.8283 C   0  0  0  0  0  0  0  0  0  0  0  0
  150.1296  140.4332  154.8938 N   0  0  0  0  0  0  0  0  0  0  0  0
  149.5588  139.2977  154.4383 C   0  0  0  0  0  0  0  0  0  0  0  0
  146.5410  136.1915  153.0091 N   0  0  0  0  0  0  0  0  0  0  0  0
  145.3656  135.3272  152.9426 C   0  0  1  0  0  0  0  0  0  0  0  0
  144.1904  135.9701  152.1849 C   0  0  0  0  0  0  0  0  0  0  0  0
  143.5201  134.8151  151.4148 C   0  0  0  0  0  0  0  0  0  0  0  0
  144.2589  133.6003  151.8094 N   0  3  1  0  0  0  0  0  0  0  0  0
  144.2397  132.4630  150.8639 C   0  0  0  0  0  0  0  0  0  0  0  0
  144.9845  131.2682  151.4919 C   0  0  0  0  0  0  0  0  0  0  0  0
  146.4022  131.6594  151.9555 C   0  0  0  0  0  0  0  0  0  0  0  0
  146.3684  132.9061  152.8607 C   0  0  0  0  0  0  0  0  0  0  0  0
  145.6204  134.0445  152.1456 C   0  0  2  0  0  0  0  0  0  0  0  0
  148.4960  137.3845  153.0226 H   0  0  0  0  0  0  0  0  0  0  0  0
  146.5140  140.4887  153.4333 H   0  0  0  0  0  0  0  0  0  0  0  0
  147.5616  142.5621  154.2741 H   0  0  0  0  0  0  0  0  0  0  0  0
  149.8881  142.4658  155.1985 H   0  0  0  0  0  0  0  0  0  0  0  0
  150.1672  138.4075  154.5062 H   0  0  0  0  0  0  0  0  0  0  0  0
  147.3951  135.8331  152.6072 H   0  0  0  0  0  0  0  0  0  0  0  0
  145.0240  135.0687  153.9474 H   0  0  0  0  0  0  0  0  0  0  0  0
  143.4980  136.4580  152.8719 H   0  0  0  0  0  0  0  0  0  0  0  0
  144.5381  136.7266  151.4795 H   0  0  0  0  0  0  0  0  0  0  0  0
  142.4607  134.7157  151.6529 H   0  0  0  0  0  0  0  0  0  0  0  0
  143.6121  134.9791  150.3400 H   0  0  0  0  0  0  0  0  0  0  0  0
  143.2080  132.1887  150.6414 H   0  0  0  0  0  0  0  0  0  0  0  0
  144.7078  132.7536  149.9222 H   0  0  0  0  0  0  0  0  0  0  0  0
  144.4168  130.8981  152.3468 H   0  0  0  0  0  0  0  0  0  0  0  0
  145.0380  130.4445  150.7794 H   0  0  0  0  0  0  0  0  0  0  0  0
  146.8695  130.8260  152.4809 H   0  0  0  0  0  0  0  0  0  0  0  0
  147.0248  131.8622  151.0831 H   0  0  0  0  0  0  0  0  0  0  0  0
  145.8779  132.6683  153.8055 H   0  0  0  0  0  0  0  0  0  0  0  0
  147.3860  133.2124  153.1036 H   0  0  0  0  0  0  0  0  0  0  0  0
  146.1431  134.2961  151.2196 H   0  0  0  0  0  0  0  0  0  0  0  0
  143.8435  133.2803  152.6728 H   0  0  0  0  0  0  0  0  0  0  0  0
  1  2  2  0  0  0  0
  2  3  1  0  0  0  0
  2 10  1  0  0  0  0
  3  4  1  0  0  0  0
  3 20  1  0  0  0  0
  4  9  1  0  0  0  0
  4  5  2  0  0  0  0
  5  6  1  0  0  0  0
  5 21  1  0  0  0  0
  6  7  2  0  0  0  0
  6 22  1  0  0  0  0
  7  8  1  0  0  0  0
  7 23  1  0  0  0  0
  8  9  2  0  0  0  0
  9 24  1  0  0  0  0
 10 11  1  0  0  0  0
 10 25  1  0  0  0  0
 11 19  1  0  0  0  0
 11 12  1  0  0  0  0
 11 26  1  0  0  0  0
 12 13  1  0  0  0  0
 12 27  1  0  0  0  0
 12 28  1  0  0  0  0
 13 14  1  0  0  0  0
 13 29  1  0  0  0  0
 13 30  1  0  0  0  0
 14 19  1  0  0  0  0
 14 15  1  0  0  0  0
 14 40  1  0  0  0  0
 15 16  1  0  0  0  0
 15 31  1  0  0  0  0
 15 32  1  0  0  0  0
 16 17  1  0  0  0  0
 16 33  1  0  0  0  0
 16 34  1  0  0  0  0
 17 18  1  0  0  0  0
 17 35  1  0  0  0  0
 17 36  1  0  0  0  0
 18 19  1  0  0  0  0
 18 37  1  0  0  0  0
 18 38  1  0  0  0  0
 19 39  1  0  0  0  0
M  CHG  1  14   1
M  END
> <s_m_source_file>
AV-unprocessed.smi

> <i_m_source_file_index>
2072

> <i_lp_mmshare_version>
43012

> <i_f3d_flags>
0

> <s_epik_input>
W0NIMl0xW0NIMl1bQ0gyXVtDSDJdW0NASF0oTjEyKVtDQEBIXShbQ0gyXVtDSDJdMilbTkhdQyg9TylbTkhdYzNbY0hdW2NIXVtjSF1uW2NIXTM=

> <s_epik_cmdline>
J2VwaWtfcHl0aG9uJywgJy1waCcsICc3LjAnLCAnLXRuJywgJzgnLCAnLW1hJywgJzIwMCcsICctbWV0YWxfYmluZGluZycsICctaW1hZScsICc8aW5maWxlLm1hZT4nLCAnLW9tYWUnLCAnPG91dGZpbGUubWFlPic=

> <r_lp_tautomer_probability>
1

> <r_epik_Ionization_Penalty>
0.00482425

> <r_epik_Ionization_Penalty_Charging>
0.000974069

> <r_epik_Ionization_Penalty_Neutral>
0.00385018

> <r_epik_State_Penalty>
-0

> <r_epik_Charging_Adjusted_Penalty>
0.000974069

> <i_epik_Tot_Q>
1

> <i_epik_Tot_abs_Q>
1

> <r_epik_Metal_State_Penalty>
-0

> <b_epik_Metal_Only>
0

> <s_lp_Force_Field>
OPLS_2005

> <r_lp_Energy>
37.8914

> <b_lp_Chiralities_Consistent>
1

> <s_lp_Variant>
AV-unprocessed.smi:2072-6

> <Gold.Version>
5.8.1

> <Gold.Id.Protein>
6NUR|6NUR_protein|mol2

> <Gold.PLP.Fitness>
40.3773

> <Gold.PLP.PLP>
-29.2607

> <Gold.PLP.part.hbond>
-3.0000

> <Gold.PLP.part.metal>
0.0000

> <Gold.PLP.part.buried>
-0.6643

> <Gold.PLP.part.nonpolar>
-25.3782

> <Gold.PLP.part.repulsive>
0.2622

> <Gold.PLP.ligand.clash>
0.0000

> <Gold.PLP.ligand.torsion>
0.3021

> <Gold.PLP.Chemscore.Hbond>
2.9040

> <Gold.PLP.Chemscore.CHOScore>
1.0000

> <Gold.PLP.Chemscore.Metal>
0.0000

> <Gold.Chemscore.Hbonds>
donor molecule, donor type, donor heavy atom, donor atom, acceptor molecule, acceptor atom, score
      L1  H     3    20       P1  7948  1.00
      L1  H    10    25       P1  7948  0.94
      P1  H  7989  7998       L1     8  0.78
      L1  C     7    23       P1  8028  0.98

> <Gold.PLP.Chemscore.Internal.Correction>
0.0088

> <Gold.Rescore>
     Score         DG    S(hbond)    S(metal)    S(lipo)     H(rot)  DE(clash)    DE(int)     intcor
     17.66     -20.34       2.32        0.00      82.55       1.00       1.79       0.90       ----

> <Gold.Chemscore.Fitness>
17.6568

> <Gold.Chemscore.DG>
-20.3406

> <Gold.Chemscore.ZeroCoef>
-5.4800

> <Gold.Chemscore.Hbond>
2.3239

> <Gold.Chemscore.Metal>
0.0000

> <Gold.Chemscore.Lipo>
82.5534

> <Gold.Chemscore.Internal_Hbond>
0.0000

> <Gold.Chemscore.DEClash>
1.7852

> <Gold.Chemscore.DEInternal>
0.8986

> <Gold.Chemscore.Rot>
1.0000

> <Gold.Chemscore.Internal.Correction>
   9.000000E+99

> <Gold.Chemscore.Hbonds>
donor molecule, donor type, donor heavy atom, donor atom, acceptor molecule, acceptor atom, score
      L1  H     3    20       P1  7948  0.95
      L1  H    10    25       P1  7948  0.91
      P1  H  7989  7998       L1     8  0.08

> <Gold.Chemscore.Hbond.Weighted>
-7.7619

> <Gold.Chemscore.Metal.Weighted>
-0.0000

> <Gold.Chemscore.Lipo.Weighted>
-9.6588

> <Gold.Chemscore.Internal_Hbond.Weighted>
0.0000

> <Gold.Chemscore.DEClash.Weighted>
1.7852

> <Gold.Chemscore.DEInternal.Weighted>
0.8986

> <Gold.Chemscore.Rot.Weighted>
2.5600

> <Gold.Chemscore.Internal.Correction.Weighted>
   9.000000E+99

> <Gold.Protein.RotatedTorsions>
[ 6907 6896 6895 6894 ] final   27.56 input  -60.11 | X-H torsion
[ 7974 7965 7964 7962 ] final   12.90 input  175.53 | X-H torsion
[ 8008 7997 7996 7995 ] final -118.34 input   59.86 | X-H torsion
[ 10167 10162 10161 10158 ] final -110.93 input  -65.29 | X-H torsion
[ 10718 10713 10712 10709 ] final  -22.82 input   66.30 | X-H torsion
[ 10763 10752 10751 10750 ] final  -93.25 input  -60.55 | X-H torsion
[ 11005 11000 10999 10996 ] final   74.80 input  -57.11 | X-H torsion

> <Gold.Protein.ActiveResidues>
 VAL166  LYS551  ARG553  GLY616  TRP617  ASP618  TYR619  PRO620  LYS621  CYS622 
 ASP623  PHE694  ASN695  SER759  ASP760  ASP761  ALA762  ILE779  LEU786  VAL792 
 PHE793  MET794  SER795  GLU796  ALA797  LYS798  CYS799  TRP800  GLU811  SER814 

> <Gold.Protein.RotatedAtoms>
  152.0041  134.9912  160.0565 H   0  0  0  0  0  0  0  0  0  0  0  0  # atno 6907 bound_to 6896
  152.1491  133.4506  159.4813 H   0  0  0  0  0  0  0  0  0  0  0  0  # atno 6908 bound_to 6896
  150.6873  134.2129  159.4409 H   0  0  0  0  0  0  0  0  0  0  0  0  # atno 6909 bound_to 6896
  146.2341  139.9268  142.8502 H   0  0  0  0  0  0  0  0  0  0  0  0  # atno 7974 bound_to 7965
  155.0981  140.0395  157.2689 H   0  0  0  0  0  0  0  0  0  0  0  0  # atno 8008 bound_to 7997
  154.6779  140.2626  155.6913 H   0  0  0  0  0  0  0  0  0  0  0  0  # atno 8009 bound_to 7997
  156.2683  140.2784  156.1312 H   0  0  0  0  0  0  0  0  0  0  0  0  # atno 8010 bound_to 7997
  140.1391  143.4294  152.1574 H   0  0  0  0  0  0  0  0  0  0  0  0  # atno 10167 bound_to 10162
  156.4993  130.4584  149.6710 H   0  0  0  0  0  0  0  0  0  0  0  0  # atno 10718 bound_to 10713
  154.6941  135.5201  153.8433 H   0  0  0  0  0  0  0  0  0  0  0  0  # atno 10763 bound_to 10752
  153.0654  135.6583  154.0376 H   0  0  0  0  0  0  0  0  0  0  0  0  # atno 10764 bound_to 10752
  154.0246  135.2990  155.3356 H   0  0  0  0  0  0  0  0  0  0  0  0  # atno 10765 bound_to 10752
  139.9374  134.7463  156.1192 H   0  0  0  0  0  0  0  0  0  0  0  0  # atno 11005 bound_to 11000
  145.2083  140.9884  143.4116 LP  0  0  0  0  0  0  0  0  0  0  0  0  # atno 17320 bound_to 7965
  144.9714  139.3877  143.6307 LP  0  0  0  0  0  0  0  0  0  0  0  0  # atno 17321 bound_to 7965
  139.5481  144.7315  151.4520 LP  0  0  0  0  0  0  0  0  0  0  0  0  # atno 17342 bound_to 10162
  140.6771  143.8165  150.7073 LP  0  0  0  0  0  0  0  0  0  0  0  0  # atno 17343 bound_to 10162
  156.3348  130.7351  151.2286 LP  0  0  0  0  0  0  0  0  0  0  0  0  # atno 17370 bound_to 10713
  157.7465  131.0420  150.4672 LP  0  0  0  0  0  0  0  0  0  0  0  0  # atno 17371 bound_to 10713
  141.0994  133.6683  156.2719 LP  0  0  0  0  0  0  0  0  0  0  0  0  # atno 17394 bound_to 11000
  140.6040  134.5526  157.5522 LP  0  0  0  0  0  0  0  0  0  0  0  0  # atno 17395 bound_to 11000

$$$$
