AV-unprocessed.smi:21|AV-procd|sdf|155|dock10
  -GOLD-   2262015383D 1   1.00000     0.00000
 Structure written by MMmdl.
 61 64  0  0  0  0  0  0  0  0  1 V2000
  151.9529  143.7155  162.6662 C   0  0  0  0  0  0  0  0  0  0  0  0
  152.2875  142.5105  161.9969 O   0  0  0  0  0  0  0  0  0  0  0  0
  152.6099  142.6974  160.6260 C   0  0  1  0  0  0  0  0  0  0  0  0
  152.7366  141.3414  159.9143 C   0  0  0  0  0  0  0  0  0  0  0  0
  151.6393  141.3606  158.8378 C   0  0  2  0  0  0  0  0  0  0  0  0
  151.9699  140.4979  157.6003 C   0  0  0  0  0  0  0  0  0  0  0  0
  150.8095  140.3014  156.7261 N   0  0  0  0  0  0  0  0  0  0  0  0
  150.7226  141.1256  155.5266 C   0  0  0  0  0  0  0  0  0  0  0  0
  149.7239  139.5885  157.1494 C   0  0  0  0  0  0  0  0  0  0  0  0
  148.5007  139.9275  156.6606 N   0  0  0  0  0  0  0  0  0  0  0  0
  147.4025  139.2642  157.0274 C   0  0  0  0  0  0  0  0  0  0  0  0
  147.2939  138.2379  157.8688 N   0  0  0  0  0  0  0  0  0  0  0  0
  148.5074  137.8888  158.3798 C   0  0  0  0  0  0  0  0  0  0  0  0
  149.7612  138.5012  158.0795 C   0  0  0  0  0  0  0  0  0  0  0  0
  150.7665  137.8533  158.7920 N   0  0  0  0  0  0  0  0  0  0  0  0
  150.1481  136.9269  159.4696 C   0  0  0  0  0  0  0  0  0  0  0  0
  148.7869  136.8799  159.2857 N   0  0  0  0  0  0  0  0  0  0  0  0
  147.8643  135.9489  159.9140 C   0  0  0  0  0  0  0  0  0  0  0  0
  148.4993  134.5492  160.1364 C   0  0  2  0  0  0  0  0  0  0  0  0
  148.8801  133.8969  158.7883 C   0  0  0  0  0  0  0  0  0  0  0  0
  147.7815  133.8930  157.9001 O   0  0  0  0  0  0  0  0  0  0  0  0
  147.5717  133.6193  160.9603 C   0  0  2  0  0  0  0  0  0  0  0  0
  146.1710  133.4497  160.3979 C   0  0  0  0  0  0  0  0  0  0  0  0
  145.3932  132.9350  161.6030 C   0  0  0  0  0  0  0  0  0  0  0  0
  146.0034  133.5349  162.7389 O   0  0  0  0  0  0  0  0  0  0  0  0
  147.2418  134.1314  162.3678 C   0  0  0  0  0  0  0  0  0  0  0  0
  151.4307  142.7718  158.5540 N   0  0  0  0  0  0  0  0  0  0  0  0
  150.1837  143.0557  157.8564 C   0  0  0  0  0  0  0  0  0  0  0  0
  151.4803  143.3989  159.8600 C   0  0  0  0  0  0  0  0  0  0  0  0
  153.5488  143.2442  160.5202 H   0  0  0  0  0  0  0  0  0  0  0  0
  150.7284  140.9709  159.2962 H   0  0  0  0  0  0  0  0  0  0  0  0
  151.7300  143.5015  163.7113 H   0  0  0  0  0  0  0  0  0  0  0  0
  151.0740  144.1886  162.2271 H   0  0  0  0  0  0  0  0  0  0  0  0
  152.7817  144.4239  162.6390 H   0  0  0  0  0  0  0  0  0  0  0  0
  153.7248  141.2680  159.4594 H   0  0  0  0  0  0  0  0  0  0  0  0
  152.6211  140.4942  160.5914 H   0  0  0  0  0  0  0  0  0  0  0  0
  152.7339  140.9954  157.0034 H   0  0  0  0  0  0  0  0  0  0  0  0
  152.4268  139.5572  157.9068 H   0  0  0  0  0  0  0  0  0  0  0  0
  150.3850  140.5366  154.6736 H   0  0  0  0  0  0  0  0  0  0  0  0
  151.6963  141.5447  155.2707 H   0  0  0  0  0  0  0  0  0  0  0  0
  150.0346  141.9576  155.6798 H   0  0  0  0  0  0  0  0  0  0  0  0
  146.4795  139.6054  156.5824 H   0  0  0  0  0  0  0  0  0  0  0  0
  150.6723  136.2491  160.1269 H   0  0  0  0  0  0  0  0  0  0  0  0
  147.5073  136.3815  160.8488 H   0  0  0  0  0  0  0  0  0  0  0  0
  146.9807  135.8856  159.2778 H   0  0  0  0  0  0  0  0  0  0  0  0
  149.4228  134.6664  160.7072 H   0  0  0  0  0  0  0  0  0  0  0  0
  149.6857  134.4439  158.2995 H   0  0  0  0  0  0  0  0  0  0  0  0
  149.2310  132.8751  158.9360 H   0  0  0  0  0  0  0  0  0  0  0  0
  147.4102  133.0239  157.8851 H   0  0  0  0  0  0  0  0  0  0  0  0
  148.0290  132.6321  161.0477 H   0  0  0  0  0  0  0  0  0  0  0  0
  145.7690  134.4103  160.0724 H   0  0  0  0  0  0  0  0  0  0  0  0
  146.1238  132.7558  159.5593 H   0  0  0  0  0  0  0  0  0  0  0  0
  144.3309  133.1729  161.5465 H   0  0  0  0  0  0  0  0  0  0  0  0
  145.4945  131.8524  161.6862 H   0  0  0  0  0  0  0  0  0  0  0  0
  148.0190  133.8902  163.0933 H   0  0  0  0  0  0  0  0  0  0  0  0
  147.1087  135.2141  162.3647 H   0  0  0  0  0  0  0  0  0  0  0  0
  150.0554  144.1304  157.7254 H   0  0  0  0  0  0  0  0  0  0  0  0
  149.3239  142.6772  158.4106 H   0  0  0  0  0  0  0  0  0  0  0  0
  150.1770  142.6022  156.8657 H   0  0  0  0  0  0  0  0  0  0  0  0
  150.5355  143.2374  160.3824 H   0  0  0  0  0  0  0  0  0  0  0  0
  151.6362  144.4754  159.7837 H   0  0  0  0  0  0  0  0  0  0  0  0
  1  2  1  0  0  0  0
  1 32  1  0  0  0  0
  1 33  1  0  0  0  0
  1 34  1  0  0  0  0
  2  3  1  0  0  0  0
  3 30  1  0  0  0  0
  3 29  1  0  0  0  0
  3  4  1  0  0  0  0
  4  5  1  0  0  0  0
  4 35  1  0  0  0  0
  4 36  1  0  0  0  0
  5 31  1  0  0  0  0
  5  6  1  0  0  0  0
  5 27  1  0  0  0  0
  6  7  1  0  0  0  0
  6 37  1  0  0  0  0
  6 38  1  0  0  0  0
  7  8  1  0  0  0  0
  7  9  1  0  0  0  0
  8 39  1  0  0  0  0
  8 40  1  0  0  0  0
  8 41  1  0  0  0  0
  9 14  1  0  0  0  0
  9 10  2  0  0  0  0
 10 11  1  0  0  0  0
 11 12  2  0  0  0  0
 11 42  1  0  0  0  0
 12 13  1  0  0  0  0
 13 17  1  0  0  0  0
 13 14  2  0  0  0  0
 14 15  1  0  0  0  0
 15 16  2  0  0  0  0
 16 17  1  0  0  0  0
 16 43  1  0  0  0  0
 17 18  1  0  0  0  0
 18 19  1  0  0  0  0
 18 44  1  0  0  0  0
 18 45  1  0  0  0  0
 19 20  1  0  0  0  0
 19 22  1  0  0  0  0
 19 46  1  0  0  0  0
 20 21  1  0  0  0  0
 20 47  1  0  0  0  0
 20 48  1  0  0  0  0
 21 49  1  0  0  0  0
 22 26  1  0  0  0  0
 22 23  1  0  0  0  0
 22 50  1  0  0  0  0
 23 24  1  0  0  0  0
 23 51  1  0  0  0  0
 23 52  1  0  0  0  0
 24 25  1  0  0  0  0
 24 53  1  0  0  0  0
 24 54  1  0  0  0  0
 25 26  1  0  0  0  0
 26 55  1  0  0  0  0
 26 56  1  0  0  0  0
 27 28  1  0  0  0  0
 27 29  1  0  0  0  0
 28 57  1  0  0  0  0
 28 58  1  0  0  0  0
 28 59  1  0  0  0  0
 29 60  1  0  0  0  0
 29 61  1  0  0  0  0
M  END
> <s_m_source_file>
AV-unprocessed.smi

> <i_m_source_file_index>
21

> <i_lp_mmshare_version>
43012

> <i_f3d_flags>
0

> <s_epik_input>
W0NIM11PW0NASF0xW0NIMl1bQ0BIXShOKFtDSDNdKVtDSDJdMSlbQ0gyXU4oW0NIM10pYyhuW2NIXW4yKWMoYzIzKW5bY0hdbjNbQ0gyXVtDQEhdKFtDSDJdW09IXSlbQ0BASF00W0NIMl1bQ0gyXU9bQ0gyXTQ=

> <s_epik_cmdline>
J2VwaWtfcHl0aG9uJywgJy1waCcsICc3LjAnLCAnLXRuJywgJzgnLCAnLW1hJywgJzIwMCcsICctbWV0YWxfYmluZGluZycsICctaW1hZScsICc8aW5maWxlLm1hZT4nLCAnLW9tYWUnLCAnPG91dGZpbGUubWFlPic=

> <r_lp_tautomer_probability>
1

> <r_epik_Ionization_Penalty>
2.17574

> <r_epik_Ionization_Penalty_Charging>
0

> <r_epik_Ionization_Penalty_Neutral>
2.17574

> <r_epik_State_Penalty>
2.31336

> <r_epik_Charging_Adjusted_Penalty>
2.31336

> <i_epik_Tot_Q>
0

> <i_epik_Tot_abs_Q>
0

> <r_epik_Metal_State_Penalty>
2.31025

> <b_epik_Metal_Only>
0

> <s_lp_Force_Field>
OPLS_2005

> <r_lp_Energy>
70.8096

> <b_lp_Chiralities_Consistent>
1

> <s_lp_Variant>
AV-unprocessed.smi:21-35

> <Gold.Version>
5.8.1

> <Gold.Id.Protein>
6NUR|6NUR_protein|mol2

> <Gold.PLP.Fitness>
44.1615

> <Gold.PLP.PLP>
-45.5690

> <Gold.PLP.part.hbond>
-1.8478

> <Gold.PLP.part.metal>
0.0000

> <Gold.PLP.part.buried>
-4.6649

> <Gold.PLP.part.nonpolar>
-38.3623

> <Gold.PLP.part.repulsive>
0.1062

> <Gold.PLP.ligand.clash>
0.0000

> <Gold.PLP.ligand.torsion>
0.9678

> <Gold.PLP.Chemscore.Hbond>
0.0000

> <Gold.PLP.Chemscore.CHOScore>
0.0000

> <Gold.PLP.Chemscore.Metal>
0.0000

> <Gold.Chemscore.Hbonds>
donor molecule, donor type, donor heavy atom, donor atom, acceptor molecule, acceptor atom, score
      P1  H  6933  6945       L1     2  0.07

> <Gold.PLP.Chemscore.Internal.Correction>
0.5280

> <Gold.Rescore>
     Score         DG    S(hbond)    S(metal)    S(lipo)     H(rot)  DE(clash)    DE(int)     intcor
      8.45     -11.00       0.00        0.00     112.89       3.00       1.04       1.50       ----

> <Gold.Chemscore.Fitness>
8.4548

> <Gold.Chemscore.DG>
-11.0003

> <Gold.Chemscore.ZeroCoef>
-5.4800

> <Gold.Chemscore.Hbond>
0.0000

> <Gold.Chemscore.Metal>
0.0000

> <Gold.Chemscore.Lipo>
112.8914

> <Gold.Chemscore.Internal_Hbond>
0.0000

> <Gold.Chemscore.DEClash>
1.0440

> <Gold.Chemscore.DEInternal>
1.5015

> <Gold.Chemscore.Rot>
3.0031

> <Gold.Chemscore.Internal.Correction>
   9.000000E+99

> <Gold.Chemscore.Hbond.Weighted>
-0.0000

> <Gold.Chemscore.Metal.Weighted>
-0.0000

> <Gold.Chemscore.Lipo.Weighted>
-13.2083

> <Gold.Chemscore.Internal_Hbond.Weighted>
0.0000

> <Gold.Chemscore.DEClash.Weighted>
1.0440

> <Gold.Chemscore.DEInternal.Weighted>
1.5015

> <Gold.Chemscore.Rot.Weighted>
7.6880

> <Gold.Chemscore.Internal.Correction.Weighted>
   9.000000E+99

> <Gold.Protein.RotatedTorsions>
[ 6907 6896 6895 6894 ] final -130.70 input  -60.11 | X-H torsion
[ 7974 7965 7964 7962 ] final -107.31 input  175.53 | X-H torsion
[ 8008 7997 7996 7995 ] final    6.43 input   59.86 | X-H torsion
[ 10167 10162 10161 10158 ] final  127.75 input  -65.29 | X-H torsion
[ 10718 10713 10712 10709 ] final  123.48 input   66.30 | X-H torsion
[ 10763 10752 10751 10750 ] final  141.02 input  -60.55 | X-H torsion
[ 11005 11000 10999 10996 ] final -104.07 input  -57.11 | X-H torsion

> <Gold.Protein.ActiveResidues>
 VAL166  LYS551  ARG553  GLY616  TRP617  ASP618  TYR619  PRO620  LYS621  CYS622 
 ASP623  PHE694  ASN695  SER759  ASP760  ASP761  ALA762  ILE779  LEU786  VAL792 
 PHE793  MET794  SER795  GLU796  ALA797  LYS798  CYS799  TRP800  GLU811  SER814 

> <Gold.Protein.RotatedAtoms>
  150.9426  133.6639  159.2787 H   0  0  0  0  0  0  0  0  0  0  0  0  # atno 6907 bound_to 6896
  151.4023  135.0971  159.9569 H   0  0  0  0  0  0  0  0  0  0  0  0  # atno 6908 bound_to 6896
  152.5076  133.8917  159.7452 H   0  0  0  0  0  0  0  0  0  0  0  0  # atno 6909 bound_to 6896
  145.2069  140.9080  143.3337 H   0  0  0  0  0  0  0  0  0  0  0  0  # atno 7974 bound_to 7965
  154.7410  140.2749  155.6373 H   0  0  0  0  0  0  0  0  0  0  0  0  # atno 8008 bound_to 7997
  156.2873  140.2697  156.2063 H   0  0  0  0  0  0  0  0  0  0  0  0  # atno 8009 bound_to 7997
  155.0259  140.0371  157.2445 H   0  0  0  0  0  0  0  0  0  0  0  0  # atno 8010 bound_to 7997
  139.5562  144.6850  151.4175 H   0  0  0  0  0  0  0  0  0  0  0  0  # atno 10167 bound_to 10162
  157.5662  131.1086  150.8451 H   0  0  0  0  0  0  0  0  0  0  0  0  # atno 10718 bound_to 10713
  153.9323  135.2989  155.3445 H   0  0  0  0  0  0  0  0  0  0  0  0  # atno 10763 bound_to 10752
  154.7520  135.4975  153.9310 H   0  0  0  0  0  0  0  0  0  0  0  0  # atno 10764 bound_to 10752
  153.1085  135.6753  153.9648 H   0  0  0  0  0  0  0  0  0  0  0  0  # atno 10765 bound_to 10752
  141.1117  133.8693  157.1566 H   0  0  0  0  0  0  0  0  0  0  0  0  # atno 11005 bound_to 11000
  144.9893  139.3705  143.6222 LP  0  0  0  0  0  0  0  0  0  0  0  0  # atno 17320 bound_to 7965
  146.3406  139.9069  142.8786 LP  0  0  0  0  0  0  0  0  0  0  0  0  # atno 17321 bound_to 7965
  140.6835  143.8027  150.7154 LP  0  0  0  0  0  0  0  0  0  0  0  0  # atno 17342 bound_to 10162
  140.1488  143.4376  152.2145 LP  0  0  0  0  0  0  0  0  0  0  0  0  # atno 17343 bound_to 10162
  156.8935  130.5221  149.5285 LP  0  0  0  0  0  0  0  0  0  0  0  0  # atno 17370 bound_to 10713
  156.0710  130.5743  150.9382 LP  0  0  0  0  0  0  0  0  0  0  0  0  # atno 17371 bound_to 10713
  140.0015  135.0026  157.0199 LP  0  0  0  0  0  0  0  0  0  0  0  0  # atno 17394 bound_to 11000
  140.4757  134.1341  155.7209 LP  0  0  0  0  0  0  0  0  0  0  0  0  # atno 17395 bound_to 11000

$$$$
