AV-unprocessed.smi:3253|AV-procd|sdf|12447|dock9
  -GOLD-   2272018343D 1   1.00000     0.00000
 Structure written by MMmdl.
 37 38  0  0  0  0  0  0  0  0  2 V2000
  150.6468  139.7023  155.6645 C   0  0  0  0  0  0  0  0  0  0  0  0
  150.1305  141.0822  156.1029 C   0  0  2  0  0  0  0  0  0  0  0  0
  149.5835  141.9235  154.9281 C   0  0  0  0  0  0  0  0  0  0  0  0
  148.4465  141.2898  154.2548 N   0  0  0  0  0  0  0  0  0  0  0  0
  148.4085  140.0534  153.6623 C   0  0  0  0  0  0  0  0  0  0  0  0
  147.1389  139.8964  153.1683 C   0  0  0  0  0  0  0  0  0  0  0  0
  146.4583  141.0445  153.4751 N   0  3  0  0  0  0  0  0  0  0  0  0
  147.2562  141.8916  154.1334 C   0  0  0  0  0  0  0  0  0  0  0  0
  151.2017  141.8001  156.7874 N   0  0  0  0  0  0  0  0  0  0  0  0
  151.2115  142.1144  158.0924 C   0  0  0  0  0  0  0  0  0  0  0  0
  150.2878  141.8377  158.8589 O   0  0  0  0  0  0  0  0  0  0  0  0
  152.4542  142.8546  158.6115 C   0  0  1  0  0  0  0  0  0  0  0  0
  152.0676  144.1443  159.3640 C   0  0  0  0  0  0  0  0  0  0  0  0
  152.4523  143.8593  160.8062 C   0  0  0  0  0  0  0  0  0  0  0  0
  152.2025  144.6324  161.7297 O   0  0  0  0  0  0  0  0  0  0  0  0
  153.0714  142.6803  160.9117 N   0  0  0  0  0  0  0  0  0  0  0  0
  153.5671  142.0868  162.1461 C   0  0  0  0  0  0  0  0  0  0  0  0
  153.2566  142.0172  159.6323 C   0  0  0  0  0  0  0  0  0  0  0  0
  149.8507  139.0958  155.2324 H   0  0  0  0  0  0  0  0  0  0  0  0
  151.0500  139.1473  156.5124 H   0  0  0  0  0  0  0  0  0  0  0  0
  151.4383  139.7932  154.9196 H   0  0  0  0  0  0  0  0  0  0  0  0
  149.3232  140.9148  156.8188 H   0  0  0  0  0  0  0  0  0  0  0  0
  149.2546  142.9062  155.2699 H   0  0  0  0  0  0  0  0  0  0  0  0
  150.3620  142.0939  154.1830 H   0  0  0  0  0  0  0  0  0  0  0  0
  149.2635  139.3931  153.6394 H   0  0  0  0  0  0  0  0  0  0  0  0
  146.6814  139.0762  152.6345 H   0  0  0  0  0  0  0  0  0  0  0  0
  146.9910  142.8684  154.4979 H   0  0  0  0  0  0  0  0  0  0  0  0
  152.0011  142.0671  156.2308 H   0  0  0  0  0  0  0  0  0  0  0  0
  153.0976  143.1035  157.7656 H   0  0  0  0  0  0  0  0  0  0  0  0
  152.6378  144.9988  158.9983 H   0  0  0  0  0  0  0  0  0  0  0  0
  151.0070  144.3926  159.2946 H   0  0  0  0  0  0  0  0  0  0  0  0
  154.3112  142.7347  162.6108 H   0  0  0  0  0  0  0  0  0  0  0  0
  154.0317  141.1184  161.9577 H   0  0  0  0  0  0  0  0  0  0  0  0
  152.7500  141.9383  162.8531 H   0  0  0  0  0  0  0  0  0  0  0  0
  152.9262  140.9784  159.6889 H   0  0  0  0  0  0  0  0  0  0  0  0
  154.3178  142.0108  159.3796 H   0  0  0  0  0  0  0  0  0  0  0  0
  145.4916  141.2294  153.2371 H   0  0  0  0  0  0  0  0  0  0  0  0
  1  2  1  0  0  0  0
  1 19  1  0  0  0  0
  1 20  1  0  0  0  0
  1 21  1  0  0  0  0
  2  3  1  0  0  0  0
  2  9  1  0  0  0  0
  2 22  1  0  0  0  0
  3  4  1  0  0  0  0
  3 23  1  0  0  0  0
  3 24  1  0  0  0  0
  4  8  1  0  0  0  0
  4  5  1  0  0  0  0
  5  6  2  0  0  0  0
  5 25  1  0  0  0  0
  6  7  1  0  0  0  0
  6 26  1  0  0  0  0
  7  8  2  0  0  0  0
  7 37  1  0  0  0  0
  8 27  1  0  0  0  0
  9 10  1  0  0  0  0
  9 28  1  0  0  0  0
 10 11  2  0  0  0  0
 10 12  1  0  0  0  0
 12 18  1  0  0  0  0
 12 13  1  0  0  0  0
 12 29  1  0  0  0  0
 13 14  1  0  0  0  0
 13 30  1  0  0  0  0
 13 31  1  0  0  0  0
 14 15  2  0  0  0  0
 14 16  1  0  0  0  0
 16 17  1  0  0  0  0
 16 18  1  0  0  0  0
 17 32  1  0  0  0  0
 17 33  1  0  0  0  0
 17 34  1  0  0  0  0
 18 35  1  0  0  0  0
 18 36  1  0  0  0  0
M  CHG  1   7   1
M  END
> <s_m_source_file>
AV-unprocessed.smi

> <i_m_source_file_index>
3253

> <i_lp_mmshare_version>
43012

> <i_f3d_flags>
0

> <s_epik_input>
W2NIXTFuW2NIXVtjSF1uMVtDSDJdW0NAQEhdKFtDSDNdKVtOSF1DKD1PKVtDQEBIXTJbQ0gyXUMoPU8pTihbQ0gzXSlbQ0gyXTI=

> <s_epik_cmdline>
J2VwaWtfcHl0aG9uJywgJy1waCcsICc3LjAnLCAnLXRuJywgJzgnLCAnLW1hJywgJzIwMCcsICctbWV0YWxfYmluZGluZycsICctaW1hZScsICc8aW5maWxlLm1hZT4nLCAnLW9tYWUnLCAnPG91dGZpbGUubWFlPic=

> <r_lp_tautomer_probability>
1

> <r_epik_Ionization_Penalty>
0.251561

> <r_epik_Ionization_Penalty_Charging>
0

> <r_epik_Ionization_Penalty_Neutral>
0.251561

> <r_epik_State_Penalty>
0.242926

> <r_epik_Charging_Adjusted_Penalty>
0.242926

> <i_epik_Tot_Q>
1

> <i_epik_Tot_abs_Q>
1

> <r_epik_Metal_State_Penalty>
0.533885

> <b_epik_Metal_Only>
0

> <s_lp_Force_Field>
OPLS_2005

> <r_lp_Energy>
14.6529

> <b_lp_Chiralities_Consistent>
1

> <s_lp_Variant>
AV-unprocessed.smi:3253-3

> <Gold.Version>
5.8.1

> <Gold.Id.Protein>
6NUR|6NUR_protein|mol2

> <Gold.PLP.Fitness>
47.0699

> <Gold.PLP.PLP>
-40.4988

> <Gold.PLP.part.hbond>
-1.7886

> <Gold.PLP.part.metal>
0.0000

> <Gold.PLP.part.buried>
0.6054

> <Gold.PLP.part.nonpolar>
-39.5521

> <Gold.PLP.part.repulsive>
1.2202

> <Gold.PLP.ligand.clash>
0.0000

> <Gold.PLP.ligand.torsion>
0.1189

> <Gold.PLP.Chemscore.Hbond>
1.9840

> <Gold.PLP.Chemscore.CHOScore>
0.2770

> <Gold.PLP.Chemscore.Metal>
0.0000

> <Gold.Chemscore.Hbonds>
donor molecule, donor type, donor heavy atom, donor atom, acceptor molecule, acceptor atom, score
      L1  H     7    37       P1 10175  1.57
      L1  C     5    25       P1  7957  0.15
      L1  C     8    27       P1  8028  0.19

> <Gold.PLP.Chemscore.Internal.Correction>
0.0259

> <Gold.Rescore>
     Score         DG    S(hbond)    S(metal)    S(lipo)     H(rot)  DE(clash)    DE(int)     intcor
     10.67     -12.53       0.99        0.00      76.45       2.03       0.76       1.11       ----

> <Gold.Chemscore.Fitness>
10.6670

> <Gold.Chemscore.DG>
-12.5337

> <Gold.Chemscore.ZeroCoef>
-5.4800

> <Gold.Chemscore.Hbond>
0.9927

> <Gold.Chemscore.Metal>
0.0000

> <Gold.Chemscore.Lipo>
76.4544

> <Gold.Chemscore.Internal_Hbond>
0.0000

> <Gold.Chemscore.DEClash>
0.7554

> <Gold.Chemscore.DEInternal>
1.1113

> <Gold.Chemscore.Rot>
2.0341

> <Gold.Chemscore.Internal.Correction>
   9.000000E+99

> <Gold.Chemscore.Hbonds>
donor molecule, donor type, donor heavy atom, donor atom, acceptor molecule, acceptor atom, score
      L1  H     7    37       P1 10175  0.17

> <Gold.Chemscore.Hbond.Weighted>
-3.3157

> <Gold.Chemscore.Metal.Weighted>
-0.0000

> <Gold.Chemscore.Lipo.Weighted>
-8.9452

> <Gold.Chemscore.Internal_Hbond.Weighted>
0.0000

> <Gold.Chemscore.DEClash.Weighted>
0.7554

> <Gold.Chemscore.DEInternal.Weighted>
1.1113

> <Gold.Chemscore.Rot.Weighted>
5.2072

> <Gold.Chemscore.Internal.Correction.Weighted>
   9.000000E+99

> <Gold.Protein.RotatedTorsions>
[ 6907 6896 6895 6894 ] final -150.10 input  -60.11 | X-H torsion
[ 7974 7965 7964 7962 ] final   80.31 input  175.53 | X-H torsion
[ 8008 7997 7996 7995 ] final -138.31 input   59.86 | X-H torsion
[ 10167 10162 10161 10158 ] final  -50.25 input  -65.29 | X-H torsion
[ 10718 10713 10712 10709 ] final   97.28 input   66.30 | X-H torsion
[ 10763 10752 10751 10750 ] final -119.51 input  -60.55 | X-H torsion
[ 11005 11000 10999 10996 ] final -151.86 input  -57.11 | X-H torsion

> <Gold.Protein.ActiveResidues>
 VAL166  LYS551  ARG553  GLY616  TRP617  ASP618  TYR619  PRO620  LYS621  CYS622 
 ASP623  PHE694  ASN695  SER759  ASP760  ASP761  ALA762  ILE779  LEU786  VAL792 
 PHE793  MET794  SER795  GLU796  ALA797  LYS798  CYS799  TRP800  GLU811  SER814 

> <Gold.Protein.RotatedAtoms>
  151.1937  133.4652  159.2594 H   0  0  0  0  0  0  0  0  0  0  0  0  # atno 6907 bound_to 6896
  151.1138  135.0041  159.8517 H   0  0  0  0  0  0  0  0  0  0  0  0  # atno 6908 bound_to 6896
  152.5452  134.1854  159.8705 H   0  0  0  0  0  0  0  0  0  0  0  0  # atno 6909 bound_to 6896
  145.6528  139.2452  143.1967 H   0  0  0  0  0  0  0  0  0  0  0  0  # atno 7974 bound_to 7965
  155.4262  140.0522  157.3022 H   0  0  0  0  0  0  0  0  0  0  0  0  # atno 8008 bound_to 7997
  154.4880  140.2108  155.9570 H   0  0  0  0  0  0  0  0  0  0  0  0  # atno 8009 bound_to 7997
  156.1302  140.3173  155.8343 H   0  0  0  0  0  0  0  0  0  0  0  0  # atno 8010 bound_to 7997
  140.6646  143.2665  151.4333 H   0  0  0  0  0  0  0  0  0  0  0  0  # atno 10167 bound_to 10162
  157.6915  131.0604  150.4619 H   0  0  0  0  0  0  0  0  0  0  0  0  # atno 10718 bound_to 10713
  154.8619  135.4236  154.2310 H   0  0  0  0  0  0  0  0  0  0  0  0  # atno 10763 bound_to 10752
  153.3295  135.6987  153.6966 H   0  0  0  0  0  0  0  0  0  0  0  0  # atno 10764 bound_to 10752
  153.5989  135.3541  155.2911 H   0  0  0  0  0  0  0  0  0  0  0  0  # atno 10765 bound_to 10752
  140.7251  134.3684  157.5177 H   0  0  0  0  0  0  0  0  0  0  0  0  # atno 11005 bound_to 11000
  146.1189  140.7334  142.9467 LP  0  0  0  0  0  0  0  0  0  0  0  0  # atno 17320 bound_to 7965
  144.7116  140.4060  143.7076 LP  0  0  0  0  0  0  0  0  0  0  0  0  # atno 17321 bound_to 7965
  139.5891  144.1539  152.2066 LP  0  0  0  0  0  0  0  0  0  0  0  0  # atno 17342 bound_to 10162
  140.0888  144.5638  150.7070 LP  0  0  0  0  0  0  0  0  0  0  0  0  # atno 17343 bound_to 10162
  156.4963  130.4107  149.6378 LP  0  0  0  0  0  0  0  0  0  0  0  0  # atno 17370 bound_to 10713
  156.3370  130.7362  151.2301 LP  0  0  0  0  0  0  0  0  0  0  0  0  # atno 17371 bound_to 10713
  139.8839  134.8981  156.2737 LP  0  0  0  0  0  0  0  0  0  0  0  0  # atno 17394 bound_to 11000
  140.9970  133.7174  156.0901 LP  0  0  0  0  0  0  0  0  0  0  0  0  # atno 17395 bound_to 11000

$$$$
