#       Name:                AV-unprocessed.smi:1464
#       Creating user name   scv26
#       Creation time:       Fri Mar 27 06:01:47 2020


#       File generated by GOLD software.
#

@<TRIPOS>MOLECULE
AV-unprocessed.smi:1464
    47    48     1
SMALL
NO_CHARGES


@<TRIPOS>ATOM
      1 ****        -2.2448  -2.6242  -1.4200 C.3            1 S1                 0.0000
      2 ****        -1.7125  -1.9075  -0.1662 C.3            1 S1                 0.0000
      3 ****        -2.2303  -2.6192   1.1008 C.3            1 S1                 0.0000
      4 ****        -1.7215  -1.9575   2.3888 C.3            1 S1                 0.0000
      5 ****        -2.0789  -0.4637   2.4214 C.3            1 S1                 0.0000
      6 ****        -1.5624   0.2774   1.1744 C.3            1 S1                 0.0000
      7 ****        -0.1005   0.3474   1.2182 N.am           1 S1                 0.0000
      8 ****         0.6566   1.4099   0.9035 C.2            1 S1                 0.0000
      9 ****         0.1929   2.4971   0.5580 O.2            1 S1                 0.0000
     10 ****         2.1742   1.2083   1.0073 C.3            1 S1                 0.0000
     11 ****         2.8899   1.6479  -0.1984 N.am           1 S1                 0.0000
     12 ****         3.6434   2.8862  -0.0235 N.pl3          1 S1                -1.0000
     13 ****         4.3278   3.3997  -1.0800 C.2            1 S1                 0.0000
     14 ****         4.9653   4.4482  -1.0152 O.2            1 S1                 0.0000
     15 ****         4.3013   2.6660  -2.3346 C.2            1 S1                 0.0000
     16 ****         3.6185   1.5111  -2.4600 C.2            1 S1                 0.0000
     17 ****         2.8636   0.9288  -1.3574 C.2            1 S1                 0.0000
     18 ****         2.2471  -0.1322  -1.4621 O.2            1 S1                 0.0000
     19 ****        -2.0759  -0.3966  -0.1283 C.3            1 S1                 0.0000
     20 ****        -1.6240   0.3666  -1.3898 C.3            1 S1                 0.0000
     21 ****        -3.3245  -2.5068  -1.5160 H              1 S1                 0.0000
     22 ****        -2.0298  -3.6923  -1.3812 H              1 S1                 0.0000
     23 ****        -1.7816  -2.2434  -2.3299 H              1 S1                 0.0000
     24 ****        -0.6254  -1.9985  -0.1801 H              1 S1                 0.0000
     25 ****        -3.3212  -2.6164   1.1019 H              1 S1                 0.0000
     26 ****        -1.9268  -3.6666   1.0904 H              1 S1                 0.0000
     27 ****        -2.1509  -2.4589   3.2566 H              1 S1                 0.0000
     28 ****        -0.6411  -2.0845   2.4655 H              1 S1                 0.0000
     29 ****        -3.1628  -0.3565   2.4787 H              1 S1                 0.0000
     30 ****        -1.6810  -0.0039   3.3271 H              1 S1                 0.0000
     31 ****        -1.9654   1.2909   1.2170 H              1 S1                 0.0000
     32 ****         0.3796  -0.4977   1.4911 H              1 S1                 0.0000
     33 ****         2.5256   1.7532   1.8852 H              1 S1                 0.0000
     34 ****         2.4033   0.1588   1.2025 H              1 S1                 0.0000
     35 ****         4.8440   3.0539  -3.1841 H              1 S1                 0.0000
     36 ****         3.6280   0.9980  -3.4102 H              1 S1                 0.0000
     37 ****        -3.1647  -0.3275  -0.1045 H              1 S1                 0.0000
     38 ****        -0.5593   0.2343  -1.5818 H              1 S1                 0.0000
     39 ****        -1.8133   1.4355  -1.2882 H              1 S1                 0.0000
     40 ****        -2.1642   0.0342  -2.2757 H              1 S1                 0.0000
     41 ****        -0.7975   2.6227   0.5003 LP             1 S1                 0.0000
     42 ****         0.8068   3.2544   0.3351 LP             1 S1                 0.0000
     43 ****         3.6559   3.3507   0.8620 LP             1 S1                 0.0000
     44 ****         4.9959   4.9626  -0.1582 LP             1 S1                 0.0000
     45 ****         5.4536   4.7870  -1.8195 LP             1 S1                 0.0000
     46 ****         1.7414  -0.4959  -0.6799 LP             1 S1                 0.0000
     47 ****         2.2523  -0.6300  -2.3294 LP             1 S1                 0.0000
@<TRIPOS>BOND
    1    1    2 1     
    2    1   21 1     
    3    1   22 1     
    4    1   23 1     
    5    2   19 1     
    6    2    3 1     
    7    2   24 1     
    8    3    4 1     
    9    3   25 1     
   10    3   26 1     
   11    4    5 1     
   12    4   27 1     
   13    4   28 1     
   14    5    6 1     
   15    5   29 1     
   16    5   30 1     
   17    6    7 1     
   18    6   19 1     
   19    6   31 1     
   20    7    8 am    
   21    7   32 1     
   22    8    9 2     
   23    8   10 1     
   24   10   33 1     
   25   10   34 1     
   26   10   11 1     
   27   11   12 1     
   28   11   17 am    
   29   12   13 1     
   30   13   14 2     
   31   13   15 1     
   32   15   35 1     
   33   15   16 2     
   34   16   36 1     
   35   16   17 1     
   36   17   18 2     
   37   19   20 1     
   38   19   37 1     
   39   20   38 1     
   40   20   39 1     
   41   20   40 1     
   42    9   41 1     
   43    9   42 1     
   44   12   43 1     
   45   14   44 1     
   46   14   45 1     
   47   18   46 1     
   48   18   47 1     
@<TRIPOS>SUBSTRUCTURE
      1 S1             1
@<TRIPOS>SET
LONE_PAIRS      STATIC     ATOMS    <user>   **** ""
7 41 42 43 44 45 46 47
DONOR_HYDROGENS      STATIC     ATOMS    <user>   **** ""
1 32
ATOM$BLUE        STATIC     ATOMS    COLORGROUP SYSTEM
7 41 42 43 44 45 46 47
ATOM$RED        STATIC     ATOMS    COLORGROUP SYSTEM
1 32
