#       Name:                AV-unprocessed.smi:2198
#       Creating user name   scv26
#       Creation time:       Fri Mar 27 12:13:51 2020


#       File generated by GOLD software.
#

@<TRIPOS>MOLECULE
AV-unprocessed.smi:2198
    48    49     1
SMALL
NO_CHARGES


@<TRIPOS>ATOM
      1 ****        -6.4719  -1.9593   1.0091 C.3            1 S1                 0.0000
      2 ****        -4.9599  -1.9411   1.0831 C.2            1 S1                 0.0000
      3 ****        -4.3616  -0.8527   1.3862 N.2            1 S1                 0.0000
      4 ****        -2.9586  -0.8330   1.4623 C.2            1 S1                 0.0000
      5 ****        -2.3354   0.5014   1.8339 C.3            1 S1                 0.0000
      6 ****        -2.2219  -1.9543   1.2156 C.2            1 S1                 0.0000
      7 ****        -0.6961  -1.9868   1.2939 C.3            1 S1                 0.0000
      8 ****         0.0348  -1.4536   0.0607 C.2            1 S1                 0.0000
      9 ****        -0.1342  -1.9867  -1.0357 O.2            1 S1                 0.0000
     10 ****         0.8427  -0.3994   0.2532 N.am           1 S1                 0.0000
     11 ****         1.6204   0.2707  -0.7837 C.3            1 S1                 0.0000
     12 ****         2.9354  -0.4881  -1.0530 C.3            1 S1                 0.0000
     13 ****         3.8009   0.2461  -2.0879 C.3            1 S1                 0.0000
     14 ****         4.0784   1.6944  -1.6558 C.3            1 S1                 0.0000
     15 ****         2.7710   2.4661  -1.3925 C.3            1 S1                 0.0000
     16 ****         3.0519   3.9114  -0.9574 C.3            1 S1                 0.0000
     17 ****         1.9047   1.7232  -0.3563 C.3            1 S1                 0.0000
     18 ****        -2.9501  -3.1864   0.8624 C.2            1 S1                 0.0000
     19 ****        -2.3353  -4.2236   0.6173 O.2            1 S1                 0.0000
     20 ****        -4.3116  -3.1259   0.8169 N.pl3          1 S1                -1.0000
     21 ****        -6.8800  -0.9486   1.0537 H              1 S1                 0.0000
     22 ****        -6.8820  -2.5322   1.8412 H              1 S1                 0.0000
     23 ****        -6.8021  -2.4178   0.0764 H              1 S1                 0.0000
     24 ****        -1.7388   0.4097   2.7415 H              1 S1                 0.0000
     25 ****        -3.1005   1.2576   2.0140 H              1 S1                 0.0000
     26 ****        -1.6945   0.8609   1.0291 H              1 S1                 0.0000
     27 ****        -0.3839  -1.4187   2.1706 H              1 S1                 0.0000
     28 ****        -0.3396  -2.9985   1.4885 H              1 S1                 0.0000
     29 ****         0.9162  -0.0277   1.1890 H              1 S1                 0.0000
     30 ****         1.0334   0.2984  -1.7040 H              1 S1                 0.0000
     31 ****         3.4968  -0.5969  -0.1239 H              1 S1                 0.0000
     32 ****         2.7237  -1.4979  -1.4063 H              1 S1                 0.0000
     33 ****         4.7420  -0.2861  -2.2296 H              1 S1                 0.0000
     34 ****         3.2958   0.2428  -3.0547 H              1 S1                 0.0000
     35 ****         4.6942   1.6924  -0.7553 H              1 S1                 0.0000
     36 ****         4.6615   2.1991  -2.4268 H              1 S1                 0.0000
     37 ****         2.2116   2.5085  -2.3283 H              1 S1                 0.0000
     38 ****         3.6142   3.9423  -0.0235 H              1 S1                 0.0000
     39 ****         2.1243   4.4641  -0.8062 H              1 S1                 0.0000
     40 ****         3.6316   4.4427  -1.7128 H              1 S1                 0.0000
     41 ****         0.9623   2.2545  -0.2154 H              1 S1                 0.0000
     42 ****         2.4088   1.7294   0.6116 H              1 S1                 0.0000
     43 ****        -4.8878  -0.0220   1.5677 LP             1 S1                 0.0000
     44 ****        -0.7502  -2.7698  -1.1213 LP             1 S1                 0.0000
     45 ****         0.3445  -1.6368  -1.8410 LP             1 S1                 0.0000
     46 ****        -1.3361  -4.2339   0.6571 LP             1 S1                 0.0000
     47 ****        -2.8347  -5.0563   0.3783 LP             1 S1                 0.0000
     48 ****        -4.8401  -3.9439   0.5897 LP             1 S1                 0.0000
@<TRIPOS>BOND
    1    1    2 1     
    2    1   21 1     
    3    1   22 1     
    4    1   23 1     
    5    2   20 1     
    6    2    3 2     
    7    3    4 1     
    8    4    5 1     
    9    4    6 2     
   10    5   24 1     
   11    5   25 1     
   12    5   26 1     
   13    6    7 1     
   14    6   18 1     
   15    7    8 1     
   16    7   27 1     
   17    7   28 1     
   18    8    9 2     
   19    8   10 am    
   20   10   11 1     
   21   10   29 1     
   22   11   17 1     
   23   11   12 1     
   24   11   30 1     
   25   12   13 1     
   26   12   31 1     
   27   12   32 1     
   28   13   14 1     
   29   13   33 1     
   30   13   34 1     
   31   14   15 1     
   32   14   35 1     
   33   14   36 1     
   34   15   16 1     
   35   15   17 1     
   36   15   37 1     
   37   16   38 1     
   38   16   39 1     
   39   16   40 1     
   40   17   41 1     
   41   17   42 1     
   42   18   19 2     
   43   18   20 1     
   44    3   43 1     
   45    9   44 1     
   46    9   45 1     
   47   19   46 1     
   48   19   47 1     
   49   20   48 1     
@<TRIPOS>SUBSTRUCTURE
      1 S1             1
@<TRIPOS>SET
LONE_PAIRS      STATIC     ATOMS    <user>   **** ""
6 43 44 45 46 47 48
DONOR_HYDROGENS      STATIC     ATOMS    <user>   **** ""
1 29
ATOM$BLUE        STATIC     ATOMS    COLORGROUP SYSTEM
6 43 44 45 46 47 48
ATOM$RED        STATIC     ATOMS    COLORGROUP SYSTEM
1 29
