#       Name:                AV-unprocessed.smi:2329
#       Creating user name   scv26
#       Creation time:       Fri Mar 27 12:52:42 2020


#       File generated by GOLD software.
#

@<TRIPOS>MOLECULE
AV-unprocessed.smi:2329
    50    53     1
SMALL
NO_CHARGES


@<TRIPOS>ATOM
      1 ****        -5.3673   2.8452   1.4240 C.3            1 S1                 0.0000
      2 ****        -4.6251   1.5848   1.0321 C.ar           1 S1                 0.0000
      3 ****        -5.3195   0.4546   0.5580 C.ar           1 S1                 0.0000
      4 ****        -4.5717  -0.6838   0.2077 C.ar           1 S1                 0.0000
      5 ****        -3.1707  -0.6449   0.3435 C.ar           1 S1                 0.0000
      6 ****        -2.5518   0.5302   0.8255 C.ar           1 S1                 0.0000
      7 ****        -1.1373   0.4671   0.9188 N.am           1 S1                 0.0000
      8 ****        -0.2777   1.4292   1.3081 C.2            1 S1                 0.0000
      9 ****        -0.6056   2.5424   1.7149 O.2            1 S1                 0.0000
     10 ****         1.0162   1.0750   1.2118 N.am           1 S1                 0.0000
     11 ****         2.1890   1.8832   1.5520 C.3            1 S1                 0.0000
     12 ****         3.5034   1.1711   1.1919 C.3            1 S1                 0.0000
     13 ****         4.3921   1.7389   0.1189 C.3            1 S1                 0.0000
     14 ****         5.4019   2.5689   0.9163 C.3            1 S1                 0.0000
     15 ****         4.7508   2.8341   2.1568 O.3            1 S1                 0.0000
     16 ****         4.0392   1.6563   2.5299 C.3            1 S1                 0.0000
     17 ****         2.5975   1.8506   3.0459 C.3            1 S1                 0.0000
     18 ****         2.3333   3.0790   3.9134 C.3            1 S1                 0.0000
     19 ****         2.5586   2.6595   5.3691 C.3            1 S1                 0.0000
     20 ****         2.4198   1.1340   5.3889 C.3            1 S1                 0.0000
     21 ****         2.0698   0.7355   3.9535 C.3            1 S1                 0.0000
     22 ****        -3.2812   1.6232   1.1611 N.ar           1 S1                 0.0000
     23 ****        -6.4285   2.6449   1.5745 H              1 S1                 0.0000
     24 ****        -5.2681   3.5987   0.6424 H              1 S1                 0.0000
     25 ****        -4.9661   3.2562   2.3510 H              1 S1                 0.0000
     26 ****        -6.3956   0.4575   0.4638 H              1 S1                 0.0000
     27 ****        -5.0637  -1.5722  -0.1600 H              1 S1                 0.0000
     28 ****        -2.5810  -1.5102   0.0776 H              1 S1                 0.0000
     29 ****        -0.7216  -0.4036   0.6226 H              1 S1                 0.0000
     30 ****         1.2064   0.1494   0.8559 H              1 S1                 0.0000
     31 ****         2.1625   2.9001   1.1538 H              1 S1                 0.0000
     32 ****         3.4030   0.0842   1.1744 H              1 S1                 0.0000
     33 ****         4.8849   0.9655  -0.4709 H              1 S1                 0.0000
     34 ****         3.8233   2.3702  -0.5644 H              1 S1                 0.0000
     35 ****         6.3074   1.9911   1.1068 H              1 S1                 0.0000
     36 ****         5.6854   3.4903   0.4070 H              1 S1                 0.0000
     37 ****         4.6497   0.9240   3.0601 H              1 S1                 0.0000
     38 ****         2.9588   3.9301   3.6440 H              1 S1                 0.0000
     39 ****         1.3001   3.4043   3.7927 H              1 S1                 0.0000
     40 ****         3.5590   2.9450   5.6954 H              1 S1                 0.0000
     41 ****         1.8445   3.1437   6.0356 H              1 S1                 0.0000
     42 ****         3.3670   0.6812   5.6837 H              1 S1                 0.0000
     43 ****         1.6603   0.7986   6.0958 H              1 S1                 0.0000
     44 ****         0.9854   0.6556   3.8724 H              1 S1                 0.0000
     45 ****         2.4788  -0.2429   3.6986 H              1 S1                 0.0000
     46 ****        -1.5731   2.7877   1.7751 LP             1 S1                 0.0000
     47 ****         0.0953   3.2023   1.9856 LP             1 S1                 0.0000
     48 ****         4.1144   3.5982   2.0516 LP             1 S1                 0.0000
     49 ****         5.4288   3.0590   2.8566 LP             1 S1                 0.0000
     50 ****        -2.8291   2.4482   1.5003 LP             1 S1                 0.0000
@<TRIPOS>BOND
    1    1    2 1     
    2    1   23 1     
    3    1   24 1     
    4    1   25 1     
    5    2   22 ar    
    6    2    3 ar    
    7    3    4 ar    
    8    3   26 1     
    9    4    5 ar    
   10    4   27 1     
   11    5    6 ar    
   12    5   28 1     
   13    6    7 1     
   14    6   22 ar    
   15    7    8 am    
   16    7   29 1     
   17    8    9 2     
   18    8   10 am    
   19   10   11 1     
   20   10   30 1     
   21   11   17 1     
   22   11   12 1     
   23   11   31 1     
   24   12   16 1     
   25   12   13 1     
   26   12   32 1     
   27   13   14 1     
   28   13   33 1     
   29   13   34 1     
   30   14   15 1     
   31   14   35 1     
   32   14   36 1     
   33   15   16 1     
   34   16   17 1     
   35   16   37 1     
   36   17   21 1     
   37   17   18 1     
   38   18   19 1     
   39   18   38 1     
   40   18   39 1     
   41   19   20 1     
   42   19   40 1     
   43   19   41 1     
   44   20   21 1     
   45   20   42 1     
   46   20   43 1     
   47   21   44 1     
   48   21   45 1     
   49    9   46 1     
   50    9   47 1     
   51   15   48 1     
   52   15   49 1     
   53   22   50 1     
@<TRIPOS>SUBSTRUCTURE
      1 S1             1
@<TRIPOS>SET
LONE_PAIRS      STATIC     ATOMS    <user>   **** ""
5 46 47 48 49 50
DONOR_HYDROGENS      STATIC     ATOMS    <user>   **** ""
2 29 30
ATOM$BLUE        STATIC     ATOMS    COLORGROUP SYSTEM
5 46 47 48 49 50
ATOM$RED        STATIC     ATOMS    COLORGROUP SYSTEM
2 29 30
