AV-unprocessed.smi:2485|AV-procd|sdf|9789|dock7
  -GOLD-   2272013423D 1   1.00000     0.00000
 Structure written by MMmdl.
 39 40  0  0  0  0  0  0  0  0  1 V2000
  150.9706  138.6955  154.0777 C   0  0  0  0  0  0  0  0  0  0  0  0
  150.1367  139.5634  155.0355 C   0  0  0  0  0  0  0  0  0  0  0  0
  149.4091  140.6821  154.2744 C   0  0  0  0  0  0  0  0  0  0  0  0
  149.1779  138.7210  155.8851 C   0  0  0  0  0  0  0  0  0  0  0  0
  150.0080  138.3817  157.1072 C   0  0  2  0  0  0  0  0  0  0  0  0
  149.1637  138.0725  158.2595 N   0  0  0  0  0  0  0  0  0  0  0  0
  148.9905  136.8517  158.7850 C   0  0  0  0  0  0  0  0  0  0  0  0
  149.5131  135.8345  158.3292 O   0  0  0  0  0  0  0  0  0  0  0  0
  148.1851  136.8970  159.8602 N   0  0  0  0  0  0  0  0  0  0  0  0
  147.7849  135.8242  160.6995 C   0  0  0  0  0  0  0  0  0  0  0  0
  147.4034  136.1909  162.0076 C   0  0  0  0  0  0  0  0  0  0  0  0
  146.9987  135.1772  162.8930 C   0  0  0  0  0  0  0  0  0  0  0  0
  147.0027  133.8587  162.4068 C   0  0  0  0  0  0  0  0  0  0  0  0
  147.3761  133.5530  161.1454 N   0  0  0  0  0  0  0  0  0  0  0  0
  147.7603  134.5230  160.3082 N   0  0  0  0  0  0  0  0  0  0  0  0
  150.8720  139.6500  157.2850 C   0  0  0  0  0  0  0  0  0  0  0  0
  150.1959  140.7717  158.1015 C   0  0  0  0  0  0  0  0  0  0  0  0
  152.2657  139.3325  157.8497 C   0  0  0  0  0  0  0  0  0  0  0  0
  151.0418  140.1603  155.9632 O   0  0  0  0  0  0  0  0  0  0  0  0
  150.3366  138.1924  153.3470 H   0  0  0  0  0  0  0  0  0  0  0  0
  151.5290  137.9289  154.6155 H   0  0  0  0  0  0  0  0  0  0  0  0
  151.6935  139.2997  153.5290 H   0  0  0  0  0  0  0  0  0  0  0  0
  148.6885  140.2730  153.5656 H   0  0  0  0  0  0  0  0  0  0  0  0
  150.1124  141.3000  153.7155 H   0  0  0  0  0  0  0  0  0  0  0  0
  148.8689  141.3386  154.9573 H   0  0  0  0  0  0  0  0  0  0  0  0
  148.3102  139.3149  156.1773 H   0  0  0  0  0  0  0  0  0  0  0  0
  148.8074  137.8372  155.3647 H   0  0  0  0  0  0  0  0  0  0  0  0
  150.6406  137.5270  156.8591 H   0  0  0  0  0  0  0  0  0  0  0  0
  148.6940  138.8510  158.6977 H   0  0  0  0  0  0  0  0  0  0  0  0
  147.8252  137.8048  160.1136 H   0  0  0  0  0  0  0  0  0  0  0  0
  147.4207  137.2226  162.3280 H   0  0  0  0  0  0  0  0  0  0  0  0
  146.6976  135.4016  163.9054 H   0  0  0  0  0  0  0  0  0  0  0  0
  146.7026  133.0356  163.0382 H   0  0  0  0  0  0  0  0  0  0  0  0
  150.0682  140.4873  159.1463 H   0  0  0  0  0  0  0  0  0  0  0  0
  149.2139  141.0247  157.7016 H   0  0  0  0  0  0  0  0  0  0  0  0
  150.7971  141.6812  158.0851 H   0  0  0  0  0  0  0  0  0  0  0  0
  152.2020  138.9403  158.8647 H   0  0  0  0  0  0  0  0  0  0  0  0
  152.8918  140.2246  157.8795 H   0  0  0  0  0  0  0  0  0  0  0  0
  152.7814  138.5912  157.2386 H   0  0  0  0  0  0  0  0  0  0  0  0
  1  2  1  0  0  0  0
  1 20  1  0  0  0  0
  1 21  1  0  0  0  0
  1 22  1  0  0  0  0
  2 19  1  0  0  0  0
  2  3  1  0  0  0  0
  2  4  1  0  0  0  0
  3 23  1  0  0  0  0
  3 24  1  0  0  0  0
  3 25  1  0  0  0  0
  4  5  1  0  0  0  0
  4 26  1  0  0  0  0
  4 27  1  0  0  0  0
  5  6  1  0  0  0  0
  5 16  1  0  0  0  0
  5 28  1  0  0  0  0
  6  7  1  0  0  0  0
  6 29  1  0  0  0  0
  7  8  2  0  0  0  0
  7  9  1  0  0  0  0
  9 10  1  0  0  0  0
  9 30  1  0  0  0  0
 10 15  1  0  0  0  0
 10 11  2  0  0  0  0
 11 12  1  0  0  0  0
 11 31  1  0  0  0  0
 12 13  2  0  0  0  0
 12 32  1  0  0  0  0
 13 14  1  0  0  0  0
 13 33  1  0  0  0  0
 14 15  2  0  0  0  0
 16 17  1  0  0  0  0
 16 18  1  0  0  0  0
 16 19  1  0  0  0  0
 17 34  1  0  0  0  0
 17 35  1  0  0  0  0
 17 36  1  0  0  0  0
 18 37  1  0  0  0  0
 18 38  1  0  0  0  0
 18 39  1  0  0  0  0
M  END
> <s_m_source_file>
AV-unprocessed.smi

> <i_m_source_file_index>
2485

> <i_lp_mmshare_version>
43012

> <i_f3d_flags>
0

> <s_epik_input>
W0NIM11DMShbQ0gzXSlbQ0gyXVtDQEhdKEMoTzEpKFtDSDNdKVtDSDNdKVtOSF1DKD1PKVtOSF1jMltjSF1bY0hdW2NIXW5uMg==

> <s_epik_cmdline>
J2VwaWtfcHl0aG9uJywgJy1waCcsICc3LjAnLCAnLXRuJywgJzgnLCAnLW1hJywgJzIwMCcsICctbWV0YWxfYmluZGluZycsICctaW1hZScsICc8aW5maWxlLm1hZT4nLCAnLW9tYWUnLCAnPG91dGZpbGUubWFlPic=

> <r_lp_tautomer_probability>
1

> <r_epik_Ionization_Penalty>
0.00480341

> <r_epik_Ionization_Penalty_Charging>
0

> <r_epik_Ionization_Penalty_Neutral>
0.00480341

> <r_epik_State_Penalty>
-0

> <r_epik_Charging_Adjusted_Penalty>
0

> <i_epik_Tot_Q>
0

> <i_epik_Tot_abs_Q>
0

> <r_epik_Metal_State_Penalty>
-0

> <b_epik_Metal_Only>
0

> <s_lp_Force_Field>
OPLS_2005

> <r_lp_Energy>
24.1207

> <b_lp_Chiralities_Consistent>
1

> <s_lp_Variant>
AV-unprocessed.smi:2485-2

> <Gold.Version>
5.8.1

> <Gold.Id.Protein>
6NUR|6NUR_protein|mol2

> <Gold.PLP.Fitness>
32.7613

> <Gold.PLP.PLP>
-30.3480

> <Gold.PLP.part.hbond>
-1.0000

> <Gold.PLP.part.metal>
0.0000

> <Gold.PLP.part.buried>
-4.2160

> <Gold.PLP.part.nonpolar>
-25.4076

> <Gold.PLP.part.repulsive>
0.3705

> <Gold.PLP.ligand.clash>
0.0000

> <Gold.PLP.ligand.torsion>
0.2989

> <Gold.PLP.Chemscore.Hbond>
1.0000

> <Gold.PLP.Chemscore.CHOScore>
0.0000

> <Gold.PLP.Chemscore.Metal>
0.0000

> <Gold.Chemscore.Hbonds>
donor molecule, donor type, donor heavy atom, donor atom, acceptor molecule, acceptor atom, score
      P1  H  6896  6908       L1     8  0.83

> <Gold.PLP.Chemscore.Internal.Correction>
0.0111

> <Gold.Rescore>
     Score         DG    S(hbond)    S(metal)    S(lipo)     H(rot)  DE(clash)    DE(int)     intcor
     12.71     -14.18       0.98        0.00      68.26       1.00       0.05       1.42       ----

> <Gold.Chemscore.Fitness>
12.7111

> <Gold.Chemscore.DG>
-14.1810

> <Gold.Chemscore.ZeroCoef>
-5.4800

> <Gold.Chemscore.Hbond>
0.9805

> <Gold.Chemscore.Metal>
0.0000

> <Gold.Chemscore.Lipo>
68.2562

> <Gold.Chemscore.Internal_Hbond>
0.0000

> <Gold.Chemscore.DEClash>
0.0456

> <Gold.Chemscore.DEInternal>
1.4243

> <Gold.Chemscore.Rot>
1.0000

> <Gold.Chemscore.Internal.Correction>
   9.000000E+99

> <Gold.Chemscore.Hbonds>
donor molecule, donor type, donor heavy atom, donor atom, acceptor molecule, acceptor atom, score
      P1  H  6896  6908       L1     8  0.79

> <Gold.Chemscore.Hbond.Weighted>
-3.2750

> <Gold.Chemscore.Metal.Weighted>
-0.0000

> <Gold.Chemscore.Lipo.Weighted>
-7.9860

> <Gold.Chemscore.Internal_Hbond.Weighted>
0.0000

> <Gold.Chemscore.DEClash.Weighted>
0.0456

> <Gold.Chemscore.DEInternal.Weighted>
1.4243

> <Gold.Chemscore.Rot.Weighted>
2.5600

> <Gold.Chemscore.Internal.Correction.Weighted>
   9.000000E+99

> <Gold.Protein.RotatedTorsions>
[ 6907 6896 6895 6894 ] final  167.41 input  -60.11 | X-H torsion
[ 7974 7965 7964 7962 ] final   92.12 input  175.53 | X-H torsion
[ 8008 7997 7996 7995 ] final -114.59 input   59.86 | X-H torsion
[ 10167 10162 10161 10158 ] final  -10.87 input  -65.29 | X-H torsion
[ 10718 10713 10712 10709 ] final -125.53 input   66.30 | X-H torsion
[ 10763 10752 10751 10750 ] final  -58.40 input  -60.55 | X-H torsion
[ 11005 11000 10999 10996 ] final  155.51 input  -57.11 | X-H torsion

> <Gold.Protein.ActiveResidues>
 VAL166  LYS551  ARG553  GLY616  TRP617  ASP618  TYR619  PRO620  LYS621  CYS622 
 ASP623  PHE694  ASN695  SER759  ASP760  ASP761  ALA762  ILE779  LEU786  VAL792 
 PHE793  MET794  SER795  GLU796  ALA797  LYS798  CYS799  TRP800  GLU811  SER814 

> <Gold.Protein.RotatedAtoms>
  151.8638  133.3462  159.3712 H   0  0  0  0  0  0  0  0  0  0  0  0  # atno 6907 bound_to 6896
  150.7172  134.5180  159.5649 H   0  0  0  0  0  0  0  0  0  0  0  0  # atno 6908 bound_to 6896
  152.2699  134.7944  160.0467 H   0  0  0  0  0  0  0  0  0  0  0  0  # atno 6909 bound_to 6896
  145.4966  139.2276  143.2800 H   0  0  0  0  0  0  0  0  0  0  0  0  # atno 7974 bound_to 7965
  155.0388  140.0392  157.2501 H   0  0  0  0  0  0  0  0  0  0  0  0  # atno 8008 bound_to 7997
  154.7234  140.2716  155.6497 H   0  0  0  0  0  0  0  0  0  0  0  0  # atno 8009 bound_to 7997
  156.2823  140.2698  156.1913 H   0  0  0  0  0  0  0  0  0  0  0  0  # atno 8010 bound_to 7997
  140.7124  143.5701  150.9102 H   0  0  0  0  0  0  0  0  0  0  0  0  # atno 10167 bound_to 10162
  156.1683  130.6650  151.0145 H   0  0  0  0  0  0  0  0  0  0  0  0  # atno 10718 bound_to 10713
  154.2374  135.6349  153.5196 H   0  0  0  0  0  0  0  0  0  0  0  0  # atno 10763 bound_to 10752
  152.9937  135.5534  154.5947 H   0  0  0  0  0  0  0  0  0  0  0  0  # atno 10764 bound_to 10752
  154.5444  135.2897  155.1040 H   0  0  0  0  0  0  0  0  0  0  0  0  # atno 10765 bound_to 10752
  140.1588  134.8624  157.2548 H   0  0  0  0  0  0  0  0  0  0  0  0  # atno 11005 bound_to 11000
  146.2252  140.5763  142.8999 LP  0  0  0  0  0  0  0  0  0  0  0  0  # atno 17320 bound_to 7965
  144.7804  140.5828  143.6609 LP  0  0  0  0  0  0  0  0  0  0  0  0  # atno 17321 bound_to 7965
  139.9427  143.6363  152.3049 LP  0  0  0  0  0  0  0  0  0  0  0  0  # atno 17342 bound_to 10162
  139.6854  144.7652  151.1534 LP  0  0  0  0  0  0  0  0  0  0  0  0  # atno 17343 bound_to 10162
  157.6784  131.0844  150.7434 LP  0  0  0  0  0  0  0  0  0  0  0  0  # atno 17370 bound_to 10713
  156.7494  130.4764  149.5460 LP  0  0  0  0  0  0  0  0  0  0  0  0  # atno 17371 bound_to 10713
  140.2515  134.3678  155.7440 LP  0  0  0  0  0  0  0  0  0  0  0  0  # atno 17394 bound_to 11000
  141.2207  133.7319  156.8942 LP  0  0  0  0  0  0  0  0  0  0  0  0  # atno 17395 bound_to 11000

$$$$
