AV-unprocessed.smi:258|AV-procd|sdf|1968|dock4
  -GOLD-   2262021123D 1   1.00000     0.00000
 Structure written by MMmdl.
 57 60  0  0  0  0  0  0  0  0  1 V2000
  143.9839  134.0558  148.8859 O   0  0  0  0  0  0  0  0  0  0  0  0
  144.1094  132.6518  148.9676 C   0  0  0  0  0  0  0  0  0  0  0  0
  144.0807  132.2013  150.4332 C   0  0  0  0  0  0  0  0  0  0  0  0
  145.2840  132.6108  151.0679 O   0  0  0  0  0  0  0  0  0  0  0  0
  145.6586  131.8176  152.1866 C   0  0  1  0  0  0  0  0  0  0  0  0
  145.7334  130.3244  151.8083 C   0  0  0  0  0  0  0  0  0  0  0  0
  146.2842  129.5046  152.9848 C   0  0  0  0  0  0  0  0  0  0  0  0
  147.6388  130.0569  153.4570 C   0  0  0  0  0  0  0  0  0  0  0  0
  147.5424  131.4865  153.7579 N   0  0  0  0  0  0  0  0  0  0  0  0
  148.5468  132.0507  154.4759 C   0  0  0  0  0  0  0  0  0  0  0  0
  149.6086  131.2961  154.8679 N   0  0  0  0  0  0  0  0  0  0  0  0
  150.6082  131.8456  155.5637 C   0  0  0  0  0  0  0  0  0  0  0  0
  150.7465  133.1089  155.9694 N   0  0  0  0  0  0  0  0  0  0  0  0
  149.6820  133.8703  155.5870 C   0  0  0  0  0  0  0  0  0  0  0  0
  148.5495  133.4253  154.8476 C   0  0  0  0  0  0  0  0  0  0  0  0
  147.6635  134.4803  154.6606 N   0  0  0  0  0  0  0  0  0  0  0  0
  148.2446  135.4929  155.2437 C   0  0  0  0  0  0  0  0  0  0  0  0
  149.4651  135.2180  155.8168 N   0  0  0  0  0  0  0  0  0  0  0  0
  150.3204  136.1585  156.5206 C   0  0  0  0  0  0  0  0  0  0  0  0
  149.5939  137.4689  156.9112 C   0  0  1  0  0  0  0  0  0  0  0  0
  148.9060  137.3217  158.2894 C   0  0  0  0  0  0  0  0  0  0  0  0
  149.7862  136.7322  159.2233 O   0  0  0  0  0  0  0  0  0  0  0  0
  150.5146  138.7179  156.8061 C   0  0  2  0  0  0  0  0  0  0  0  0
  149.8592  140.0535  157.1542 C   0  0  0  0  0  0  0  0  0  0  0  0
  150.5408  141.0283  156.2036 C   0  0  0  0  0  0  0  0  0  0  0  0
  150.6854  140.2564  155.0244 O   0  0  0  0  0  0  0  0  0  0  0  0
  151.1256  138.9621  155.4144 C   0  0  0  0  0  0  0  0  0  0  0  0
  147.0342  132.3143  152.6638 C   0  0  0  0  0  0  0  0  0  0  0  0
  144.6919  134.3904  148.3571 H   0  0  0  0  0  0  0  0  0  0  0  0
  143.3275  132.1627  148.3857 H   0  0  0  0  0  0  0  0  0  0  0  0
  145.0644  132.3811  148.5171 H   0  0  0  0  0  0  0  0  0  0  0  0
  143.2429  132.6869  150.9355 H   0  0  0  0  0  0  0  0  0  0  0  0
  143.9202  131.1253  150.5057 H   0  0  0  0  0  0  0  0  0  0  0  0
  144.9451  131.9587  153.0006 H   0  0  0  0  0  0  0  0  0  0  0  0
  144.7524  129.9422  151.5276 H   0  0  0  0  0  0  0  0  0  0  0  0
  146.3794  130.1968  150.9388 H   0  0  0  0  0  0  0  0  0  0  0  0
  145.5726  129.5310  153.8109 H   0  0  0  0  0  0  0  0  0  0  0  0
  146.3878  128.4580  152.6974 H   0  0  0  0  0  0  0  0  0  0  0  0
  147.9640  129.5079  154.3419 H   0  0  0  0  0  0  0  0  0  0  0  0
  148.3933  129.9017  152.6844 H   0  0  0  0  0  0  0  0  0  0  0  0
  151.4132  131.1773  155.8321 H   0  0  0  0  0  0  0  0  0  0  0  0
  147.7986  136.4766  155.2682 H   0  0  0  0  0  0  0  0  0  0  0  0
  150.7017  135.6545  157.4090 H   0  0  0  0  0  0  0  0  0  0  0  0
  151.1885  136.3792  155.8984 H   0  0  0  0  0  0  0  0  0  0  0  0
  148.8005  137.6246  156.1784 H   0  0  0  0  0  0  0  0  0  0  0  0
  148.5841  138.2881  158.6772 H   0  0  0  0  0  0  0  0  0  0  0  0
  148.0190  136.6924  158.2307 H   0  0  0  0  0  0  0  0  0  0  0  0
  150.0603  137.3956  159.8384 H   0  0  0  0  0  0  0  0  0  0  0  0
  151.3623  138.5824  157.4786 H   0  0  0  0  0  0  0  0  0  0  0  0
  148.7903  140.0442  156.9466 H   0  0  0  0  0  0  0  0  0  0  0  0
  149.9903  140.3310  158.2000 H   0  0  0  0  0  0  0  0  0  0  0  0
  149.9530  141.9297  156.0285 H   0  0  0  0  0  0  0  0  0  0  0  0
  151.5234  141.3204  156.5776 H   0  0  0  0  0  0  0  0  0  0  0  0
  152.2151  138.9642  155.4753 H   0  0  0  0  0  0  0  0  0  0  0  0
  150.8445  138.2154  154.6721 H   0  0  0  0  0  0  0  0  0  0  0  0
  147.7488  132.2763  151.8404 H   0  0  0  0  0  0  0  0  0  0  0  0
  146.9558  133.3606  152.9569 H   0  0  0  0  0  0  0  0  0  0  0  0
  1  2  1  0  0  0  0
  1 29  1  0  0  0  0
  2  3  1  0  0  0  0
  2 30  1  0  0  0  0
  2 31  1  0  0  0  0
  3  4  1  0  0  0  0
  3 32  1  0  0  0  0
  3 33  1  0  0  0  0
  4  5  1  0  0  0  0
  5 28  1  0  0  0  0
  5  6  1  0  0  0  0
  5 34  1  0  0  0  0
  6  7  1  0  0  0  0
  6 35  1  0  0  0  0
  6 36  1  0  0  0  0
  7  8  1  0  0  0  0
  7 37  1  0  0  0  0
  7 38  1  0  0  0  0
  8  9  1  0  0  0  0
  8 39  1  0  0  0  0
  8 40  1  0  0  0  0
  9 10  1  0  0  0  0
  9 28  1  0  0  0  0
 10 15  1  0  0  0  0
 10 11  2  0  0  0  0
 11 12  1  0  0  0  0
 12 13  2  0  0  0  0
 12 41  1  0  0  0  0
 13 14  1  0  0  0  0
 14 18  1  0  0  0  0
 14 15  2  0  0  0  0
 15 16  1  0  0  0  0
 16 17  2  0  0  0  0
 17 18  1  0  0  0  0
 17 42  1  0  0  0  0
 18 19  1  0  0  0  0
 19 20  1  0  0  0  0
 19 43  1  0  0  0  0
 19 44  1  0  0  0  0
 20 21  1  0  0  0  0
 20 23  1  0  0  0  0
 20 45  1  0  0  0  0
 21 22  1  0  0  0  0
 21 46  1  0  0  0  0
 21 47  1  0  0  0  0
 22 48  1  0  0  0  0
 23 27  1  0  0  0  0
 23 24  1  0  0  0  0
 23 49  1  0  0  0  0
 24 25  1  0  0  0  0
 24 50  1  0  0  0  0
 24 51  1  0  0  0  0
 25 26  1  0  0  0  0
 25 52  1  0  0  0  0
 25 53  1  0  0  0  0
 26 27  1  0  0  0  0
 27 54  1  0  0  0  0
 27 55  1  0  0  0  0
 28 56  1  0  0  0  0
 28 57  1  0  0  0  0
M  END
> <s_m_source_file>
AV-unprocessed.smi

> <i_m_source_file_index>
258

> <i_lp_mmshare_version>
43012

> <i_f3d_flags>
0

> <s_epik_input>
W09IXVtDSDJdW0NIMl1PW0NAQEhdMVtDSDJdW0NIMl1bQ0gyXU4oW0NIMl0xKWMobltjSF1uMiljKGMyMyluW2NIXW4zW0NIMl1bQ0BIXShbQ0gyXVtPSF0pW0NAQEhdNFtDSDJdW0NIMl1PW0NIMl00

> <s_epik_cmdline>
J2VwaWtfcHl0aG9uJywgJy1waCcsICc3LjAnLCAnLXRuJywgJzgnLCAnLW1hJywgJzIwMCcsICctbWV0YWxfYmluZGluZycsICctaW1hZScsICc8aW5maWxlLm1hZT4nLCAnLW9tYWUnLCAnPG91dGZpbGUubWFlPic=

> <r_lp_tautomer_probability>
1

> <r_epik_Ionization_Penalty>
0.00349036

> <r_epik_Ionization_Penalty_Charging>
0

> <r_epik_Ionization_Penalty_Neutral>
0.00349036

> <r_epik_State_Penalty>
0.00229798

> <r_epik_Charging_Adjusted_Penalty>
0.00229798

> <i_epik_Tot_Q>
0

> <i_epik_Tot_abs_Q>
0

> <r_epik_Metal_State_Penalty>
-0

> <b_epik_Metal_Only>
0

> <s_lp_Force_Field>
OPLS_2005

> <r_lp_Energy>
48.0574

> <b_lp_Chiralities_Consistent>
1

> <s_lp_Variant>
AV-unprocessed.smi:258-4

> <Gold.Version>
5.8.1

> <Gold.Id.Protein>
6NUR|6NUR_protein|mol2

> <Gold.PLP.Fitness>
51.7217

> <Gold.PLP.PLP>
-44.4697

> <Gold.PLP.part.hbond>
-3.9824

> <Gold.PLP.part.metal>
0.0000

> <Gold.PLP.part.buried>
-7.8451

> <Gold.PLP.part.nonpolar>
-32.5868

> <Gold.PLP.part.repulsive>
0.3853

> <Gold.PLP.ligand.clash>
0.0000

> <Gold.PLP.ligand.torsion>
1.2198

> <Gold.PLP.Chemscore.Hbond>
3.0000

> <Gold.PLP.Chemscore.CHOScore>
0.0000

> <Gold.PLP.Chemscore.Metal>
0.0000

> <Gold.Chemscore.Hbonds>
donor molecule, donor type, donor heavy atom, donor atom, acceptor molecule, acceptor atom, score
      L1  H     1    29       P1  7921  1.00
      P1  H  6896  6907       L1    22  0.62
      P1  H  7989  7998       L1    26  1.00

> <Gold.PLP.Chemscore.Internal.Correction>
0.6916

> <Gold.Rescore>
     Score         DG    S(hbond)    S(metal)    S(lipo)     H(rot)  DE(clash)    DE(int)     intcor
     11.59     -14.21       2.80        0.00      87.12       4.22       0.02       2.60       ----

> <Gold.Chemscore.Fitness>
11.5906

> <Gold.Chemscore.DG>
-14.2066

> <Gold.Chemscore.ZeroCoef>
-5.4800

> <Gold.Chemscore.Hbond>
2.7988

> <Gold.Chemscore.Metal>
0.0000

> <Gold.Chemscore.Lipo>
87.1247

> <Gold.Chemscore.Internal_Hbond>
0.0000

> <Gold.Chemscore.DEClash>
0.0183

> <Gold.Chemscore.DEInternal>
2.5976

> <Gold.Chemscore.Rot>
4.2246

> <Gold.Chemscore.Internal.Correction>
   9.000000E+99

> <Gold.Chemscore.Hbonds>
donor molecule, donor type, donor heavy atom, donor atom, acceptor molecule, acceptor atom, score
      L1  H     1    29       P1  7921  1.00
      P1  H  6896  6907       L1    22  0.38
      P1  H  7989  7998       L1    26  0.77

> <Gold.Chemscore.Hbond.Weighted>
-9.3478

> <Gold.Chemscore.Metal.Weighted>
-0.0000

> <Gold.Chemscore.Lipo.Weighted>
-10.1936

> <Gold.Chemscore.Internal_Hbond.Weighted>
0.0000

> <Gold.Chemscore.DEClash.Weighted>
0.0183

> <Gold.Chemscore.DEInternal.Weighted>
2.5976

> <Gold.Chemscore.Rot.Weighted>
10.8149

> <Gold.Chemscore.Internal.Correction.Weighted>
   9.000000E+99

> <Gold.Protein.RotatedTorsions>
[ 6907 6896 6895 6894 ] final  -47.39 input  -60.11 | X-H torsion
[ 7974 7965 7964 7962 ] final  -91.42 input  175.53 | X-H torsion
[ 8008 7997 7996 7995 ] final   89.74 input   59.86 | X-H torsion
[ 10167 10162 10161 10158 ] final -106.85 input  -65.29 | X-H torsion
[ 10718 10713 10712 10709 ] final -135.80 input   66.30 | X-H torsion
[ 10763 10752 10751 10750 ] final  144.35 input  -60.55 | X-H torsion
[ 11005 11000 10999 10996 ] final -116.44 input  -57.11 | X-H torsion

> <Gold.Protein.ActiveResidues>
 VAL166  LYS551  ARG553  GLY616  TRP617  ASP618  TYR619  PRO620  LYS621  CYS622 
 ASP623  PHE694  ASN695  SER759  ASP760  ASP761  ALA762  ILE779  LEU786  VAL792 
 PHE793  MET794  SER795  GLU796  ALA797  LYS798  CYS799  TRP800  GLU811  SER814 

> <Gold.Protein.RotatedAtoms>
  150.9013  134.8425  159.7361 H   0  0  0  0  0  0  0  0  0  0  0  0  # atno 6907 bound_to 6896
  152.4894  134.4498  159.9580 H   0  0  0  0  0  0  0  0  0  0  0  0  # atno 6908 bound_to 6896
  151.4550  133.3568  159.2836 H   0  0  0  0  0  0  0  0  0  0  0  0  # atno 6909 bound_to 6896
  145.4134  140.9546  143.2221 H   0  0  0  0  0  0  0  0  0  0  0  0  # atno 7974 bound_to 7965
  156.0036  140.3357  155.6870 H   0  0  0  0  0  0  0  0  0  0  0  0  # atno 8008 bound_to 7997
  155.6256  140.0679  157.2682 H   0  0  0  0  0  0  0  0  0  0  0  0  # atno 8009 bound_to 7997
  154.4257  140.1769  156.1406 H   0  0  0  0  0  0  0  0  0  0  0  0  # atno 8010 bound_to 7997
  140.1833  143.3949  152.1264 H   0  0  0  0  0  0  0  0  0  0  0  0  # atno 10167 bound_to 10162
  156.2701  130.7260  151.1224 H   0  0  0  0  0  0  0  0  0  0  0  0  # atno 10718 bound_to 10713
  153.9875  135.2935  155.3415 H   0  0  0  0  0  0  0  0  0  0  0  0  # atno 10763 bound_to 10752
  154.7234  135.5099  153.8851 H   0  0  0  0  0  0  0  0  0  0  0  0  # atno 10764 bound_to 10752
  153.0825  135.6683  154.0131 H   0  0  0  0  0  0  0  0  0  0  0  0  # atno 10765 bound_to 10752
  141.0421  133.9819  157.2977 H   0  0  0  0  0  0  0  0  0  0  0  0  # atno 11005 bound_to 11000
  144.8294  139.5655  143.6951 LP  0  0  0  0  0  0  0  0  0  0  0  0  # atno 17320 bound_to 7965
  146.2693  139.6597  142.9307 LP  0  0  0  0  0  0  0  0  0  0  0  0  # atno 17321 bound_to 7965
  139.5287  144.7133  151.5136 LP  0  0  0  0  0  0  0  0  0  0  0  0  # atno 17342 bound_to 10162
  140.6505  143.8707  150.6780 LP  0  0  0  0  0  0  0  0  0  0  0  0  # atno 17343 bound_to 10162
  157.7281  131.0634  150.5836 LP  0  0  0  0  0  0  0  0  0  0  0  0  # atno 17370 bound_to 10713
  156.5932  130.4334  149.5928 LP  0  0  0  0  0  0  0  0  0  0  0  0  # atno 17371 bound_to 10713
  139.9284  135.0201  156.8315 LP  0  0  0  0  0  0  0  0  0  0  0  0  # atno 17394 bound_to 11000
  140.6214  133.9990  155.7620 LP  0  0  0  0  0  0  0  0  0  0  0  0  # atno 17395 bound_to 11000

$$$$
