AV-unprocessed.smi:994|AV-procd|sdf|4343|dock5
  -GOLD-   22720 2243D 1   1.00000     0.00000
 Structure written by MMmdl.
 37 38  0  0  0  0  0  0  0  0  2 V2000
  150.9937  139.7468  157.9959 O   0  0  0  0  0  0  0  0  0  0  0  0
  151.4896  140.6498  157.3208 C   0  0  0  0  0  0  0  0  0  0  0  0
  151.5803  140.6086  155.9817 N   0  0  0  0  0  0  0  0  0  0  0  0
  151.1496  139.5085  155.1189 C   0  0  2  0  0  0  0  0  0  0  0  0
  149.6723  139.1336  155.3726 C   0  0  0  0  0  0  0  0  0  0  0  0
  148.6838  139.7272  154.3992 C   0  0  0  0  0  0  0  0  0  0  0  0
  147.8949  139.0785  153.4714 C   0  0  0  0  0  0  0  0  0  0  0  0
  147.1892  140.0643  152.8050 N   0  0  0  0  0  0  0  0  0  0  0  0
  147.5586  141.2325  153.3311 C   0  0  0  0  0  0  0  0  0  0  0  0
  148.4539  141.1052  154.3012 N   0  0  0  0  0  0  0  0  0  0  0  0
  152.1101  138.3249  155.2677 C   0  0  0  0  0  0  0  0  0  0  0  0
  153.0996  138.4805  156.0178 O   0  0  0  0  0  0  0  0  0  0  0  0
  151.8430  137.2842  154.6275 O   0  5  0  0  0  0  0  0  0  0  0  0
  152.0634  141.8971  158.0045 C   0  0  0  0  0  0  0  0  0  0  0  0
  151.8931  141.8040  159.5363 C   0  0  0  0  0  0  0  0  0  0  0  0
  152.4430  143.0555  160.2390 C   0  0  0  0  0  0  0  0  0  0  0  0
  151.7868  144.3338  159.6937 C   0  0  0  0  0  0  0  0  0  0  0  0
  151.9496  144.4341  158.1687 C   0  0  0  0  0  0  0  0  0  0  0  0
  151.3981  143.1821  157.4666 C   0  0  0  0  0  0  0  0  0  0  0  0
  146.5265  139.9264  152.0554 H   0  0  0  0  0  0  0  0  0  0  0  0
  151.9919  141.4019  155.5119 H   0  0  0  0  0  0  0  0  0  0  0  0
  151.2269  139.8337  154.0792 H   0  0  0  0  0  0  0  0  0  0  0  0
  149.5671  138.0491  155.3214 H   0  0  0  0  0  0  0  0  0  0  0  0
  149.3759  139.4170  156.3835 H   0  0  0  0  0  0  0  0  0  0  0  0
  147.7927  138.0301  153.2330 H   0  0  0  0  0  0  0  0  0  0  0  0
  147.1698  142.1846  153.0015 H   0  0  0  0  0  0  0  0  0  0  0  0
  153.1313  141.9497  157.7838 H   0  0  0  0  0  0  0  0  0  0  0  0
  150.8389  141.6838  159.7917 H   0  0  0  0  0  0  0  0  0  0  0  0
  152.4041  140.9183  159.9166 H   0  0  0  0  0  0  0  0  0  0  0  0
  152.2765  142.9814  161.3140 H   0  0  0  0  0  0  0  0  0  0  0  0
  153.5230  143.1092  160.0963 H   0  0  0  0  0  0  0  0  0  0  0  0
  150.7263  144.3369  159.9488 H   0  0  0  0  0  0  0  0  0  0  0  0
  152.2232  145.2103  160.1733 H   0  0  0  0  0  0  0  0  0  0  0  0
  151.4392  145.3233  157.7979 H   0  0  0  0  0  0  0  0  0  0  0  0
  153.0046  144.5572  157.9207 H   0  0  0  0  0  0  0  0  0  0  0  0
  151.5606  143.2662  156.3912 H   0  0  0  0  0  0  0  0  0  0  0  0
  150.3176  143.1370  157.6125 H   0  0  0  0  0  0  0  0  0  0  0  0
  1  2  2  0  0  0  0
  2  3  1  0  0  0  0
  2 14  1  0  0  0  0
  3  4  1  0  0  0  0
  3 21  1  0  0  0  0
  4  5  1  0  0  0  0
  4 11  1  0  0  0  0
  4 22  1  0  0  0  0
  5  6  1  0  0  0  0
  5 23  1  0  0  0  0
  5 24  1  0  0  0  0
  6 10  1  0  0  0  0
  6  7  2  0  0  0  0
  7  8  1  0  0  0  0
  7 25  1  0  0  0  0
  8 20  1  0  0  0  0
  8  9  1  0  0  0  0
  9 10  2  0  0  0  0
  9 26  1  0  0  0  0
 11 12  2  0  0  0  0
 11 13  1  0  0  0  0
 14 19  1  0  0  0  0
 14 15  1  0  0  0  0
 14 27  1  0  0  0  0
 15 16  1  0  0  0  0
 15 28  1  0  0  0  0
 15 29  1  0  0  0  0
 16 17  1  0  0  0  0
 16 30  1  0  0  0  0
 16 31  1  0  0  0  0
 17 18  1  0  0  0  0
 17 32  1  0  0  0  0
 17 33  1  0  0  0  0
 18 19  1  0  0  0  0
 18 34  1  0  0  0  0
 18 35  1  0  0  0  0
 19 36  1  0  0  0  0
 19 37  1  0  0  0  0
M  CHG  1  13  -1
M  END
> <s_m_source_file>
AV-unprocessed.smi

> <i_m_source_file_index>
994

> <i_lp_mmshare_version>
43012

> <i_f3d_flags>
0

> <s_epik_input>
W0NIMl0xW0NIMl1bQ0gyXVtDSDJdW0NIMl1bQ0hdMUMoPU8pW05IXVtDQEBIXShDKD1PKVtPSF0pW0NIMl1jMltjSF1bbkhdW2NIXW4y

> <s_epik_cmdline>
J2VwaWtfcHl0aG9uJywgJy1waCcsICc3LjAnLCAnLXRuJywgJzgnLCAnLW1hJywgJzIwMCcsICctbWV0YWxfYmluZGluZycsICctaW1hZScsICc8aW5maWxlLm1hZT4nLCAnLW9tYWUnLCAnPG91dGZpbGUubWFlPic=

> <r_lp_tautomer_probability>
0.5

> <r_epik_Ionization_Penalty>
0.836077

> <r_epik_Ionization_Penalty_Charging>
0.836077

> <r_epik_Ionization_Penalty_Neutral>
7.85059e-08

> <r_epik_State_Penalty>
0.938582

> <r_epik_Charging_Adjusted_Penalty>
1.77466

> <i_epik_Tot_Q>
-1

> <i_epik_Tot_abs_Q>
1

> <r_epik_Metal_State_Penalty>
0.523638

> <b_epik_Metal_Only>
0

> <s_lp_Force_Field>
OPLS_2005

> <r_lp_Energy>
9.63069

> <b_lp_Chiralities_Consistent>
1

> <s_lp_Variant>
AV-unprocessed.smi:994-5

> <Gold.Version>
5.8.1

> <Gold.Id.Protein>
6NUR|6NUR_protein|mol2

> <Gold.PLP.Fitness>
50.8083

> <Gold.PLP.PLP>
-37.6003

> <Gold.PLP.part.hbond>
-2.7814

> <Gold.PLP.part.metal>
0.0000

> <Gold.PLP.part.buried>
-4.8069

> <Gold.PLP.part.nonpolar>
-30.2115

> <Gold.PLP.part.repulsive>
0.4792

> <Gold.PLP.ligand.clash>
0.0000

> <Gold.PLP.ligand.torsion>
0.7712

> <Gold.PLP.Chemscore.Hbond>
3.8880

> <Gold.PLP.Chemscore.CHOScore>
1.0000

> <Gold.PLP.Chemscore.Metal>
0.0000

> <Gold.Chemscore.Hbonds>
donor molecule, donor type, donor heavy atom, donor atom, acceptor molecule, acceptor atom, score
      P1  H  7997  8010       L1    12  1.68
      P1  H 10752 10765       L1    13  1.95
      L1  C     7    25       P1  7948  1.00

> <Gold.PLP.Chemscore.Internal.Correction>
0.0864

> <Gold.Rescore>
     Score         DG    S(hbond)    S(metal)    S(lipo)     H(rot)  DE(clash)    DE(int)     intcor
     12.01     -14.99       1.79        0.00      88.34       2.66       0.10       2.88       ----

> <Gold.Chemscore.Fitness>
12.0096

> <Gold.Chemscore.DG>
-14.9891

> <Gold.Chemscore.ZeroCoef>
-5.4800

> <Gold.Chemscore.Hbond>
1.7897

> <Gold.Chemscore.Metal>
0.0000

> <Gold.Chemscore.Lipo>
88.3450

> <Gold.Chemscore.Internal_Hbond>
0.0000

> <Gold.Chemscore.DEClash>
0.1039

> <Gold.Chemscore.DEInternal>
2.8756

> <Gold.Chemscore.Rot>
2.6581

> <Gold.Chemscore.Internal.Correction>
   9.000000E+99

> <Gold.Chemscore.Hbonds>
donor molecule, donor type, donor heavy atom, donor atom, acceptor molecule, acceptor atom, score
      P1  H  7997  8010       L1    12  0.79
      P1  H 10752 10765       L1    13  0.91

> <Gold.Chemscore.Hbond.Weighted>
-5.9776

> <Gold.Chemscore.Metal.Weighted>
-0.0000

> <Gold.Chemscore.Lipo.Weighted>
-10.3364

> <Gold.Chemscore.Internal_Hbond.Weighted>
0.0000

> <Gold.Chemscore.DEClash.Weighted>
0.1039

> <Gold.Chemscore.DEInternal.Weighted>
2.8756

> <Gold.Chemscore.Rot.Weighted>
6.8048

> <Gold.Chemscore.Internal.Correction.Weighted>
   9.000000E+99

> <Gold.Protein.RotatedTorsions>
[ 6907 6896 6895 6894 ] final   55.25 input  -60.11 | X-H torsion
[ 7974 7965 7964 7962 ] final    9.39 input  175.53 | X-H torsion
[ 8008 7997 7996 7995 ] final   87.90 input   59.86 | X-H torsion
[ 10167 10162 10161 10158 ] final  132.08 input  -65.29 | X-H torsion
[ 10718 10713 10712 10709 ] final  -22.47 input   66.30 | X-H torsion
[ 10763 10752 10751 10750 ] final  160.39 input  -60.55 | X-H torsion
[ 11005 11000 10999 10996 ] final   65.12 input  -57.11 | X-H torsion

> <Gold.Protein.ActiveResidues>
 VAL166  LYS551  ARG553  GLY616  TRP617  ASP618  TYR619  PRO620  LYS621  CYS622 
 ASP623  PHE694  ASN695  SER759  ASP760  ASP761  ALA762  ILE779  LEU786  VAL792 
 PHE793  MET794  SER795  GLU796  ALA797  LYS798  CYS799  TRP800  GLU811  SER814 

> <Gold.Protein.RotatedAtoms>
  152.3520  134.6992  160.0233 H   0  0  0  0  0  0  0  0  0  0  0  0  # atno 6907 bound_to 6896
  151.7343  133.3313  159.3357 H   0  0  0  0  0  0  0  0  0  0  0  0  # atno 6908 bound_to 6896
  150.7546  134.6268  159.6210 H   0  0  0  0  0  0  0  0  0  0  0  0  # atno 6909 bound_to 6896
  146.2404  139.9791  142.8438 H   0  0  0  0  0  0  0  0  0  0  0  0  # atno 7974 bound_to 7965
  155.9811  140.3377  155.6664 H   0  0  0  0  0  0  0  0  0  0  0  0  # atno 8008 bound_to 7997
  155.6547  140.0709  157.2593 H   0  0  0  0  0  0  0  0  0  0  0  0  # atno 8009 bound_to 7997
  154.4192  140.1719  156.1699 H   0  0  0  0  0  0  0  0  0  0  0  0  # atno 8010 bound_to 7997
  139.5355  144.6678  151.4801 H   0  0  0  0  0  0  0  0  0  0  0  0  # atno 10167 bound_to 10162
  156.5041  130.4595  149.6684 H   0  0  0  0  0  0  0  0  0  0  0  0  # atno 10718 bound_to 10713
  154.2467  135.2773  155.2833 H   0  0  0  0  0  0  0  0  0  0  0  0  # atno 10763 bound_to 10752
  154.5500  135.5678  153.6917 H   0  0  0  0  0  0  0  0  0  0  0  0  # atno 10764 bound_to 10752
  152.9989  135.6272  154.2612 H   0  0  0  0  0  0  0  0  0  0  0  0  # atno 10765 bound_to 10752
  139.9915  134.6584  156.0083 H   0  0  0  0  0  0  0  0  0  0  0  0  # atno 11005 bound_to 11000
  145.1609  140.9672  143.4378 LP  0  0  0  0  0  0  0  0  0  0  0  0  # atno 17320 bound_to 7965
  145.0117  139.3504  143.6116 LP  0  0  0  0  0  0  0  0  0  0  0  0  # atno 17321 bound_to 7965
  140.6559  143.8600  150.6834 LP  0  0  0  0  0  0  0  0  0  0  0  0  # atno 17342 bound_to 10162
  140.1980  143.3982  152.1813 LP  0  0  0  0  0  0  0  0  0  0  0  0  # atno 17343 bound_to 10162
  156.3304  130.7328  151.2257 LP  0  0  0  0  0  0  0  0  0  0  0  0  # atno 17370 bound_to 10713
  157.7459  131.0431  150.4728 LP  0  0  0  0  0  0  0  0  0  0  0  0  # atno 17371 bound_to 10713
  141.1569  133.6542  156.4192 LP  0  0  0  0  0  0  0  0  0  0  0  0  # atno 17394 bound_to 11000
  140.4900  134.6584  157.5207 LP  0  0  0  0  0  0  0  0  0  0  0  0  # atno 17395 bound_to 11000

$$$$
