AV-unprocessed.smi:545|AV-procd|sdf|2881|dock6
  -GOLD-   2262023373D 1   1.00000     0.00000
 Structure written by MMmdl.
 36 37  0  0  0  0  0  0  0  0  1 V2000
  157.2140  139.8519  159.1943 C   0  0  0  0  0  0  0  0  0  0  0  0
  155.7984  139.8878  159.2032 O   0  0  0  0  0  0  0  0  0  0  0  0
  155.2817  140.7989  160.1593 C   0  0  0  0  0  0  0  0  0  0  0  0
  153.8287  140.4346  160.4948 C   0  0  0  0  0  0  0  0  0  0  0  0
  152.8827  141.0197  159.5440 N   0  0  0  0  0  0  0  0  0  0  0  0
  152.1970  142.2015  159.5996 C   0  0  0  0  0  0  0  0  0  0  0  0
  152.2762  143.1062  160.6678 N   0  0  0  0  0  0  0  0  0  0  0  0
  151.5322  144.3594  160.6982 C   0  0  0  0  0  0  0  0  0  0  0  0
  152.9181  142.9163  161.9626 C   0  0  0  0  0  0  0  0  0  0  0  0
  151.4583  142.4539  158.5136 N   0  0  0  0  0  0  0  0  0  0  0  0
  151.6746  141.3503  157.7073 C   0  0  0  0  0  0  0  0  0  0  0  0
  152.5348  140.4853  158.2994 C   0  0  0  0  0  0  0  0  0  0  0  0
  152.9776  139.2472  157.6392 C   0  0  0  0  0  0  0  0  0  0  0  0
  153.7759  138.4568  158.1376 O   0  0  0  0  0  0  0  0  0  0  0  0
  152.4240  139.0677  156.4156 N   0  0  0  0  0  0  0  0  0  0  0  0
  151.5473  139.8948  155.7698 C   0  0  0  0  0  0  0  0  0  0  0  0
  151.1321  139.5976  154.6496 O   0  0  0  0  0  0  0  0  0  0  0  0
  151.1654  141.0436  156.4131 N   0  0  0  0  0  0  0  0  0  0  0  0
  150.2337  141.9695  155.7662 C   0  0  0  0  0  0  0  0  0  0  0  0
  152.6943  138.2302  155.9209 H   0  0  0  0  0  0  0  0  0  0  0  0
  157.5566  139.1402  158.4433 H   0  0  0  0  0  0  0  0  0  0  0  0
  157.6065  139.5356  160.1617 H   0  0  0  0  0  0  0  0  0  0  0  0
  157.6319  140.8289  158.9484 H   0  0  0  0  0  0  0  0  0  0  0  0
  155.8897  140.7729  161.0651 H   0  0  0  0  0  0  0  0  0  0  0  0
  155.3256  141.8155  159.7662 H   0  0  0  0  0  0  0  0  0  0  0  0
  153.7071  139.3529  160.5017 H   0  0  0  0  0  0  0  0  0  0  0  0
  153.5901  140.7276  161.5104 H   0  0  0  0  0  0  0  0  0  0  0  0
  151.2825  144.6875  159.6888 H   0  0  0  0  0  0  0  0  0  0  0  0
  152.1150  145.1549  161.1645 H   0  0  0  0  0  0  0  0  0  0  0  0
  150.6028  144.2370  161.2551 H   0  0  0  0  0  0  0  0  0  0  0  0
  152.8954  141.8644  162.2476 H   0  0  0  0  0  0  0  0  0  0  0  0
  152.4131  143.4685  162.7567 H   0  0  0  0  0  0  0  0  0  0  0  0
  153.9542  143.2536  161.9280 H   0  0  0  0  0  0  0  0  0  0  0  0
  149.3197  141.4534  155.4691 H   0  0  0  0  0  0  0  0  0  0  0  0
  150.6874  142.4016  154.8735 H   0  0  0  0  0  0  0  0  0  0  0  0
  149.9405  142.7928  156.4174 H   0  0  0  0  0  0  0  0  0  0  0  0
  1  2  1  0  0  0  0
  1 21  1  0  0  0  0
  1 22  1  0  0  0  0
  1 23  1  0  0  0  0
  2  3  1  0  0  0  0
  3  4  1  0  0  0  0
  3 24  1  0  0  0  0
  3 25  1  0  0  0  0
  4  5  1  0  0  0  0
  4 26  1  0  0  0  0
  4 27  1  0  0  0  0
  5 12  1  0  0  0  0
  5  6  1  0  0  0  0
  6  7  1  0  0  0  0
  6 10  2  0  0  0  0
  7  8  1  0  0  0  0
  7  9  1  0  0  0  0
  8 28  1  0  0  0  0
  8 29  1  0  0  0  0
  8 30  1  0  0  0  0
  9 31  1  0  0  0  0
  9 32  1  0  0  0  0
  9 33  1  0  0  0  0
 10 11  1  0  0  0  0
 11 18  1  0  0  0  0
 11 12  2  0  0  0  0
 12 13  1  0  0  0  0
 13 14  2  0  0  0  0
 13 15  1  0  0  0  0
 15 20  1  0  0  0  0
 15 16  1  0  0  0  0
 16 17  2  0  0  0  0
 16 18  1  0  0  0  0
 18 19  1  0  0  0  0
 19 34  1  0  0  0  0
 19 35  1  0  0  0  0
 19 36  1  0  0  0  0
M  END
> <s_m_source_file>
AV-unprocessed.smi

> <i_m_source_file_index>
545

> <i_lp_mmshare_version>
43012

> <i_f3d_flags>
0

> <s_epik_input>
W0NIM11PW0NIMl1bQ0gyXW4oYyhuMSlOKFtDSDNdKVtDSDNdKWMoYzEyKWMoPU8pW25IXWMoPU8pbjJbQ0gzXQ==

> <s_epik_cmdline>
J2VwaWtfcHl0aG9uJywgJy1waCcsICc3LjAnLCAnLXRuJywgJzgnLCAnLW1hJywgJzIwMCcsICctbWV0YWxfYmluZGluZycsICctaW1hZScsICc8aW5maWxlLm1hZT4nLCAnLW9tYWUnLCAnPG91dGZpbGUubWFlPic=

> <r_lp_tautomer_probability>
1

> <r_epik_Ionization_Penalty>
6.48997e-05

> <r_epik_Ionization_Penalty_Charging>
1.66474e-05

> <r_epik_Ionization_Penalty_Neutral>
4.82523e-05

> <r_epik_State_Penalty>
-0

> <r_epik_Charging_Adjusted_Penalty>
1.66474e-05

> <i_epik_Tot_Q>
0

> <i_epik_Tot_abs_Q>
0

> <r_epik_Metal_State_Penalty>
0.0159702

> <b_epik_Metal_Only>
0

> <s_lp_Force_Field>
OPLS_2005

> <r_lp_Energy>
27.7728

> <b_lp_Chiralities_Consistent>
1

> <s_lp_Variant>
AV-unprocessed.smi:545-1

> <Gold.Version>
5.8.1

> <Gold.Id.Protein>
6NUR|6NUR_protein|mol2

> <Gold.PLP.Fitness>
42.1972

> <Gold.PLP.PLP>
-37.3694

> <Gold.PLP.part.hbond>
-2.9695

> <Gold.PLP.part.metal>
0.0000

> <Gold.PLP.part.buried>
-1.5231

> <Gold.PLP.part.nonpolar>
-32.2404

> <Gold.PLP.part.repulsive>
0.2661

> <Gold.PLP.ligand.clash>
0.0000

> <Gold.PLP.ligand.torsion>
0.6056

> <Gold.PLP.Chemscore.Hbond>
2.0000

> <Gold.PLP.Chemscore.CHOScore>
0.0000

> <Gold.PLP.Chemscore.Metal>
0.0000

> <Gold.Chemscore.Hbonds>
donor molecule, donor type, donor heavy atom, donor atom, acceptor molecule, acceptor atom, score
      P1  H  7989  7998       L1    17  1.00
      P1  H  7997  8009       L1     2  1.00

> <Gold.PLP.Chemscore.Internal.Correction>
0.0389

> <Gold.Rescore>
     Score         DG    S(hbond)    S(metal)    S(lipo)     H(rot)  DE(clash)    DE(int)     intcor
      9.81     -14.15       1.60        0.00      62.70       1.57       1.42       2.91       ----

> <Gold.Chemscore.Fitness>
9.8134

> <Gold.Chemscore.DG>
-14.1484

> <Gold.Chemscore.ZeroCoef>
-5.4800

> <Gold.Chemscore.Hbond>
1.6029

> <Gold.Chemscore.Metal>
0.0000

> <Gold.Chemscore.Lipo>
62.6952

> <Gold.Chemscore.Internal_Hbond>
0.0000

> <Gold.Chemscore.DEClash>
1.4238

> <Gold.Chemscore.DEInternal>
2.9112

> <Gold.Chemscore.Rot>
1.5705

> <Gold.Chemscore.Internal.Correction>
   9.000000E+99

> <Gold.Chemscore.Hbonds>
donor molecule, donor type, donor heavy atom, donor atom, acceptor molecule, acceptor atom, score
      P1  H  7989  7998       L1    17  0.70
      P1  H  7997  8009       L1     2  0.38

> <Gold.Chemscore.Hbond.Weighted>
-5.3536

> <Gold.Chemscore.Metal.Weighted>
-0.0000

> <Gold.Chemscore.Lipo.Weighted>
-7.3353

> <Gold.Chemscore.Internal_Hbond.Weighted>
0.0000

> <Gold.Chemscore.DEClash.Weighted>
1.4238

> <Gold.Chemscore.DEInternal.Weighted>
2.9112

> <Gold.Chemscore.Rot.Weighted>
4.0205

> <Gold.Chemscore.Internal.Correction.Weighted>
   9.000000E+99

> <Gold.Protein.RotatedTorsions>
[ 6907 6896 6895 6894 ] final  123.08 input  -60.11 | X-H torsion
[ 7974 7965 7964 7962 ] final  -67.82 input  175.53 | X-H torsion
[ 8008 7997 7996 7995 ] final  106.40 input   59.86 | X-H torsion
[ 10167 10162 10161 10158 ] final  -87.18 input  -65.29 | X-H torsion
[ 10718 10713 10712 10709 ] final  -38.82 input   66.30 | X-H torsion
[ 10763 10752 10751 10750 ] final  103.76 input  -60.55 | X-H torsion
[ 11005 11000 10999 10996 ] final   38.83 input  -57.11 | X-H torsion

> <Gold.Protein.ActiveResidues>
 VAL166  LYS551  ARG553  GLY616  TRP617  ASP618  TYR619  PRO620  LYS621  CYS622 
 ASP623  PHE694  ASN695  SER759  ASP760  ASP761  ALA762  ILE779  LEU786  VAL792 
 PHE793  MET794  SER795  GLU796  ALA797  LYS798  CYS799  TRP800  GLU811  SER814 

> <Gold.Protein.RotatedAtoms>
  152.4191  133.7087  159.6465 H   0  0  0  0  0  0  0  0  0  0  0  0  # atno 6907 bound_to 6896
  150.8067  133.8485  159.3207 H   0  0  0  0  0  0  0  0  0  0  0  0  # atno 6908 bound_to 6896
  151.6207  135.1034  160.0152 H   0  0  0  0  0  0  0  0  0  0  0  0  # atno 6909 bound_to 6896
  145.7244  140.9024  143.0613 H   0  0  0  0  0  0  0  0  0  0  0  0  # atno 7974 bound_to 7965
  156.1739  140.3113  155.9024 H   0  0  0  0  0  0  0  0  0  0  0  0  # atno 8008 bound_to 7997
  155.3528  140.0472  157.3063 H   0  0  0  0  0  0  0  0  0  0  0  0  # atno 8009 bound_to 7997
  154.5270  140.2217  155.8883 H   0  0  0  0  0  0  0  0  0  0  0  0  # atno 8010 bound_to 7997
  140.3869  143.2722  151.9313 H   0  0  0  0  0  0  0  0  0  0  0  0  # atno 10167 bound_to 10162
  156.2994  130.4238  149.8158 H   0  0  0  0  0  0  0  0  0  0  0  0  # atno 10718 bound_to 10713
  153.3570  135.3966  155.1689 H   0  0  0  0  0  0  0  0  0  0  0  0  # atno 10763 bound_to 10752
  154.8672  135.3670  154.5149 H   0  0  0  0  0  0  0  0  0  0  0  0  # atno 10764 bound_to 10752
  153.5605  135.7081  153.5610 H   0  0  0  0  0  0  0  0  0  0  0  0  # atno 10765 bound_to 10752
  140.2087  134.3781  155.8059 H   0  0  0  0  0  0  0  0  0  0  0  0  # atno 11005 bound_to 11000
  144.6908  139.9245  143.7469 LP  0  0  0  0  0  0  0  0  0  0  0  0  # atno 17320 bound_to 7965
  146.0596  139.3590  143.0589 LP  0  0  0  0  0  0  0  0  0  0  0  0  # atno 17321 bound_to 7965
  139.4791  144.5765  151.8003 LP  0  0  0  0  0  0  0  0  0  0  0  0  # atno 17342 bound_to 10162
  140.4880  144.1353  150.5944 LP  0  0  0  0  0  0  0  0  0  0  0  0  # atno 17343 bound_to 10162
  156.5542  130.8355  151.3309 LP  0  0  0  0  0  0  0  0  0  0  0  0  # atno 17370 bound_to 10713
  157.7364  130.9778  150.2134 LP  0  0  0  0  0  0  0  0  0  0  0  0  # atno 17371 bound_to 10713
  141.2226  133.7132  156.8381 LP  0  0  0  0  0  0  0  0  0  0  0  0  # atno 17394 bound_to 11000
  140.1974  134.8922  157.3130 LP  0  0  0  0  0  0  0  0  0  0  0  0  # atno 17395 bound_to 11000

$$$$
