#       Name:                AV-unprocessed.smi:1686
#       Creating user name   scv26
#       Creation time:       Fri Mar 27 07:52:13 2020


#       File generated by GOLD software.
#

@<TRIPOS>MOLECULE
AV-unprocessed.smi:1686
    46    48     1
SMALL
NO_CHARGES


@<TRIPOS>ATOM
      1 ****        -3.1788   3.3060   2.8919 C.3            1 S1                 0.0000
      2 ****        -3.3482   3.6664   1.4441 C.2            1 S1                 0.0000
      3 ****        -3.7898   4.8767   1.1277 N.2            1 S1                 0.0000
      4 ****        -3.8368   4.9263  -0.2702 O.3            1 S1                 0.0000
      5 ****        -3.4164   3.7231  -0.7234 C.2            1 S1                 0.0000
      6 ****        -3.3144   3.3567  -2.3999 Cl             1 S1                 0.0000
      7 ****        -3.0920   2.8683   0.2904 C.2            1 S1                 0.0000
      8 ****        -2.5853   1.4475   0.2209 C.3            1 S1                 0.0000
      9 ****        -1.0546   1.3854   0.2926 C.2            1 S1                 0.0000
     10 ****        -0.3692   2.4075   0.2309 O.2            1 S1                 0.0000
     11 ****        -0.5308   0.1568   0.4217 N.am           1 S1                 0.0000
     12 ****         0.8951  -0.1609   0.4862 C.3            1 S1                 0.0000
     13 ****         1.3606  -0.0736   1.9515 C.3            1 S1                 0.0000
     14 ****         1.1414  -1.5564  -0.1402 C.3            1 S1                 0.0000
     15 ****         0.6175  -1.6882  -1.5933 C.3            1 S1                 0.0000
     16 ****         1.8446  -2.1942  -2.3708 C.3            1 S1                 0.0000
     17 ****         2.1612  -3.6409  -1.9517 C.3            1 S1                 0.0000
     18 ****         2.7368  -3.4626  -0.5346 C.3            1 S1                 0.0000
     19 ****         2.6334  -1.9408  -0.3134 C.3            1 S1                 0.0000
     20 ****         2.9682  -1.4124  -1.7048 C.3            1 S1                 0.0000
     21 ****        -2.6990   2.3345   3.0083 H              1 S1                 0.0000
     22 ****        -4.1424   3.2631   3.3998 H              1 S1                 0.0000
     23 ****        -2.5609   4.0402   3.4092 H              1 S1                 0.0000
     24 ****        -2.9976   0.8487   1.0339 H              1 S1                 0.0000
     25 ****        -2.9035   0.9609  -0.7016 H              1 S1                 0.0000
     26 ****        -1.1693  -0.6244   0.4626 H              1 S1                 0.0000
     27 ****         1.4485   0.5785  -0.0951 H              1 S1                 0.0000
     28 ****         2.4339  -0.2310   2.0471 H              1 S1                 0.0000
     29 ****         0.8587  -0.8166   2.5721 H              1 S1                 0.0000
     30 ****         1.1464   0.9087   2.3740 H              1 S1                 0.0000
     31 ****         0.6474  -2.2974   0.4904 H              1 S1                 0.0000
     32 ****        -0.2319  -2.3682  -1.6677 H              1 S1                 0.0000
     33 ****         0.3031  -0.7244  -1.9962 H              1 S1                 0.0000
     34 ****         1.7645  -2.0581  -3.4496 H              1 S1                 0.0000
     35 ****         1.2753  -4.2768  -1.9647 H              1 S1                 0.0000
     36 ****         2.9040  -4.0863  -2.6146 H              1 S1                 0.0000
     37 ****         2.1881  -4.0344   0.2145 H              1 S1                 0.0000
     38 ****         3.7777  -3.7870  -0.5028 H              1 S1                 0.0000
     39 ****         3.2936  -1.5861   0.4771 H              1 S1                 0.0000
     40 ****         3.9615  -1.7032  -2.0517 H              1 S1                 0.0000
     41 ****         2.8602  -0.3309  -1.8006 H              1 S1                 0.0000
     42 ****        -4.0395   5.6083   1.7621 LP             1 S1                 0.0000
     43 ****        -3.2352   5.6499  -0.6085 LP             1 S1                 0.0000
     44 ****        -4.7727   5.1006  -0.5763 LP             1 S1                 0.0000
     45 ****        -0.8098   3.2997   0.1321 LP             1 S1                 0.0000
     46 ****         0.6276   2.3447   0.2796 LP             1 S1                 0.0000
@<TRIPOS>BOND
    1    1    2 1     
    2    1   21 1     
    3    1   22 1     
    4    1   23 1     
    5    2    7 1     
    6    2    3 2     
    7    3    4 1     
    8    4    5 1     
    9    5    6 1     
   10    5    7 2     
   11    7    8 1     
   12    8    9 1     
   13    8   24 1     
   14    8   25 1     
   15    9   10 2     
   16    9   11 am    
   17   11   12 1     
   18   11   26 1     
   19   12   13 1     
   20   12   14 1     
   21   12   27 1     
   22   13   28 1     
   23   13   29 1     
   24   13   30 1     
   25   14   19 1     
   26   14   15 1     
   27   14   31 1     
   28   15   16 1     
   29   15   32 1     
   30   15   33 1     
   31   16   20 1     
   32   16   17 1     
   33   16   34 1     
   34   17   18 1     
   35   17   35 1     
   36   17   36 1     
   37   18   19 1     
   38   18   37 1     
   39   18   38 1     
   40   19   20 1     
   41   19   39 1     
   42   20   40 1     
   43   20   41 1     
   44    3   42 1     
   45    4   43 1     
   46    4   44 1     
   47   10   45 1     
   48   10   46 1     
@<TRIPOS>SUBSTRUCTURE
      1 S1             1
@<TRIPOS>SET
LONE_PAIRS      STATIC     ATOMS    <user>   **** ""
5 42 43 44 45 46
DONOR_HYDROGENS      STATIC     ATOMS    <user>   **** ""
1 26
ATOM$BLUE        STATIC     ATOMS    COLORGROUP SYSTEM
5 42 43 44 45 46
ATOM$RED        STATIC     ATOMS    COLORGROUP SYSTEM
1 26
