AV-unprocessed.smi:1488|AV-procd|sdf|6023|dock1
  -GOLD-   22720 6123D 1   1.00000     0.00000
 Structure written by MMmdl.
 36 37  0  0  0  0  0  0  0  0  1 V2000
  155.7547  144.2251  169.1504 C   0  0  0  0  0  0  0  0  0  0  0  0
  155.8409  143.3676  167.9347 C   0  0  0  0  0  0  0  0  0  0  0  0
  155.2535  143.4380  166.7027 C   0  0  0  0  0  0  0  0  0  0  0  0
  155.7795  142.3016  166.0324 C   0  0  0  0  0  0  0  0  0  0  0  0
  155.4085  142.0090  164.6953 N   0  0  0  0  0  0  0  0  0  0  0  0
  154.3333  142.4602  164.0269 C   0  0  0  0  0  0  0  0  0  0  0  0
  153.4777  143.2160  164.4883 O   0  0  0  0  0  0  0  0  0  0  0  0
  154.2970  141.9756  162.7768 N   0  0  0  0  0  0  0  0  0  0  0  0
  153.2531  142.2570  161.7959 C   0  0  2  0  0  0  0  0  0  0  0  0
  153.7259  141.8814  160.3778 C   0  0  0  0  0  0  0  0  0  0  0  0
  152.6691  142.2376  159.3200 C   0  0  0  0  0  0  0  0  0  0  0  0
  152.2785  143.7297  159.3785 C   0  0  1  0  0  0  0  0  0  0  0  0
  151.2275  144.0950  158.3097 C   0  0  0  0  0  0  0  0  0  0  0  0
  150.6975  145.2935  158.5555 F   0  0  0  0  0  0  0  0  0  0  0  0
  151.7915  144.1124  157.1022 F   0  0  0  0  0  0  0  0  0  0  0  0
  150.2520  143.1864  158.2995 F   0  0  0  0  0  0  0  0  0  0  0  0
  151.8083  144.0966  160.8022 C   0  0  0  0  0  0  0  0  0  0  0  0
  152.8673  143.7455  161.8599 C   0  0  0  0  0  0  0  0  0  0  0  0
  156.6106  141.5997  166.7878 N   0  0  0  0  0  0  0  0  0  0  0  0
  156.6535  142.2789  168.0110 O   0  0  0  0  0  0  0  0  0  0  0  0
  155.2674  145.1736  168.9243 H   0  0  0  0  0  0  0  0  0  0  0  0
  156.7483  144.4416  169.5433 H   0  0  0  0  0  0  0  0  0  0  0  0
  155.1816  143.7279  169.9328 H   0  0  0  0  0  0  0  0  0  0  0  0
  154.5615  144.1846  166.3420 H   0  0  0  0  0  0  0  0  0  0  0  0
  156.0245  141.3841  164.1969 H   0  0  0  0  0  0  0  0  0  0  0  0
  155.0428  141.3622  162.4823 H   0  0  0  0  0  0  0  0  0  0  0  0
  152.3668  141.6680  162.0402 H   0  0  0  0  0  0  0  0  0  0  0  0
  154.6573  142.4010  160.1479 H   0  0  0  0  0  0  0  0  0  0  0  0
  153.9471  140.8148  160.3250 H   0  0  0  0  0  0  0  0  0  0  0  0
  153.0527  141.9889  158.3302 H   0  0  0  0  0  0  0  0  0  0  0  0
  151.7845  141.6178  159.4711 H   0  0  0  0  0  0  0  0  0  0  0  0
  153.1750  144.3143  159.1658 H   0  0  0  0  0  0  0  0  0  0  0  0
  151.5810  145.1614  160.8598 H   0  0  0  0  0  0  0  0  0  0  0  0
  150.8803  143.5716  161.0318 H   0  0  0  0  0  0  0  0  0  0  0  0
  152.4879  143.9904  162.8529 H   0  0  0  0  0  0  0  0  0  0  0  0
  153.7515  144.3657  161.7051 H   0  0  0  0  0  0  0  0  0  0  0  0
  1  2  1  0  0  0  0
  1 21  1  0  0  0  0
  1 22  1  0  0  0  0
  1 23  1  0  0  0  0
  2 20  1  0  0  0  0
  2  3  2  0  0  0  0
  3  4  1  0  0  0  0
  3 24  1  0  0  0  0
  4  5  1  0  0  0  0
  4 19  2  0  0  0  0
  5  6  1  0  0  0  0
  5 25  1  0  0  0  0
  6  7  2  0  0  0  0
  6  8  1  0  0  0  0
  8  9  1  0  0  0  0
  8 26  1  0  0  0  0
  9 18  1  0  0  0  0
  9 10  1  0  0  0  0
  9 27  1  0  0  0  0
 10 11  1  0  0  0  0
 10 28  1  0  0  0  0
 10 29  1  0  0  0  0
 11 12  1  0  0  0  0
 11 30  1  0  0  0  0
 11 31  1  0  0  0  0
 12 13  1  0  0  0  0
 12 17  1  0  0  0  0
 12 32  1  0  0  0  0
 13 14  1  0  0  0  0
 13 15  1  0  0  0  0
 13 16  1  0  0  0  0
 17 18  1  0  0  0  0
 17 33  1  0  0  0  0
 17 34  1  0  0  0  0
 18 35  1  0  0  0  0
 18 36  1  0  0  0  0
 19 20  1  0  0  0  0
M  END
> <s_m_source_file>
AV-unprocessed.smi

> <i_m_source_file_index>
1488

> <i_lp_mmshare_version>
43012

> <i_f3d_flags>
0

> <s_epik_input>
W0NIM11jMVtjSF1jKG5vMSlbTkhdQyg9TylbTkhdW0NAQEhdMltDSDJdW0NIMl1bQ0BASF0oQyhGKShGKUYpW0NIMl1bQ0gyXTI=

> <s_epik_cmdline>
J2VwaWtfcHl0aG9uJywgJy1waCcsICc3LjAnLCAnLXRuJywgJzgnLCAnLW1hJywgJzIwMCcsICctbWV0YWxfYmluZGluZycsICctaW1hZScsICc8aW5maWxlLm1hZT4nLCAnLW9tYWUnLCAnPG91dGZpbGUubWFlPic=

> <r_lp_tautomer_probability>
1

> <r_epik_Ionization_Penalty>
2.30349e-05

> <r_epik_Ionization_Penalty_Charging>
0

> <r_epik_Ionization_Penalty_Neutral>
2.30349e-05

> <r_epik_State_Penalty>
-0

> <r_epik_Charging_Adjusted_Penalty>
0

> <i_epik_Tot_Q>
0

> <i_epik_Tot_abs_Q>
0

> <r_epik_Metal_State_Penalty>
-0

> <b_epik_Metal_Only>
0

> <s_lp_Force_Field>
OPLS_2005

> <r_lp_Energy>
8.97319

> <b_lp_Chiralities_Consistent>
1

> <s_lp_Variant>
AV-unprocessed.smi:1488-1

> <Gold.Version>
5.8.1

> <Gold.Id.Protein>
6NUR|6NUR_protein|mol2

> <Gold.PLP.Fitness>
43.1721

> <Gold.PLP.PLP>
-44.4923

> <Gold.PLP.part.hbond>
-2.8422

> <Gold.PLP.part.metal>
0.0000

> <Gold.PLP.part.buried>
-2.9325

> <Gold.PLP.part.nonpolar>
-38.2437

> <Gold.PLP.part.repulsive>
0.1858

> <Gold.PLP.ligand.clash>
0.0064

> <Gold.PLP.ligand.torsion>
0.6671

> <Gold.PLP.Chemscore.Hbond>
0.0000

> <Gold.PLP.Chemscore.CHOScore>
0.0000

> <Gold.PLP.Chemscore.Metal>
0.0000

> <Gold.PLP.Chemscore.Internal.Correction>
0.0204

> <Gold.Rescore>
     Score         DG    S(hbond)    S(metal)    S(lipo)     H(rot)  DE(clash)    DE(int)     intcor
      9.12     -14.63       0.00        0.00     100.10       1.00       2.32       3.19       ----

> <Gold.Chemscore.Fitness>
9.1232

> <Gold.Chemscore.DG>
-14.6320

> <Gold.Chemscore.ZeroCoef>
-5.4800

> <Gold.Chemscore.Hbond>
0.0000

> <Gold.Chemscore.Metal>
0.0000

> <Gold.Chemscore.Lipo>
100.1022

> <Gold.Chemscore.Internal_Hbond>
0.0000

> <Gold.Chemscore.DEClash>
2.3204

> <Gold.Chemscore.DEInternal>
3.1884

> <Gold.Chemscore.Rot>
1.0000

> <Gold.Chemscore.Internal.Correction>
   9.000000E+99

> <Gold.Chemscore.Hbond.Weighted>
-0.0000

> <Gold.Chemscore.Metal.Weighted>
-0.0000

> <Gold.Chemscore.Lipo.Weighted>
-11.7120

> <Gold.Chemscore.Internal_Hbond.Weighted>
0.0000

> <Gold.Chemscore.DEClash.Weighted>
2.3204

> <Gold.Chemscore.DEInternal.Weighted>
3.1884

> <Gold.Chemscore.Rot.Weighted>
2.5600

> <Gold.Chemscore.Internal.Correction.Weighted>
   9.000000E+99

> <Gold.Protein.RotatedTorsions>
[ 6907 6896 6895 6894 ] final  179.61 input  -60.11 | X-H torsion
[ 7974 7965 7964 7962 ] final   -1.57 input  175.53 | X-H torsion
[ 8008 7997 7996 7995 ] final  -29.34 input   59.86 | X-H torsion
[ 10167 10162 10161 10158 ] final  -74.50 input  -65.29 | X-H torsion
[ 10718 10713 10712 10709 ] final  -13.08 input   66.30 | X-H torsion
[ 10763 10752 10751 10750 ] final  -25.88 input  -60.55 | X-H torsion
[ 11005 11000 10999 10996 ] final  132.66 input  -57.11 | X-H torsion

> <Gold.Protein.ActiveResidues>
 VAL166  LYS551  ARG553  GLY616  TRP617  ASP618  TYR619  PRO620  LYS621  CYS622 
 ASP623  PHE694  ASN695  SER759  ASP760  ASP761  ALA762  ILE779  LEU786  VAL792 
 PHE793  MET794  SER795  GLU796  ALA797  LYS798  CYS799  TRP800  GLU811  SER814 

> <Gold.Protein.RotatedAtoms>
  151.6689  133.3314  159.3191 H   0  0  0  0  0  0  0  0  0  0  0  0  # atno 6907 bound_to 6896
  150.7877  134.6879  159.6490 H   0  0  0  0  0  0  0  0  0  0  0  0  # atno 6908 bound_to 6896
  152.3950  134.6383  160.0145 H   0  0  0  0  0  0  0  0  0  0  0  0  # atno 6909 bound_to 6896
  146.2415  140.1441  142.8335 H   0  0  0  0  0  0  0  0  0  0  0  0  # atno 7974 bound_to 7965
  154.4294  140.1821  156.1232 H   0  0  0  0  0  0  0  0  0  0  0  0  # atno 8008 bound_to 7997
  156.0126  140.3349  155.6931 H   0  0  0  0  0  0  0  0  0  0  0  0  # atno 8009 bound_to 7997
  155.6089  140.0648  157.2702 H   0  0  0  0  0  0  0  0  0  0  0  0  # atno 8010 bound_to 7997
  140.5021  143.2359  151.7734 H   0  0  0  0  0  0  0  0  0  0  0  0  # atno 10167 bound_to 10162
  156.6353  130.4913  149.6114 H   0  0  0  0  0  0  0  0  0  0  0  0  # atno 10718 bound_to 10713
  153.7070  135.6953  153.5047 H   0  0  0  0  0  0  0  0  0  0  0  0  # atno 10763 bound_to 10752
  153.2300  135.4340  155.0584 H   0  0  0  0  0  0  0  0  0  0  0  0  # atno 10764 bound_to 10752
  154.8327  135.3482  154.6608 H   0  0  0  0  0  0  0  0  0  0  0  0  # atno 10765 bound_to 10752
  139.9803  134.9550  156.9613 H   0  0  0  0  0  0  0  0  0  0  0  0  # atno 11005 bound_to 11000
  145.0222  140.8803  143.5160 LP  0  0  0  0  0  0  0  0  0  0  0  0  # atno 17320 bound_to 7965
  145.1491  139.2525  143.5450 LP  0  0  0  0  0  0  0  0  0  0  0  0  # atno 17321 bound_to 7965
  139.4875  144.4507  151.9657 LP  0  0  0  0  0  0  0  0  0  0  0  0  # atno 17342 bound_to 10162
  140.3597  144.2988  150.5935 LP  0  0  0  0  0  0  0  0  0  0  0  0  # atno 17343 bound_to 10162
  156.2202  130.6732  151.1360 LP  0  0  0  0  0  0  0  0  0  0  0  0  # atno 17370 bound_to 10713
  157.7187  131.0694  150.6222 LP  0  0  0  0  0  0  0  0  0  0  0  0  # atno 17371 bound_to 10713
  140.5109  134.1003  155.7270 LP  0  0  0  0  0  0  0  0  0  0  0  0  # atno 17394 bound_to 11000
  141.1476  133.9027  157.2177 LP  0  0  0  0  0  0  0  0  0  0  0  0  # atno 17395 bound_to 11000

$$$$
