AV-unprocessed.smi:50|AV-procd|sdf|496|dock1
  -GOLD-   2262016363D 1   1.00000     0.00000
 Structure written by MMmdl.
 43 44  0  0  0  0  0  0  0  0  3 V2000
  144.7821  132.4377  152.0087 C   0  0  0  0  0  0  0  0  0  0  0  0
  144.0403  133.4641  151.1297 C   0  0  0  0  0  0  0  0  0  0  0  0
  143.6601  132.8073  149.7896 C   0  0  0  0  0  0  0  0  0  0  0  0
  144.8624  134.7667  150.9270 C   0  0  1  0  0  0  0  0  0  0  0  0
  144.3217  135.5925  149.8311 N   0  3  0  0  0  0  0  0  0  0  0  0
  144.8933  135.6847  152.1594 C   0  0  0  0  0  0  0  0  0  0  0  0
  144.2589  135.4842  153.1964 O   0  0  0  0  0  0  0  0  0  0  0  0
  145.6760  136.7514  151.9244 O   0  0  0  0  0  0  0  0  0  0  0  0
  145.6557  137.8489  152.8232 C   0  0  0  0  0  0  0  0  0  0  0  0
  146.7756  138.8289  152.4625 C   0  0  0  0  0  0  0  0  0  0  0  0
  147.4285  139.2343  153.6540 O   0  0  0  0  0  0  0  0  0  0  0  0
  147.9478  140.5213  153.5759 C   0  0  0  0  0  0  0  0  0  0  0  0
  149.0708  140.6250  154.4914 N   0  0  0  0  0  0  0  0  0  0  0  0
  149.3360  141.6195  155.3629 C   0  0  0  0  0  0  0  0  0  0  0  0
  150.4464  141.4682  156.0833 N   0  0  0  0  0  0  0  0  0  0  0  0
  150.9369  140.2566  155.6099 C   0  0  0  0  0  0  0  0  0  0  0  0
  152.1511  139.4795  155.9585 C   0  0  0  0  0  0  0  0  0  0  0  0
  152.9104  139.9108  156.8243 O   0  0  0  0  0  0  0  0  0  0  0  0
  152.3240  138.3152  155.2617 N   0  5  0  0  0  0  0  0  0  0  0  0
  151.3895  137.9213  154.2935 C   0  0  0  0  0  0  0  0  0  0  0  0
  151.7220  136.7310  153.6841 N   0  0  0  0  0  0  0  0  0  0  0  0
  150.2962  138.5518  153.9402 N   0  0  0  0  0  0  0  0  0  0  0  0
  150.1230  139.7295  154.6438 C   0  0  0  0  0  0  0  0  0  0  0  0
  145.8847  134.4964  150.6599 H   0  0  0  0  0  0  0  0  0  0  0  0
  145.7372  132.1555  151.5643 H   0  0  0  0  0  0  0  0  0  0  0  0
  144.1937  131.5277  152.1298 H   0  0  0  0  0  0  0  0  0  0  0  0
  144.9830  132.8200  153.0093 H   0  0  0  0  0  0  0  0  0  0  0  0
  143.1072  133.7170  151.6363 H   0  0  0  0  0  0  0  0  0  0  0  0
  144.5468  132.5616  149.2041 H   0  0  0  0  0  0  0  0  0  0  0  0
  143.0270  133.4547  149.1829 H   0  0  0  0  0  0  0  0  0  0  0  0
  143.1046  131.8826  149.9507 H   0  0  0  0  0  0  0  0  0  0  0  0
  144.9006  135.4787  149.0112 H   0  0  0  0  0  0  0  0  0  0  0  0
  144.3221  136.5627  150.1115 H   0  0  0  0  0  0  0  0  0  0  0  0
  144.6892  138.3486  152.7471 H   0  0  0  0  0  0  0  0  0  0  0  0
  145.7688  137.5081  153.8536 H   0  0  0  0  0  0  0  0  0  0  0  0
  147.4802  138.3740  151.7645 H   0  0  0  0  0  0  0  0  0  0  0  0
  146.3419  139.7008  151.9707 H   0  0  0  0  0  0  0  0  0  0  0  0
  148.3002  140.7271  152.5638 H   0  0  0  0  0  0  0  0  0  0  0  0
  147.1984  141.2600  153.8627 H   0  0  0  0  0  0  0  0  0  0  0  0
  148.6951  142.4815  155.4743 H   0  0  0  0  0  0  0  0  0  0  0  0
  152.5497  136.2001  153.9109 H   0  0  0  0  0  0  0  0  0  0  0  0
  151.1534  136.3009  152.9695 H   0  0  0  0  0  0  0  0  0  0  0  0
  143.3776  135.3010  149.6224 H   0  0  0  0  0  0  0  0  0  0  0  0
  1  2  1  0  0  0  0
  1 25  1  0  0  0  0
  1 26  1  0  0  0  0
  1 27  1  0  0  0  0
  2  3  1  0  0  0  0
  2  4  1  0  0  0  0
  2 28  1  0  0  0  0
  3 29  1  0  0  0  0
  3 30  1  0  0  0  0
  3 31  1  0  0  0  0
  4 24  1  0  0  0  0
  4  5  1  0  0  0  0
  4  6  1  0  0  0  0
  5 32  1  0  0  0  0
  5 33  1  0  0  0  0
  5 43  1  0  0  0  0
  6  7  2  0  0  0  0
  6  8  1  0  0  0  0
  8  9  1  0  0  0  0
  9 10  1  0  0  0  0
  9 34  1  0  0  0  0
  9 35  1  0  0  0  0
 10 11  1  0  0  0  0
 10 36  1  0  0  0  0
 10 37  1  0  0  0  0
 11 12  1  0  0  0  0
 12 13  1  0  0  0  0
 12 38  1  0  0  0  0
 12 39  1  0  0  0  0
 13 23  1  0  0  0  0
 13 14  1  0  0  0  0
 14 15  2  0  0  0  0
 14 40  1  0  0  0  0
 15 16  1  0  0  0  0
 16 23  2  0  0  0  0
 16 17  1  0  0  0  0
 17 18  2  0  0  0  0
 17 19  1  0  0  0  0
 19 20  1  0  0  0  0
 20 21  1  0  0  0  0
 20 22  2  0  0  0  0
 21 41  1  0  0  0  0
 21 42  1  0  0  0  0
 22 23  1  0  0  0  0
M  CHG  1   5   1
M  CHG  1  19  -1
M  END
> <s_m_source_file>
AV-unprocessed.smi

> <i_m_source_file_index>
50

> <i_lp_mmshare_version>
43012

> <i_f3d_flags>
0

> <s_epik_input>
W0NIM11bQ0hdKFtDSDNdKVtDQEhdKFtOSDJdKUMoPU8pT1tDSDJdW0NIMl1PW0NIMl1uKFtjSF1uMSljKGMxMiluYyhbTkgyXSlbbkhdYzI9Tw==

> <s_epik_cmdline>
J2VwaWtfcHl0aG9uJywgJy1waCcsICc3LjAnLCAnLXRuJywgJzgnLCAnLW1hJywgJzIwMCcsICctbWV0YWxfYmluZGluZycsICctaW1hZScsICc8aW5maWxlLm1hZT4nLCAnLW9tYWUnLCAnPG91dGZpbGUubWFlPic=

> <r_lp_tautomer_probability>
0.99994

> <r_epik_Ionization_Penalty>
3.77459

> <r_epik_Ionization_Penalty_Charging>
0.215994

> <r_epik_Ionization_Penalty_Neutral>
3.5586

> <r_epik_State_Penalty>
3.75449

> <r_epik_Charging_Adjusted_Penalty>
3.97048

> <i_epik_Tot_Q>
0

> <i_epik_Tot_abs_Q>
2

> <r_epik_Metal_State_Penalty>
0.723824

> <b_epik_Metal_Only>
1

> <s_epik_Chemistry_Notes>
This compound has an ester and may undergo hydrolysis at high or low pH. This compound contains an acetal/aminal-like group ( X-CH(R)-Y where X, Y are N, S, or O) that may be acid/base labile, releasing an aldehyde.

> <s_lp_Force_Field>
OPLS_2005

> <r_lp_Energy>
22.4326

> <b_lp_Chiralities_Consistent>
1

> <s_lp_Variant>
AV-unprocessed.smi:50-6

> <Gold.Version>
5.8.1

> <Gold.Id.Protein>
6NUR|6NUR_protein|mol2

> <Gold.PLP.Fitness>
51.5680

> <Gold.PLP.PLP>
-38.6019

> <Gold.PLP.part.hbond>
-3.8862

> <Gold.PLP.part.metal>
0.0000

> <Gold.PLP.part.buried>
-1.3424

> <Gold.PLP.part.nonpolar>
-35.2965

> <Gold.PLP.part.repulsive>
2.9621

> <Gold.PLP.ligand.clash>
0.0000

> <Gold.PLP.ligand.torsion>
1.2190

> <Gold.PLP.Chemscore.Hbond>
4.0000

> <Gold.PLP.Chemscore.CHOScore>
0.9609

> <Gold.PLP.Chemscore.Metal>
0.0000

> <Gold.Chemscore.Hbonds>
donor molecule, donor type, donor heavy atom, donor atom, acceptor molecule, acceptor atom, score
      L1  H     5    32       P1  7921  1.00
      L1  H     5    33       P1 10171  0.89
      L1  H    21    42       P1  7949  0.77
      P1  H  7997  8008       L1    18  0.88
      L1  C    14    40       P1  8028  1.00

> <Gold.PLP.Chemscore.Internal.Correction>
0.5214

> <Gold.Rescore>
     Score         DG    S(hbond)    S(metal)    S(lipo)     H(rot)  DE(clash)    DE(int)     intcor
      7.42     -11.02       3.55        0.00      51.67       4.83       1.10       2.51       ----

> <Gold.Chemscore.Fitness>
7.4150

> <Gold.Chemscore.DG>
-11.0248

> <Gold.Chemscore.ZeroCoef>
-5.4800

> <Gold.Chemscore.Hbond>
3.5529

> <Gold.Chemscore.Metal>
0.0000

> <Gold.Chemscore.Lipo>
51.6746

> <Gold.Chemscore.Internal_Hbond>
0.0000

> <Gold.Chemscore.DEClash>
1.1039

> <Gold.Chemscore.DEInternal>
2.5059

> <Gold.Chemscore.Rot>
4.8312

> <Gold.Chemscore.Internal.Correction>
   9.000000E+99

> <Gold.Chemscore.Hbonds>
donor molecule, donor type, donor heavy atom, donor atom, acceptor molecule, acceptor atom, score
      L1  H     5    32       P1  7921  0.99
      L1  H     5    33       P1 10171  0.82
      L1  H    21    42       P1  7949  0.33
      P1  H  7997  8008       L1    18  0.82

> <Gold.Chemscore.Hbond.Weighted>
-11.8667

> <Gold.Chemscore.Metal.Weighted>
-0.0000

> <Gold.Chemscore.Lipo.Weighted>
-6.0459

> <Gold.Chemscore.Internal_Hbond.Weighted>
0.0000

> <Gold.Chemscore.DEClash.Weighted>
1.1039

> <Gold.Chemscore.DEInternal.Weighted>
2.5059

> <Gold.Chemscore.Rot.Weighted>
12.3678

> <Gold.Chemscore.Internal.Correction.Weighted>
   9.000000E+99

> <Gold.Protein.RotatedTorsions>
[ 6907 6896 6895 6894 ] final  137.53 input  -60.11 | X-H torsion
[ 7974 7965 7964 7962 ] final   10.52 input  175.53 | X-H torsion
[ 8008 7997 7996 7995 ] final  -55.08 input   59.86 | X-H torsion
[ 10167 10162 10161 10158 ] final  172.64 input  -65.29 | X-H torsion
[ 10718 10713 10712 10709 ] final   -2.86 input   66.30 | X-H torsion
[ 10763 10752 10751 10750 ] final -107.29 input  -60.55 | X-H torsion
[ 11005 11000 10999 10996 ] final   87.10 input  -57.11 | X-H torsion

> <Gold.Protein.ActiveResidues>
 VAL166  LYS551  ARG553  GLY616  TRP617  ASP618  TYR619  PRO620  LYS621  CYS622 
 ASP623  PHE694  ASN695  SER759  ASP760  ASP761  ALA762  ILE779  LEU786  VAL792 
 PHE793  MET794  SER795  GLU796  ALA797  LYS798  CYS799  TRP800  GLU811  SER814 

> <Gold.Protein.RotatedAtoms>
  152.2770  133.5434  159.5473 H   0  0  0  0  0  0  0  0  0  0  0  0  # atno 6907 bound_to 6896
  150.7181  134.0618  159.3843 H   0  0  0  0  0  0  0  0  0  0  0  0  # atno 6908 bound_to 6896
  151.8530  135.0551  160.0512 H   0  0  0  0  0  0  0  0  0  0  0  0  # atno 6909 bound_to 6896
  146.2387  139.9622  142.8457 H   0  0  0  0  0  0  0  0  0  0  0  0  # atno 7974 bound_to 7965
  154.4183  140.1161  156.5419 H   0  0  0  0  0  0  0  0  0  0  0  0  # atno 8008 bound_to 7997
  155.6499  140.3496  155.4725 H   0  0  0  0  0  0  0  0  0  0  0  0  # atno 8009 bound_to 7997
  155.9801  140.1158  157.0724 H   0  0  0  0  0  0  0  0  0  0  0  0  # atno 8010 bound_to 7997
  139.5083  144.3351  152.0073 H   0  0  0  0  0  0  0  0  0  0  0  0  # atno 10167 bound_to 10162
  156.7846  130.5341  149.5745 H   0  0  0  0  0  0  0  0  0  0  0  0  # atno 10718 bound_to 10713
  154.8066  135.4680  154.0407 H   0  0  0  0  0  0  0  0  0  0  0  0  # atno 10763 bound_to 10752
  153.1871  135.6849  153.8407 H   0  0  0  0  0  0  0  0  0  0  0  0  # atno 10764 bound_to 10752
  153.7938  135.3239  155.3359 H   0  0  0  0  0  0  0  0  0  0  0  0  # atno 10765 bound_to 10752
  139.8928  134.8400  156.2813 H   0  0  0  0  0  0  0  0  0  0  0  0  # atno 11005 bound_to 11000
  145.1760  140.9744  143.4294 LP  0  0  0  0  0  0  0  0  0  0  0  0  # atno 17320 bound_to 7965
  144.9985  139.3621  143.6179 LP  0  0  0  0  0  0  0  0  0  0  0  0  # atno 17321 bound_to 7965
  140.2790  144.3880  150.6125 LP  0  0  0  0  0  0  0  0  0  0  0  0  # atno 17342 bound_to 10162
  140.6032  143.2167  151.7031 LP  0  0  0  0  0  0  0  0  0  0  0  0  # atno 17343 bound_to 10162
  156.1197  130.6101  151.0174 LP  0  0  0  0  0  0  0  0  0  0  0  0  # atno 17370 bound_to 10713
  157.6630  131.0877  150.7794 LP  0  0  0  0  0  0  0  0  0  0  0  0  # atno 17371 bound_to 10713
  141.0036  133.7136  156.1000 LP  0  0  0  0  0  0  0  0  0  0  0  0  # atno 17394 bound_to 11000
  140.7463  134.4094  157.5548 LP  0  0  0  0  0  0  0  0  0  0  0  0  # atno 17395 bound_to 11000

$$$$
