AV-unprocessed.smi:1005|AV-procd|sdf|4385|dock3
  -GOLD-   22720 2313D 1   1.00000     0.00000
 Structure written by MMmdl.
 58 60  0  0  0  0  0  0  0  0  4 V2000
  152.5321  143.1939  160.3850 C   0  0  0  0  0  0  0  0  0  0  0  0
  152.1503  142.4168  159.1367 C   0  0  0  0  0  0  0  0  0  0  0  0
  151.1899  142.9750  158.2628 C   0  0  0  0  0  0  0  0  0  0  0  0
  150.8593  142.2401  157.1305 C   0  0  0  0  0  0  0  0  0  0  0  0
  149.9669  142.5109  156.0909 N   0  3  0  0  0  0  0  0  0  0  0  0
  149.9831  141.4827  155.1978 C   0  0  0  0  0  0  0  0  0  0  0  0
  150.8690  140.5561  155.6560 N   0  0  0  0  0  0  0  0  0  0  0  0
  151.2680  139.2630  155.0838 C   0  0  0  0  0  0  0  0  0  0  0  0
  150.0707  138.3278  154.8213 C   0  0  1  0  0  0  0  0  0  0  0  0
  149.7009  138.4190  153.4589 O   0  0  0  0  0  0  0  0  0  0  0  0
  150.4103  136.8594  155.1455 C   0  0  0  0  0  0  0  0  0  0  0  0
  149.4772  135.8994  154.5010 N   0  3  2  0  0  0  0  0  0  0  0  0
  148.0702  136.0429  154.9491 C   0  0  0  0  0  0  0  0  0  0  0  0
  147.1686  135.0439  154.2067 C   0  0  0  0  0  0  0  0  0  0  0  0
  147.6535  133.7225  154.4119 O   0  0  0  0  0  0  0  0  0  0  0  0
  148.9671  133.5368  153.8961 C   0  0  2  0  0  0  0  0  0  0  0  0
  149.3313  132.0521  154.0978 C   0  0  0  0  0  0  0  0  0  0  0  0
  148.6385  131.1382  153.1520 N   0  3  0  0  0  0  0  0  0  0  0  0
  148.9593  129.7184  153.4190 C   0  0  0  0  0  0  0  0  0  0  0  0
  147.1748  131.3584  153.0854 C   0  0  0  0  0  0  0  0  0  0  0  0
  149.9238  134.4923  154.6412 C   0  0  0  0  0  0  0  0  0  0  0  0
  151.4462  140.9902  156.8541 C   0  0  0  0  0  0  0  0  0  0  0  0
  152.3970  140.4272  157.7019 C   0  0  0  0  0  0  0  0  0  0  0  0
  152.7481  141.1602  158.8581 C   0  0  0  0  0  0  0  0  0  0  0  0
  153.7835  140.5721  159.8018 C   0  0  0  0  0  0  0  0  0  0  0  0
  151.9643  144.1211  160.4671 H   0  0  0  0  0  0  0  0  0  0  0  0
  153.5913  143.4522  160.3655 H   0  0  0  0  0  0  0  0  0  0  0  0
  152.3350  142.6036  161.2802 H   0  0  0  0  0  0  0  0  0  0  0  0
  150.7331  143.9325  158.4673 H   0  0  0  0  0  0  0  0  0  0  0  0
  149.3963  141.4146  154.2926 H   0  0  0  0  0  0  0  0  0  0  0  0
  151.8024  139.4673  154.1548 H   0  0  0  0  0  0  0  0  0  0  0  0
  151.9876  138.7970  155.7582 H   0  0  0  0  0  0  0  0  0  0  0  0
  149.2275  138.6628  155.4240 H   0  0  0  0  0  0  0  0  0  0  0  0
  149.6689  137.5456  153.0978 H   0  0  0  0  0  0  0  0  0  0  0  0
  151.4296  136.6595  154.8104 H   0  0  0  0  0  0  0  0  0  0  0  0
  150.4083  136.6952  156.2244 H   0  0  0  0  0  0  0  0  0  0  0  0
  148.0075  135.8714  156.0249 H   0  0  0  0  0  0  0  0  0  0  0  0
  147.7092  137.0544  154.7660 H   0  0  0  0  0  0  0  0  0  0  0  0
  146.1476  135.1079  154.5837 H   0  0  0  0  0  0  0  0  0  0  0  0
  147.1285  135.2709  153.1401 H   0  0  0  0  0  0  0  0  0  0  0  0
  148.9531  133.7762  152.8325 H   0  0  0  0  0  0  0  0  0  0  0  0
  150.4111  131.9466  153.9805 H   0  0  0  0  0  0  0  0  0  0  0  0
  149.1075  131.7438  155.1204 H   0  0  0  0  0  0  0  0  0  0  0  0
  148.6074  129.4174  154.4067 H   0  0  0  0  0  0  0  0  0  0  0  0
  150.0354  129.5472  153.3713 H   0  0  0  0  0  0  0  0  0  0  0  0
  148.4919  129.0697  152.6770 H   0  0  0  0  0  0  0  0  0  0  0  0
  146.7095  131.1945  154.0585 H   0  0  0  0  0  0  0  0  0  0  0  0
  146.7166  130.6722  152.3724 H   0  0  0  0  0  0  0  0  0  0  0  0
  146.9350  132.3688  152.7566 H   0  0  0  0  0  0  0  0  0  0  0  0
  150.9326  134.3910  154.2393 H   0  0  0  0  0  0  0  0  0  0  0  0
  149.9722  134.2313  155.6999 H   0  0  0  0  0  0  0  0  0  0  0  0
  152.8523  139.4713  157.4898 H   0  0  0  0  0  0  0  0  0  0  0  0
  154.1635  139.6185  159.4338 H   0  0  0  0  0  0  0  0  0  0  0  0
  153.3492  140.3999  160.7870 H   0  0  0  0  0  0  0  0  0  0  0  0
  154.6319  141.2480  159.9103 H   0  0  0  0  0  0  0  0  0  0  0  0
  149.0071  131.3345  152.2322 H   0  0  0  0  0  0  0  0  0  0  0  0
  149.4978  136.1073  153.5124 H   0  0  0  0  0  0  0  0  0  0  0  0
  149.3906  143.3373  155.9937 H   0  0  0  0  0  0  0  0  0  0  0  0
  1  2  1  0  0  0  0
  1 26  1  0  0  0  0
  1 27  1  0  0  0  0
  1 28  1  0  0  0  0
  2 24  1  0  0  0  0
  2  3  2  0  0  0  0
  3  4  1  0  0  0  0
  3 29  1  0  0  0  0
  4 22  2  0  0  0  0
  4  5  1  0  0  0  0
  5  6  2  0  0  0  0
  5 58  1  0  0  0  0
  6  7  1  0  0  0  0
  6 30  1  0  0  0  0
  7  8  1  0  0  0  0
  7 22  1  0  0  0  0
  8  9  1  0  0  0  0
  8 31  1  0  0  0  0
  8 32  1  0  0  0  0
  9 10  1  0  0  0  0
  9 11  1  0  0  0  0
  9 33  1  0  0  0  0
 10 34  1  0  0  0  0
 11 12  1  0  0  0  0
 11 35  1  0  0  0  0
 11 36  1  0  0  0  0
 12 21  1  0  0  0  0
 12 13  1  0  0  0  0
 12 57  1  0  0  0  0
 13 14  1  0  0  0  0
 13 37  1  0  0  0  0
 13 38  1  0  0  0  0
 14 15  1  0  0  0  0
 14 39  1  0  0  0  0
 14 40  1  0  0  0  0
 15 16  1  0  0  0  0
 16 17  1  0  0  0  0
 16 21  1  0  0  0  0
 16 41  1  0  0  0  0
 17 18  1  0  0  0  0
 17 42  1  0  0  0  0
 17 43  1  0  0  0  0
 18 19  1  0  0  0  0
 18 20  1  0  0  0  0
 18 56  1  0  0  0  0
 19 44  1  0  0  0  0
 19 45  1  0  0  0  0
 19 46  1  0  0  0  0
 20 47  1  0  0  0  0
 20 48  1  0  0  0  0
 20 49  1  0  0  0  0
 21 50  1  0  0  0  0
 21 51  1  0  0  0  0
 22 23  1  0  0  0  0
 23 24  2  0  0  0  0
 23 52  1  0  0  0  0
 24 25  1  0  0  0  0
 25 53  1  0  0  0  0
 25 54  1  0  0  0  0
 25 55  1  0  0  0  0
M  CHG  1   5   1
M  CHG  1  12   1
M  CHG  1  18   1
M  END
> <s_m_source_file>
AV-unprocessed.smi

> <i_m_source_file_index>
1005

> <i_lp_mmshare_version>
43012

> <i_f3d_flags>
0

> <s_epik_input>
W0NIM11jKFtjSF0xKWMoW0NIM10pW2NIXWMoYzEyKW4oW2NIXW4yKVtDSDJdW0NASF0oW09IXSlbQ0gyXU4zW0NIMl1bQ0gyXU9bQ0BIXShbQ0gyXTMpW0NIMl1OKFtDSDNdKVtDSDNd

> <s_epik_cmdline>
J2VwaWtfcHl0aG9uJywgJy1waCcsICc3LjAnLCAnLXRuJywgJzgnLCAnLW1hJywgJzIwMCcsICctbWV0YWxfYmluZGluZycsICctaW1hZScsICc8aW5maWxlLm1hZT4nLCAnLW9tYWUnLCAnPG91dGZpbGUubWFlPic=

> <r_epik_Ionization_Penalty>
2.30802

> <r_epik_Ionization_Penalty_Charging>
2.30798

> <r_epik_Ionization_Penalty_Neutral>
3.4851e-05

> <r_epik_State_Penalty>
2.52618

> <r_epik_Charging_Adjusted_Penalty>
4.83416

> <i_epik_Tot_Q>
3

> <i_epik_Tot_abs_Q>
3

> <r_epik_Metal_State_Penalty>
6.53149

> <b_epik_Metal_Only>
0

> <s_lp_Force_Field>
OPLS_2005

> <r_lp_Energy>
43.2019

> <b_lp_Chiralities_Consistent>
1

> <s_lp_Variant>
AV-unprocessed.smi:1005-24

> <Gold.Version>
5.8.1

> <Gold.Id.Protein>
6NUR|6NUR_protein|mol2

> <Gold.PLP.Fitness>
65.2123

> <Gold.PLP.PLP>
-48.8084

> <Gold.PLP.part.hbond>
-4.9591

> <Gold.PLP.part.metal>
0.0000

> <Gold.PLP.part.buried>
-5.4891

> <Gold.PLP.part.nonpolar>
-39.2121

> <Gold.PLP.part.repulsive>
0.2064

> <Gold.PLP.ligand.clash>
0.0000

> <Gold.PLP.ligand.torsion>
0.8718

> <Gold.PLP.Chemscore.Hbond>
5.9760

> <Gold.PLP.Chemscore.CHOScore>
0.0000

> <Gold.PLP.Chemscore.Metal>
0.0000

> <Gold.Chemscore.Hbonds>
donor molecule, donor type, donor heavy atom, donor atom, acceptor molecule, acceptor atom, score
      L1  H     5    58       P1  8028  1.89
      L1  H    10    34       P1  7948  1.00
      L1  H    12    57       P1  7948  2.00
      L1  H    18    56       P1 10747  0.94

> <Gold.PLP.Chemscore.Internal.Correction>
0.2196

> <Gold.Rescore>
     Score         DG    S(hbond)    S(metal)    S(lipo)     H(rot)  DE(clash)    DE(int)     intcor
     22.94     -25.31       3.89        0.00     114.43       2.56       0.01       2.37       ----

> <Gold.Chemscore.Fitness>
22.9379

> <Gold.Chemscore.DG>
-25.3093

> <Gold.Chemscore.ZeroCoef>
-5.4800

> <Gold.Chemscore.Hbond>
3.8880

> <Gold.Chemscore.Metal>
0.0000

> <Gold.Chemscore.Lipo>
114.4289

> <Gold.Chemscore.Internal_Hbond>
0.0000

> <Gold.Chemscore.DEClash>
0.0060

> <Gold.Chemscore.DEInternal>
2.3653

> <Gold.Chemscore.Rot>
2.5566

> <Gold.Chemscore.Internal.Correction>
   9.000000E+99

> <Gold.Chemscore.Hbonds>
donor molecule, donor type, donor heavy atom, donor atom, acceptor molecule, acceptor atom, score
      L1  H     5    58       P1  8028  0.90
      L1  H    10    34       P1  7948  0.67
      L1  H    12    57       P1  7948  0.50
      L1  H    18    56       P1 10747  0.58

> <Gold.Chemscore.Hbond.Weighted>
-12.9860

> <Gold.Chemscore.Metal.Weighted>
-0.0000

> <Gold.Chemscore.Lipo.Weighted>
-13.3882

> <Gold.Chemscore.Internal_Hbond.Weighted>
0.0000

> <Gold.Chemscore.DEClash.Weighted>
0.0060

> <Gold.Chemscore.DEInternal.Weighted>
2.3653

> <Gold.Chemscore.Rot.Weighted>
6.5450

> <Gold.Chemscore.Internal.Correction.Weighted>
   9.000000E+99

> <Gold.Protein.RotatedTorsions>
[ 6907 6896 6895 6894 ] final -176.96 input  -60.11 | X-H torsion
[ 7974 7965 7964 7962 ] final  -88.58 input  175.53 | X-H torsion
[ 8008 7997 7996 7995 ] final   90.89 input   59.86 | X-H torsion
[ 10167 10162 10161 10158 ] final   14.64 input  -65.29 | X-H torsion
[ 10718 10713 10712 10709 ] final   96.87 input   66.30 | X-H torsion
[ 10763 10752 10751 10750 ] final  163.32 input  -60.55 | X-H torsion
[ 11005 11000 10999 10996 ] final  166.63 input  -57.11 | X-H torsion

> <Gold.Protein.ActiveResidues>
 VAL166  LYS551  ARG553  GLY616  TRP617  ASP618  TYR619  PRO620  LYS621  CYS622 
 ASP623  PHE694  ASN695  SER759  ASP760  ASP761  ALA762  ILE779  LEU786  VAL792 
 PHE793  MET794  SER795  GLU796  ALA797  LYS798  CYS799  TRP800  GLU811  SER814 

> <Gold.Protein.RotatedAtoms>
  151.6132  133.3345  159.3071 H   0  0  0  0  0  0  0  0  0  0  0  0  # atno 6907 bound_to 6896
  150.8145  134.7323  159.6729 H   0  0  0  0  0  0  0  0  0  0  0  0  # atno 6908 bound_to 6896
  152.4241  134.5905  160.0024 H   0  0  0  0  0  0  0  0  0  0  0  0  # atno 6909 bound_to 6896
  145.4513  140.9560  143.2021 H   0  0  0  0  0  0  0  0  0  0  0  0  # atno 7974 bound_to 7965
  156.0174  140.3344  155.7003 H   0  0  0  0  0  0  0  0  0  0  0  0  # atno 8008 bound_to 7997
  155.6072  140.0661  157.2734 H   0  0  0  0  0  0  0  0  0  0  0  0  # atno 8009 bound_to 7997
  154.4303  140.1800  156.1222 H   0  0  0  0  0  0  0  0  0  0  0  0  # atno 8010 bound_to 7997
  140.5922  143.8773  150.6884 H   0  0  0  0  0  0  0  0  0  0  0  0  # atno 10167 bound_to 10162
  157.6921  131.0591  150.4557 H   0  0  0  0  0  0  0  0  0  0  0  0  # atno 10718 bound_to 10713
  154.2919  135.2761  155.2651 H   0  0  0  0  0  0  0  0  0  0  0  0  # atno 10763 bound_to 10752
  154.5126  135.5778  153.6620 H   0  0  0  0  0  0  0  0  0  0  0  0  # atno 10764 bound_to 10752
  152.9913  135.6185  154.3084 H   0  0  0  0  0  0  0  0  0  0  0  0  # atno 10765 bound_to 10752
  140.2684  134.7846  157.3653 H   0  0  0  0  0  0  0  0  0  0  0  0  # atno 11005 bound_to 11000
  144.8060  139.6051  143.7050 LP  0  0  0  0  0  0  0  0  0  0  0  0  # atno 17320 bound_to 7965
  146.2503  139.6185  142.9432 LP  0  0  0  0  0  0  0  0  0  0  0  0  # atno 17321 bound_to 7965
  140.2299  143.3744  152.1574 LP  0  0  0  0  0  0  0  0  0  0  0  0  # atno 17342 bound_to 10162
  139.5235  144.7072  151.5319 LP  0  0  0  0  0  0  0  0  0  0  0  0  # atno 17343 bound_to 10162
  156.4905  130.4094  149.6409 LP  0  0  0  0  0  0  0  0  0  0  0  0  # atno 17370 bound_to 10713
  156.3421  130.7388  151.2334 LP  0  0  0  0  0  0  0  0  0  0  0  0  # atno 17371 bound_to 10713
  140.1397  134.4988  155.8041 LP  0  0  0  0  0  0  0  0  0  0  0  0  # atno 17394 bound_to 11000
  141.2181  133.6820  156.7188 LP  0  0  0  0  0  0  0  0  0  0  0  0  # atno 17395 bound_to 11000

$$$$
