AV-unprocessed.smi:1031|AV-procd|sdf|4480|dock2
  -GOLD-   22720 2453D 1   1.00000     0.00000
 Structure written by MMmdl.
 35 36  0  0  0  0  0  0  0  0  1 V2000
  151.7198  139.9132  155.5215 C   0  0  0  0  0  0  0  0  0  0  0  0
  150.9336  140.8397  156.4622 C   0  0  2  0  0  0  0  0  0  0  0  0
  150.0969  141.8660  155.6736 C   0  0  0  0  0  0  0  0  0  0  0  0
  149.0834  141.2369  154.8452 N   0  0  0  0  0  0  0  0  0  0  0  0
  148.0358  141.8303  154.1725 C   0  0  0  0  0  0  0  0  0  0  0  0
  147.3496  140.8378  153.5333 C   0  0  0  0  0  0  0  0  0  0  0  0
  148.0644  139.6566  153.8783 C   0  0  0  0  0  0  0  0  0  0  0  0
  149.1024  139.8989  154.6621 N   0  0  0  0  0  0  0  0  0  0  0  0
  151.8545  141.5312  157.3625 N   0  0  0  0  0  0  0  0  0  0  0  0
  151.5100  142.1617  158.4958 C   0  0  0  0  0  0  0  0  0  0  0  0
  150.3530  142.2142  158.9145 O   0  0  0  0  0  0  0  0  0  0  0  0
  152.6522  142.8351  159.2743 C   0  0  0  0  0  0  0  0  0  0  0  0
  152.7390  142.3232  160.7312 C   0  0  0  0  0  0  0  0  0  0  0  0
  152.5026  143.5318  161.6468 C   0  0  0  0  0  0  0  0  0  0  0  0
  151.8225  144.5793  160.7695 C   0  0  0  0  0  0  0  0  0  0  0  0
  152.4412  144.3569  159.3903 C   0  0  0  0  0  0  0  0  0  0  0  0
  151.0489  139.3766  154.8503 H   0  0  0  0  0  0  0  0  0  0  0  0
  152.2854  139.1683  156.0822 H   0  0  0  0  0  0  0  0  0  0  0  0
  152.4251  140.4750  154.9080 H   0  0  0  0  0  0  0  0  0  0  0  0
  150.2492  140.2235  157.0484 H   0  0  0  0  0  0  0  0  0  0  0  0
  149.6092  142.5672  156.3524 H   0  0  0  0  0  0  0  0  0  0  0  0
  150.7425  142.4602  155.0251 H   0  0  0  0  0  0  0  0  0  0  0  0
  147.8662  142.8963  154.2066 H   0  0  0  0  0  0  0  0  0  0  0  0
  146.4708  140.9396  152.9140 H   0  0  0  0  0  0  0  0  0  0  0  0
  147.8616  138.6373  153.5840 H   0  0  0  0  0  0  0  0  0  0  0  0
  152.8287  141.5384  157.0975 H   0  0  0  0  0  0  0  0  0  0  0  0
  153.5935  142.6427  158.7564 H   0  0  0  0  0  0  0  0  0  0  0  0
  151.9927  141.5538  160.9373 H   0  0  0  0  0  0  0  0  0  0  0  0
  153.7113  141.8730  160.9335 H   0  0  0  0  0  0  0  0  0  0  0  0
  151.9114  143.2796  162.5277 H   0  0  0  0  0  0  0  0  0  0  0  0
  153.4616  143.9179  161.9942 H   0  0  0  0  0  0  0  0  0  0  0  0
  150.7490  144.3900  160.7308 H   0  0  0  0  0  0  0  0  0  0  0  0
  151.9693  145.5949  161.1379 H   0  0  0  0  0  0  0  0  0  0  0  0
  153.4069  144.8612  159.3379 H   0  0  0  0  0  0  0  0  0  0  0  0
  151.8213  144.7730  158.5943 H   0  0  0  0  0  0  0  0  0  0  0  0
  1  2  1  0  0  0  0
  1 17  1  0  0  0  0
  1 18  1  0  0  0  0
  1 19  1  0  0  0  0
  2  3  1  0  0  0  0
  2  9  1  0  0  0  0
  2 20  1  0  0  0  0
  3  4  1  0  0  0  0
  3 21  1  0  0  0  0
  3 22  1  0  0  0  0
  4  8  1  0  0  0  0
  4  5  1  0  0  0  0
  5  6  2  0  0  0  0
  5 23  1  0  0  0  0
  6  7  1  0  0  0  0
  6 24  1  0  0  0  0
  7  8  2  0  0  0  0
  7 25  1  0  0  0  0
  9 10  1  0  0  0  0
  9 26  1  0  0  0  0
 10 11  2  0  0  0  0
 10 12  1  0  0  0  0
 12 16  1  0  0  0  0
 12 13  1  0  0  0  0
 12 27  1  0  0  0  0
 13 14  1  0  0  0  0
 13 28  1  0  0  0  0
 13 29  1  0  0  0  0
 14 15  1  0  0  0  0
 14 30  1  0  0  0  0
 14 31  1  0  0  0  0
 15 16  1  0  0  0  0
 15 32  1  0  0  0  0
 15 33  1  0  0  0  0
 16 34  1  0  0  0  0
 16 35  1  0  0  0  0
M  END
> <s_m_source_file>
AV-unprocessed.smi

> <i_m_source_file_index>
1031

> <i_lp_mmshare_version>
43012

> <i_f3d_flags>
0

> <s_epik_input>
bjFbY0hdW2NIXVtjSF1uMVtDSDJdW0NAQEhdKFtDSDNdKVtOSF1DKD1PKVtDSF0yW0NIMl1bQ0gyXVtDSDJdW0NIMl0y

> <s_epik_cmdline>
J2VwaWtfcHl0aG9uJywgJy1waCcsICc3LjAnLCAnLXRuJywgJzgnLCAnLW1hJywgJzIwMCcsICctbWV0YWxfYmluZGluZycsICctaW1hZScsICc8aW5maWxlLm1hZT4nLCAnLW9tYWUnLCAnPG91dGZpbGUubWFlPic=

> <r_lp_tautomer_probability>
1

> <r_epik_Ionization_Penalty>
0.000326659

> <r_epik_Ionization_Penalty_Charging>
0

> <r_epik_Ionization_Penalty_Neutral>
0.000326659

> <r_epik_State_Penalty>
-0

> <r_epik_Charging_Adjusted_Penalty>
0

> <i_epik_Tot_Q>
0

> <i_epik_Tot_abs_Q>
0

> <r_epik_Metal_State_Penalty>
-0

> <b_epik_Metal_Only>
0

> <s_lp_Force_Field>
OPLS_2005

> <r_lp_Energy>
19.9275

> <b_lp_Chiralities_Consistent>
1

> <s_lp_Variant>
AV-unprocessed.smi:1031-1

> <Gold.Version>
5.8.1

> <Gold.Id.Protein>
6NUR|6NUR_protein|mol2

> <Gold.PLP.Fitness>
43.0061

> <Gold.PLP.PLP>
-40.6071

> <Gold.PLP.part.hbond>
-0.5014

> <Gold.PLP.part.metal>
0.0000

> <Gold.PLP.part.buried>
-0.6427

> <Gold.PLP.part.nonpolar>
-37.2518

> <Gold.PLP.part.repulsive>
0.2386

> <Gold.PLP.ligand.clash>
0.0000

> <Gold.PLP.ligand.torsion>
0.3190

> <Gold.PLP.Chemscore.Hbond>
0.0000

> <Gold.PLP.Chemscore.CHOScore>
1.0000

> <Gold.PLP.Chemscore.Metal>
0.0000

> <Gold.Chemscore.Hbonds>
donor molecule, donor type, donor heavy atom, donor atom, acceptor molecule, acceptor atom, score
      L1  C     5    23       P1  8028  1.00

> <Gold.PLP.Chemscore.Internal.Correction>
0.0369

> <Gold.Rescore>
     Score         DG    S(hbond)    S(metal)    S(lipo)     H(rot)  DE(clash)    DE(int)     intcor
     11.86     -13.74       0.00        0.00     103.74       1.51       0.23       1.65       ----

> <Gold.Chemscore.Fitness>
11.8576

> <Gold.Chemscore.DG>
-13.7401

> <Gold.Chemscore.ZeroCoef>
-5.4800

> <Gold.Chemscore.Hbond>
0.0000

> <Gold.Chemscore.Metal>
0.0000

> <Gold.Chemscore.Lipo>
103.7385

> <Gold.Chemscore.Internal_Hbond>
0.0000

> <Gold.Chemscore.DEClash>
0.2324

> <Gold.Chemscore.DEInternal>
1.6501

> <Gold.Chemscore.Rot>
1.5146

> <Gold.Chemscore.Internal.Correction>
   9.000000E+99

> <Gold.Chemscore.Hbond.Weighted>
-0.0000

> <Gold.Chemscore.Metal.Weighted>
-0.0000

> <Gold.Chemscore.Lipo.Weighted>
-12.1374

> <Gold.Chemscore.Internal_Hbond.Weighted>
0.0000

> <Gold.Chemscore.DEClash.Weighted>
0.2324

> <Gold.Chemscore.DEInternal.Weighted>
1.6501

> <Gold.Chemscore.Rot.Weighted>
3.8773

> <Gold.Chemscore.Internal.Correction.Weighted>
   9.000000E+99

> <Gold.Protein.RotatedTorsions>
[ 6907 6896 6895 6894 ] final -171.80 input  -60.11 | X-H torsion
[ 7974 7965 7964 7962 ] final   69.47 input  175.53 | X-H torsion
[ 8008 7997 7996 7995 ] final  -52.79 input   59.86 | X-H torsion
[ 10167 10162 10161 10158 ] final  179.33 input  -65.29 | X-H torsion
[ 10718 10713 10712 10709 ] final -145.70 input   66.30 | X-H torsion
[ 10763 10752 10751 10750 ] final  145.70 input  -60.55 | X-H torsion
[ 11005 11000 10999 10996 ] final   72.90 input  -57.11 | X-H torsion

> <Gold.Protein.ActiveResidues>
 VAL166  LYS551  ARG553  GLY616  TRP617  ASP618  TYR619  PRO620  LYS621  CYS622 
 ASP623  PHE694  ASN695  SER759  ASP760  ASP761  ALA762  ILE779  LEU786  VAL792 
 PHE793  MET794  SER795  GLU796  ALA797  LYS798  CYS799  TRP800  GLU811  SER814 

> <Gold.Protein.RotatedAtoms>
  151.5297  133.3451  159.2915 H   0  0  0  0  0  0  0  0  0  0  0  0  # atno 6907 bound_to 6896
  150.8601  134.7953  159.7087 H   0  0  0  0  0  0  0  0  0  0  0  0  # atno 6908 bound_to 6896
  152.4623  134.5164  159.9821 H   0  0  0  0  0  0  0  0  0  0  0  0  # atno 6909 bound_to 6896
  145.7900  139.2929  143.1215 H   0  0  0  0  0  0  0  0  0  0  0  0  # atno 7974 bound_to 7965
  154.4116  140.1215  156.5048 H   0  0  0  0  0  0  0  0  0  0  0  0  # atno 8008 bound_to 7997
  155.6858  140.3496  155.4854 H   0  0  0  0  0  0  0  0  0  0  0  0  # atno 8009 bound_to 7997
  155.9512  140.1105  157.0965 H   0  0  0  0  0  0  0  0  0  0  0  0  # atno 8010 bound_to 7997
  139.5331  144.2574  152.0735 H   0  0  0  0  0  0  0  0  0  0  0  0  # atno 10167 bound_to 10162
  156.3857  130.7860  151.2057 H   0  0  0  0  0  0  0  0  0  0  0  0  # atno 10718 bound_to 10713
  154.0098  135.2915  155.3393 H   0  0  0  0  0  0  0  0  0  0  0  0  # atno 10763 bound_to 10752
  154.7110  135.5149  153.8669 H   0  0  0  0  0  0  0  0  0  0  0  0  # atno 10764 bound_to 10752
  153.0728  135.6653  154.0331 H   0  0  0  0  0  0  0  0  0  0  0  0  # atno 10765 bound_to 10752
  139.9467  134.7300  156.0961 H   0  0  0  0  0  0  0  0  0  0  0  0  # atno 11005 bound_to 11000
  145.9986  140.8540  143.0030 LP  0  0  0  0  0  0  0  0  0  0  0  0  # atno 17320 bound_to 7965
  144.6783  140.2319  143.7354 LP  0  0  0  0  0  0  0  0  0  0  0  0  # atno 17321 bound_to 7965
  140.2041  144.4629  150.6417 LP  0  0  0  0  0  0  0  0  0  0  0  0  # atno 17342 bound_to 10162
  140.6522  143.2228  151.6050 LP  0  0  0  0  0  0  0  0  0  0  0  0  # atno 17343 bound_to 10162
  157.7495  131.0331  150.4255 LP  0  0  0  0  0  0  0  0  0  0  0  0  # atno 17370 bound_to 10713
  156.4507  130.4011  149.6638 LP  0  0  0  0  0  0  0  0  0  0  0  0  # atno 17371 bound_to 10713
  141.1119  133.6640  156.3001 LP  0  0  0  0  0  0  0  0  0  0  0  0  # atno 17394 bound_to 11000
  140.5817  134.5739  157.5481 LP  0  0  0  0  0  0  0  0  0  0  0  0  # atno 17395 bound_to 11000

$$$$
