AV-unprocessed.smi:2999|AV-procd|sdf|11417|dock3
  -GOLD-   2272016343D 1   1.00000     0.00000
 Structure written by MMmdl.
 37 39  0  0  0  0  0  0  0  0  1 V2000
  148.7863  132.6417  154.7485 O   0  0  0  0  0  0  0  0  0  0  0  0
  148.7030  133.6480  154.0442 C   0  0  0  0  0  0  0  0  0  0  0  0
  149.3570  134.7883  154.3058 N   0  0  0  0  0  0  0  0  0  0  0  0
  150.2448  135.0010  155.4436 C   0  0  0  0  0  0  0  0  0  0  0  0
  150.6729  136.4730  155.5658 C   0  0  2  0  0  0  0  0  0  0  0  0
  149.4737  137.4313  155.4271 C   0  0  0  0  0  0  0  0  0  0  0  0
  149.8854  138.8289  155.4756 N   0  0  0  0  0  0  0  0  0  0  0  0
  148.7406  139.7148  155.3250 C   0  0  0  0  0  0  0  0  0  0  0  0
  148.0593  139.8245  153.9854 C   0  0  0  0  0  0  0  0  0  0  0  0
  148.8854  140.9802  154.5195 C   0  0  0  0  0  0  0  0  0  0  0  0
  150.8708  139.0633  154.4277 C   0  0  0  0  0  0  0  0  0  0  0  0
  152.0706  138.1090  154.5514 C   0  0  0  0  0  0  0  0  0  0  0  0
  151.6099  136.7615  154.5292 O   0  0  0  0  0  0  0  0  0  0  0  0
  147.9613  133.7571  152.9301 N   0  0  0  0  0  0  0  0  0  0  0  0
  147.1095  132.7811  152.3559 C   0  0  0  0  0  0  0  0  0  0  0  0
  147.0131  131.5854  152.9404 N   0  0  0  0  0  0  0  0  0  0  0  0
  146.1426  130.7340  152.2536 C   0  0  0  0  0  0  0  0  0  0  0  0
  145.5788  131.3030  151.1387 C   0  0  0  0  0  0  0  0  0  0  0  0
  146.1203  132.9430  150.9023 S   0  0  0  0  0  0  0  0  0  0  0  0
  149.2372  135.5649  153.6717 H   0  0  0  0  0  0  0  0  0  0  0  0
  149.7259  134.6860  156.3492 H   0  0  0  0  0  0  0  0  0  0  0  0
  151.1216  134.3576  155.3515 H   0  0  0  0  0  0  0  0  0  0  0  0
  151.1493  136.6355  156.5345 H   0  0  0  0  0  0  0  0  0  0  0  0
  148.9549  137.2305  154.4883 H   0  0  0  0  0  0  0  0  0  0  0  0
  148.7577  137.2335  156.2258 H   0  0  0  0  0  0  0  0  0  0  0  0
  148.1199  139.7466  156.2192 H   0  0  0  0  0  0  0  0  0  0  0  0
  148.4725  139.2551  153.1549 H   0  0  0  0  0  0  0  0  0  0  0  0
  146.9772  139.9385  153.9813 H   0  0  0  0  0  0  0  0  0  0  0  0
  148.3514  141.8614  154.8690 H   0  0  0  0  0  0  0  0  0  0  0  0
  149.8450  141.1733  154.0435 H   0  0  0  0  0  0  0  0  0  0  0  0
  150.4090  138.9351  153.4476 H   0  0  0  0  0  0  0  0  0  0  0  0
  151.2209  140.0951  154.4746 H   0  0  0  0  0  0  0  0  0  0  0  0
  152.7650  138.2627  153.7254 H   0  0  0  0  0  0  0  0  0  0  0  0
  152.6218  138.2968  155.4740 H   0  0  0  0  0  0  0  0  0  0  0  0
  147.9971  134.6420  152.4462 H   0  0  0  0  0  0  0  0  0  0  0  0
  145.9829  129.7340  152.6291 H   0  0  0  0  0  0  0  0  0  0  0  0
  144.8813  130.8584  150.4446 H   0  0  0  0  0  0  0  0  0  0  0  0
  1  2  2  0  0  0  0
  2  3  1  0  0  0  0
  2 14  1  0  0  0  0
  3  4  1  0  0  0  0
  3 20  1  0  0  0  0
  4  5  1  0  0  0  0
  4 21  1  0  0  0  0
  4 22  1  0  0  0  0
  5 13  1  0  0  0  0
  5  6  1  0  0  0  0
  5 23  1  0  0  0  0
  6  7  1  0  0  0  0
  6 24  1  0  0  0  0
  6 25  1  0  0  0  0
  7  8  1  0  0  0  0
  7 11  1  0  0  0  0
  8 10  1  0  0  0  0
  8  9  1  0  0  0  0
  8 26  1  0  0  0  0
  9 10  1  0  0  0  0
  9 27  1  0  0  0  0
  9 28  1  0  0  0  0
 10 29  1  0  0  0  0
 10 30  1  0  0  0  0
 11 12  1  0  0  0  0
 11 31  1  0  0  0  0
 11 32  1  0  0  0  0
 12 13  1  0  0  0  0
 12 33  1  0  0  0  0
 12 34  1  0  0  0  0
 14 15  1  0  0  0  0
 14 35  1  0  0  0  0
 15 19  1  0  0  0  0
 15 16  2  0  0  0  0
 16 17  1  0  0  0  0
 17 18  2  0  0  0  0
 17 36  1  0  0  0  0
 18 19  1  0  0  0  0
 18 37  1  0  0  0  0
M  END
> <s_m_source_file>
AV-unprocessed.smi

> <i_m_source_file_index>
2999

> <i_lp_mmshare_version>
43012

> <i_f3d_flags>
0

> <s_epik_input>
czFbY0hdW2NIXW5jMVtOSF1DKD1PKVtOSF1bQ0gyXVtDQEBIXTJbQ0gyXU4oW0NIMl1bQ0gyXU8yKVtDSF0zW0NIMl1bQ0gyXTM=

> <s_epik_cmdline>
J2VwaWtfcHl0aG9uJywgJy1waCcsICc3LjAnLCAnLXRuJywgJzgnLCAnLW1hJywgJzIwMCcsICctbWV0YWxfYmluZGluZycsICctaW1hZScsICc8aW5maWxlLm1hZT4nLCAnLW9tYWUnLCAnPG91dGZpbGUubWFlPic=

> <r_lp_tautomer_probability>
0.999

> <r_epik_Ionization_Penalty>
0.0449352

> <r_epik_Ionization_Penalty_Charging>
0

> <r_epik_Ionization_Penalty_Neutral>
0.0449352

> <r_epik_State_Penalty>
0.0379856

> <r_epik_Charging_Adjusted_Penalty>
0.0379856

> <i_epik_Tot_Q>
0

> <i_epik_Tot_abs_Q>
0

> <r_epik_Metal_State_Penalty>
0.0775629

> <b_epik_Metal_Only>
0

> <s_lp_Force_Field>
OPLS_2005

> <r_lp_Energy>
28.3978

> <b_lp_Chiralities_Consistent>
1

> <s_lp_Variant>
AV-unprocessed.smi:2999-1

> <Gold.Version>
5.8.1

> <Gold.Id.Protein>
6NUR|6NUR_protein|mol2

> <Gold.PLP.Fitness>
40.7073

> <Gold.PLP.PLP>
-32.0477

> <Gold.PLP.part.hbond>
-3.0000

> <Gold.PLP.part.metal>
0.0000

> <Gold.PLP.part.buried>
-4.2595

> <Gold.PLP.part.nonpolar>
-25.2761

> <Gold.PLP.part.repulsive>
0.3843

> <Gold.PLP.ligand.clash>
0.0000

> <Gold.PLP.ligand.torsion>
0.7157

> <Gold.PLP.Chemscore.Hbond>
3.0000

> <Gold.PLP.Chemscore.CHOScore>
0.0000

> <Gold.PLP.Chemscore.Metal>
0.0000

> <Gold.Chemscore.Hbonds>
donor molecule, donor type, donor heavy atom, donor atom, acceptor molecule, acceptor atom, score
      L1  H     3    20       P1  7948  0.98
      L1  H    14    35       P1  7948  1.00
      P1  H 10752 10764       L1    13  1.00

> <Gold.PLP.Chemscore.Internal.Correction>
1.0910

> <Gold.Rescore>
     Score         DG    S(hbond)    S(metal)    S(lipo)     H(rot)  DE(clash)    DE(int)     intcor
     14.89     -17.09       2.22        0.00      69.77       1.55       0.03       2.17       ----

> <Gold.Chemscore.Fitness>
14.8906

> <Gold.Chemscore.DG>
-17.0871

> <Gold.Chemscore.ZeroCoef>
-5.4800

> <Gold.Chemscore.Hbond>
2.2164

> <Gold.Chemscore.Metal>
0.0000

> <Gold.Chemscore.Lipo>
69.7674

> <Gold.Chemscore.Internal_Hbond>
0.0000

> <Gold.Chemscore.DEClash>
0.0291

> <Gold.Chemscore.DEInternal>
2.1673

> <Gold.Chemscore.Rot>
1.5463

> <Gold.Chemscore.Internal.Correction>
   9.000000E+99

> <Gold.Chemscore.Hbonds>
donor molecule, donor type, donor heavy atom, donor atom, acceptor molecule, acceptor atom, score
      L1  H     3    20       P1  7948  0.51
      L1  H    14    35       P1  7948  0.53
      P1  H 10752 10764       L1    13  0.72

> <Gold.Chemscore.Hbond.Weighted>
-7.4027

> <Gold.Chemscore.Metal.Weighted>
-0.0000

> <Gold.Chemscore.Lipo.Weighted>
-8.1628

> <Gold.Chemscore.Internal_Hbond.Weighted>
0.0000

> <Gold.Chemscore.DEClash.Weighted>
0.0291

> <Gold.Chemscore.DEInternal.Weighted>
2.1673

> <Gold.Chemscore.Rot.Weighted>
3.9584

> <Gold.Chemscore.Internal.Correction.Weighted>
   9.000000E+99

> <Gold.Protein.RotatedTorsions>
[ 6907 6896 6895 6894 ] final  134.85 input  -60.11 | X-H torsion
[ 7974 7965 7964 7962 ] final  -80.38 input  175.53 | X-H torsion
[ 8008 7997 7996 7995 ] final   21.75 input   59.86 | X-H torsion
[ 10167 10162 10161 10158 ] final   10.27 input  -65.29 | X-H torsion
[ 10718 10713 10712 10709 ] final  -98.97 input   66.30 | X-H torsion
[ 10763 10752 10751 10750 ] final  -83.96 input  -60.55 | X-H torsion
[ 11005 11000 10999 10996 ] final   44.10 input  -57.11 | X-H torsion

> <Gold.Protein.ActiveResidues>
 VAL166  LYS551  ARG553  GLY616  TRP617  ASP618  TYR619  PRO620  LYS621  CYS622 
 ASP623  PHE694  ASN695  SER759  ASP760  ASP761  ALA762  ILE779  LEU786  VAL792 
 PHE793  MET794  SER795  GLU796  ALA797  LYS798  CYS799  TRP800  GLU811  SER814 

> <Gold.Protein.RotatedAtoms>
  152.3069  133.5712  159.5654 H   0  0  0  0  0  0  0  0  0  0  0  0  # atno 6907 bound_to 6896
  150.7304  134.0210  159.3710 H   0  0  0  0  0  0  0  0  0  0  0  0  # atno 6908 bound_to 6896
  151.8106  135.0682  160.0463 H   0  0  0  0  0  0  0  0  0  0  0  0  # atno 6909 bound_to 6896
  145.5607  140.9482  143.1449 H   0  0  0  0  0  0  0  0  0  0  0  0  # atno 7974 bound_to 7965
  154.9554  140.3071  155.5056 H   0  0  0  0  0  0  0  0  0  0  0  0  # atno 8008 bound_to 7997
  156.2983  140.2311  156.4573 H   0  0  0  0  0  0  0  0  0  0  0  0  # atno 8009 bound_to 7997
  154.8015  140.0434  157.1265 H   0  0  0  0  0  0  0  0  0  0  0  0  # atno 8010 bound_to 7997
  140.6204  143.8216  150.7169 H   0  0  0  0  0  0  0  0  0  0  0  0  # atno 10167 bound_to 10162
  156.0121  130.5261  150.6601 H   0  0  0  0  0  0  0  0  0  0  0  0  # atno 10718 bound_to 10713
  154.5939  135.5537  153.7305 H   0  0  0  0  0  0  0  0  0  0  0  0  # atno 10763 bound_to 10752
  153.0127  135.6350  154.1811 H   0  0  0  0  0  0  0  0  0  0  0  0  # atno 10764 bound_to 10752
  154.1751  135.2890  155.3049 H   0  0  0  0  0  0  0  0  0  0  0  0  # atno 10765 bound_to 10752
  140.1583  134.4373  155.8334 H   0  0  0  0  0  0  0  0  0  0  0  0  # atno 11005 bound_to 11000
  144.7484  139.7258  143.7283 LP  0  0  0  0  0  0  0  0  0  0  0  0  # atno 17320 bound_to 7965
  146.1853  139.5065  142.9840 LP  0  0  0  0  0  0  0  0  0  0  0  0  # atno 17321 bound_to 7965
  140.1805  143.4119  152.1936 LP  0  0  0  0  0  0  0  0  0  0  0  0  # atno 17342 bound_to 10162
  139.5434  144.7277  151.4660 LP  0  0  0  0  0  0  0  0  0  0  0  0  # atno 17343 bound_to 10162
  157.4345  131.0853  151.1005 LP  0  0  0  0  0  0  0  0  0  0  0  0  # atno 17370 bound_to 10713
  157.1568  130.6208  149.5598 LP  0  0  0  0  0  0  0  0  0  0  0  0  # atno 17371 bound_to 10713
  141.2207  133.6902  156.7548 LP  0  0  0  0  0  0  0  0  0  0  0  0  # atno 17394 bound_to 11000
  140.2520  134.8533  157.3676 LP  0  0  0  0  0  0  0  0  0  0  0  0  # atno 17395 bound_to 11000

$$$$
