AV-unprocessed.smi:87|AV-procd|sdf|820|dock9
  -GOLD-   2262017223D 1   1.00000     0.00000
 Structure written by MMmdl.
 58 60  0  0  0  0  0  0  0  0  1 V2000
  147.7158  131.9802  161.6099 C   0  0  0  0  0  0  0  0  0  0  0  0
  147.3150  133.3482  162.1814 C   0  0  0  0  0  0  0  0  0  0  0  0
  147.2726  134.4893  161.1372 C   0  0  0  0  0  0  0  0  0  0  0  0
  146.9402  135.8470  161.7992 C   0  0  0  0  0  0  0  0  0  0  0  0
  147.7447  136.1389  163.0748 C   0  0  0  0  0  0  0  0  0  0  0  0
  146.2648  134.1775  160.0003 C   0  0  0  0  0  0  0  0  0  0  0  0
  146.6735  134.6741  158.6829 N   0  0  0  0  0  0  0  0  0  0  0  0
  146.6141  136.1086  158.4043 C   0  0  0  0  0  0  0  0  0  0  0  0
  147.9650  136.6766  157.9435 C   0  0  0  0  0  0  0  0  0  0  0  0
  149.0346  136.4417  158.9239 C   0  0  0  0  0  0  0  0  0  0  0  0
  149.8767  136.2568  159.6953 N   0  0  0  0  0  0  0  0  0  0  0  0
  146.8360  133.7743  157.6741 C   0  0  0  0  0  0  0  0  0  0  0  0
  146.6746  132.4569  157.9687 N   0  0  0  0  0  0  0  0  0  0  0  0
  146.8169  131.5242  157.0237 C   0  0  0  0  0  0  0  0  0  0  0  0
  147.1153  131.6837  155.7342 N   0  0  0  0  0  0  0  0  0  0  0  0
  147.2710  133.0020  155.4242 C   0  0  0  0  0  0  0  0  0  0  0  0
  147.1488  134.1037  156.3203 C   0  0  0  0  0  0  0  0  0  0  0  0
  147.3597  135.2901  155.6244 N   0  0  0  0  0  0  0  0  0  0  0  0
  147.6019  134.9130  154.3995 C   0  0  0  0  0  0  0  0  0  0  0  0
  147.5683  133.5546  154.1910 N   0  0  0  0  0  0  0  0  0  0  0  0
  147.7941  132.8643  152.9321 C   0  0  0  0  0  0  0  0  0  0  0  0
  146.5072  132.2221  152.3645 C   0  0  2  0  0  0  0  0  0  0  0  0
  146.8075  130.8836  152.0134 O   0  0  0  0  0  0  0  0  0  0  0  0
  145.9582  132.9135  151.0932 C   0  0  2  0  0  0  0  0  0  0  0  0
  145.3612  134.3157  151.3051 C   0  0  0  0  0  0  0  0  0  0  0  0
  143.8963  134.0382  151.5499 C   0  0  0  0  0  0  0  0  0  0  0  0
  143.6570  132.8894  150.5839 C   0  0  0  0  0  0  0  0  0  0  0  0
  144.8568  132.1268  150.6281 O   0  0  0  0  0  0  0  0  0  0  0  0
  147.6345  131.2077  162.3748 H   0  0  0  0  0  0  0  0  0  0  0  0
  148.7439  131.9693  161.2506 H   0  0  0  0  0  0  0  0  0  0  0  0
  147.0654  131.6936  160.7830 H   0  0  0  0  0  0  0  0  0  0  0  0
  146.3295  133.2222  162.6270 H   0  0  0  0  0  0  0  0  0  0  0  0
  147.9820  133.6172  163.0011 H   0  0  0  0  0  0  0  0  0  0  0  0
  148.2692  134.5753  160.7026 H   0  0  0  0  0  0  0  0  0  0  0  0
  147.0845  136.6552  161.0811 H   0  0  0  0  0  0  0  0  0  0  0  0
  145.8874  135.8781  162.0746 H   0  0  0  0  0  0  0  0  0  0  0  0
  147.3986  137.0603  163.5433 H   0  0  0  0  0  0  0  0  0  0  0  0
  148.8077  136.2613  162.8708 H   0  0  0  0  0  0  0  0  0  0  0  0
  147.6311  135.3357  163.8033 H   0  0  0  0  0  0  0  0  0  0  0  0
  146.1040  133.1002  159.9499 H   0  0  0  0  0  0  0  0  0  0  0  0
  145.2863  134.5986  160.2259 H   0  0  0  0  0  0  0  0  0  0  0  0
  145.8402  136.3155  157.6666 H   0  0  0  0  0  0  0  0  0  0  0  0
  146.3061  136.6379  159.3062 H   0  0  0  0  0  0  0  0  0  0  0  0
  148.2680  136.2154  157.0034 H   0  0  0  0  0  0  0  0  0  0  0  0
  147.9128  137.7509  157.7717 H   0  0  0  0  0  0  0  0  0  0  0  0
  146.6698  130.5045  157.3475 H   0  0  0  0  0  0  0  0  0  0  0  0
  147.8079  135.6195  153.6087 H   0  0  0  0  0  0  0  0  0  0  0  0
  148.2055  133.5938  152.2356 H   0  0  0  0  0  0  0  0  0  0  0  0
  148.5635  132.1061  153.0820 H   0  0  0  0  0  0  0  0  0  0  0  0
  145.7414  132.2117  153.1413 H   0  0  0  0  0  0  0  0  0  0  0  0
  147.4019  130.8913  151.2786 H   0  0  0  0  0  0  0  0  0  0  0  0
  146.7345  132.9613  150.3278 H   0  0  0  0  0  0  0  0  0  0  0  0
  145.8206  134.9016  152.0984 H   0  0  0  0  0  0  0  0  0  0  0  0
  145.4642  134.8924  150.3848 H   0  0  0  0  0  0  0  0  0  0  0  0
  143.7375  133.7123  152.5785 H   0  0  0  0  0  0  0  0  0  0  0  0
  143.2565  134.8993  151.3560 H   0  0  0  0  0  0  0  0  0  0  0  0
  142.7881  132.2874  150.8505 H   0  0  0  0  0  0  0  0  0  0  0  0
  143.5148  133.2655  149.5700 H   0  0  0  0  0  0  0  0  0  0  0  0
  1  2  1  0  0  0  0
  1 29  1  0  0  0  0
  1 30  1  0  0  0  0
  1 31  1  0  0  0  0
  2  3  1  0  0  0  0
  2 32  1  0  0  0  0
  2 33  1  0  0  0  0
  3  4  1  0  0  0  0
  3  6  1  0  0  0  0
  3 34  1  0  0  0  0
  4  5  1  0  0  0  0
  4 35  1  0  0  0  0
  4 36  1  0  0  0  0
  5 37  1  0  0  0  0
  5 38  1  0  0  0  0
  5 39  1  0  0  0  0
  6  7  1  0  0  0  0
  6 40  1  0  0  0  0
  6 41  1  0  0  0  0
  7  8  1  0  0  0  0
  7 12  1  0  0  0  0
  8  9  1  0  0  0  0
  8 42  1  0  0  0  0
  8 43  1  0  0  0  0
  9 10  1  0  0  0  0
  9 44  1  0  0  0  0
  9 45  1  0  0  0  0
 10 11  3  0  0  0  0
 12 17  1  0  0  0  0
 12 13  2  0  0  0  0
 13 14  1  0  0  0  0
 14 15  2  0  0  0  0
 14 46  1  0  0  0  0
 15 16  1  0  0  0  0
 16 20  1  0  0  0  0
 16 17  2  0  0  0  0
 17 18  1  0  0  0  0
 18 19  2  0  0  0  0
 19 20  1  0  0  0  0
 19 47  1  0  0  0  0
 20 21  1  0  0  0  0
 21 22  1  0  0  0  0
 21 48  1  0  0  0  0
 21 49  1  0  0  0  0
 22 23  1  0  0  0  0
 22 24  1  0  0  0  0
 22 50  1  0  0  0  0
 23 51  1  0  0  0  0
 24 28  1  0  0  0  0
 24 25  1  0  0  0  0
 24 52  1  0  0  0  0
 25 26  1  0  0  0  0
 25 53  1  0  0  0  0
 25 54  1  0  0  0  0
 26 27  1  0  0  0  0
 26 55  1  0  0  0  0
 26 56  1  0  0  0  0
 27 28  1  0  0  0  0
 27 57  1  0  0  0  0
 27 58  1  0  0  0  0
M  END
> <s_m_source_file>
AV-unprocessed.smi

> <i_m_source_file_index>
87

> <i_lp_mmshare_version>
43012

> <i_f3d_flags>
0

> <s_epik_input>
W0NIM11bQ0gyXVtDSF0oW0NIMl1bQ0gzXSlbQ0gyXU4oW0NIMl1bQ0gyXUMjTiljKG5bY0hdbjEpYyhjMTIpbltjSF1uMltDSDJdW0NASF0oW09IXSlbQ0BASF0zW0NIMl1bQ0gyXVtDSDJdTzM=

> <s_epik_cmdline>
J2VwaWtfcHl0aG9uJywgJy1waCcsICc3LjAnLCAnLXRuJywgJzgnLCAnLW1hJywgJzIwMCcsICctbWV0YWxfYmluZGluZycsICctaW1hZScsICc8aW5maWxlLm1hZT4nLCAnLW9tYWUnLCAnPG91dGZpbGUubWFlPic=

> <r_lp_tautomer_probability>
1

> <r_epik_Ionization_Penalty>
0.000348566

> <r_epik_Ionization_Penalty_Charging>
0

> <r_epik_Ionization_Penalty_Neutral>
0.000348566

> <r_epik_State_Penalty>
-0

> <r_epik_Charging_Adjusted_Penalty>
0

> <i_epik_Tot_Q>
0

> <i_epik_Tot_abs_Q>
0

> <r_epik_Metal_State_Penalty>
-0

> <b_epik_Metal_Only>
0

> <s_lp_Force_Field>
OPLS_2005

> <r_lp_Energy>
36.7846

> <b_lp_Chiralities_Consistent>
1

> <s_lp_Variant>
AV-unprocessed.smi:87-1

> <Gold.Version>
5.8.1

> <Gold.Id.Protein>
6NUR|6NUR_protein|mol2

> <Gold.PLP.Fitness>
43.7416

> <Gold.PLP.PLP>
-36.9681

> <Gold.PLP.part.hbond>
-2.0000

> <Gold.PLP.part.metal>
0.0000

> <Gold.PLP.part.buried>
-5.8389

> <Gold.PLP.part.nonpolar>
-29.7890

> <Gold.PLP.part.repulsive>
0.2002

> <Gold.PLP.ligand.clash>
0.0000

> <Gold.PLP.ligand.torsion>
1.4798

> <Gold.PLP.Chemscore.Hbond>
2.0000

> <Gold.PLP.Chemscore.CHOScore>
1.0000

> <Gold.PLP.Chemscore.Metal>
0.0000

> <Gold.Chemscore.Hbonds>
donor molecule, donor type, donor heavy atom, donor atom, acceptor molecule, acceptor atom, score
      L1  H    23    51       P1 10747  1.00
      P1  H  6896  6907       L1    11  1.00
      L1  C    19    47       P1  7948  1.00

> <Gold.PLP.Chemscore.Internal.Correction>
0.7331

> <Gold.Rescore>
     Score         DG    S(hbond)    S(metal)    S(lipo)     H(rot)  DE(clash)    DE(int)     intcor
      9.51     -13.41       1.99        0.00      84.50       3.37       0.00       3.89       ----

> <Gold.Chemscore.Fitness>
9.5138

> <Gold.Chemscore.DG>
-13.4079

> <Gold.Chemscore.ZeroCoef>
-5.4800

> <Gold.Chemscore.Hbond>
1.9945

> <Gold.Chemscore.Metal>
0.0000

> <Gold.Chemscore.Lipo>
84.4983

> <Gold.Chemscore.Internal_Hbond>
0.0000

> <Gold.Chemscore.DEClash>
0.0000

> <Gold.Chemscore.DEInternal>
3.8940

> <Gold.Chemscore.Rot>
3.3672

> <Gold.Chemscore.Internal.Correction>
   9.000000E+99

> <Gold.Chemscore.Hbonds>
donor molecule, donor type, donor heavy atom, donor atom, acceptor molecule, acceptor atom, score
      L1  H    23    51       P1 10747  1.00
      P1  H  6896  6907       L1    11  1.00

> <Gold.Chemscore.Hbond.Weighted>
-6.6617

> <Gold.Chemscore.Metal.Weighted>
-0.0000

> <Gold.Chemscore.Lipo.Weighted>
-9.8863

> <Gold.Chemscore.Internal_Hbond.Weighted>
0.0000

> <Gold.Chemscore.DEClash.Weighted>
0.0000

> <Gold.Chemscore.DEInternal.Weighted>
3.8940

> <Gold.Chemscore.Rot.Weighted>
8.6201

> <Gold.Chemscore.Internal.Correction.Weighted>
   9.000000E+99

> <Gold.Protein.RotatedTorsions>
[ 6907 6896 6895 6894 ] final  -30.04 input  -60.11 | X-H torsion
[ 7974 7965 7964 7962 ] final -150.66 input  175.53 | X-H torsion
[ 8008 7997 7996 7995 ] final  -91.01 input   59.86 | X-H torsion
[ 10167 10162 10161 10158 ] final  -13.08 input  -65.29 | X-H torsion
[ 10718 10713 10712 10709 ] final  162.61 input   66.30 | X-H torsion
[ 10763 10752 10751 10750 ] final -125.01 input  -60.55 | X-H torsion
[ 11005 11000 10999 10996 ] final  -97.35 input  -57.11 | X-H torsion

> <Gold.Protein.ActiveResidues>
 VAL166  LYS551  ARG553  GLY616  TRP617  ASP618  TYR619  PRO620  LYS621  CYS622 
 ASP623  PHE694  ASN695  SER759  ASP760  ASP761  ALA762  ILE779  LEU786  VAL792 
 PHE793  MET794  SER795  GLU796  ALA797  LYS798  CYS799  TRP800  GLU811  SER814 

> <Gold.Protein.RotatedAtoms>
  151.1109  135.0026  159.8493 H   0  0  0  0  0  0  0  0  0  0  0  0  # atno 6907 bound_to 6896
  152.5443  134.1837  159.8656 H   0  0  0  0  0  0  0  0  0  0  0  0  # atno 6908 bound_to 6896
  151.1887  133.4636  159.2628 H   0  0  0  0  0  0  0  0  0  0  0  0  # atno 6909 bound_to 6896
  144.7894  140.4901  143.5783 H   0  0  0  0  0  0  0  0  0  0  0  0  # atno 7974 bound_to 7965
  154.7055  140.0524  157.0499 H   0  0  0  0  0  0  0  0  0  0  0  0  # atno 8008 bound_to 7997
  155.0626  140.3191  155.4637 H   0  0  0  0  0  0  0  0  0  0  0  0  # atno 8009 bound_to 7997
  156.2773  140.2096  156.5753 H   0  0  0  0  0  0  0  0  0  0  0  0  # atno 8010 bound_to 7997
  140.7175  143.5464  150.9351 H   0  0  0  0  0  0  0  0  0  0  0  0  # atno 10167 bound_to 10162
  157.1201  131.0490  151.2419 H   0  0  0  0  0  0  0  0  0  0  0  0  # atno 10718 bound_to 10713
  154.8731  135.4044  154.3199 H   0  0  0  0  0  0  0  0  0  0  0  0  # atno 10763 bound_to 10752
  153.4029  135.7018  153.6419 H   0  0  0  0  0  0  0  0  0  0  0  0  # atno 10764 bound_to 10752
  153.5154  135.3698  155.2577 H   0  0  0  0  0  0  0  0  0  0  0  0  # atno 10765 bound_to 10752
  141.1382  133.8164  157.0694 H   0  0  0  0  0  0  0  0  0  0  0  0  # atno 11005 bound_to 11000
  145.5834  139.1490  143.3223 LP  0  0  0  0  0  0  0  0  0  0  0  0  # atno 17320 bound_to 7965
  146.2140  140.5963  142.9047 LP  0  0  0  0  0  0  0  0  0  0  0  0  # atno 17321 bound_to 7965
  139.9187  143.6632  152.3101 LP  0  0  0  0  0  0  0  0  0  0  0  0  # atno 17342 bound_to 10162
  139.7041  144.7630  151.1223 LP  0  0  0  0  0  0  0  0  0  0  0  0  # atno 17343 bound_to 10162
  157.4484  130.7584  149.7129 LP  0  0  0  0  0  0  0  0  0  0  0  0  # atno 17370 bound_to 10713
  155.9830  130.4004  150.3384 LP  0  0  0  0  0  0  0  0  0  0  0  0  # atno 17371 bound_to 10713
  140.0521  134.9800  157.1155 LP  0  0  0  0  0  0  0  0  0  0  0  0  # atno 17394 bound_to 11000
  140.3974  134.2119  155.7164 LP  0  0  0  0  0  0  0  0  0  0  0  0  # atno 17395 bound_to 11000

$$$$
