AV-unprocessed.smi:3116|AV-procd|sdf|11874|dock7
  -GOLD-   2272017253D 1   1.00000     0.00000
 Structure written by MMmdl.
 33 33  0  0  0  0  0  0  0  0  1 V2000
  148.4816  141.2204  154.0863 C   0  0  0  0  0  0  0  0  0  0  0  0
  149.2488  140.2274  154.9822 C   0  0  2  0  0  0  0  0  0  0  0  0
  150.6818  140.5627  155.0064 N   0  0  0  0  0  0  0  0  0  0  0  0
  151.2352  140.8576  156.3281 C   0  0  2  0  0  0  0  0  0  0  0  0
  151.1664  139.6127  157.2342 C   0  0  0  0  0  0  0  0  0  0  0  0
  150.5010  142.0786  156.9443 C   0  0  1  0  0  0  0  0  0  0  0  0
  149.2215  141.6948  157.7105 C   0  0  0  0  0  0  0  0  0  0  0  0
  151.3745  142.9280  157.7505 N   0  0  0  0  0  0  0  0  0  0  0  0
  151.6933  144.2614  157.5780 C   0  0  0  0  0  0  0  0  0  0  0  0
  152.5239  144.6210  158.6000 C   0  0  0  0  0  0  0  0  0  0  0  0
  152.6565  143.4276  159.3622 C   0  0  0  0  0  0  0  0  0  0  0  0
  151.9662  142.4199  158.8548 N   0  0  0  0  0  0  0  0  0  0  0  0
  149.0582  138.7725  154.5246 C   0  0  0  0  0  0  0  0  0  0  0  0
  149.3511  138.5012  153.2497 N   0  0  0  0  0  0  0  0  0  0  0  0
  148.6595  137.9017  155.2963 O   0  0  0  0  0  0  0  0  0  0  0  0
  147.4154  140.9915  154.0634 H   0  0  0  0  0  0  0  0  0  0  0  0
  148.8489  141.1996  153.0592 H   0  0  0  0  0  0  0  0  0  0  0  0
  148.5801  142.2443  154.4447 H   0  0  0  0  0  0  0  0  0  0  0  0
  148.8340  140.2845  155.9901 H   0  0  0  0  0  0  0  0  0  0  0  0
  150.9149  141.2911  154.3466 H   0  0  0  0  0  0  0  0  0  0  0  0
  152.2826  141.1400  156.2093 H   0  0  0  0  0  0  0  0  0  0  0  0
  151.4792  139.8552  158.2500 H   0  0  0  0  0  0  0  0  0  0  0  0
  151.8270  138.8216  156.8805 H   0  0  0  0  0  0  0  0  0  0  0  0
  150.1560  139.2058  157.2885 H   0  0  0  0  0  0  0  0  0  0  0  0
  150.1633  142.6881  156.1039 H   0  0  0  0  0  0  0  0  0  0  0  0
  148.5404  141.1303  157.0736 H   0  0  0  0  0  0  0  0  0  0  0  0
  148.6903  142.5837  158.0521 H   0  0  0  0  0  0  0  0  0  0  0  0
  149.4371  141.0822  158.5863 H   0  0  0  0  0  0  0  0  0  0  0  0
  151.3051  144.8397  156.7524 H   0  0  0  0  0  0  0  0  0  0  0  0
  152.9672  145.5895  158.7776 H   0  0  0  0  0  0  0  0  0  0  0  0
  153.2275  143.2653  160.2643 H   0  0  0  0  0  0  0  0  0  0  0  0
  149.2535  137.5583  152.9026 H   0  0  0  0  0  0  0  0  0  0  0  0
  149.6793  139.2382  152.6425 H   0  0  0  0  0  0  0  0  0  0  0  0
  1  2  1  0  0  0  0
  1 16  1  0  0  0  0
  1 17  1  0  0  0  0
  1 18  1  0  0  0  0
  2  3  1  0  0  0  0
  2 13  1  0  0  0  0
  2 19  1  0  0  0  0
  3  4  1  0  0  0  0
  3 20  1  0  0  0  0
  4  5  1  0  0  0  0
  4  6  1  0  0  0  0
  4 21  1  0  0  0  0
  5 22  1  0  0  0  0
  5 23  1  0  0  0  0
  5 24  1  0  0  0  0
  6  7  1  0  0  0  0
  6  8  1  0  0  0  0
  6 25  1  0  0  0  0
  7 26  1  0  0  0  0
  7 27  1  0  0  0  0
  7 28  1  0  0  0  0
  8 12  1  0  0  0  0
  8  9  1  0  0  0  0
  9 10  2  0  0  0  0
  9 29  1  0  0  0  0
 10 11  1  0  0  0  0
 10 30  1  0  0  0  0
 11 12  2  0  0  0  0
 11 31  1  0  0  0  0
 13 14  1  0  0  0  0
 13 15  2  0  0  0  0
 14 32  1  0  0  0  0
 14 33  1  0  0  0  0
M  END
> <s_m_source_file>
AV-unprocessed.smi

> <i_m_source_file_index>
3116

> <i_lp_mmshare_version>
43012

> <i_f3d_flags>
0

> <s_epik_input>
W05IMl1DKD1PKVtDQEhdKFtDSDNdKVtOSF1bQ0BIXShbQ0gzXSlbQ0BIXShbQ0gzXSluMVtjSF1bY0hdW2NIXW4x

> <s_epik_cmdline>
J2VwaWtfcHl0aG9uJywgJy1waCcsICc3LjAnLCAnLXRuJywgJzgnLCAnLW1hJywgJzIwMCcsICctbWV0YWxfYmluZGluZycsICctaW1hZScsICc8aW5maWxlLm1hZT4nLCAnLW9tYWUnLCAnPG91dGZpbGUubWFlPic=

> <r_lp_tautomer_probability>
1

> <r_epik_Ionization_Penalty>
0.865977

> <r_epik_Ionization_Penalty_Charging>
0

> <r_epik_Ionization_Penalty_Neutral>
0.865977

> <r_epik_State_Penalty>
0.901888

> <r_epik_Charging_Adjusted_Penalty>
0.901888

> <i_epik_Tot_Q>
0

> <i_epik_Tot_abs_Q>
0

> <r_epik_Metal_State_Penalty>
0.901181

> <b_epik_Metal_Only>
0

> <s_lp_Force_Field>
OPLS_2005

> <r_lp_Energy>
11.5103

> <b_lp_Chiralities_Consistent>
1

> <s_lp_Variant>
AV-unprocessed.smi:3116-13

> <Gold.Version>
5.8.1

> <Gold.Id.Protein>
6NUR|6NUR_protein|mol2

> <Gold.PLP.Fitness>
40.4762

> <Gold.PLP.PLP>
-34.5575

> <Gold.PLP.part.hbond>
-3.0000

> <Gold.PLP.part.metal>
0.0000

> <Gold.PLP.part.buried>
-4.2194

> <Gold.PLP.part.nonpolar>
-28.3573

> <Gold.PLP.part.repulsive>
0.1792

> <Gold.PLP.ligand.clash>
0.0000

> <Gold.PLP.ligand.torsion>
1.6331

> <Gold.PLP.Chemscore.Hbond>
1.9920

> <Gold.PLP.Chemscore.CHOScore>
1.0000

> <Gold.PLP.Chemscore.Metal>
0.0000

> <Gold.Chemscore.Hbonds>
donor molecule, donor type, donor heavy atom, donor atom, acceptor molecule, acceptor atom, score
      L1  H    14    32       P1  7948  1.00
      L1  H    14    33       P1  7957  0.98
      L1  C     9    29       P1  8028  0.78

> <Gold.PLP.Chemscore.Internal.Correction>
0.2089

> <Gold.Rescore>
     Score         DG    S(hbond)    S(metal)    S(lipo)     H(rot)  DE(clash)    DE(int)     intcor
     13.29     -14.87       1.96        0.00      76.36       2.38       0.02       1.56       ----

> <Gold.Chemscore.Fitness>
13.2913

> <Gold.Chemscore.DG>
-14.8729

> <Gold.Chemscore.ZeroCoef>
-5.4800

> <Gold.Chemscore.Hbond>
1.9642

> <Gold.Chemscore.Metal>
0.0000

> <Gold.Chemscore.Lipo>
76.3627

> <Gold.Chemscore.Internal_Hbond>
0.0000

> <Gold.Chemscore.DEClash>
0.0204

> <Gold.Chemscore.DEInternal>
1.5613

> <Gold.Chemscore.Rot>
2.3836

> <Gold.Chemscore.Internal.Correction>
   9.000000E+99

> <Gold.Chemscore.Hbonds>
donor molecule, donor type, donor heavy atom, donor atom, acceptor molecule, acceptor atom, score
      L1  H    14    32       P1  7948  0.96
      L1  H    14    33       P1  7957  0.90

> <Gold.Chemscore.Hbond.Weighted>
-6.5605

> <Gold.Chemscore.Metal.Weighted>
-0.0000

> <Gold.Chemscore.Lipo.Weighted>
-8.9344

> <Gold.Chemscore.Internal_Hbond.Weighted>
0.0000

> <Gold.Chemscore.DEClash.Weighted>
0.0204

> <Gold.Chemscore.DEInternal.Weighted>
1.5613

> <Gold.Chemscore.Rot.Weighted>
6.1020

> <Gold.Chemscore.Internal.Correction.Weighted>
   9.000000E+99

> <Gold.Protein.RotatedTorsions>
[ 6907 6896 6895 6894 ] final -146.16 input  -60.11 | X-H torsion
[ 7974 7965 7964 7962 ] final   43.39 input  175.53 | X-H torsion
[ 8008 7997 7996 7995 ] final -155.95 input   59.86 | X-H torsion
[ 10167 10162 10161 10158 ] final   -9.41 input  -65.29 | X-H torsion
[ 10718 10713 10712 10709 ] final  -97.58 input   66.30 | X-H torsion
[ 10763 10752 10751 10750 ] final -130.61 input  -60.55 | X-H torsion
[ 11005 11000 10999 10996 ] final   60.73 input  -57.11 | X-H torsion

> <Gold.Protein.ActiveResidues>
 VAL166  LYS551  ARG553  GLY616  TRP617  ASP618  TYR619  PRO620  LYS621  CYS622 
 ASP623  PHE694  ASN695  SER759  ASP760  ASP761  ALA762  ILE779  LEU786  VAL792 
 PHE793  MET794  SER795  GLU796  ALA797  LYS798  CYS799  TRP800  GLU811  SER814 

> <Gold.Protein.RotatedAtoms>
  151.1378  133.4992  159.2597 H   0  0  0  0  0  0  0  0  0  0  0  0  # atno 6907 bound_to 6896
  151.1687  135.0307  159.8752 H   0  0  0  0  0  0  0  0  0  0  0  0  # atno 6908 bound_to 6896
  152.5461  134.1244  159.8466 H   0  0  0  0  0  0  0  0  0  0  0  0  # atno 6909 bound_to 6896
  146.0659  139.5192  142.9628 H   0  0  0  0  0  0  0  0  0  0  0  0  # atno 7974 bound_to 7965
  155.7097  140.0777  157.2376 H   0  0  0  0  0  0  0  0  0  0  0  0  # atno 8008 bound_to 7997
  154.4060  140.1632  156.2336 H   0  0  0  0  0  0  0  0  0  0  0  0  # atno 8009 bound_to 7997
  155.9294  140.3392  155.6239 H   0  0  0  0  0  0  0  0  0  0  0  0  # atno 8010 bound_to 7997
  140.7086  143.5861  150.8941 H   0  0  0  0  0  0  0  0  0  0  0  0  # atno 10167 bound_to 10162
  156.0087  130.5200  150.6395 H   0  0  0  0  0  0  0  0  0  0  0  0  # atno 10718 bound_to 10713
  154.8755  135.3857  154.4110 H   0  0  0  0  0  0  0  0  0  0  0  0  # atno 10763 bound_to 10752
  153.4824  135.7030  153.5935 H   0  0  0  0  0  0  0  0  0  0  0  0  # atno 10764 bound_to 10752
  153.4345  135.3871  155.2158 H   0  0  0  0  0  0  0  0  0  0  0  0  # atno 10765 bound_to 10752
  140.0211  134.6151  155.9638 H   0  0  0  0  0  0  0  0  0  0  0  0  # atno 11005 bound_to 11000
  145.6477  141.0270  143.1777 LP  0  0  0  0  0  0  0  0  0  0  0  0  # atno 17320 bound_to 7965
  144.7202  139.8055  143.7384 LP  0  0  0  0  0  0  0  0  0  0  0  0  # atno 17321 bound_to 7965
  139.9587  143.6189  152.3008 LP  0  0  0  0  0  0  0  0  0  0  0  0  # atno 17342 bound_to 10162
  139.6733  144.7660  151.1742 LP  0  0  0  0  0  0  0  0  0  0  0  0  # atno 17343 bound_to 10162
  157.4178  131.0832  151.1160 LP  0  0  0  0  0  0  0  0  0  0  0  0  # atno 17370 bound_to 10713
  157.1772  130.6293  149.5660 LP  0  0  0  0  0  0  0  0  0  0  0  0  # atno 17371 bound_to 10713
  141.1774  133.6542  156.4884 LP  0  0  0  0  0  0  0  0  0  0  0  0  # atno 17394 bound_to 11000
  140.4385  134.7037  157.4979 LP  0  0  0  0  0  0  0  0  0  0  0  0  # atno 17395 bound_to 11000

$$$$
