AV-unprocessed.smi:1965|AV-procd|sdf|7932|dock1
  -GOLD-   2272010103D 1   1.00000     0.00000
 Structure written by MMmdl.
 37 39  0  0  0  0  0  0  0  0  2 V2000
  150.1808  134.5700  155.8460 O   0  0  0  0  0  0  0  0  0  0  0  0
  149.7841  135.0558  154.7884 C   0  0  0  0  0  0  0  0  0  0  0  0
  150.1379  136.3058  154.4203 N   0  0  0  0  0  0  0  0  0  0  0  0
  150.9520  137.2855  155.0603 C   0  0  0  0  0  0  0  0  0  0  0  0
  151.9080  137.0270  155.9624 N   0  0  0  0  0  0  0  0  0  0  0  0
  152.5466  138.1888  156.4033 C   0  0  0  0  0  0  0  0  0  0  0  0
  152.0659  139.3335  155.8186 C   0  0  0  0  0  0  0  0  0  0  0  0
  150.7856  138.9950  154.6850 S   0  0  0  0  0  0  0  0  0  0  0  0
  148.9889  134.3874  153.9369 N   0  0  0  0  0  0  0  0  0  0  0  0
  148.4857  133.0310  154.1280 C   0  0  2  0  0  0  0  0  0  0  0  0
  149.5958  132.0076  154.3341 C   0  0  0  0  0  0  0  0  0  0  0  0
  148.8878  130.6925  154.0043 C   0  0  0  0  0  0  0  0  0  0  0  0
  147.9049  131.0137  152.9440 N   0  3  1  0  0  0  0  0  0  0  0  0
  146.6419  130.2389  153.0185 C   0  0  0  0  0  0  0  0  0  0  0  0
  145.6941  130.6286  151.8689 C   0  0  0  0  0  0  0  0  0  0  0  0
  145.5058  132.1540  151.7302 C   0  0  0  0  0  0  0  0  0  0  0  0
  146.2687  132.9397  152.8081 C   0  0  0  0  0  0  0  0  0  0  0  0
  147.7467  132.4950  152.8903 C   0  0  1  0  0  0  0  0  0  0  0  0
  149.7774  136.5919  153.5212 H   0  0  0  0  0  0  0  0  0  0  0  0
  153.3362  138.1092  157.1363 H   0  0  0  0  0  0  0  0  0  0  0  0
  152.3868  140.3512  155.9845 H   0  0  0  0  0  0  0  0  0  0  0  0
  148.7114  134.8625  153.0893 H   0  0  0  0  0  0  0  0  0  0  0  0
  147.8284  132.9891  154.9994 H   0  0  0  0  0  0  0  0  0  0  0  0
  150.4111  132.1798  153.6294 H   0  0  0  0  0  0  0  0  0  0  0  0
  150.0091  132.0242  155.3432 H   0  0  0  0  0  0  0  0  0  0  0  0
  149.5799  129.9139  153.6831 H   0  0  0  0  0  0  0  0  0  0  0  0
  148.3703  130.3313  154.8947 H   0  0  0  0  0  0  0  0  0  0  0  0
  146.8663  129.1726  152.9722 H   0  0  0  0  0  0  0  0  0  0  0  0
  146.1577  130.4159  153.9803 H   0  0  0  0  0  0  0  0  0  0  0  0
  146.0844  130.2321  150.9306 H   0  0  0  0  0  0  0  0  0  0  0  0
  144.7270  130.1469  152.0175 H   0  0  0  0  0  0  0  0  0  0  0  0
  145.8554  132.4686  150.7459 H   0  0  0  0  0  0  0  0  0  0  0  0
  144.4457  132.4070  151.7684 H   0  0  0  0  0  0  0  0  0  0  0  0
  146.2087  134.0080  152.5986 H   0  0  0  0  0  0  0  0  0  0  0  0
  145.7793  132.7946  153.7722 H   0  0  0  0  0  0  0  0  0  0  0  0
  148.2673  132.8199  151.9877 H   0  0  0  0  0  0  0  0  0  0  0  0
  148.3378  130.7609  152.0671 H   0  0  0  0  0  0  0  0  0  0  0  0
  1  2  2  0  0  0  0
  2  3  1  0  0  0  0
  2  9  1  0  0  0  0
  3  4  1  0  0  0  0
  3 19  1  0  0  0  0
  4  8  1  0  0  0  0
  4  5  2  0  0  0  0
  5  6  1  0  0  0  0
  6  7  2  0  0  0  0
  6 20  1  0  0  0  0
  7  8  1  0  0  0  0
  7 21  1  0  0  0  0
  9 10  1  0  0  0  0
  9 22  1  0  0  0  0
 10 18  1  0  0  0  0
 10 11  1  0  0  0  0
 10 23  1  0  0  0  0
 11 12  1  0  0  0  0
 11 24  1  0  0  0  0
 11 25  1  0  0  0  0
 12 13  1  0  0  0  0
 12 26  1  0  0  0  0
 12 27  1  0  0  0  0
 13 18  1  0  0  0  0
 13 14  1  0  0  0  0
 13 37  1  0  0  0  0
 14 15  1  0  0  0  0
 14 28  1  0  0  0  0
 14 29  1  0  0  0  0
 15 16  1  0  0  0  0
 15 30  1  0  0  0  0
 15 31  1  0  0  0  0
 16 17  1  0  0  0  0
 16 32  1  0  0  0  0
 16 33  1  0  0  0  0
 17 18  1  0  0  0  0
 17 34  1  0  0  0  0
 17 35  1  0  0  0  0
 18 36  1  0  0  0  0
M  CHG  1  13   1
M  END
> <s_m_source_file>
AV-unprocessed.smi

> <i_m_source_file_index>
1965

> <i_lp_mmshare_version>
43012

> <i_f3d_flags>
0

> <s_epik_input>
czFbY0hdW2NIXW5jMVtOSF1DKD1PKVtOSF1bQ0BIXShbQ0gyXVtDSDJdMilbQ0BASF0oTjIzKVtDSDJdW0NIMl1bQ0gyXVtDSDJdMw==

> <s_epik_cmdline>
J2VwaWtfcHl0aG9uJywgJy1waCcsICc3LjAnLCAnLXRuJywgJzgnLCAnLW1hJywgJzIwMCcsICctbWV0YWxfYmluZGluZycsICctaW1hZScsICc8aW5maWxlLm1hZT4nLCAnLW9tYWUnLCAnPG91dGZpbGUubWFlPic=

> <r_lp_tautomer_probability>
1

> <r_epik_Ionization_Penalty>
0.00125962

> <r_epik_Ionization_Penalty_Charging>
0.00107044

> <r_epik_Ionization_Penalty_Neutral>
0.000189176

> <r_epik_State_Penalty>
-0

> <r_epik_Charging_Adjusted_Penalty>
0.00107044

> <i_epik_Tot_Q>
1

> <i_epik_Tot_abs_Q>
1

> <r_epik_Metal_State_Penalty>
0.0179285

> <b_epik_Metal_Only>
0

> <s_lp_Force_Field>
OPLS_2005

> <r_lp_Energy>
40.5282

> <b_lp_Chiralities_Consistent>
1

> <s_lp_Variant>
AV-unprocessed.smi:1965-1

> <Gold.Version>
5.8.1

> <Gold.Id.Protein>
6NUR|6NUR_protein|mol2

> <Gold.PLP.Fitness>
44.9694

> <Gold.PLP.PLP>
-33.2843

> <Gold.PLP.part.hbond>
-5.0000

> <Gold.PLP.part.metal>
0.0000

> <Gold.PLP.part.buried>
-2.4541

> <Gold.PLP.part.nonpolar>
-26.4952

> <Gold.PLP.part.repulsive>
0.1396

> <Gold.PLP.ligand.clash>
0.0000

> <Gold.PLP.ligand.torsion>
0.1493

> <Gold.PLP.Chemscore.Hbond>
3.9920

> <Gold.PLP.Chemscore.CHOScore>
0.0000

> <Gold.PLP.Chemscore.Metal>
0.0000

> <Gold.Chemscore.Hbonds>
donor molecule, donor type, donor heavy atom, donor atom, acceptor molecule, acceptor atom, score
      L1  H     3    19       P1  7948  1.00
      L1  H     9    22       P1  7948  0.99
      L1  H    13    37       P1 10747  1.00
      P1  H 10752 10765       L1     5  0.68

> <Gold.PLP.Chemscore.Internal.Correction>
0.0077

> <Gold.Rescore>
     Score         DG    S(hbond)    S(metal)    S(lipo)     H(rot)  DE(clash)    DE(int)     intcor
     20.31     -21.93       3.33        0.00      67.56       1.00       0.01       1.61       ----

> <Gold.Chemscore.Fitness>
20.3142

> <Gold.Chemscore.DG>
-21.9305

> <Gold.Chemscore.ZeroCoef>
-5.4800

> <Gold.Chemscore.Hbond>
3.3251

> <Gold.Chemscore.Metal>
0.0000

> <Gold.Chemscore.Lipo>
67.5629

> <Gold.Chemscore.Internal_Hbond>
0.0000

> <Gold.Chemscore.DEClash>
0.0110

> <Gold.Chemscore.DEInternal>
1.6054

> <Gold.Chemscore.Rot>
1.0000

> <Gold.Chemscore.Internal.Correction>
   9.000000E+99

> <Gold.Chemscore.Hbonds>
donor molecule, donor type, donor heavy atom, donor atom, acceptor molecule, acceptor atom, score
      L1  H     3    19       P1  7948  0.38
      L1  H     9    22       P1  7948  0.33
      L1  H    13    37       P1 10747  0.98
      P1  H 10752 10765       L1     5  0.25

> <Gold.Chemscore.Hbond.Weighted>
-11.1057

> <Gold.Chemscore.Metal.Weighted>
-0.0000

> <Gold.Chemscore.Lipo.Weighted>
-7.9049

> <Gold.Chemscore.Internal_Hbond.Weighted>
0.0000

> <Gold.Chemscore.DEClash.Weighted>
0.0110

> <Gold.Chemscore.DEInternal.Weighted>
1.6054

> <Gold.Chemscore.Rot.Weighted>
2.5600

> <Gold.Chemscore.Internal.Correction.Weighted>
   9.000000E+99

> <Gold.Protein.RotatedTorsions>
[ 6907 6896 6895 6894 ] final  -28.02 input  -60.11 | X-H torsion
[ 7974 7965 7964 7962 ] final  -71.92 input  175.53 | X-H torsion
[ 8008 7997 7996 7995 ] final -113.12 input   59.86 | X-H torsion
[ 10167 10162 10161 10158 ] final  161.32 input  -65.29 | X-H torsion
[ 10718 10713 10712 10709 ] final   -1.15 input   66.30 | X-H torsion
[ 10763 10752 10751 10750 ] final -155.79 input  -60.55 | X-H torsion
[ 11005 11000 10999 10996 ] final  104.02 input  -57.11 | X-H torsion

> <Gold.Protein.ActiveResidues>
 VAL166  LYS551  ARG553  GLY616  TRP617  ASP618  TYR619  PRO620  LYS621  CYS622 
 ASP623  PHE694  ASN695  SER759  ASP760  ASP761  ALA762  ILE779  LEU786  VAL792 
 PHE793  MET794  SER795  GLU796  ALA797  LYS798  CYS799  TRP800  GLU811  SER814 

> <Gold.Protein.RotatedAtoms>
  151.1388  135.0168  159.8615 H   0  0  0  0  0  0  0  0  0  0  0  0  # atno 6907 bound_to 6896
  152.5452  134.1524  159.8534 H   0  0  0  0  0  0  0  0  0  0  0  0  # atno 6908 bound_to 6896
  151.1598  133.4807  159.2627 H   0  0  0  0  0  0  0  0  0  0  0  0  # atno 6909 bound_to 6896
  145.6719  140.9218  143.0878 H   0  0  0  0  0  0  0  0  0  0  0  0  # atno 7974 bound_to 7965
  155.0158  140.0393  157.2417 H   0  0  0  0  0  0  0  0  0  0  0  0  # atno 8008 bound_to 7997
  154.7421  140.2751  155.6341 H   0  0  0  0  0  0  0  0  0  0  0  0  # atno 8009 bound_to 7997
  156.2866  140.2663  156.2151 H   0  0  0  0  0  0  0  0  0  0  0  0  # atno 8010 bound_to 7997
  139.4848  144.4548  151.8782 H   0  0  0  0  0  0  0  0  0  0  0  0  # atno 10167 bound_to 10162
  156.8098  130.5421  149.5710 H   0  0  0  0  0  0  0  0  0  0  0  0  # atno 10718 bound_to 10713
  154.7761  135.3160  154.8089 H   0  0  0  0  0  0  0  0  0  0  0  0  # atno 10763 bound_to 10752
  153.8812  135.6835  153.4771 H   0  0  0  0  0  0  0  0  0  0  0  0  # atno 10764 bound_to 10752
  153.1385  135.4749  154.9396 H   0  0  0  0  0  0  0  0  0  0  0  0  # atno 10765 bound_to 10752
  139.8788  134.9285  156.5298 H   0  0  0  0  0  0  0  0  0  0  0  0  # atno 11005 bound_to 11000
  144.7054  139.8583  143.7431 LP  0  0  0  0  0  0  0  0  0  0  0  0  # atno 17320 bound_to 7965
  146.1038  139.4036  143.0330 LP  0  0  0  0  0  0  0  0  0  0  0  0  # atno 17321 bound_to 7965
  140.4007  144.2497  150.5893 LP  0  0  0  0  0  0  0  0  0  0  0  0  # atno 17342 bound_to 10162
  140.5060  143.2304  151.8608 LP  0  0  0  0  0  0  0  0  0  0  0  0  # atno 17343 bound_to 10162
  156.1051  130.5998  150.9957 LP  0  0  0  0  0  0  0  0  0  0  0  0  # atno 17370 bound_to 10713
  157.6511  131.0897  150.8048 LP  0  0  0  0  0  0  0  0  0  0  0  0  # atno 17371 bound_to 10713
  140.8389  133.8221  155.9055 LP  0  0  0  0  0  0  0  0  0  0  0  0  # atno 17394 bound_to 11000
  140.9257  134.2086  157.4897 LP  0  0  0  0  0  0  0  0  0  0  0  0  # atno 17395 bound_to 11000

$$$$
