AV-unprocessed.smi:40|AV-procd|sdf|379|dock7
  -GOLD-   2262016233D 1   1.00000     0.00000
 Structure written by MMmdl.
 47 48  0  0  0  0  0  0  0  0  1 V2000
  151.5453  144.9004  160.0493 C   0  0  0  0  0  0  0  0  0  0  0  0
  152.6261  143.9562  159.5111 C   0  0  0  0  0  0  0  0  0  0  0  0
  152.3424  143.4983  158.0738 C   0  0  0  0  0  0  0  0  0  0  0  0
  151.0837  142.6208  157.9665 C   0  0  0  0  0  0  0  0  0  0  0  0
  151.0477  141.7712  156.6880 C   0  0  0  0  0  0  0  0  0  0  0  0
  149.8873  140.9580  156.7137 O   0  0  0  0  0  0  0  0  0  0  0  0
  149.5097  140.2494  155.6379 C   0  0  0  0  0  0  0  0  0  0  0  0
  150.1943  140.1295  154.6221 O   0  0  0  0  0  0  0  0  0  0  0  0
  148.1951  139.6461  155.8181 N   0  0  0  0  0  0  0  0  0  0  0  0
  147.4609  138.8648  154.9830 C   0  0  0  0  0  0  0  0  0  0  0  0
  146.9299  137.7062  155.3407 N   0  0  0  0  0  0  0  0  0  0  0  0
  146.1767  136.9125  154.5203 C   0  0  0  0  0  0  0  0  0  0  0  0
  145.6929  135.8648  154.9420 O   0  0  0  0  0  0  0  0  0  0  0  0
  145.9791  137.3569  153.1902 N   0  0  0  0  0  0  0  0  0  0  0  0
  145.1158  136.5693  152.2252 C   0  0  2  0  0  0  0  0  0  0  0  0
  143.8104  136.5330  152.7124 O   0  0  0  0  0  0  0  0  0  0  0  0
  143.2039  135.3163  152.2971 C   0  0  2  0  0  0  0  0  0  0  0  0
  141.9579  135.0022  153.1383 C   0  0  0  0  0  0  0  0  0  0  0  0
  144.3407  134.2821  152.3404 C   0  0  2  0  0  0  0  0  0  0  0  0
  144.4540  133.6839  153.6194 O   0  0  0  0  0  0  0  0  0  0  0  0
  145.5661  135.1131  151.9556 C   0  0  2  0  0  0  0  0  0  0  0  0
  146.7720  134.7027  152.5788 O   0  0  0  0  0  0  0  0  0  0  0  0
  146.5126  138.5740  152.7955 C   0  0  0  0  0  0  0  0  0  0  0  0
  147.2466  139.3396  153.6321 C   0  0  0  0  0  0  0  0  0  0  0  0
  147.7568  140.5124  153.2174 F   0  0  0  0  0  0  0  0  0  0  0  0
  145.1081  137.1523  151.3033 H   0  0  0  0  0  0  0  0  0  0  0  0
  142.9009  135.4487  151.2569 H   0  0  0  0  0  0  0  0  0  0  0  0
  144.1700  133.4797  151.6220 H   0  0  0  0  0  0  0  0  0  0  0  0
  145.7166  135.0324  150.8784 H   0  0  0  0  0  0  0  0  0  0  0  0
  151.7717  145.2085  161.0701 H   0  0  0  0  0  0  0  0  0  0  0  0
  150.5685  144.4151  160.0580 H   0  0  0  0  0  0  0  0  0  0  0  0
  151.4682  145.8003  159.4386 H   0  0  0  0  0  0  0  0  0  0  0  0
  153.5961  144.4525  159.5540 H   0  0  0  0  0  0  0  0  0  0  0  0
  152.6941  143.0859  160.1650 H   0  0  0  0  0  0  0  0  0  0  0  0
  152.2295  144.3797  157.4417 H   0  0  0  0  0  0  0  0  0  0  0  0
  153.2027  142.9514  157.6865 H   0  0  0  0  0  0  0  0  0  0  0  0
  151.0296  141.9606  158.8326 H   0  0  0  0  0  0  0  0  0  0  0  0
  150.1933  143.2496  158.0039 H   0  0  0  0  0  0  0  0  0  0  0  0
  151.0351  142.4085  155.8028 H   0  0  0  0  0  0  0  0  0  0  0  0
  151.9402  141.1464  156.6335 H   0  0  0  0  0  0  0  0  0  0  0  0
  147.7892  139.8273  156.7248 H   0  0  0  0  0  0  0  0  0  0  0  0
  141.5170  134.0493  152.8452 H   0  0  0  0  0  0  0  0  0  0  0  0
  141.1996  135.7745  153.0081 H   0  0  0  0  0  0  0  0  0  0  0  0
  142.1935  134.9529  154.2018 H   0  0  0  0  0  0  0  0  0  0  0  0
  143.7713  133.0364  153.7073 H   0  0  0  0  0  0  0  0  0  0  0  0
  147.4984  135.0392  152.0772 H   0  0  0  0  0  0  0  0  0  0  0  0
  146.3493  138.9326  151.7893 H   0  0  0  0  0  0  0  0  0  0  0  0
  1  2  1  0  0  0  0
  1 30  1  0  0  0  0
  1 31  1  0  0  0  0
  1 32  1  0  0  0  0
  2  3  1  0  0  0  0
  2 33  1  0  0  0  0
  2 34  1  0  0  0  0
  3  4  1  0  0  0  0
  3 35  1  0  0  0  0
  3 36  1  0  0  0  0
  4  5  1  0  0  0  0
  4 37  1  0  0  0  0
  4 38  1  0  0  0  0
  5  6  1  0  0  0  0
  5 39  1  0  0  0  0
  5 40  1  0  0  0  0
  6  7  1  0  0  0  0
  7  8  2  0  0  0  0
  7  9  1  0  0  0  0
  9 10  1  0  0  0  0
  9 41  1  0  0  0  0
 10 24  1  0  0  0  0
 10 11  2  0  0  0  0
 11 12  1  0  0  0  0
 12 13  2  0  0  0  0
 12 14  1  0  0  0  0
 14 15  1  0  0  0  0
 14 23  1  0  0  0  0
 15 26  1  0  0  0  0
 15 21  1  0  0  0  0
 15 16  1  0  0  0  0
 16 17  1  0  0  0  0
 17 27  1  0  0  0  0
 17 18  1  0  0  0  0
 17 19  1  0  0  0  0
 18 42  1  0  0  0  0
 18 43  1  0  0  0  0
 18 44  1  0  0  0  0
 19 28  1  0  0  0  0
 19 20  1  0  0  0  0
 19 21  1  0  0  0  0
 20 45  1  0  0  0  0
 21 29  1  0  0  0  0
 21 22  1  0  0  0  0
 22 46  1  0  0  0  0
 23 24  2  0  0  0  0
 23 47  1  0  0  0  0
 24 25  1  0  0  0  0
M  END
> <s_m_source_file>
AV-unprocessed.smi

> <i_m_source_file_index>
40

> <i_lp_mmshare_version>
43012

> <i_f3d_flags>
0

> <s_epik_input>
W0NIM11bQ0gyXVtDSDJdW0NIMl1bQ0gyXU9DKD1PKVtOSF1jMW5jKD1PKW4oW2NIXWMxRilbQ0BASF0yT1tDQEhdKFtDSDNdKVtDQEBIXShbT0hdKVtDQEhdMltPSF0=

> <s_epik_cmdline>
J2VwaWtfcHl0aG9uJywgJy1waCcsICc3LjAnLCAnLXRuJywgJzgnLCAnLW1hJywgJzIwMCcsICctbWV0YWxfYmluZGluZycsICctaW1hZScsICc8aW5maWxlLm1hZT4nLCAnLW9tYWUnLCAnPG91dGZpbGUubWFlPic=

> <r_lp_tautomer_probability>
1

> <r_epik_Ionization_Penalty>
2.29506e-06

> <r_epik_Ionization_Penalty_Charging>
8.26867e-09

> <r_epik_Ionization_Penalty_Neutral>
2.2868e-06

> <r_epik_State_Penalty>
-0

> <r_epik_Charging_Adjusted_Penalty>
8.26867e-09

> <i_epik_Tot_Q>
0

> <i_epik_Tot_abs_Q>
0

> <r_epik_Metal_State_Penalty>
-0

> <b_epik_Metal_Only>
0

> <s_epik_Chemistry_Notes>
This compound has an ester and may undergo hydrolysis at high or low pH. This compound contains an acetal/aminal-like group ( X-CH(R)-Y where X, Y are N, S, or O) that may be acid/base labile, releasing an aldehyde.

> <s_lp_Force_Field>
OPLS_2005

> <r_lp_Energy>
38.6632

> <b_lp_Chiralities_Consistent>
1

> <s_lp_Variant>
AV-unprocessed.smi:40-13

> <Gold.Version>
5.8.1

> <Gold.Id.Protein>
6NUR|6NUR_protein|mol2

> <Gold.PLP.Fitness>
47.2725

> <Gold.PLP.PLP>
-39.6888

> <Gold.PLP.part.hbond>
-3.0000

> <Gold.PLP.part.metal>
0.0000

> <Gold.PLP.part.buried>
-5.6515

> <Gold.PLP.part.nonpolar>
-32.3097

> <Gold.PLP.part.repulsive>
0.3787

> <Gold.PLP.ligand.clash>
0.0000

> <Gold.PLP.ligand.torsion>
0.6878

> <Gold.PLP.Chemscore.Hbond>
2.9513

> <Gold.PLP.Chemscore.CHOScore>
0.0000

> <Gold.PLP.Chemscore.Metal>
0.0000

> <Gold.Chemscore.Hbonds>
donor molecule, donor type, donor heavy atom, donor atom, acceptor molecule, acceptor atom, score
      L1  H    20    45       P1 10957  1.00
      L1  H    22    46       P1  7948  1.00
      P1  H  7989  7998       L1     8  1.00

> <Gold.PLP.Chemscore.Internal.Correction>
0.1056

> <Gold.Rescore>
     Score         DG    S(hbond)    S(metal)    S(lipo)     H(rot)  DE(clash)    DE(int)     intcor
     12.44     -15.58       2.87        0.00      85.39       3.70       0.21       2.93       ----

> <Gold.Chemscore.Fitness>
12.4444

> <Gold.Chemscore.DG>
-15.5841

> <Gold.Chemscore.ZeroCoef>
-5.4800

> <Gold.Chemscore.Hbond>
2.8665

> <Gold.Chemscore.Metal>
0.0000

> <Gold.Chemscore.Lipo>
85.3914

> <Gold.Chemscore.Internal_Hbond>
0.0000

> <Gold.Chemscore.DEClash>
0.2066

> <Gold.Chemscore.DEInternal>
2.9331

> <Gold.Chemscore.Rot>
3.6957

> <Gold.Chemscore.Internal.Correction>
   9.000000E+99

> <Gold.Chemscore.Hbonds>
donor molecule, donor type, donor heavy atom, donor atom, acceptor molecule, acceptor atom, score
      L1  H    20    45       P1 10957  0.88
      L1  H    22    46       P1  7948  0.91
      P1  H  7989  7998       L1     8  0.97

> <Gold.Chemscore.Hbond.Weighted>
-9.5742

> <Gold.Chemscore.Metal.Weighted>
-0.0000

> <Gold.Chemscore.Lipo.Weighted>
-9.9908

> <Gold.Chemscore.Internal_Hbond.Weighted>
0.0000

> <Gold.Chemscore.DEClash.Weighted>
0.2066

> <Gold.Chemscore.DEInternal.Weighted>
2.9331

> <Gold.Chemscore.Rot.Weighted>
9.4610

> <Gold.Chemscore.Internal.Correction.Weighted>
   9.000000E+99

> <Gold.Protein.RotatedTorsions>
[ 6907 6896 6895 6894 ] final   44.41 input  -60.11 | X-H torsion
[ 7974 7965 7964 7962 ] final  179.70 input  175.53 | X-H torsion
[ 8008 7997 7996 7995 ] final  171.63 input   59.86 | X-H torsion
[ 10167 10162 10161 10158 ] final -149.09 input  -65.29 | X-H torsion
[ 10718 10713 10712 10709 ] final  -50.22 input   66.30 | X-H torsion
[ 10763 10752 10751 10750 ] final   36.76 input  -60.55 | X-H torsion
[ 11005 11000 10999 10996 ] final -142.30 input  -57.11 | X-H torsion

> <Gold.Protein.ActiveResidues>
 VAL166  LYS551  ARG553  GLY616  TRP617  ASP618  TYR619  PRO620  LYS621  CYS622 
 ASP623  PHE694  ASN695  SER759  ASP760  ASP761  ALA762  ILE779  LEU786  VAL792 
 PHE793  MET794  SER795  GLU796  ALA797  LYS798  CYS799  TRP800  GLU811  SER814 

> <Gold.Protein.RotatedAtoms>
  152.2322  134.8311  160.0471 H   0  0  0  0  0  0  0  0  0  0  0  0  # atno 6907 bound_to 6896
  151.9055  133.3543  159.3854 H   0  0  0  0  0  0  0  0  0  0  0  0  # atno 6908 bound_to 6896
  150.7029  134.4710  159.5469 H   0  0  0  0  0  0  0  0  0  0  0  0  # atno 6909 bound_to 6896
  144.7143  140.0587  143.6433 H   0  0  0  0  0  0  0  0  0  0  0  0  # atno 7974 bound_to 7965
  156.1253  140.1507  156.9145 H   0  0  0  0  0  0  0  0  0  0  0  0  # atno 8008 bound_to 7997
  154.4866  140.0863  156.7542 H   0  0  0  0  0  0  0  0  0  0  0  0  # atno 8009 bound_to 7997
  155.4355  140.3429  155.4286 H   0  0  0  0  0  0  0  0  0  0  0  0  # atno 8010 bound_to 7997
  139.7474  143.8570  152.2578 H   0  0  0  0  0  0  0  0  0  0  0  0  # atno 10167 bound_to 10162
  156.1820  130.4150  149.9493 H   0  0  0  0  0  0  0  0  0  0  0  0  # atno 10718 bound_to 10713
  153.0064  135.6297  154.2037 H   0  0  0  0  0  0  0  0  0  0  0  0  # atno 10763 bound_to 10752
  154.1780  135.2815  155.3062 H   0  0  0  0  0  0  0  0  0  0  0  0  # atno 10764 bound_to 10752
  154.5857  135.5633  153.7288 H   0  0  0  0  0  0  0  0  0  0  0  0  # atno 10765 bound_to 10752
  140.8239  134.2598  157.4888 H   0  0  0  0  0  0  0  0  0  0  0  0  # atno 11005 bound_to 11000
  145.9882  139.2994  143.1001 LP  0  0  0  0  0  0  0  0  0  0  0  0  # atno 17320 bound_to 7965
  145.8933  140.9290  143.0541 LP  0  0  0  0  0  0  0  0  0  0  0  0  # atno 17321 bound_to 7965
  139.8538  144.7151  150.9181 LP  0  0  0  0  0  0  0  0  0  0  0  0  # atno 17342 bound_to 10162
  140.7794  143.3876  151.1367 LP  0  0  0  0  0  0  0  0  0  0  0  0  # atno 17343 bound_to 10162
  156.7260  130.9025  151.3622 LP  0  0  0  0  0  0  0  0  0  0  0  0  # atno 17370 bound_to 10713
  157.6874  130.9200  150.0424 LP  0  0  0  0  0  0  0  0  0  0  0  0  # atno 17371 bound_to 10713
  139.8707  134.9550  156.4192 LP  0  0  0  0  0  0  0  0  0  0  0  0  # atno 17394 bound_to 11000
  140.9070  133.7738  155.9747 LP  0  0  0  0  0  0  0  0  0  0  0  0  # atno 17395 bound_to 11000

$$$$
