AV-unprocessed.smi:3244|AV-procd|sdf|12398|dock8
  -GOLD-   2272018273D 1   1.00000     0.00000
 Structure written by MMmdl.
 41 42  0  0  0  0  0  0  0  0  2 V2000
  152.0449  144.1979  159.7031 C   0  0  0  0  0  0  0  0  0  0  0  0
  151.3224  142.8435  159.6157 C   0  0  0  0  0  0  0  0  0  0  0  0
  152.0108  141.9079  158.7136 N   0  0  0  0  0  0  0  0  0  0  0  0
  151.4434  141.4036  157.5883 C   0  0  0  0  0  0  0  0  0  0  0  0
  151.9499  140.4755  156.9550 O   0  0  0  0  0  0  0  0  0  0  0  0
  150.1344  142.0211  157.0675 C   0  0  0  0  0  0  0  0  0  0  0  0
  150.0751  142.0438  155.5897 N   0  3  0  0  0  0  0  0  0  0  0  0
  149.4020  140.8852  154.9590 C   0  0  2  0  0  0  0  0  0  0  0  0
  150.4247  139.8201  154.5297 C   0  0  0  0  0  0  0  0  0  0  0  0
  148.5577  141.3513  153.7566 C   0  0  0  0  0  0  0  0  0  0  0  0
  147.3077  141.9679  154.1654 N   0  0  0  0  0  0  0  0  0  0  0  0
  146.6469  143.0312  153.5871 C   0  0  0  0  0  0  0  0  0  0  0  0
  145.5115  143.2474  154.3142 C   0  0  0  0  0  0  0  0  0  0  0  0
  145.5652  142.2533  155.3307 C   0  0  0  0  0  0  0  0  0  0  0  0
  146.6408  141.4879  155.2377 N   0  0  0  0  0  0  0  0  0  0  0  0
  153.2528  141.4178  159.2531 C   0  0  0  0  0  0  0  0  0  0  0  0
  153.2187  140.5054  160.4613 C   0  0  0  0  0  0  0  0  0  0  0  0
  153.7724  141.9003  160.5967 C   0  0  0  0  0  0  0  0  0  0  0  0
  151.5141  144.8736  160.3739 H   0  0  0  0  0  0  0  0  0  0  0  0
  152.0946  144.6789  158.7258 H   0  0  0  0  0  0  0  0  0  0  0  0
  153.0640  144.1002  160.0744 H   0  0  0  0  0  0  0  0  0  0  0  0
  151.2026  142.4172  160.6116 H   0  0  0  0  0  0  0  0  0  0  0  0
  150.3036  143.0143  159.2657 H   0  0  0  0  0  0  0  0  0  0  0  0
  149.2799  141.4641  157.4469 H   0  0  0  0  0  0  0  0  0  0  0  0
  150.0615  143.0438  157.4394 H   0  0  0  0  0  0  0  0  0  0  0  0
  149.5558  142.8710  155.3288 H   0  0  0  0  0  0  0  0  0  0  0  0
  148.7243  140.4398  155.6891 H   0  0  0  0  0  0  0  0  0  0  0  0
  149.9298  138.9752  154.0502 H   0  0  0  0  0  0  0  0  0  0  0  0
  150.9790  139.4246  155.3806 H   0  0  0  0  0  0  0  0  0  0  0  0
  151.1463  140.2263  153.8202 H   0  0  0  0  0  0  0  0  0  0  0  0
  149.1167  142.0562  153.1389 H   0  0  0  0  0  0  0  0  0  0  0  0
  148.3167  140.5017  153.1159 H   0  0  0  0  0  0  0  0  0  0  0  0
  147.0341  143.5395  152.7162 H   0  0  0  0  0  0  0  0  0  0  0  0
  144.7573  144.0022  154.1465 H   0  0  0  0  0  0  0  0  0  0  0  0
  144.8596  142.0658  156.1269 H   0  0  0  0  0  0  0  0  0  0  0  0
  154.0186  141.1938  158.5129 H   0  0  0  0  0  0  0  0  0  0  0  0
  152.2540  140.3062  160.9242 H   0  0  0  0  0  0  0  0  0  0  0  0
  153.9258  139.6787  160.4853 H   0  0  0  0  0  0  0  0  0  0  0  0
  154.8498  142.0037  160.7091 H   0  0  0  0  0  0  0  0  0  0  0  0
  153.1770  142.6052  161.1735 H   0  0  0  0  0  0  0  0  0  0  0  0
  151.0101  142.1318  155.2182 H   0  0  0  0  0  0  0  0  0  0  0  0
  1  2  1  0  0  0  0
  1 19  1  0  0  0  0
  1 20  1  0  0  0  0
  1 21  1  0  0  0  0
  2  3  1  0  0  0  0
  2 22  1  0  0  0  0
  2 23  1  0  0  0  0
  3  4  1  0  0  0  0
  3 16  1  0  0  0  0
  4  5  2  0  0  0  0
  4  6  1  0  0  0  0
  6  7  1  0  0  0  0
  6 24  1  0  0  0  0
  6 25  1  0  0  0  0
  7  8  1  0  0  0  0
  7 26  1  0  0  0  0
  7 41  1  0  0  0  0
  8  9  1  0  0  0  0
  8 10  1  0  0  0  0
  8 27  1  0  0  0  0
  9 28  1  0  0  0  0
  9 29  1  0  0  0  0
  9 30  1  0  0  0  0
 10 11  1  0  0  0  0
 10 31  1  0  0  0  0
 10 32  1  0  0  0  0
 11 15  1  0  0  0  0
 11 12  1  0  0  0  0
 12 13  2  0  0  0  0
 12 33  1  0  0  0  0
 13 14  1  0  0  0  0
 13 34  1  0  0  0  0
 14 15  2  0  0  0  0
 14 35  1  0  0  0  0
 16 18  1  0  0  0  0
 16 17  1  0  0  0  0
 16 36  1  0  0  0  0
 17 18  1  0  0  0  0
 17 37  1  0  0  0  0
 17 38  1  0  0  0  0
 18 39  1  0  0  0  0
 18 40  1  0  0  0  0
M  CHG  1   7   1
M  END
> <s_m_source_file>
AV-unprocessed.smi

> <i_m_source_file_index>
3244

> <i_lp_mmshare_version>
43012

> <i_f3d_flags>
0

> <s_epik_input>
W0NIMl0xW0NIMl1bQ0hdMU4oW0NIMl1bQ0gzXSlDKD1PKVtDSDJdW05IXVtDQEhdKFtDSDNdKVtDSDJdbjJbY0hdW2NIXVtjSF1uMg==

> <s_epik_cmdline>
J2VwaWtfcHl0aG9uJywgJy1waCcsICc3LjAnLCAnLXRuJywgJzgnLCAnLW1hJywgJzIwMCcsICctbWV0YWxfYmluZGluZycsICctaW1hZScsICc8aW5maWxlLm1hZT4nLCAnLW9tYWUnLCAnPG91dGZpbGUubWFlPic=

> <r_lp_tautomer_probability>
1

> <r_epik_Ionization_Penalty>
0.115625

> <r_epik_Ionization_Penalty_Charging>
0.115622

> <r_epik_Ionization_Penalty_Neutral>
3.43793e-06

> <r_epik_State_Penalty>
0.105255

> <r_epik_Charging_Adjusted_Penalty>
0.220877

> <i_epik_Tot_Q>
1

> <i_epik_Tot_abs_Q>
1

> <r_epik_Metal_State_Penalty>
0.105264

> <b_epik_Metal_Only>
0

> <s_lp_Force_Field>
OPLS_2005

> <r_lp_Energy>
33.3923

> <b_lp_Chiralities_Consistent>
1

> <s_lp_Variant>
AV-unprocessed.smi:3244-1

> <Gold.Version>
5.8.1

> <Gold.Id.Protein>
6NUR|6NUR_protein|mol2

> <Gold.PLP.Fitness>
43.2285

> <Gold.PLP.PLP>
-40.6213

> <Gold.PLP.part.hbond>
-1.0000

> <Gold.PLP.part.metal>
0.0000

> <Gold.PLP.part.buried>
-4.8404

> <Gold.PLP.part.nonpolar>
-34.2973

> <Gold.PLP.part.repulsive>
0.2593

> <Gold.PLP.ligand.clash>
0.0000

> <Gold.PLP.ligand.torsion>
1.8555

> <Gold.PLP.Chemscore.Hbond>
2.0000

> <Gold.PLP.Chemscore.CHOScore>
0.0000

> <Gold.PLP.Chemscore.Metal>
0.0000

> <Gold.Chemscore.Hbonds>
donor molecule, donor type, donor heavy atom, donor atom, acceptor molecule, acceptor atom, score
      L1  H     7    26       P1  8028  2.00

> <Gold.PLP.Chemscore.Internal.Correction>
0.3183

> <Gold.Rescore>
     Score         DG    S(hbond)    S(metal)    S(lipo)     H(rot)  DE(clash)    DE(int)     intcor
     12.92     -14.95       1.17        0.00      92.26       2.04       0.10       1.93       ----

> <Gold.Chemscore.Fitness>
12.9179

> <Gold.Chemscore.DG>
-14.9496

> <Gold.Chemscore.ZeroCoef>
-5.4800

> <Gold.Chemscore.Hbond>
1.1700

> <Gold.Chemscore.Metal>
0.0000

> <Gold.Chemscore.Lipo>
92.2585

> <Gold.Chemscore.Internal_Hbond>
0.0000

> <Gold.Chemscore.DEClash>
0.1010

> <Gold.Chemscore.DEInternal>
1.9306

> <Gold.Chemscore.Rot>
2.0440

> <Gold.Chemscore.Internal.Correction>
   9.000000E+99

> <Gold.Chemscore.Hbonds>
donor molecule, donor type, donor heavy atom, donor atom, acceptor molecule, acceptor atom, score
      L1  H     7    26       P1  8028  0.94
      P1  H  7997  8008       L1     5  0.01

> <Gold.Chemscore.Hbond.Weighted>
-3.9079

> <Gold.Chemscore.Metal.Weighted>
-0.0000

> <Gold.Chemscore.Lipo.Weighted>
-10.7942

> <Gold.Chemscore.Internal_Hbond.Weighted>
0.0000

> <Gold.Chemscore.DEClash.Weighted>
0.1010

> <Gold.Chemscore.DEInternal.Weighted>
1.9306

> <Gold.Chemscore.Rot.Weighted>
5.2325

> <Gold.Chemscore.Internal.Correction.Weighted>
   9.000000E+99

> <Gold.Protein.RotatedTorsions>
[ 6907 6896 6895 6894 ] final   51.23 input  -60.11 | X-H torsion
[ 7974 7965 7964 7962 ] final   61.70 input  175.53 | X-H torsion
[ 8008 7997 7996 7995 ] final  -35.08 input   59.86 | X-H torsion
[ 10167 10162 10161 10158 ] final   80.53 input  -65.29 | X-H torsion
[ 10718 10713 10712 10709 ] final  -15.17 input   66.30 | X-H torsion
[ 10763 10752 10751 10750 ] final    7.19 input  -60.55 | X-H torsion
[ 11005 11000 10999 10996 ] final    3.46 input  -57.11 | X-H torsion

> <Gold.Protein.ActiveResidues>
 VAL166  LYS551  ARG553  GLY616  TRP617  ASP618  TYR619  PRO620  LYS621  CYS622 
 ASP623  PHE694  ASN695  SER759  ASP760  ASP761  ALA762  ILE779  LEU786  VAL792 
 PHE793  MET794  SER795  GLU796  ALA797  LYS798  CYS799  TRP800  GLU811  SER814 

> <Gold.Protein.RotatedAtoms>
  152.3104  134.7504  160.0337 H   0  0  0  0  0  0  0  0  0  0  0  0  # atno 6907 bound_to 6896
  151.7987  133.3362  159.3528 H   0  0  0  0  0  0  0  0  0  0  0  0  # atno 6908 bound_to 6896
  150.7317  134.5704  159.5932 H   0  0  0  0  0  0  0  0  0  0  0  0  # atno 6909 bound_to 6896
  145.8817  139.3448  143.0702 H   0  0  0  0  0  0  0  0  0  0  0  0  # atno 7974 bound_to 7965
  154.4104  140.1667  156.2153 H   0  0  0  0  0  0  0  0  0  0  0  0  # atno 8008 bound_to 7997
  155.9409  140.3408  155.6304 H   0  0  0  0  0  0  0  0  0  0  0  0  # atno 8009 bound_to 7997
  155.6990  140.0743  157.2408 H   0  0  0  0  0  0  0  0  0  0  0  0  # atno 8010 bound_to 7997
  139.9488  144.6040  150.8181 H   0  0  0  0  0  0  0  0  0  0  0  0  # atno 10167 bound_to 10162
  156.6055  130.4835  149.6222 H   0  0  0  0  0  0  0  0  0  0  0  0  # atno 10718 bound_to 10713
  153.2391  135.6901  153.7803 H   0  0  0  0  0  0  0  0  0  0  0  0  # atno 10763 bound_to 10752
  153.6939  135.3308  155.3209 H   0  0  0  0  0  0  0  0  0  0  0  0  # atno 10764 bound_to 10752
  154.8348  135.4551  154.1307 H   0  0  0  0  0  0  0  0  0  0  0  0  # atno 10765 bound_to 10752
  140.5928  133.9908  155.8096 H   0  0  0  0  0  0  0  0  0  0  0  0  # atno 11005 bound_to 11000
  145.9015  140.9240  143.0500 LP  0  0  0  0  0  0  0  0  0  0  0  0  # atno 17320 bound_to 7965
  144.6727  140.1039  143.7459 LP  0  0  0  0  0  0  0  0  0  0  0  0  # atno 17321 bound_to 7965
  140.7589  143.3117  151.2828 LP  0  0  0  0  0  0  0  0  0  0  0  0  # atno 17342 bound_to 10162
  139.6645  144.0129  152.2714 LP  0  0  0  0  0  0  0  0  0  0  0  0  # atno 17343 bound_to 10162
  156.2433  130.6864  151.1576 LP  0  0  0  0  0  0  0  0  0  0  0  0  # atno 17370 bound_to 10713
  157.7268  131.0643  150.5893 LP  0  0  0  0  0  0  0  0  0  0  0  0  # atno 17371 bound_to 10713
  141.0924  133.9897  157.3216 LP  0  0  0  0  0  0  0  0  0  0  0  0  # atno 17394 bound_to 11000
  139.9266  135.0201  156.8257 LP  0  0  0  0  0  0  0  0  0  0  0  0  # atno 17395 bound_to 11000

$$$$
