AV-unprocessed.smi:3009|AV-procd|sdf|11451|dock9
  -GOLD-   2272016383D 1   1.00000     0.00000
 Structure written by MMmdl.
 44 45  0  0  0  0  0  0  0  0  2 V2000
  145.6194  128.3498  152.0593 C   0  0  0  0  0  0  0  0  0  0  0  0
  146.4982  129.6095  152.1353 C   0  0  0  0  0  0  0  0  0  0  0  0
  146.9423  129.8652  153.5833 C   0  0  0  0  0  0  0  0  0  0  0  0
  145.7780  130.8499  151.5636 C   0  0  0  0  0  0  0  0  0  0  0  0
  146.6845  132.0138  151.3643 N   0  3  1  0  0  0  0  0  0  0  0  0
  146.1748  132.9993  150.3802 C   0  0  0  0  0  0  0  0  0  0  0  0
  145.0816  133.8878  151.0000 C   0  0  0  0  0  0  0  0  0  0  0  0
  145.5984  134.5340  152.1567 O   0  0  0  0  0  0  0  0  0  0  0  0
  145.9885  133.6110  153.1692 C   0  0  2  0  0  0  0  0  0  0  0  0
  146.4603  134.4104  154.3969 C   0  0  0  0  0  0  0  0  0  0  0  0
  147.4890  135.3838  154.0458 N   0  0  0  0  0  0  0  0  0  0  0  0
  147.9979  136.2953  154.8865 C   0  0  0  0  0  0  0  0  0  0  0  0
  147.6514  136.4000  156.0636 O   0  0  0  0  0  0  0  0  0  0  0  0
  148.9100  137.0696  154.2769 N   0  0  0  0  0  0  0  0  0  0  0  0
  149.6470  138.1392  154.8452 C   0  0  0  0  0  0  0  0  0  0  0  0
  150.5002  139.0115  154.1163 C   0  0  0  0  0  0  0  0  0  0  0  0
  151.0591  139.9149  154.9087 N   0  0  0  0  0  0  0  0  0  0  0  0
  150.5742  139.6251  156.1371 N   0  0  0  0  0  0  0  0  0  0  0  0
  149.7120  138.5509  156.1469 C   0  0  0  0  0  0  0  0  0  0  0  0
  147.1061  132.7022  152.6120 C   0  0  0  0  0  0  0  0  0  0  0  0
  150.8398  140.1621  156.9504 H   0  0  0  0  0  0  0  0  0  0  0  0
  144.6960  128.4755  152.6256 H   0  0  0  0  0  0  0  0  0  0  0  0
  146.1420  127.4833  152.4656 H   0  0  0  0  0  0  0  0  0  0  0  0
  145.3497  128.1108  151.0302 H   0  0  0  0  0  0  0  0  0  0  0  0
  147.4040  129.4210  151.5601 H   0  0  0  0  0  0  0  0  0  0  0  0
  146.0880  130.0562  154.2335 H   0  0  0  0  0  0  0  0  0  0  0  0
  147.6067  130.7276  153.6453 H   0  0  0  0  0  0  0  0  0  0  0  0
  147.4813  129.0075  153.9867 H   0  0  0  0  0  0  0  0  0  0  0  0
  145.3363  130.5704  150.6057 H   0  0  0  0  0  0  0  0  0  0  0  0
  144.9422  131.1312  152.2038 H   0  0  0  0  0  0  0  0  0  0  0  0
  147.0080  133.6257  150.0588 H   0  0  0  0  0  0  0  0  0  0  0  0
  145.8077  132.4976  149.4842 H   0  0  0  0  0  0  0  0  0  0  0  0
  144.7677  134.6478  150.2843 H   0  0  0  0  0  0  0  0  0  0  0  0
  144.1939  133.3070  151.2548 H   0  0  0  0  0  0  0  0  0  0  0  0
  145.1287  133.0037  153.4542 H   0  0  0  0  0  0  0  0  0  0  0  0
  145.6172  134.9251  154.8612 H   0  0  0  0  0  0  0  0  0  0  0  0
  146.8643  133.7361  155.1525 H   0  0  0  0  0  0  0  0  0  0  0  0
  147.8296  135.3661  153.0955 H   0  0  0  0  0  0  0  0  0  0  0  0
  149.0892  136.8824  153.3012 H   0  0  0  0  0  0  0  0  0  0  0  0
  150.7269  139.0199  153.0603 H   0  0  0  0  0  0  0  0  0  0  0  0
  149.2442  138.1935  157.0521 H   0  0  0  0  0  0  0  0  0  0  0  0
  147.4292  131.9858  153.3660 H   0  0  0  0  0  0  0  0  0  0  0  0
  147.9819  133.3096  152.3799 H   0  0  0  0  0  0  0  0  0  0  0  0
  147.5209  131.6237  150.9533 H   0  0  0  0  0  0  0  0  0  0  0  0
  1  2  1  0  0  0  0
  1 22  1  0  0  0  0
  1 23  1  0  0  0  0
  1 24  1  0  0  0  0
  2  3  1  0  0  0  0
  2  4  1  0  0  0  0
  2 25  1  0  0  0  0
  3 26  1  0  0  0  0
  3 27  1  0  0  0  0
  3 28  1  0  0  0  0
  4  5  1  0  0  0  0
  4 29  1  0  0  0  0
  4 30  1  0  0  0  0
  5 20  1  0  0  0  0
  5  6  1  0  0  0  0
  5 44  1  0  0  0  0
  6  7  1  0  0  0  0
  6 31  1  0  0  0  0
  6 32  1  0  0  0  0
  7  8  1  0  0  0  0
  7 33  1  0  0  0  0
  7 34  1  0  0  0  0
  8  9  1  0  0  0  0
  9 10  1  0  0  0  0
  9 20  1  0  0  0  0
  9 35  1  0  0  0  0
 10 11  1  0  0  0  0
 10 36  1  0  0  0  0
 10 37  1  0  0  0  0
 11 12  1  0  0  0  0
 11 38  1  0  0  0  0
 12 13  2  0  0  0  0
 12 14  1  0  0  0  0
 14 15  1  0  0  0  0
 14 39  1  0  0  0  0
 15 19  2  0  0  0  0
 15 16  1  0  0  0  0
 16 17  2  0  0  0  0
 16 40  1  0  0  0  0
 17 18  1  0  0  0  0
 18 21  1  0  0  0  0
 18 19  1  0  0  0  0
 19 41  1  0  0  0  0
 20 42  1  0  0  0  0
 20 43  1  0  0  0  0
M  CHG  1   5   1
M  END
> <s_m_source_file>
AV-unprocessed.smi

> <i_m_source_file_index>
3009

> <i_lp_mmshare_version>
43012

> <i_f3d_flags>
0

> <s_epik_input>
W0NIM11bQ0hdKFtDSDNdKVtDSDJdTjFbQ0gyXVtDSDJdT1tDQEhdKFtDSDJdMSlbQ0gyXVtOSF1DKD1PKVtOSF1jMltjSF1uW25IXVtjSF0y

> <s_epik_cmdline>
J2VwaWtfcHl0aG9uJywgJy1waCcsICc3LjAnLCAnLXRuJywgJzgnLCAnLW1hJywgJzIwMCcsICctbWV0YWxfYmluZGluZycsICctaW1hZScsICc8aW5maWxlLm1hZT4nLCAnLW9tYWUnLCAnPG91dGZpbGUubWFlPic=

> <r_lp_tautomer_probability>
0.5

> <r_epik_Ionization_Penalty>
0.0974064

> <r_epik_Ionization_Penalty_Charging>
0.0973651

> <r_epik_Ionization_Penalty_Neutral>
4.13573e-05

> <r_epik_State_Penalty>
0.0874853

> <r_epik_Charging_Adjusted_Penalty>
0.18485

> <i_epik_Tot_Q>
1

> <i_epik_Tot_abs_Q>
1

> <r_epik_Metal_State_Penalty>
0.0874855

> <b_epik_Metal_Only>
0

> <s_lp_Force_Field>
OPLS_2005

> <r_lp_Energy>
21.5437

> <b_lp_Chiralities_Consistent>
1

> <s_lp_Variant>
AV-unprocessed.smi:3009-3

> <Gold.Version>
5.8.1

> <Gold.Id.Protein>
6NUR|6NUR_protein|mol2

> <Gold.PLP.Fitness>
40.4225

> <Gold.PLP.PLP>
-27.3531

> <Gold.PLP.part.hbond>
-4.0000

> <Gold.PLP.part.metal>
0.0000

> <Gold.PLP.part.buried>
-4.3594

> <Gold.PLP.part.nonpolar>
-18.7862

> <Gold.PLP.part.repulsive>
0.2524

> <Gold.PLP.ligand.clash>
0.0000

> <Gold.PLP.ligand.torsion>
0.2576

> <Gold.PLP.Chemscore.Hbond>
3.5120

> <Gold.PLP.Chemscore.CHOScore>
1.0000

> <Gold.PLP.Chemscore.Metal>
0.0000

> <Gold.Chemscore.Hbonds>
donor molecule, donor type, donor heavy atom, donor atom, acceptor molecule, acceptor atom, score
      L1  H     5    44       P1 10747  1.00
      L1  H    11    38       P1  7948  0.91
      L1  H    14    39       P1  7948  1.00
      P1  H  7989  7998       L1    17  0.60
      L1  C    16    40       P1  7957  1.00

> <Gold.PLP.Chemscore.Internal.Correction>
0.0485

> <Gold.Rescore>
     Score         DG    S(hbond)    S(metal)    S(lipo)     H(rot)  DE(clash)    DE(int)     intcor
     17.81     -19.30       2.91        0.00      74.41       1.80       0.03       1.46       ----

> <Gold.Chemscore.Fitness>
17.8095

> <Gold.Chemscore.DG>
-19.3019

> <Gold.Chemscore.ZeroCoef>
-5.4800

> <Gold.Chemscore.Hbond>
2.9085

> <Gold.Chemscore.Metal>
0.0000

> <Gold.Chemscore.Lipo>
74.4087

> <Gold.Chemscore.Internal_Hbond>
0.0000

> <Gold.Chemscore.DEClash>
0.0323

> <Gold.Chemscore.DEInternal>
1.4602

> <Gold.Chemscore.Rot>
1.7963

> <Gold.Chemscore.Internal.Correction>
   9.000000E+99

> <Gold.Chemscore.Hbonds>
donor molecule, donor type, donor heavy atom, donor atom, acceptor molecule, acceptor atom, score
      L1  H     5    44       P1 10747  1.00
      L1  H    11    38       P1  7948  0.88
      L1  H    14    39       P1  7948  0.96
      P1  H  7989  7998       L1    17  0.04

> <Gold.Chemscore.Hbond.Weighted>
-9.7146

> <Gold.Chemscore.Metal.Weighted>
-0.0000

> <Gold.Chemscore.Lipo.Weighted>
-8.7058

> <Gold.Chemscore.Internal_Hbond.Weighted>
0.0000

> <Gold.Chemscore.DEClash.Weighted>
0.0323

> <Gold.Chemscore.DEInternal.Weighted>
1.4602

> <Gold.Chemscore.Rot.Weighted>
4.5985

> <Gold.Chemscore.Internal.Correction.Weighted>
   9.000000E+99

> <Gold.Protein.RotatedTorsions>
[ 6907 6896 6895 6894 ] final -118.48 input  -60.11 | X-H torsion
[ 7974 7965 7964 7962 ] final  -22.08 input  175.53 | X-H torsion
[ 8008 7997 7996 7995 ] final  178.46 input   59.86 | X-H torsion
[ 10167 10162 10161 10158 ] final -132.45 input  -65.29 | X-H torsion
[ 10718 10713 10712 10709 ] final  133.26 input   66.30 | X-H torsion
[ 10763 10752 10751 10750 ] final  177.74 input  -60.55 | X-H torsion
[ 11005 11000 10999 10996 ] final  137.33 input  -57.11 | X-H torsion

> <Gold.Protein.ActiveResidues>
 VAL166  LYS551  ARG553  GLY616  TRP617  ASP618  TYR619  PRO620  LYS621  CYS622 
 ASP623  PHE694  ASN695  SER759  ASP760  ASP761  ALA762  ILE779  LEU786  VAL792 
 PHE793  MET794  SER795  GLU796  ALA797  LYS798  CYS799  TRP800  GLU811  SER814 

> <Gold.Protein.RotatedAtoms>
  150.8224  133.8230  159.3133 H   0  0  0  0  0  0  0  0  0  0  0  0  # atno 6907 bound_to 6896
  151.5985  135.1047  160.0064 H   0  0  0  0  0  0  0  0  0  0  0  0  # atno 6908 bound_to 6896
  152.4312  133.7239  159.6606 H   0  0  0  0  0  0  0  0  0  0  0  0  # atno 6909 bound_to 6896
  146.1696  140.4429  142.8538 H   0  0  0  0  0  0  0  0  0  0  0  0  # atno 7974 bound_to 7965
  156.0543  140.1333  157.0014 H   0  0  0  0  0  0  0  0  0  0  0  0  # atno 8008 bound_to 7997
  154.4450  140.1004  156.6494 H   0  0  0  0  0  0  0  0  0  0  0  0  # atno 8009 bound_to 7997
  155.5475  140.3462  155.4463 H   0  0  0  0  0  0  0  0  0  0  0  0  # atno 8010 bound_to 7997
  139.9084  143.6523  152.2580 H   0  0  0  0  0  0  0  0  0  0  0  0  # atno 10167 bound_to 10162
  157.4790  131.1084  150.9706 H   0  0  0  0  0  0  0  0  0  0  0  0  # atno 10718 bound_to 10713
  154.4985  135.2782  155.1440 H   0  0  0  0  0  0  0  0  0  0  0  0  # atno 10763 bound_to 10752
  154.3083  135.6234  153.5458 H   0  0  0  0  0  0  0  0  0  0  0  0  # atno 10764 bound_to 10752
  152.9898  135.5713  154.5422 H   0  0  0  0  0  0  0  0  0  0  0  0  # atno 10765 bound_to 10752
  140.0107  134.9440  157.0271 H   0  0  0  0  0  0  0  0  0  0  0  0  # atno 11005 bound_to 11000
  144.8144  140.6441  143.6394 LP  0  0  0  0  0  0  0  0  0  0  0  0  # atno 17320 bound_to 7965
  145.4375  139.1540  143.3989 LP  0  0  0  0  0  0  0  0  0  0  0  0  # atno 17321 bound_to 7965
  139.6964  144.7641  151.1349 LP  0  0  0  0  0  0  0  0  0  0  0  0  # atno 17342 bound_to 10162
  140.7691  143.5518  150.9196 LP  0  0  0  0  0  0  0  0  0  0  0  0  # atno 17343 bound_to 10162
  157.0445  130.5762  149.5361 LP  0  0  0  0  0  0  0  0  0  0  0  0  # atno 17370 bound_to 10713
  156.0112  130.5203  150.7993 LP  0  0  0  0  0  0  0  0  0  0  0  0  # atno 17371 bound_to 10713
  140.4560  134.1533  155.7186 LP  0  0  0  0  0  0  0  0  0  0  0  0  # atno 17394 bound_to 11000
  141.1709  133.8611  157.1574 LP  0  0  0  0  0  0  0  0  0  0  0  0  # atno 17395 bound_to 11000

$$$$
