AV-unprocessed.smi:2649|AV-procd|sdf|10290|dock1
  -GOLD-   2272014303D 1   1.00000     0.00000
 Structure written by MMmdl.
 34 35  0  0  0  0  0  0  0  0  1 V2000
  153.7704  138.5179  160.7219 C   0  0  0  0  0  0  0  0  0  0  0  0
  155.2259  139.5840  160.9083 S   0  0  0  0  0  0  0  0  0  0  0  0
  154.6257  140.7814  162.1384 C   0  0  0  0  0  0  0  0  0  0  0  0
  153.6239  141.7430  161.5191 C   0  0  0  0  0  0  0  0  0  0  0  0
  153.2000  141.4178  160.2775 N   0  0  0  0  0  0  0  0  0  0  0  0
  152.3129  142.2200  159.6401 C   0  0  0  0  0  0  0  0  0  0  0  0
  151.8175  141.9624  158.3350 N   0  0  0  0  0  0  0  0  0  0  0  0
  152.0126  140.8737  157.5656 C   0  0  0  0  0  0  0  0  0  0  0  0
  152.7154  139.9150  157.8887 O   0  0  0  0  0  0  0  0  0  0  0  0
  151.3217  140.8848  156.1930 C   0  0  1  0  0  0  0  0  0  0  0  0
  151.4836  139.5468  155.4344 C   0  0  0  0  0  0  0  0  0  0  0  0
  150.7882  139.6179  154.1965 O   0  0  0  0  0  0  0  0  0  0  0  0
  149.4036  139.8674  154.3929 C   0  0  0  0  0  0  0  0  0  0  0  0
  149.2394  141.2053  155.1313 C   0  0  0  0  0  0  0  0  0  0  0  0
  149.9288  141.1357  156.3721 O   0  0  0  0  0  0  0  0  0  0  0  0
  151.8119  143.3889  160.2534 C   0  0  0  0  0  0  0  0  0  0  0  0
  152.2448  143.7299  161.5488 C   0  0  0  0  0  0  0  0  0  0  0  0
  153.1698  142.8946  162.2015 C   0  0  0  0  0  0  0  0  0  0  0  0
  153.7130  143.2934  163.7930 Cl  0  0  0  0  0  0  0  0  0  0  0  0
  154.0062  137.6747  160.0727 H   0  0  0  0  0  0  0  0  0  0  0  0
  152.9415  139.0685  160.2773 H   0  0  0  0  0  0  0  0  0  0  0  0
  153.4538  138.1311  161.6907 H   0  0  0  0  0  0  0  0  0  0  0  0
  154.1747  140.2416  162.9724 H   0  0  0  0  0  0  0  0  0  0  0  0
  155.4713  141.3363  162.5453 H   0  0  0  0  0  0  0  0  0  0  0  0
  151.2354  142.6856  157.9380 H   0  0  0  0  0  0  0  0  0  0  0  0
  151.7616  141.6954  155.6093 H   0  0  0  0  0  0  0  0  0  0  0  0
  152.5345  139.3459  155.2238 H   0  0  0  0  0  0  0  0  0  0  0  0
  151.1084  138.7094  156.0255 H   0  0  0  0  0  0  0  0  0  0  0  0
  148.9071  139.9056  153.4231 H   0  0  0  0  0  0  0  0  0  0  0  0
  148.9480  139.0518  154.9567 H   0  0  0  0  0  0  0  0  0  0  0  0
  149.6236  142.0316  154.5315 H   0  0  0  0  0  0  0  0  0  0  0  0
  148.1851  141.4073  155.3204 H   0  0  0  0  0  0  0  0  0  0  0  0
  151.1028  144.0220  159.7400 H   0  0  0  0  0  0  0  0  0  0  0  0
  151.8716  144.6202  162.0328 H   0  0  0  0  0  0  0  0  0  0  0  0
  1  2  1  0  0  0  0
  1 20  1  0  0  0  0
  1 21  1  0  0  0  0
  1 22  1  0  0  0  0
  2  3  1  0  0  0  0
  3  4  1  0  0  0  0
  3 23  1  0  0  0  0
  3 24  1  0  0  0  0
  4 18  1  0  0  0  0
  4  5  2  0  0  0  0
  5  6  1  0  0  0  0
  6  7  1  0  0  0  0
  6 16  2  0  0  0  0
  7  8  1  0  0  0  0
  7 25  1  0  0  0  0
  8  9  2  0  0  0  0
  8 10  1  0  0  0  0
 10 15  1  0  0  0  0
 10 11  1  0  0  0  0
 10 26  1  0  0  0  0
 11 12  1  0  0  0  0
 11 27  1  0  0  0  0
 11 28  1  0  0  0  0
 12 13  1  0  0  0  0
 13 14  1  0  0  0  0
 13 29  1  0  0  0  0
 13 30  1  0  0  0  0
 14 15  1  0  0  0  0
 14 31  1  0  0  0  0
 14 32  1  0  0  0  0
 16 17  1  0  0  0  0
 16 33  1  0  0  0  0
 17 18  2  0  0  0  0
 17 34  1  0  0  0  0
 18 19  1  0  0  0  0
M  END
> <s_m_source_file>
AV-unprocessed.smi

> <i_m_source_file_index>
2649

> <i_lp_mmshare_version>
43012

> <i_f3d_flags>
0

> <s_epik_input>
W0NIM11TW0NIMl1jMW5jKFtjSF1bY0hdYzFDbClbTkhdQyg9TylbQ0BASF0yW0NIMl1PW0NIMl1bQ0gyXU8y

> <s_epik_cmdline>
J2VwaWtfcHl0aG9uJywgJy1waCcsICc3LjAnLCAnLXRuJywgJzgnLCAnLW1hJywgJzIwMCcsICctbWV0YWxfYmluZGluZycsICctaW1hZScsICc8aW5maWxlLm1hZT4nLCAnLW9tYWUnLCAnPG91dGZpbGUubWFlPic=

> <r_lp_tautomer_probability>
1

> <r_epik_Ionization_Penalty>
9.71596e-06

> <r_epik_Ionization_Penalty_Charging>
0

> <r_epik_Ionization_Penalty_Neutral>
9.71596e-06

> <r_epik_State_Penalty>
-0

> <r_epik_Charging_Adjusted_Penalty>
0

> <i_epik_Tot_Q>
0

> <i_epik_Tot_abs_Q>
0

> <r_epik_Metal_State_Penalty>
-0

> <b_epik_Metal_Only>
0

> <s_lp_Force_Field>
OPLS_2005

> <r_lp_Energy>
11.632

> <b_lp_Chiralities_Consistent>
1

> <s_lp_Variant>
AV-unprocessed.smi:2649-2

> <Gold.Version>
5.8.1

> <Gold.Id.Protein>
6NUR|6NUR_protein|mol2

> <Gold.PLP.Fitness>
48.1651

> <Gold.PLP.PLP>
-42.6188

> <Gold.PLP.part.hbond>
-2.0000

> <Gold.PLP.part.metal>
0.0000

> <Gold.PLP.part.buried>
-3.8953

> <Gold.PLP.part.nonpolar>
-35.2891

> <Gold.PLP.part.repulsive>
0.2967

> <Gold.PLP.ligand.clash>
0.0000

> <Gold.PLP.ligand.torsion>
0.2332

> <Gold.PLP.Chemscore.Hbond>
1.9913

> <Gold.PLP.Chemscore.CHOScore>
0.0000

> <Gold.PLP.Chemscore.Metal>
0.0000

> <Gold.Chemscore.Hbonds>
donor molecule, donor type, donor heavy atom, donor atom, acceptor molecule, acceptor atom, score
      P1  H  7989  7998       L1    12  1.00
      P1  H  7997  8009       L1     9  0.99

> <Gold.PLP.Chemscore.Internal.Correction>
0.0390

> <Gold.Rescore>
     Score         DG    S(hbond)    S(metal)    S(lipo)     H(rot)  DE(clash)    DE(int)     intcor
     16.85     -18.46       1.15        0.00     107.51       1.34       0.11       1.50       ----

> <Gold.Chemscore.Fitness>
16.8488

> <Gold.Chemscore.DG>
-18.4616

> <Gold.Chemscore.ZeroCoef>
-5.4800

> <Gold.Chemscore.Hbond>
1.1486

> <Gold.Chemscore.Metal>
0.0000

> <Gold.Chemscore.Lipo>
107.5072

> <Gold.Chemscore.Internal_Hbond>
0.0000

> <Gold.Chemscore.DEClash>
0.1081

> <Gold.Chemscore.DEInternal>
1.5047

> <Gold.Chemscore.Rot>
1.3410

> <Gold.Chemscore.Internal.Correction>
   9.000000E+99

> <Gold.Chemscore.Hbonds>
donor molecule, donor type, donor heavy atom, donor atom, acceptor molecule, acceptor atom, score
      P1  H  7989  7998       L1    12  0.23
      P1  H  7997  8009       L1     9  0.55

> <Gold.Chemscore.Hbond.Weighted>
-3.8363

> <Gold.Chemscore.Metal.Weighted>
-0.0000

> <Gold.Chemscore.Lipo.Weighted>
-12.5783

> <Gold.Chemscore.Internal_Hbond.Weighted>
0.0000

> <Gold.Chemscore.DEClash.Weighted>
0.1081

> <Gold.Chemscore.DEInternal.Weighted>
1.5047

> <Gold.Chemscore.Rot.Weighted>
3.4331

> <Gold.Chemscore.Internal.Correction.Weighted>
   9.000000E+99

> <Gold.Protein.RotatedTorsions>
[ 6907 6896 6895 6894 ] final  -27.17 input  -60.11 | X-H torsion
[ 7974 7965 7964 7962 ] final    0.42 input  175.53 | X-H torsion
[ 8008 7997 7996 7995 ] final  167.94 input   59.86 | X-H torsion
[ 10167 10162 10161 10158 ] final   83.25 input  -65.29 | X-H torsion
[ 10718 10713 10712 10709 ] final -142.21 input   66.30 | X-H torsion
[ 10763 10752 10751 10750 ] final  114.81 input  -60.55 | X-H torsion
[ 11005 11000 10999 10996 ] final  -75.71 input  -57.11 | X-H torsion

> <Gold.Protein.ActiveResidues>
 VAL166  LYS551  ARG553  GLY616  TRP617  ASP618  TYR619  PRO620  LYS621  CYS622 
 ASP623  PHE694  ASN695  SER759  ASP760  ASP761  ALA762  ILE779  LEU786  VAL792 
 PHE793  MET794  SER795  GLU796  ALA797  LYS798  CYS799  TRP800  GLU811  SER814 

> <Gold.Protein.RotatedAtoms>
  151.1507  135.0226  159.8666 H   0  0  0  0  0  0  0  0  0  0  0  0  # atno 6907 bound_to 6896
  152.5452  134.1392  159.8482 H   0  0  0  0  0  0  0  0  0  0  0  0  # atno 6908 bound_to 6896
  151.1477  133.4883  159.2628 H   0  0  0  0  0  0  0  0  0  0  0  0  # atno 6909 bound_to 6896
  146.2434  140.1141  142.8343 H   0  0  0  0  0  0  0  0  0  0  0  0  # atno 7974 bound_to 7965
  156.1590  140.1603  156.8644 H   0  0  0  0  0  0  0  0  0  0  0  0  # atno 8008 bound_to 7997
  154.5142  140.0793  156.8085 H   0  0  0  0  0  0  0  0  0  0  0  0  # atno 8009 bound_to 7997
  155.3746  140.3402  155.4246 H   0  0  0  0  0  0  0  0  0  0  0  0  # atno 8010 bound_to 7997
  139.9203  144.6217  150.8447 H   0  0  0  0  0  0  0  0  0  0  0  0  # atno 10167 bound_to 10162
  156.3432  130.7648  151.1788 H   0  0  0  0  0  0  0  0  0  0  0  0  # atno 10718 bound_to 10713
  153.5129  135.3614  155.2595 H   0  0  0  0  0  0  0  0  0  0  0  0  # atno 10763 bound_to 10752
  154.8741  135.4027  154.3348 H   0  0  0  0  0  0  0  0  0  0  0  0  # atno 10764 bound_to 10752
  153.4004  135.7075  153.6496 H   0  0  0  0  0  0  0  0  0  0  0  0  # atno 10765 bound_to 10752
  141.1648  133.6956  156.7558 H   0  0  0  0  0  0  0  0  0  0  0  0  # atno 11005 bound_to 11000
  145.0462  140.8983  143.5023 LP  0  0  0  0  0  0  0  0  0  0  0  0  # atno 17320 bound_to 7965
  145.1230  139.2681  143.5578 LP  0  0  0  0  0  0  0  0  0  0  0  0  # atno 17321 bound_to 7965
  140.7664  143.3302  151.2428 LP  0  0  0  0  0  0  0  0  0  0  0  0  # atno 17342 bound_to 10162
  139.6867  143.9761  152.2838 LP  0  0  0  0  0  0  0  0  0  0  0  0  # atno 17343 bound_to 10162
  157.7450  131.0448  150.4814 LP  0  0  0  0  0  0  0  0  0  0  0  0  # atno 17370 bound_to 10713
  156.4997  130.4114  149.6360 LP  0  0  0  0  0  0  0  0  0  0  0  0  # atno 17371 bound_to 10713
  140.2570  134.8496  157.3722 LP  0  0  0  0  0  0  0  0  0  0  0  0  # atno 17394 bound_to 11000
  140.1647  134.4684  155.7871 LP  0  0  0  0  0  0  0  0  0  0  0  0  # atno 17395 bound_to 11000

$$$$
