AV-unprocessed.smi:1063|AV-procd|sdf|4662|dock4
  -GOLD-   22720 3173D 1   1.00000     0.00000
 Structure written by MMmdl.
 38 39  0  0  0  0  0  0  0  0  1 V2000
  151.6094  142.8114  159.1578 C   0  0  0  0  0  0  0  0  0  0  0  0
  150.6330  142.0641  158.2457 C   0  0  0  0  0  0  0  0  0  0  0  0
  151.0833  142.2509  156.4977 S   0  0  0  0  0  0  0  0  0  0  0  0
  150.1158  141.1074  155.5575 C   0  0  0  0  0  0  0  0  0  0  0  0
  148.7255  141.2576  155.3765 C   0  0  0  0  0  0  0  0  0  0  0  0
  148.0508  140.2889  154.6098 C   0  0  0  0  0  0  0  0  0  0  0  0
  148.7758  139.2138  154.0545 C   0  0  0  0  0  0  0  0  0  0  0  0
  148.0486  138.2658  153.2817 N   0  0  0  0  0  0  0  0  0  0  0  0
  146.7304  138.0015  153.2673 C   0  0  0  0  0  0  0  0  0  0  0  0
  145.8723  138.5928  153.9208 O   0  0  0  0  0  0  0  0  0  0  0  0
  146.4534  136.9913  152.4308 N   0  0  0  0  0  0  0  0  0  0  0  0
  145.1276  136.4241  152.2102 C   0  0  0  0  0  0  0  0  0  0  0  0
  145.1771  135.2483  151.2206 C   0  0  2  0  0  0  0  0  0  0  0  0
  143.9401  134.3563  151.2602 C   0  0  0  0  0  0  0  0  0  0  0  0
  144.4422  133.0585  150.6530 C   0  0  0  0  0  0  0  0  0  0  0  0
  145.9561  133.1052  150.8850 C   0  0  0  0  0  0  0  0  0  0  0  0
  146.2083  134.3332  151.5570 O   0  0  0  0  0  0  0  0  0  0  0  0
  150.1719  139.1660  154.3003 C   0  0  0  0  0  0  0  0  0  0  0  0
  150.8289  140.0890  155.0353 N   0  0  0  0  0  0  0  0  0  0  0  0
  151.3285  142.6963  160.2049 H   0  0  0  0  0  0  0  0  0  0  0  0
  151.6212  143.8778  158.9312 H   0  0  0  0  0  0  0  0  0  0  0  0
  152.6248  142.4318  159.0414 H   0  0  0  0  0  0  0  0  0  0  0  0
  150.6263  141.0041  158.5003 H   0  0  0  0  0  0  0  0  0  0  0  0
  149.6220  142.4437  158.3946 H   0  0  0  0  0  0  0  0  0  0  0  0
  148.1773  142.0824  155.8042 H   0  0  0  0  0  0  0  0  0  0  0  0
  146.9856  140.3744  154.4506 H   0  0  0  0  0  0  0  0  0  0  0  0
  148.6115  137.7010  152.6628 H   0  0  0  0  0  0  0  0  0  0  0  0
  147.2182  136.5670  151.9268 H   0  0  0  0  0  0  0  0  0  0  0  0
  144.6715  136.1197  153.1539 H   0  0  0  0  0  0  0  0  0  0  0  0
  144.4961  137.2146  151.8038 H   0  0  0  0  0  0  0  0  0  0  0  0
  145.3385  135.6101  150.2032 H   0  0  0  0  0  0  0  0  0  0  0  0
  143.6329  134.1842  152.2927 H   0  0  0  0  0  0  0  0  0  0  0  0
  143.0927  134.7795  150.7201 H   0  0  0  0  0  0  0  0  0  0  0  0
  143.9769  132.1879  151.1158 H   0  0  0  0  0  0  0  0  0  0  0  0
  144.2279  133.0266  149.5840 H   0  0  0  0  0  0  0  0  0  0  0  0
  146.3085  132.2670  151.4864 H   0  0  0  0  0  0  0  0  0  0  0  0
  146.4922  133.0914  149.9352 H   0  0  0  0  0  0  0  0  0  0  0  0
  150.8054  138.3871  153.9096 H   0  0  0  0  0  0  0  0  0  0  0  0
  1  2  1  0  0  0  0
  1 20  1  0  0  0  0
  1 21  1  0  0  0  0
  1 22  1  0  0  0  0
  2  3  1  0  0  0  0
  2 23  1  0  0  0  0
  2 24  1  0  0  0  0
  3  4  1  0  0  0  0
  4 19  1  0  0  0  0
  4  5  2  0  0  0  0
  5  6  1  0  0  0  0
  5 25  1  0  0  0  0
  6  7  2  0  0  0  0
  6 26  1  0  0  0  0
  7  8  1  0  0  0  0
  7 18  1  0  0  0  0
  8  9  1  0  0  0  0
  8 27  1  0  0  0  0
  9 10  2  0  0  0  0
  9 11  1  0  0  0  0
 11 12  1  0  0  0  0
 11 28  1  0  0  0  0
 12 13  1  0  0  0  0
 12 29  1  0  0  0  0
 12 30  1  0  0  0  0
 13 17  1  0  0  0  0
 13 14  1  0  0  0  0
 13 31  1  0  0  0  0
 14 15  1  0  0  0  0
 14 32  1  0  0  0  0
 14 33  1  0  0  0  0
 15 16  1  0  0  0  0
 15 34  1  0  0  0  0
 15 35  1  0  0  0  0
 16 17  1  0  0  0  0
 16 36  1  0  0  0  0
 16 37  1  0  0  0  0
 18 19  2  0  0  0  0
 18 38  1  0  0  0  0
M  END
> <s_m_source_file>
AV-unprocessed.smi

> <i_m_source_file_index>
1063

> <i_lp_mmshare_version>
43012

> <i_f3d_flags>
0

> <s_epik_input>
W0NIM11bQ0gyXVNjMVtjSF1bY0hdYyhbY0hdbjEpW05IXUMoPU8pW05IXVtDSDJdW0NAQEhdMltDSDJdW0NIMl1bQ0gyXU8y

> <s_epik_cmdline>
J2VwaWtfcHl0aG9uJywgJy1waCcsICc3LjAnLCAnLXRuJywgJzgnLCAnLW1hJywgJzIwMCcsICctbWV0YWxfYmluZGluZycsICctaW1hZScsICc8aW5maWxlLm1hZT4nLCAnLW9tYWUnLCAnPG91dGZpbGUubWFlPic=

> <r_lp_tautomer_probability>
1

> <r_epik_Ionization_Penalty>
0.000426617

> <r_epik_Ionization_Penalty_Charging>
0

> <r_epik_Ionization_Penalty_Neutral>
0.000426617

> <r_epik_State_Penalty>
0.000241115

> <r_epik_Charging_Adjusted_Penalty>
0.000241115

> <i_epik_Tot_Q>
0

> <i_epik_Tot_abs_Q>
0

> <r_epik_Metal_State_Penalty>
-0

> <b_epik_Metal_Only>
0

> <s_lp_Force_Field>
OPLS_2005

> <r_lp_Energy>
19.2569

> <b_lp_Chiralities_Consistent>
1

> <s_lp_Variant>
AV-unprocessed.smi:1063-1

> <Gold.Version>
5.8.1

> <Gold.Id.Protein>
6NUR|6NUR_protein|mol2

> <Gold.PLP.Fitness>
40.5353

> <Gold.PLP.PLP>
-33.1788

> <Gold.PLP.part.hbond>
-3.5864

> <Gold.PLP.part.metal>
0.0000

> <Gold.PLP.part.buried>
-5.8172

> <Gold.PLP.part.nonpolar>
-25.9428

> <Gold.PLP.part.repulsive>
0.4461

> <Gold.PLP.ligand.clash>
0.0000

> <Gold.PLP.ligand.torsion>
0.3162

> <Gold.PLP.Chemscore.Hbond>
2.6500

> <Gold.PLP.Chemscore.CHOScore>
0.0000

> <Gold.PLP.Chemscore.Metal>
0.0000

> <Gold.Chemscore.Hbonds>
donor molecule, donor type, donor heavy atom, donor atom, acceptor molecule, acceptor atom, score
      L1  H     8    27       P1  7948  1.00
      L1  H    11    28       P1  7948  0.98
      P1  H  7989  7998       L1    19  0.65

> <Gold.PLP.Chemscore.Internal.Correction>
0.0389

> <Gold.Rescore>
     Score         DG    S(hbond)    S(metal)    S(lipo)     H(rot)  DE(clash)    DE(int)     intcor
     16.73     -18.44       1.97        0.00      86.63       1.47       0.02       1.69       ----

> <Gold.Chemscore.Fitness>
16.7338

> <Gold.Chemscore.DG>
-18.4404

> <Gold.Chemscore.ZeroCoef>
-5.4800

> <Gold.Chemscore.Hbond>
1.9708

> <Gold.Chemscore.Metal>
0.0000

> <Gold.Chemscore.Lipo>
86.6341

> <Gold.Chemscore.Internal_Hbond>
0.0000

> <Gold.Chemscore.DEClash>
0.0195

> <Gold.Chemscore.DEInternal>
1.6871

> <Gold.Chemscore.Rot>
1.4681

> <Gold.Chemscore.Internal.Correction>
   9.000000E+99

> <Gold.Chemscore.Hbonds>
donor molecule, donor type, donor heavy atom, donor atom, acceptor molecule, acceptor atom, score
      L1  H     8    27       P1  7948  0.97
      L1  H    11    28       P1  7948  0.93
      P1  H  7989  7998       L1    19  0.02

> <Gold.Chemscore.Hbond.Weighted>
-6.5826

> <Gold.Chemscore.Metal.Weighted>
-0.0000

> <Gold.Chemscore.Lipo.Weighted>
-10.1362

> <Gold.Chemscore.Internal_Hbond.Weighted>
0.0000

> <Gold.Chemscore.DEClash.Weighted>
0.0195

> <Gold.Chemscore.DEInternal.Weighted>
1.6871

> <Gold.Chemscore.Rot.Weighted>
3.7584

> <Gold.Chemscore.Internal.Correction.Weighted>
   9.000000E+99

> <Gold.Protein.RotatedTorsions>
[ 6907 6896 6895 6894 ] final  163.46 input  -60.11 | X-H torsion
[ 7974 7965 7964 7962 ] final   70.26 input  175.53 | X-H torsion
[ 8008 7997 7996 7995 ] final  -48.28 input   59.86 | X-H torsion
[ 10167 10162 10161 10158 ] final  157.06 input  -65.29 | X-H torsion
[ 10718 10713 10712 10709 ] final -143.43 input   66.30 | X-H torsion
[ 10763 10752 10751 10750 ] final  136.91 input  -60.55 | X-H torsion
[ 11005 11000 10999 10996 ] final   60.77 input  -57.11 | X-H torsion

> <Gold.Protein.ActiveResidues>
 VAL166  LYS551  ARG553  GLY616  TRP617  ASP618  TYR619  PRO620  LYS621  CYS622 
 ASP623  PHE694  ASN695  SER759  ASP760  ASP761  ALA762  ILE779  LEU786  VAL792 
 PHE793  MET794  SER795  GLU796  ALA797  LYS798  CYS799  TRP800  GLU811  SER814 

> <Gold.Protein.RotatedAtoms>
  151.9249  133.3595  159.3909 H   0  0  0  0  0  0  0  0  0  0  0  0  # atno 6907 bound_to 6896
  150.7029  134.4597  159.5384 H   0  0  0  0  0  0  0  0  0  0  0  0  # atno 6908 bound_to 6896
  152.2227  134.8397  160.0534 H   0  0  0  0  0  0  0  0  0  0  0  0  # atno 6909 bound_to 6896
  145.7803  139.2884  143.1270 H   0  0  0  0  0  0  0  0  0  0  0  0  # atno 7974 bound_to 7965
  154.4027  140.1325  156.4313 H   0  0  0  0  0  0  0  0  0  0  0  0  # atno 8008 bound_to 7997
  155.7548  140.3487  155.5148 H   0  0  0  0  0  0  0  0  0  0  0  0  # atno 8009 bound_to 7997
  155.8915  140.1004  157.1405 H   0  0  0  0  0  0  0  0  0  0  0  0  # atno 8010 bound_to 7997
  139.4822  144.4952  151.8250 H   0  0  0  0  0  0  0  0  0  0  0  0  # atno 10167 bound_to 10162
  156.3578  130.7722  151.1885 H   0  0  0  0  0  0  0  0  0  0  0  0  # atno 10718 bound_to 10713
  153.8644  135.3063  155.3439 H   0  0  0  0  0  0  0  0  0  0  0  0  # atno 10763 bound_to 10752
  154.7834  135.4823  153.9897 H   0  0  0  0  0  0  0  0  0  0  0  0  # atno 10764 bound_to 10752
  153.1443  135.6830  153.9074 H   0  0  0  0  0  0  0  0  0  0  0  0  # atno 10765 bound_to 10752
  140.0208  134.6155  155.9642 H   0  0  0  0  0  0  0  0  0  0  0  0  # atno 11005 bound_to 11000
  146.0081  140.8460  142.9985 LP  0  0  0  0  0  0  0  0  0  0  0  0  # atno 17320 bound_to 7965
  144.6797  140.2450  143.7339 LP  0  0  0  0  0  0  0  0  0  0  0  0  # atno 17321 bound_to 7965
  140.4440  144.1947  150.5893 LP  0  0  0  0  0  0  0  0  0  0  0  0  # atno 17342 bound_to 10162
  140.4654  143.2433  151.9162 LP  0  0  0  0  0  0  0  0  0  0  0  0  # atno 17343 bound_to 10162
  157.7470  131.0409  150.4619 LP  0  0  0  0  0  0  0  0  0  0  0  0  # atno 17370 bound_to 10713
  156.4824  130.4077  149.6453 LP  0  0  0  0  0  0  0  0  0  0  0  0  # atno 17371 bound_to 10713
  141.1772  133.6542  156.4877 LP  0  0  0  0  0  0  0  0  0  0  0  0  # atno 17394 bound_to 11000
  140.4390  134.7032  157.4982 LP  0  0  0  0  0  0  0  0  0  0  0  0  # atno 17395 bound_to 11000

$$$$
