AV-unprocessed.smi:3117|AV-procd|sdf|11880|dock10
  -GOLD-   2272017263D 1   1.00000     0.00000
 Structure written by MMmdl.
 37 37  0  0  0  0  0  0  0  0  2 V2000
  150.3197  140.6966  158.1681 C   0  0  0  0  0  0  0  0  0  0  0  0
  150.2619  142.1185  157.5807 C   0  0  2  0  0  0  0  0  0  0  0  0
  149.8710  142.0297  156.1563 N   0  3  0  0  0  0  0  0  0  0  0  0
  148.8728  140.9838  155.8448 C   0  0  0  0  0  0  0  0  0  0  0  0
  148.4196  141.0305  154.3701 C   0  0  0  0  0  0  0  0  0  0  0  0
  147.6086  139.7714  154.0208 C   0  0  0  0  0  0  0  0  0  0  0  0
  147.6022  142.2968  154.0540 C   0  0  0  0  0  0  0  0  0  0  0  0
  149.5706  141.0182  153.5479 O   0  0  0  0  0  0  0  0  0  0  0  0
  151.5973  142.8954  157.7217 C   0  0  1  0  0  0  0  0  0  0  0  0
  151.4953  144.3555  157.2432 C   0  0  0  0  0  0  0  0  0  0  0  0
  152.1057  142.8561  159.0874 N   0  0  0  0  0  0  0  0  0  0  0  0
  153.2262  142.2128  159.5754 C   0  0  0  0  0  0  0  0  0  0  0  0
  153.2988  142.4766  160.9130 C   0  0  0  0  0  0  0  0  0  0  0  0
  152.1672  143.3040  161.1560 C   0  0  0  0  0  0  0  0  0  0  0  0
  151.4575  143.5304  160.0625 N   0  0  0  0  0  0  0  0  0  0  0  0
  150.5026  140.7076  159.2428 H   0  0  0  0  0  0  0  0  0  0  0  0
  151.1103  140.1071  157.7025 H   0  0  0  0  0  0  0  0  0  0  0  0
  149.3774  140.1708  158.0115 H   0  0  0  0  0  0  0  0  0  0  0  0
  149.4894  142.6587  158.1313 H   0  0  0  0  0  0  0  0  0  0  0  0
  149.5002  142.9247  155.8710 H   0  0  0  0  0  0  0  0  0  0  0  0
  149.3060  140.0096  156.0774 H   0  0  0  0  0  0  0  0  0  0  0  0
  148.0079  141.1088  156.4977 H   0  0  0  0  0  0  0  0  0  0  0  0
  146.6998  139.7088  154.6208 H   0  0  0  0  0  0  0  0  0  0  0  0
  148.1844  138.8626  154.2019 H   0  0  0  0  0  0  0  0  0  0  0  0
  147.3098  139.7667  152.9718 H   0  0  0  0  0  0  0  0  0  0  0  0
  146.7091  142.3530  154.6773 H   0  0  0  0  0  0  0  0  0  0  0  0
  147.2764  142.3092  153.0131 H   0  0  0  0  0  0  0  0  0  0  0  0
  148.1788  143.2067  154.2232 H   0  0  0  0  0  0  0  0  0  0  0  0
  149.5144  140.2794  152.9602 H   0  0  0  0  0  0  0  0  0  0  0  0
  152.3371  142.4006  157.0887 H   0  0  0  0  0  0  0  0  0  0  0  0
  151.2486  144.4132  156.1831 H   0  0  0  0  0  0  0  0  0  0  0  0
  152.4425  144.8781  157.3806 H   0  0  0  0  0  0  0  0  0  0  0  0
  150.7302  144.9052  157.7925 H   0  0  0  0  0  0  0  0  0  0  0  0
  153.8720  141.6275  158.9377 H   0  0  0  0  0  0  0  0  0  0  0  0
  154.0472  142.1321  161.6114 H   0  0  0  0  0  0  0  0  0  0  0  0
  151.8433  143.7448  162.0873 H   0  0  0  0  0  0  0  0  0  0  0  0
  150.6976  141.8403  155.6073 H   0  0  0  0  0  0  0  0  0  0  0  0
  1  2  1  0  0  0  0
  1 16  1  0  0  0  0
  1 17  1  0  0  0  0
  1 18  1  0  0  0  0
  2  3  1  0  0  0  0
  2  9  1  0  0  0  0
  2 19  1  0  0  0  0
  3  4  1  0  0  0  0
  3 20  1  0  0  0  0
  3 37  1  0  0  0  0
  4  5  1  0  0  0  0
  4 21  1  0  0  0  0
  4 22  1  0  0  0  0
  5  6  1  0  0  0  0
  5  7  1  0  0  0  0
  5  8  1  0  0  0  0
  6 23  1  0  0  0  0
  6 24  1  0  0  0  0
  6 25  1  0  0  0  0
  7 26  1  0  0  0  0
  7 27  1  0  0  0  0
  7 28  1  0  0  0  0
  8 29  1  0  0  0  0
  9 10  1  0  0  0  0
  9 11  1  0  0  0  0
  9 30  1  0  0  0  0
 10 31  1  0  0  0  0
 10 32  1  0  0  0  0
 10 33  1  0  0  0  0
 11 15  1  0  0  0  0
 11 12  1  0  0  0  0
 12 13  2  0  0  0  0
 12 34  1  0  0  0  0
 13 14  1  0  0  0  0
 13 35  1  0  0  0  0
 14 15  2  0  0  0  0
 14 36  1  0  0  0  0
M  CHG  1   3   1
M  END
> <s_m_source_file>
AV-unprocessed.smi

> <i_m_source_file_index>
3117

> <i_lp_mmshare_version>
43012

> <i_f3d_flags>
0

> <s_epik_input>
W0NIM11DKFtDSDNdKShbT0hdKVtDSDJdW05IXVtDQEBIXShbQ0gzXSlbQ0BIXShbQ0gzXSluMVtjSF1bY0hdW2NIXW4x

> <s_epik_cmdline>
J2VwaWtfcHl0aG9uJywgJy1waCcsICc3LjAnLCAnLXRuJywgJzgnLCAnLW1hJywgJzIwMCcsICctbWV0YWxfYmluZGluZycsICctaW1hZScsICc8aW5maWxlLm1hZT4nLCAnLW9tYWUnLCAnPG91dGZpbGUubWFlPic=

> <r_lp_tautomer_probability>
1

> <r_epik_Ionization_Penalty>
0.0164263

> <r_epik_Ionization_Penalty_Charging>
0.0164138

> <r_epik_Ionization_Penalty_Neutral>
1.24697e-05

> <r_epik_State_Penalty>
0.0129543

> <r_epik_Charging_Adjusted_Penalty>
0.0293681

> <i_epik_Tot_Q>
1

> <i_epik_Tot_abs_Q>
1

> <r_epik_Metal_State_Penalty>
0.0129806

> <b_epik_Metal_Only>
0

> <s_lp_Force_Field>
OPLS_2005

> <r_lp_Energy>
14.6887

> <b_lp_Chiralities_Consistent>
1

> <s_lp_Variant>
AV-unprocessed.smi:3117-3

> <Gold.Version>
5.8.1

> <Gold.Id.Protein>
6NUR|6NUR_protein|mol2

> <Gold.PLP.Fitness>
46.6788

> <Gold.PLP.PLP>
-35.8493

> <Gold.PLP.part.hbond>
-4.0000

> <Gold.PLP.part.metal>
0.0000

> <Gold.PLP.part.buried>
-2.7793

> <Gold.PLP.part.nonpolar>
-27.8227

> <Gold.PLP.part.repulsive>
0.1322

> <Gold.PLP.ligand.clash>
0.0000

> <Gold.PLP.ligand.torsion>
0.4011

> <Gold.PLP.Chemscore.Hbond>
3.8518

> <Gold.PLP.Chemscore.CHOScore>
0.0000

> <Gold.PLP.Chemscore.Metal>
0.0000

> <Gold.Chemscore.Hbonds>
donor molecule, donor type, donor heavy atom, donor atom, acceptor molecule, acceptor atom, score
      L1  H     3    20       P1  8028  2.00
      L1  H     8    29       P1  7957  0.70
      P1  H  7989  7998       L1     8  0.12
      P1  H  8011  8017       L1     8  1.00

> <Gold.PLP.Chemscore.Internal.Correction>
0.0763

> <Gold.Rescore>
     Score         DG    S(hbond)    S(metal)    S(lipo)     H(rot)  DE(clash)    DE(int)     intcor
     16.79     -17.32       2.00        0.00      93.80       2.27       0.24       0.30       ----

> <Gold.Chemscore.Fitness>
16.7876

> <Gold.Chemscore.DG>
-17.3210

> <Gold.Chemscore.ZeroCoef>
-5.4800

> <Gold.Chemscore.Hbond>
2.0010

> <Gold.Chemscore.Metal>
0.0000

> <Gold.Chemscore.Lipo>
93.8047

> <Gold.Chemscore.Internal_Hbond>
0.0000

> <Gold.Chemscore.DEClash>
0.2355

> <Gold.Chemscore.DEInternal>
0.2979

> <Gold.Chemscore.Rot>
2.2725

> <Gold.Chemscore.Internal.Correction>
   9.000000E+99

> <Gold.Chemscore.Hbonds>
donor molecule, donor type, donor heavy atom, donor atom, acceptor molecule, acceptor atom, score
      L1  H     3    20       P1  8028  1.00
      L1  H     8    29       P1  7957  0.70
      P1  H  8011  8017       L1     8  0.28

> <Gold.Chemscore.Hbond.Weighted>
-6.6834

> <Gold.Chemscore.Metal.Weighted>
-0.0000

> <Gold.Chemscore.Lipo.Weighted>
-10.9751

> <Gold.Chemscore.Internal_Hbond.Weighted>
0.0000

> <Gold.Chemscore.DEClash.Weighted>
0.2355

> <Gold.Chemscore.DEInternal.Weighted>
0.2979

> <Gold.Chemscore.Rot.Weighted>
5.8176

> <Gold.Chemscore.Internal.Correction.Weighted>
   9.000000E+99

> <Gold.Protein.RotatedTorsions>
[ 6907 6896 6895 6894 ] final    5.34 input  -60.11 | X-H torsion
[ 7974 7965 7964 7962 ] final   30.56 input  175.53 | X-H torsion
[ 8008 7997 7996 7995 ] final    5.25 input   59.86 | X-H torsion
[ 10167 10162 10161 10158 ] final  142.36 input  -65.29 | X-H torsion
[ 10718 10713 10712 10709 ] final  160.23 input   66.30 | X-H torsion
[ 10763 10752 10751 10750 ] final   71.76 input  -60.55 | X-H torsion
[ 11005 11000 10999 10996 ] final  -32.02 input  -57.11 | X-H torsion

> <Gold.Protein.ActiveResidues>
 VAL166  LYS551  ARG553  GLY616  TRP617  ASP618  TYR619  PRO620  LYS621  CYS622 
 ASP623  PHE694  ASN695  SER759  ASP760  ASP761  ALA762  ILE779  LEU786  VAL792 
 PHE793  MET794  SER795  GLU796  ALA797  LYS798  CYS799  TRP800  GLU811  SER814 

> <Gold.Protein.RotatedAtoms>
  151.6559  135.0995  160.0169 H   0  0  0  0  0  0  0  0  0  0  0  0  # atno 6907 bound_to 6896
  152.3974  133.6763  159.6296 H   0  0  0  0  0  0  0  0  0  0  0  0  # atno 6908 bound_to 6896
  150.7879  133.8766  159.3315 H   0  0  0  0  0  0  0  0  0  0  0  0  # atno 6909 bound_to 6896
  146.1604  139.6772  142.9037 H   0  0  0  0  0  0  0  0  0  0  0  0  # atno 7974 bound_to 7965
  154.7260  140.2721  155.6498 H   0  0  0  0  0  0  0  0  0  0  0  0  # atno 8008 bound_to 7997
  156.2837  140.2725  156.1871 H   0  0  0  0  0  0  0  0  0  0  0  0  # atno 8009 bound_to 7997
  155.0444  140.0371  157.2511 H   0  0  0  0  0  0  0  0  0  0  0  0  # atno 8010 bound_to 7997
  139.4996  144.6112  151.6267 H   0  0  0  0  0  0  0  0  0  0  0  0  # atno 10167 bound_to 10162
  157.1533  131.0569  151.2269 H   0  0  0  0  0  0  0  0  0  0  0  0  # atno 10718 bound_to 10713
  153.0418  135.5125  154.7641 H   0  0  0  0  0  0  0  0  0  0  0  0  # atno 10763 bound_to 10752
  154.6573  135.2933  154.9914 H   0  0  0  0  0  0  0  0  0  0  0  0  # atno 10764 bound_to 10752
  154.0777  135.6668  153.4886 H   0  0  0  0  0  0  0  0  0  0  0  0  # atno 10765 bound_to 10752
  140.9517  133.7217  156.1231 H   0  0  0  0  0  0  0  0  0  0  0  0  # atno 11005 bound_to 11000
  145.4602  141.0432  143.2755 LP  0  0  0  0  0  0  0  0  0  0  0  0  # atno 17320 bound_to 7965
  144.8019  139.6124  143.7068 LP  0  0  0  0  0  0  0  0  0  0  0  0  # atno 17321 bound_to 7965
  140.5787  143.9984  150.6256 LP  0  0  0  0  0  0  0  0  0  0  0  0  # atno 17342 bound_to 10162
  140.3125  143.3188  152.0864 LP  0  0  0  0  0  0  0  0  0  0  0  0  # atno 17343 bound_to 10162
  157.4200  130.7432  149.6906 LP  0  0  0  0  0  0  0  0  0  0  0  0  # atno 17370 bound_to 10713
  155.9766  130.4073  150.3765 LP  0  0  0  0  0  0  0  0  0  0  0  0  # atno 17371 bound_to 10713
  140.7593  134.3957  157.5528 LP  0  0  0  0  0  0  0  0  0  0  0  0  # atno 17394 bound_to 11000
  139.8849  134.8951  156.2672 LP  0  0  0  0  0  0  0  0  0  0  0  0  # atno 17395 bound_to 11000

$$$$
