#       Name:                AV-unprocessed.smi:394
#       Creating user name   scv26
#       Creation time:       Thu Mar 26 22:42:46 2020


#       File generated by GOLD software.
#

@<TRIPOS>MOLECULE
AV-unprocessed.smi:394
    37    38     1
SMALL
NO_CHARGES


@<TRIPOS>ATOM
      1 ****        -2.8942   2.0970  -1.7101 C.3            1 S1                 0.0000
      2 ****        -2.3021   0.9179  -1.0982 N.am           1 S1                 0.0000
      3 ****        -3.0023  -0.0577  -0.4971 C.2            1 S1                 0.0000
      4 ****        -4.2298  -0.0373  -0.4141 O.2            1 S1                 0.0000
      5 ****        -2.2340  -1.2454   0.1108 C.3            1 S1                 0.0000
      6 ****        -0.7602  -1.1796  -0.0282 N.am           1 S1                 0.0000
      7 ****        -0.1562  -1.7742  -1.1658 C.2            1 S1                 0.0000
      8 ****        -0.8387  -2.3163  -2.0365 O.2            1 S1                 0.0000
      9 ****         1.3017  -1.6912  -1.2201 C.2            1 S1                 0.0000
     10 ****         1.9496  -2.3198  -2.3233 C.1            1 S1                 0.0000
     11 ****         2.4982  -2.8221  -3.2100 N.1            1 S1                 0.0000
     12 ****         1.9971  -1.0484  -0.2595 C.2            1 S1                 0.0000
     13 ****         1.3862  -0.4266   0.8074 N.am           1 S1                 0.0000
     14 ****         2.1508   0.1267   1.8895 C.3            1 S1                 0.0000
     15 ****         1.9425   1.5663   2.3183 C.3            1 S1                 0.0000
     16 ****         3.2017   1.1722   1.5857 C.3            1 S1                 0.0000
     17 ****        -0.0125  -0.5185   0.9768 C.2            1 S1                 0.0000
     18 ****        -0.5683  -0.0380   1.9676 O.2            1 S1                 0.0000
     19 ****        -2.1133   2.7232  -2.1413 H              1 S1                 0.0000
     20 ****        -3.4349   2.6878  -0.9696 H              1 S1                 0.0000
     21 ****        -3.5854   1.8166  -2.5059 H              1 S1                 0.0000
     22 ****        -1.2962   0.8371  -1.1293 H              1 S1                 0.0000
     23 ****        -2.5197  -1.3292   1.1605 H              1 S1                 0.0000
     24 ****        -2.6262  -2.1611  -0.3343 H              1 S1                 0.0000
     25 ****         3.0749  -1.0113  -0.3303 H              1 S1                 0.0000
     26 ****         2.3966  -0.5726   2.6869 H              1 S1                 0.0000
     27 ****         1.2188   2.1686   1.7722 H              1 S1                 0.0000
     28 ****         2.0261   1.7887   3.3800 H              1 S1                 0.0000
     29 ****         4.1257   1.1353   2.1592 H              1 S1                 0.0000
     30 ****         3.3055   1.5132   0.5575 H              1 S1                 0.0000
     31 ****        -4.7447   0.7267  -0.8030 LP             1 S1                 0.0000
     32 ****        -4.7126  -0.7848   0.0423 LP             1 S1                 0.0000
     33 ****        -1.8345  -2.3419  -1.9475 LP             1 S1                 0.0000
     34 ****        -0.3970  -2.7308  -2.8322 LP             1 S1                 0.0000
     35 ****         2.9722  -3.2561  -3.9761 LP             1 S1                 0.0000
     36 ****        -1.5603  -0.1124   2.0697 LP             1 S1                 0.0000
     37 ****        -0.0269   0.4258   2.6689 LP             1 S1                 0.0000
@<TRIPOS>BOND
    1    1    2 1     
    2    1   19 1     
    3    1   20 1     
    4    1   21 1     
    5    2    3 am    
    6    2   22 1     
    7    3    4 2     
    8    3    5 1     
    9    5    6 1     
   10    5   23 1     
   11    5   24 1     
   12    6   17 am    
   13    6    7 am    
   14    7    8 2     
   15    7    9 1     
   16    9   10 1     
   17    9   12 2     
   18   10   11 3     
   19   12   13 1     
   20   12   25 1     
   21   13   14 1     
   22   13   17 am    
   23   14   16 1     
   24   14   15 1     
   25   14   26 1     
   26   15   16 1     
   27   15   27 1     
   28   15   28 1     
   29   16   29 1     
   30   16   30 1     
   31   17   18 2     
   32    4   31 1     
   33    4   32 1     
   34    8   33 1     
   35    8   34 1     
   36   11   35 1     
   37   18   36 1     
   38   18   37 1     
@<TRIPOS>SUBSTRUCTURE
      1 S1             1
@<TRIPOS>SET
LONE_PAIRS      STATIC     ATOMS    <user>   **** ""
7 31 32 33 34 35 36 37
DONOR_HYDROGENS      STATIC     ATOMS    <user>   **** ""
1 22
ATOM$BLUE        STATIC     ATOMS    COLORGROUP SYSTEM
7 31 32 33 34 35 36 37
ATOM$RED        STATIC     ATOMS    COLORGROUP SYSTEM
1 22
