AV-unprocessed.smi:1433|AV-procd|sdf|5845|dock5
  -GOLD-   22720 5513D 1   1.00000     0.00000
 Structure written by MMmdl.
 45 46  0  0  0  0  0  0  0  0  2 V2000
  148.6763  140.7268  154.2598 C   0  0  0  0  0  0  0  0  0  0  0  0
  149.3331  139.3522  154.0911 C   0  0  2  0  0  0  0  0  0  0  0  0
  148.5703  138.2472  154.8476 C   0  0  0  0  0  0  0  0  0  0  0  0
  149.2712  136.9387  154.7337 N   0  3  2  0  0  0  0  0  0  0  0  0
  148.5943  135.7699  155.3866 C   0  0  2  0  0  0  0  0  0  0  0  0
  148.8204  135.8218  156.9152 C   0  0  0  0  0  0  0  0  0  0  0  0
  149.0254  134.3925  154.8106 C   0  0  0  0  0  0  0  0  0  0  0  0
  148.4804  134.1483  153.4780 N   0  0  0  0  0  0  0  0  0  0  0  0
  147.8523  133.0284  153.0844 C   0  0  0  0  0  0  0  0  0  0  0  0
  147.7083  132.0416  153.8054 O   0  0  0  0  0  0  0  0  0  0  0  0
  147.2849  133.0258  151.6634 C   0  0  0  0  0  0  0  0  0  0  0  0
  146.1160  133.8828  151.5583 N   0  0  0  0  0  0  0  0  0  0  0  0
  146.0198  135.2362  151.8068 C   0  0  0  0  0  0  0  0  0  0  0  0
  144.7227  135.5999  151.5835 C   0  0  0  0  0  0  0  0  0  0  0  0
  144.0931  134.3848  151.1944 C   0  0  0  0  0  0  0  0  0  0  0  0
  144.9287  133.3593  151.1806 N   0  0  0  0  0  0  0  0  0  0  0  0
  150.6842  137.0966  155.1728 C   0  0  0  0  0  0  0  0  0  0  0  0
  151.3842  138.2253  154.3942 C   0  0  2  0  0  0  0  0  0  0  0  0
  152.8236  138.4503  154.8704 C   0  0  0  0  0  0  0  0  0  0  0  0
  150.6615  139.4334  154.5893 O   0  0  0  0  0  0  0  0  0  0  0  0
  147.6543  140.7234  153.8798 H   0  0  0  0  0  0  0  0  0  0  0  0
  149.2296  141.4928  153.7159 H   0  0  0  0  0  0  0  0  0  0  0  0
  148.6425  141.0226  155.3086 H   0  0  0  0  0  0  0  0  0  0  0  0
  149.3635  139.1134  153.0264 H   0  0  0  0  0  0  0  0  0  0  0  0
  148.4621  138.5129  155.9006 H   0  0  0  0  0  0  0  0  0  0  0  0
  147.5707  138.1887  154.4180 H   0  0  0  0  0  0  0  0  0  0  0  0
  147.5233  135.8647  155.1994 H   0  0  0  0  0  0  0  0  0  0  0  0
  148.2552  135.0479  157.4343 H   0  0  0  0  0  0  0  0  0  0  0  0
  148.5056  136.7653  157.3567 H   0  0  0  0  0  0  0  0  0  0  0  0
  149.8735  135.6801  157.1597 H   0  0  0  0  0  0  0  0  0  0  0  0
  150.1081  134.3475  154.6948 H   0  0  0  0  0  0  0  0  0  0  0  0
  148.7511  133.5902  155.4979 H   0  0  0  0  0  0  0  0  0  0  0  0
  148.5538  134.9036  152.8117 H   0  0  0  0  0  0  0  0  0  0  0  0
  148.0454  133.3719  150.9622 H   0  0  0  0  0  0  0  0  0  0  0  0
  147.0108  132.0122  151.3674 H   0  0  0  0  0  0  0  0  0  0  0  0
  146.8724  135.8208  152.1196 H   0  0  0  0  0  0  0  0  0  0  0  0
  144.2894  136.5841  151.6810 H   0  0  0  0  0  0  0  0  0  0  0  0
  143.0608  134.2186  150.9238 H   0  0  0  0  0  0  0  0  0  0  0  0
  150.7083  137.3134  156.2421 H   0  0  0  0  0  0  0  0  0  0  0  0
  151.2433  136.1739  155.0280 H   0  0  0  0  0  0  0  0  0  0  0  0
  151.4054  137.9827  153.3302 H   0  0  0  0  0  0  0  0  0  0  0  0
  153.4277  137.5531  154.7334 H   0  0  0  0  0  0  0  0  0  0  0  0
  152.8536  138.7160  155.9276 H   0  0  0  0  0  0  0  0  0  0  0  0
  153.2973  139.2577  154.3114 H   0  0  0  0  0  0  0  0  0  0  0  0
  149.2931  136.7292  153.7458 H   0  0  0  0  0  0  0  0  0  0  0  0
  1  2  1  0  0  0  0
  1 21  1  0  0  0  0
  1 22  1  0  0  0  0
  1 23  1  0  0  0  0
  2 20  1  0  0  0  0
  2  3  1  0  0  0  0
  2 24  1  0  0  0  0
  3  4  1  0  0  0  0
  3 25  1  0  0  0  0
  3 26  1  0  0  0  0
  4  5  1  0  0  0  0
  4 17  1  0  0  0  0
  4 45  1  0  0  0  0
  5  6  1  0  0  0  0
  5  7  1  0  0  0  0
  5 27  1  0  0  0  0
  6 28  1  0  0  0  0
  6 29  1  0  0  0  0
  6 30  1  0  0  0  0
  7  8  1  0  0  0  0
  7 31  1  0  0  0  0
  7 32  1  0  0  0  0
  8  9  1  0  0  0  0
  8 33  1  0  0  0  0
  9 10  2  0  0  0  0
  9 11  1  0  0  0  0
 11 12  1  0  0  0  0
 11 34  1  0  0  0  0
 11 35  1  0  0  0  0
 12 16  1  0  0  0  0
 12 13  1  0  0  0  0
 13 14  2  0  0  0  0
 13 36  1  0  0  0  0
 14 15  1  0  0  0  0
 14 37  1  0  0  0  0
 15 16  2  0  0  0  0
 15 38  1  0  0  0  0
 17 18  1  0  0  0  0
 17 39  1  0  0  0  0
 17 40  1  0  0  0  0
 18 19  1  0  0  0  0
 18 20  1  0  0  0  0
 18 41  1  0  0  0  0
 19 42  1  0  0  0  0
 19 43  1  0  0  0  0
 19 44  1  0  0  0  0
M  CHG  1   4   1
M  END
> <s_m_source_file>
AV-unprocessed.smi

> <i_m_source_file_index>
1433

> <i_lp_mmshare_version>
43012

> <i_f3d_flags>
0

> <s_epik_input>
W0NIM11bQ0BASF0xW0NIMl1OKFtDSDJdW0NASF0oTzEpW0NIM10pW0NASF0oW0NIM10pW0NIMl1bTkhdQyg9TylbQ0gyXW4yW2NIXVtjSF1bY0hdbjI=

> <s_epik_cmdline>
J2VwaWtfcHl0aG9uJywgJy1waCcsICc3LjAnLCAnLXRuJywgJzgnLCAnLW1hJywgJzIwMCcsICctbWV0YWxfYmluZGluZycsICctaW1hZScsICc8aW5maWxlLm1hZT4nLCAnLW9tYWUnLCAnPG91dGZpbGUubWFlPic=

> <r_lp_tautomer_probability>
1

> <r_epik_Ionization_Penalty>
0.748405

> <r_epik_Ionization_Penalty_Charging>
0.748396

> <r_epik_Ionization_Penalty_Neutral>
8.54426e-06

> <r_epik_State_Penalty>
0.775162

> <r_epik_Charging_Adjusted_Penalty>
1.52356

> <i_epik_Tot_Q>
1

> <i_epik_Tot_abs_Q>
1

> <r_epik_Metal_State_Penalty>
0.775167

> <b_epik_Metal_Only>
0

> <s_lp_Force_Field>
OPLS_2005

> <r_lp_Energy>
19.9081

> <b_lp_Chiralities_Consistent>
1

> <s_lp_Variant>
AV-unprocessed.smi:1433-11

> <Gold.Version>
5.8.1

> <Gold.Id.Protein>
6NUR|6NUR_protein|mol2

> <Gold.PLP.Fitness>
49.1795

> <Gold.PLP.PLP>
-32.2565

> <Gold.PLP.part.hbond>
-3.0000

> <Gold.PLP.part.metal>
0.0000

> <Gold.PLP.part.buried>
-2.7462

> <Gold.PLP.part.nonpolar>
-27.2762

> <Gold.PLP.part.repulsive>
0.3054

> <Gold.PLP.ligand.clash>
0.0000

> <Gold.PLP.ligand.torsion>
0.5700

> <Gold.PLP.Chemscore.Hbond>
4.0000

> <Gold.PLP.Chemscore.CHOScore>
2.0000

> <Gold.PLP.Chemscore.Metal>
0.0000

> <Gold.Chemscore.Hbonds>
donor molecule, donor type, donor heavy atom, donor atom, acceptor molecule, acceptor atom, score
      L1  H     4    45       P1  7948  2.00
      L1  H     8    33       P1  7948  1.00
      P1  H  7989  7998       L1    20  0.96
      L1  C    13    36       P1  7948  1.00
      L1  C    15    38       P1 10186  1.00

> <Gold.PLP.Chemscore.Internal.Correction>
0.0630

> <Gold.Rescore>
     Score         DG    S(hbond)    S(metal)    S(lipo)     H(rot)  DE(clash)    DE(int)     intcor
     15.16     -16.93       2.33        0.00      72.10       1.87       1.07       0.71       ----

> <Gold.Chemscore.Fitness>
15.1579

> <Gold.Chemscore.DG>
-16.9320

> <Gold.Chemscore.ZeroCoef>
-5.4800

> <Gold.Chemscore.Hbond>
2.3332

> <Gold.Chemscore.Metal>
0.0000

> <Gold.Chemscore.Lipo>
72.0971

> <Gold.Chemscore.Internal_Hbond>
0.0000

> <Gold.Chemscore.DEClash>
1.0671

> <Gold.Chemscore.DEInternal>
0.7070

> <Gold.Chemscore.Rot>
1.8657

> <Gold.Chemscore.Internal.Correction>
   9.000000E+99

> <Gold.Chemscore.Hbonds>
donor molecule, donor type, donor heavy atom, donor atom, acceptor molecule, acceptor atom, score
      L1  H     4    45       P1  7948  0.94
      L1  H     8    33       P1  7948  0.40
      P1  H  7989  7998       L1    20  0.30

> <Gold.Chemscore.Hbond.Weighted>
-7.7928

> <Gold.Chemscore.Metal.Weighted>
-0.0000

> <Gold.Chemscore.Lipo.Weighted>
-8.4354

> <Gold.Chemscore.Internal_Hbond.Weighted>
0.0000

> <Gold.Chemscore.DEClash.Weighted>
1.0671

> <Gold.Chemscore.DEInternal.Weighted>
0.7070

> <Gold.Chemscore.Rot.Weighted>
4.7761

> <Gold.Chemscore.Internal.Correction.Weighted>
   9.000000E+99

> <Gold.Protein.RotatedTorsions>
[ 6907 6896 6895 6894 ] final   37.78 input  -60.11 | X-H torsion
[ 7974 7965 7964 7962 ] final -145.38 input  175.53 | X-H torsion
[ 8008 7997 7996 7995 ] final  -71.22 input   59.86 | X-H torsion
[ 10167 10162 10161 10158 ] final  -73.31 input  -65.29 | X-H torsion
[ 10718 10713 10712 10709 ] final -179.88 input   66.30 | X-H torsion
[ 10763 10752 10751 10750 ] final  140.23 input  -60.55 | X-H torsion
[ 11005 11000 10999 10996 ] final   -9.19 input  -57.11 | X-H torsion

> <Gold.Protein.ActiveResidues>
 VAL166  LYS551  ARG553  GLY616  TRP617  ASP618  TYR619  PRO620  LYS621  CYS622 
 ASP623  PHE694  ASN695  SER759  ASP760  ASP761  ALA762  ILE779  LEU786  VAL792 
 PHE793  MET794  SER795  GLU796  ALA797  LYS798  CYS799  TRP800  GLU811  SER814 

> <Gold.Protein.RotatedAtoms>
  152.1477  134.9013  160.0549 H   0  0  0  0  0  0  0  0  0  0  0  0  # atno 6907 bound_to 6896
  152.0057  133.3837  159.4208 H   0  0  0  0  0  0  0  0  0  0  0  0  # atno 6908 bound_to 6896
  150.6872  134.3707  159.5035 H   0  0  0  0  0  0  0  0  0  0  0  0  # atno 6909 bound_to 6896
  144.8231  140.5591  143.5565 H   0  0  0  0  0  0  0  0  0  0  0  0  # atno 7974 bound_to 7965
  154.5071  140.0819  156.7916 H   0  0  0  0  0  0  0  0  0  0  0  0  # atno 8008 bound_to 7997
  155.3869  140.3430  155.4231 H   0  0  0  0  0  0  0  0  0  0  0  0  # atno 8009 bound_to 7997
  156.1529  140.1564  156.8728 H   0  0  0  0  0  0  0  0  0  0  0  0  # atno 8010 bound_to 7997
  140.5121  143.2343  151.7576 H   0  0  0  0  0  0  0  0  0  0  0  0  # atno 10167 bound_to 10162
  156.8656  130.9766  151.3079 H   0  0  0  0  0  0  0  0  0  0  0  0  # atno 10718 bound_to 10713
  153.9193  135.3002  155.3448 H   0  0  0  0  0  0  0  0  0  0  0  0  # atno 10763 bound_to 10752
  154.7584  135.4946  153.9420 H   0  0  0  0  0  0  0  0  0  0  0  0  # atno 10764 bound_to 10752
  153.1150  135.6768  153.9536 H   0  0  0  0  0  0  0  0  0  0  0  0  # atno 10765 bound_to 10752
  140.7316  133.8745  155.8897 H   0  0  0  0  0  0  0  0  0  0  0  0  # atno 11005 bound_to 11000
  145.5059  139.1481  143.3631 LP  0  0  0  0  0  0  0  0  0  0  0  0  # atno 17320 bound_to 7965
  146.2537  140.5200  142.8882 LP  0  0  0  0  0  0  0  0  0  0  0  0  # atno 17321 bound_to 7965
  139.4899  144.4376  151.9801 LP  0  0  0  0  0  0  0  0  0  0  0  0  # atno 17342 bound_to 10162
  140.3469  144.3136  150.5956 LP  0  0  0  0  0  0  0  0  0  0  0  0  # atno 17343 bound_to 10162
  157.6225  130.8666  149.9133 LP  0  0  0  0  0  0  0  0  0  0  0  0  # atno 17370 bound_to 10713
  156.0753  130.3679  150.0690 LP  0  0  0  0  0  0  0  0  0  0  0  0  # atno 17371 bound_to 10713
  140.9916  134.1271  157.4402 LP  0  0  0  0  0  0  0  0  0  0  0  0  # atno 17394 bound_to 11000
  139.8825  135.0042  156.6235 LP  0  0  0  0  0  0  0  0  0  0  0  0  # atno 17395 bound_to 11000

$$$$
