AV-unprocessed.smi:99|AV-procd|sdf|871|dock7
  -GOLD-   2262017333D 1   1.00000     0.00000
 Structure written by MMmdl.
 53 56  0  0  0  0  0  0  0  0  1 V2000
  148.4284  137.1696  160.8597 O   0  0  0  0  0  0  0  0  0  0  0  0
  148.3763  136.0761  160.2926 C   0  0  0  0  0  0  0  0  0  0  0  0
  148.9204  135.8373  159.0831 O   0  0  0  0  0  0  0  0  0  0  0  0
  149.5412  136.8909  158.3656 C   0  0  0  0  0  0  0  0  0  0  0  0
  148.5735  138.0740  158.2640 C   0  0  2  0  0  0  0  0  0  0  0  0
  147.3363  137.6424  157.7210 O   0  0  0  0  0  0  0  0  0  0  0  0
  146.6874  138.7290  157.1411 C   0  0  2  0  0  0  0  0  0  0  0  0
  145.9689  138.2292  155.9066 N   0  0  0  0  0  0  0  0  0  0  0  0
  146.1987  136.9449  155.4322 C   0  0  0  0  0  0  0  0  0  0  0  0
  145.5781  136.4378  154.3409 C   0  0  0  0  0  0  0  0  0  0  0  0
  144.6136  137.2428  153.5983 C   0  0  0  0  0  0  0  0  0  0  0  0
  143.9992  136.8712  152.6006 O   0  0  0  0  0  0  0  0  0  0  0  0
  144.4160  138.5293  154.1089 N   0  0  0  0  0  0  0  0  0  0  0  0
  145.0521  139.0644  155.2307 C   0  0  0  0  0  0  0  0  0  0  0  0
  144.8080  140.2181  155.5820 O   0  0  0  0  0  0  0  0  0  0  0  0
  147.7456  139.8150  156.8408 C   0  0  2  0  0  0  0  0  0  0  0  0
  147.8268  140.2098  155.4829 O   0  0  0  0  0  0  0  0  0  0  0  0
  149.0442  139.1500  157.2849 C   0  0  1  0  0  0  0  0  0  0  0  0
  149.8794  140.0780  157.9667 O   0  0  0  0  0  0  0  0  0  0  0  0
  150.2906  141.2115  157.3589 C   0  0  0  0  0  0  0  0  0  0  0  0
  149.9007  141.5698  156.2460 O   0  0  0  0  0  0  0  0  0  0  0  0
  151.2631  141.9897  158.1788 C   0  0  0  0  0  0  0  0  0  0  0  0
  151.5131  143.3439  157.8562 C   0  0  0  0  0  0  0  0  0  0  0  0
  152.4213  144.1065  158.6158 C   0  0  0  0  0  0  0  0  0  0  0  0
  153.0899  143.5245  159.7084 C   0  0  0  0  0  0  0  0  0  0  0  0
  152.8499  142.1781  160.0398 C   0  0  0  0  0  0  0  0  0  0  0  0
  151.9427  141.4134  159.2803 C   0  0  0  0  0  0  0  0  0  0  0  0
  147.7032  134.8786  160.8739 C   0  0  0  0  0  0  0  0  0  0  0  0
  147.8149  133.6326  160.2137 C   0  0  0  0  0  0  0  0  0  0  0  0
  147.1896  132.4844  160.7377 C   0  0  0  0  0  0  0  0  0  0  0  0
  146.4443  132.5682  161.9281 C   0  0  0  0  0  0  0  0  0  0  0  0
  146.3251  133.8020  162.5942 C   0  0  0  0  0  0  0  0  0  0  0  0
  146.9499  134.9512  162.0717 C   0  0  0  0  0  0  0  0  0  0  0  0
  143.7600  139.1232  153.6228 H   0  0  0  0  0  0  0  0  0  0  0  0
  150.4444  137.1950  158.8965 H   0  0  0  0  0  0  0  0  0  0  0  0
  149.8393  136.5572  157.3706 H   0  0  0  0  0  0  0  0  0  0  0  0
  148.3894  138.5160  159.2452 H   0  0  0  0  0  0  0  0  0  0  0  0
  145.9331  139.0739  157.8498 H   0  0  0  0  0  0  0  0  0  0  0  0
  146.9107  136.3165  155.9483 H   0  0  0  0  0  0  0  0  0  0  0  0
  145.7970  135.4311  154.0149 H   0  0  0  0  0  0  0  0  0  0  0  0
  147.5173  140.6832  157.4607 H   0  0  0  0  0  0  0  0  0  0  0  0
  147.2681  139.6447  154.9710 H   0  0  0  0  0  0  0  0  0  0  0  0
  149.5439  138.6716  156.4404 H   0  0  0  0  0  0  0  0  0  0  0  0
  151.0110  143.8135  157.0223 H   0  0  0  0  0  0  0  0  0  0  0  0
  152.6041  145.1398  158.3596 H   0  0  0  0  0  0  0  0  0  0  0  0
  153.7851  144.1101  160.2918 H   0  0  0  0  0  0  0  0  0  0  0  0
  153.3616  141.7309  160.8792 H   0  0  0  0  0  0  0  0  0  0  0  0
  151.7797  140.3839  159.5637 H   0  0  0  0  0  0  0  0  0  0  0  0
  148.3817  133.5432  159.2979 H   0  0  0  0  0  0  0  0  0  0  0  0
  147.2822  131.5383  160.2250 H   0  0  0  0  0  0  0  0  0  0  0  0
  145.9646  131.6879  162.3298 H   0  0  0  0  0  0  0  0  0  0  0  0
  145.7528  133.8674  163.5078 H   0  0  0  0  0  0  0  0  0  0  0  0
  146.8373  135.8823  162.6077 H   0  0  0  0  0  0  0  0  0  0  0  0
  1  2  2  0  0  0  0
  2  3  1  0  0  0  0
  2 28  1  0  0  0  0
  3  4  1  0  0  0  0
  4  5  1  0  0  0  0
  4 35  1  0  0  0  0
  4 36  1  0  0  0  0
  5 18  1  0  0  0  0
  5  6  1  0  0  0  0
  5 37  1  0  0  0  0
  6  7  1  0  0  0  0
  7  8  1  0  0  0  0
  7 16  1  0  0  0  0
  7 38  1  0  0  0  0
  8 14  1  0  0  0  0
  8  9  1  0  0  0  0
  9 10  2  0  0  0  0
  9 39  1  0  0  0  0
 10 11  1  0  0  0  0
 10 40  1  0  0  0  0
 11 12  2  0  0  0  0
 11 13  1  0  0  0  0
 13 34  1  0  0  0  0
 13 14  1  0  0  0  0
 14 15  2  0  0  0  0
 16 17  1  0  0  0  0
 16 18  1  0  0  0  0
 16 41  1  0  0  0  0
 17 42  1  0  0  0  0
 18 19  1  0  0  0  0
 18 43  1  0  0  0  0
 19 20  1  0  0  0  0
 20 21  2  0  0  0  0
 20 22  1  0  0  0  0
 22 27  1  0  0  0  0
 22 23  2  0  0  0  0
 23 24  1  0  0  0  0
 23 44  1  0  0  0  0
 24 25  2  0  0  0  0
 24 45  1  0  0  0  0
 25 26  1  0  0  0  0
 25 46  1  0  0  0  0
 26 27  2  0  0  0  0
 26 47  1  0  0  0  0
 27 48  1  0  0  0  0
 28 33  1  0  0  0  0
 28 29  2  0  0  0  0
 29 30  1  0  0  0  0
 29 49  1  0  0  0  0
 30 31  2  0  0  0  0
 30 50  1  0  0  0  0
 31 32  1  0  0  0  0
 31 51  1  0  0  0  0
 32 33  2  0  0  0  0
 32 52  1  0  0  0  0
 33 53  1  0  0  0  0
M  END
> <s_m_source_file>
AV-unprocessed.smi

> <i_m_source_file_index>
99

> <i_lp_mmshare_version>
43012

> <i_f3d_flags>
0

> <s_epik_input>
W2NIXTFbY0hdW2NIXVtjSF1bY0hdYzFDKD1PKU9bQ0gyXVtDQEBIXTJPW0NAQEhdKG4zW2NIXVtjSF1jKD1PKVtuSF1jMz1PKVtDQEBIXShbT0hdKVtDQEhdMk9DKD1PKWM0W2NIXVtjSF1bY0hdW2NIXVtjSF00

> <s_epik_cmdline>
J2VwaWtfcHl0aG9uJywgJy1waCcsICc3LjAnLCAnLXRuJywgJzgnLCAnLW1hJywgJzIwMCcsICctbWV0YWxfYmluZGluZycsICctaW1hZScsICc8aW5maWxlLm1hZT4nLCAnLW9tYWUnLCAnPG91dGZpbGUubWFlPic=

> <r_lp_tautomer_probability>
1

> <r_epik_Ionization_Penalty>
0.00454555

> <r_epik_Ionization_Penalty_Charging>
0.0045191

> <r_epik_Ionization_Penalty_Neutral>
2.64449e-05

> <r_epik_State_Penalty>
-0

> <r_epik_Charging_Adjusted_Penalty>
0.0045191

> <i_epik_Tot_Q>
0

> <i_epik_Tot_abs_Q>
0

> <r_epik_Metal_State_Penalty>
1.27877

> <b_epik_Metal_Only>
0

> <s_epik_Chemistry_Notes>
This compound has an ester and may undergo hydrolysis at high or low pH. This compound contains an acetal/aminal-like group ( X-CH(R)-Y where X, Y are N, S, or O) that may be acid/base labile, releasing an aldehyde.

> <s_lp_Force_Field>
OPLS_2005

> <r_lp_Energy>
38.4241

> <b_lp_Chiralities_Consistent>
1

> <s_lp_Variant>
AV-unprocessed.smi:99-7

> <Gold.Version>
5.8.1

> <Gold.Id.Protein>
6NUR|6NUR_protein|mol2

> <Gold.PLP.Fitness>
51.6594

> <Gold.PLP.PLP>
-45.2804

> <Gold.PLP.part.hbond>
-3.3912

> <Gold.PLP.part.metal>
0.0000

> <Gold.PLP.part.buried>
-6.4295

> <Gold.PLP.part.nonpolar>
-36.1467

> <Gold.PLP.part.repulsive>
0.4552

> <Gold.PLP.ligand.clash>
0.0000

> <Gold.PLP.ligand.torsion>
0.4448

> <Gold.PLP.Chemscore.Hbond>
2.2680

> <Gold.PLP.Chemscore.CHOScore>
0.0000

> <Gold.PLP.Chemscore.Metal>
0.0000

> <Gold.Chemscore.Hbonds>
donor molecule, donor type, donor heavy atom, donor atom, acceptor molecule, acceptor atom, score
      L1  H    13    34       P1 10175  0.88
      P1  H  6931  6943       L1     1  0.91
      P1  H  6934  6947       L1     1  0.29

> <Gold.PLP.Chemscore.Internal.Correction>
0.4644

> <Gold.Rescore>
     Score         DG    S(hbond)    S(metal)    S(lipo)     H(rot)  DE(clash)    DE(int)     intcor
     13.11     -18.97       2.49        0.00     113.94       3.19       0.04       5.83       ----

> <Gold.Chemscore.Fitness>
13.1058

> <Gold.Chemscore.DG>
-18.9749

> <Gold.Chemscore.ZeroCoef>
-5.4800

> <Gold.Chemscore.Hbond>
2.4942

> <Gold.Chemscore.Metal>
0.0000

> <Gold.Chemscore.Lipo>
113.9425

> <Gold.Chemscore.Internal_Hbond>
0.0000

> <Gold.Chemscore.DEClash>
0.0440

> <Gold.Chemscore.DEInternal>
5.8251

> <Gold.Chemscore.Rot>
3.1903

> <Gold.Chemscore.Internal.Correction>
   9.000000E+99

> <Gold.Chemscore.Hbonds>
donor molecule, donor type, donor heavy atom, donor atom, acceptor molecule, acceptor atom, score
      L1  H    13    34       P1 10175  0.87
      P1  H  6931  6943       L1     1  0.87
      P1  H  6934  6947       L1     1  0.29

> <Gold.Chemscore.Hbond.Weighted>
-8.3307

> <Gold.Chemscore.Metal.Weighted>
-0.0000

> <Gold.Chemscore.Lipo.Weighted>
-13.3313

> <Gold.Chemscore.Internal_Hbond.Weighted>
0.0000

> <Gold.Chemscore.DEClash.Weighted>
0.0440

> <Gold.Chemscore.DEInternal.Weighted>
5.8251

> <Gold.Chemscore.Rot.Weighted>
8.1671

> <Gold.Chemscore.Internal.Correction.Weighted>
   9.000000E+99

> <Gold.Protein.RotatedTorsions>
[ 6907 6896 6895 6894 ] final   38.66 input  -60.11 | X-H torsion
[ 7974 7965 7964 7962 ] final -177.53 input  175.53 | X-H torsion
[ 8008 7997 7996 7995 ] final  164.95 input   59.86 | X-H torsion
[ 10167 10162 10161 10158 ] final  -13.59 input  -65.29 | X-H torsion
[ 10718 10713 10712 10709 ] final -112.45 input   66.30 | X-H torsion
[ 10763 10752 10751 10750 ] final   37.12 input  -60.55 | X-H torsion
[ 11005 11000 10999 10996 ] final  117.49 input  -57.11 | X-H torsion

> <Gold.Protein.ActiveResidues>
 VAL166  LYS551  ARG553  GLY616  TRP617  ASP618  TYR619  PRO620  LYS621  CYS622 
 ASP623  PHE694  ASN695  SER759  ASP760  ASP761  ALA762  ILE779  LEU786  VAL792 
 PHE793  MET794  SER795  GLU796  ALA797  LYS798  CYS799  TRP800  GLU811  SER814 

> <Gold.Protein.RotatedAtoms>
  152.1594  134.8924  160.0542 H   0  0  0  0  0  0  0  0  0  0  0  0  # atno 6907 bound_to 6896
  151.9926  133.3791  159.4158 H   0  0  0  0  0  0  0  0  0  0  0  0  # atno 6908 bound_to 6896
  150.6886  134.3843  159.5092 H   0  0  0  0  0  0  0  0  0  0  0  0  # atno 6909 bound_to 6896
  144.7128  140.1006  143.6416 H   0  0  0  0  0  0  0  0  0  0  0  0  # atno 7974 bound_to 7965
  156.1839  140.1683  156.8222 H   0  0  0  0  0  0  0  0  0  0  0  0  # atno 8008 bound_to 7997
  154.5392  140.0740  156.8513 H   0  0  0  0  0  0  0  0  0  0  0  0  # atno 8009 bound_to 7997
  155.3250  140.3375  155.4243 H   0  0  0  0  0  0  0  0  0  0  0  0  # atno 8010 bound_to 7997
  140.7185  143.5410  150.9409 H   0  0  0  0  0  0  0  0  0  0  0  0  # atno 10167 bound_to 10162
  156.0707  130.5921  150.8510 H   0  0  0  0  0  0  0  0  0  0  0  0  # atno 10718 bound_to 10713
  153.0050  135.6287  154.2094 H   0  0  0  0  0  0  0  0  0  0  0  0  # atno 10763 bound_to 10752
  154.1837  135.2812  155.3045 H   0  0  0  0  0  0  0  0  0  0  0  0  # atno 10764 bound_to 10752
  154.5814  135.5646  153.7249 H   0  0  0  0  0  0  0  0  0  0  0  0  # atno 10765 bound_to 10752
  139.9076  134.9610  156.7359 H   0  0  0  0  0  0  0  0  0  0  0  0  # atno 11005 bound_to 11000
  145.9541  139.2754  143.1194 LP  0  0  0  0  0  0  0  0  0  0  0  0  # atno 17320 bound_to 7965
  145.9291  140.9061  143.0365 LP  0  0  0  0  0  0  0  0  0  0  0  0  # atno 17321 bound_to 7965
  139.9133  143.6694  152.3111 LP  0  0  0  0  0  0  0  0  0  0  0  0  # atno 17342 bound_to 10162
  139.7085  144.7624  151.1153 LP  0  0  0  0  0  0  0  0  0  0  0  0  # atno 17343 bound_to 10162
  157.5775  131.0946  150.9322 LP  0  0  0  0  0  0  0  0  0  0  0  0  # atno 17370 bound_to 10713
  156.9525  130.5425  149.5283 LP  0  0  0  0  0  0  0  0  0  0  0  0  # atno 17371 bound_to 10713
  140.6888  133.9408  155.7954 LP  0  0  0  0  0  0  0  0  0  0  0  0  # atno 17394 bound_to 11000
  141.0456  134.0558  157.3847 LP  0  0  0  0  0  0  0  0  0  0  0  0  # atno 17395 bound_to 11000

$$$$
