AV-unprocessed.smi:3185|AV-procd|sdf|12165|dock10
  -GOLD-   2272018 03D 1   1.00000     0.00000
 Structure written by MMmdl.
 38 39  0  0  0  0  0  0  0  0  2 V2000
  144.1113  134.5820  152.5599 N   0  0  0  0  0  0  0  0  0  0  0  0
  144.7612  135.4029  152.0688 C   0  0  0  0  0  0  0  0  0  0  0  0
  145.5871  136.4465  151.4433 C   0  0  0  0  0  0  0  0  0  0  0  0
  145.8989  137.6036  152.3989 C   0  0  0  0  0  0  0  0  0  0  0  0
  146.7599  138.6859  151.7378 C   0  0  0  0  0  0  0  0  0  0  0  0
  147.9897  138.9337  152.5166 N   0  3  0  0  0  0  0  0  0  0  0  0
  147.7727  139.5433  153.8485 C   0  0  2  0  0  0  0  0  0  0  0  0
  146.6020  140.5420  153.7718 C   0  0  0  0  0  0  0  0  0  0  0  0
  146.3658  141.2435  155.1181 C   0  0  0  0  0  0  0  0  0  0  0  0
  147.6405  141.9468  155.6066 C   0  0  0  0  0  0  0  0  0  0  0  0
  148.8148  140.9607  155.6959 C   0  0  0  0  0  0  0  0  0  0  0  0
  149.0597  140.2495  154.3483 C   0  0  1  0  0  0  0  0  0  0  0  0
  150.1889  139.3330  154.4451 N   0  0  0  0  0  0  0  0  0  0  0  0
  150.1843  137.9601  154.3087 C   0  0  0  0  0  0  0  0  0  0  0  0
  151.4682  137.5280  154.4799 C   0  0  0  0  0  0  0  0  0  0  0  0
  152.2003  138.7253  154.7115 C   0  0  0  0  0  0  0  0  0  0  0  0
  151.4331  139.8028  154.6899 N   0  0  0  0  0  0  0  0  0  0  0  0
  146.5087  135.9792  151.0955 H   0  0  0  0  0  0  0  0  0  0  0  0
  145.0550  136.8101  150.5639 H   0  0  0  0  0  0  0  0  0  0  0  0
  144.9640  138.0437  152.7487 H   0  0  0  0  0  0  0  0  0  0  0  0
  146.4089  137.2154  153.2816 H   0  0  0  0  0  0  0  0  0  0  0  0
  147.0312  138.3825  150.7258 H   0  0  0  0  0  0  0  0  0  0  0  0
  146.1884  139.6110  151.6566 H   0  0  0  0  0  0  0  0  0  0  0  0
  148.4682  138.0539  152.6470 H   0  0  0  0  0  0  0  0  0  0  0  0
  147.4956  138.7655  154.5631 H   0  0  0  0  0  0  0  0  0  0  0  0
  146.8039  141.2918  153.0054 H   0  0  0  0  0  0  0  0  0  0  0  0
  145.6913  140.0259  153.4653 H   0  0  0  0  0  0  0  0  0  0  0  0
  145.5557  141.9672  155.0230 H   0  0  0  0  0  0  0  0  0  0  0  0
  146.0423  140.5130  155.8607 H   0  0  0  0  0  0  0  0  0  0  0  0
  147.8953  142.7597  154.9255 H   0  0  0  0  0  0  0  0  0  0  0  0
  147.4638  142.4038  156.5807 H   0  0  0  0  0  0  0  0  0  0  0  0
  149.7154  141.4920  156.0064 H   0  0  0  0  0  0  0  0  0  0  0  0
  148.6070  140.2267  156.4757 H   0  0  0  0  0  0  0  0  0  0  0  0
  149.3316  141.0132  153.6173 H   0  0  0  0  0  0  0  0  0  0  0  0
  149.2776  137.4094  154.1046 H   0  0  0  0  0  0  0  0  0  0  0  0
  151.8303  136.5111  154.4415 H   0  0  0  0  0  0  0  0  0  0  0  0
  153.2583  138.8428  154.8935 H   0  0  0  0  0  0  0  0  0  0  0  0
  148.5867  139.5468  151.9802 H   0  0  0  0  0  0  0  0  0  0  0  0
  1  2  3  0  0  0  0
  2  3  1  0  0  0  0
  3  4  1  0  0  0  0
  3 18  1  0  0  0  0
  3 19  1  0  0  0  0
  4  5  1  0  0  0  0
  4 20  1  0  0  0  0
  4 21  1  0  0  0  0
  5  6  1  0  0  0  0
  5 22  1  0  0  0  0
  5 23  1  0  0  0  0
  6  7  1  0  0  0  0
  6 24  1  0  0  0  0
  6 38  1  0  0  0  0
  7 12  1  0  0  0  0
  7  8  1  0  0  0  0
  7 25  1  0  0  0  0
  8  9  1  0  0  0  0
  8 26  1  0  0  0  0
  8 27  1  0  0  0  0
  9 10  1  0  0  0  0
  9 28  1  0  0  0  0
  9 29  1  0  0  0  0
 10 11  1  0  0  0  0
 10 30  1  0  0  0  0
 10 31  1  0  0  0  0
 11 12  1  0  0  0  0
 11 32  1  0  0  0  0
 11 33  1  0  0  0  0
 12 13  1  0  0  0  0
 12 34  1  0  0  0  0
 13 17  1  0  0  0  0
 13 14  1  0  0  0  0
 14 15  2  0  0  0  0
 14 35  1  0  0  0  0
 15 16  1  0  0  0  0
 15 36  1  0  0  0  0
 16 17  2  0  0  0  0
 16 37  1  0  0  0  0
M  CHG  1   6   1
M  END
> <s_m_source_file>
AV-unprocessed.smi

> <i_m_source_file_index>
3185

> <i_lp_mmshare_version>
43012

> <i_f3d_flags>
0

> <s_epik_input>
TiNDW0NIMl1bQ0gyXVtDSDJdW05IXVtDQEBIXTFbQ0gyXVtDSDJdW0NIMl1bQ0gyXVtDQEhdMW4yW2NIXVtjSF1bY0hdbjI=

> <s_epik_cmdline>
J2VwaWtfcHl0aG9uJywgJy1waCcsICc3LjAnLCAnLXRuJywgJzgnLCAnLW1hJywgJzIwMCcsICctbWV0YWxfYmluZGluZycsICctaW1hZScsICc8aW5maWxlLm1hZT4nLCAnLW9tYWUnLCAnPG91dGZpbGUubWFlPic=

> <r_lp_tautomer_probability>
1

> <r_epik_Ionization_Penalty>
0.0143465

> <r_epik_Ionization_Penalty_Charging>
0.0143338

> <r_epik_Ionization_Penalty_Neutral>
1.27047e-05

> <r_epik_State_Penalty>
0.0112058

> <r_epik_Charging_Adjusted_Penalty>
0.0255397

> <i_epik_Tot_Q>
1

> <i_epik_Tot_abs_Q>
1

> <r_epik_Metal_State_Penalty>
0.0112253

> <b_epik_Metal_Only>
0

> <s_lp_Force_Field>
OPLS_2005

> <r_lp_Energy>
16.2212

> <b_lp_Chiralities_Consistent>
1

> <s_lp_Variant>
AV-unprocessed.smi:3185-1

> <Gold.Version>
5.8.1

> <Gold.Id.Protein>
6NUR|6NUR_protein|mol2

> <Gold.PLP.Fitness>
43.9309

> <Gold.PLP.PLP>
-32.4917

> <Gold.PLP.part.hbond>
-2.4394

> <Gold.PLP.part.metal>
0.0000

> <Gold.PLP.part.buried>
0.1237

> <Gold.PLP.part.nonpolar>
-31.3605

> <Gold.PLP.part.repulsive>
0.2514

> <Gold.PLP.ligand.clash>
0.1343

> <Gold.PLP.ligand.torsion>
0.7093

> <Gold.PLP.Chemscore.Hbond>
3.5218

> <Gold.PLP.Chemscore.CHOScore>
0.7894

> <Gold.PLP.Chemscore.Metal>
0.0000

> <Gold.Chemscore.Hbonds>
donor molecule, donor type, donor heavy atom, donor atom, acceptor molecule, acceptor atom, score
      L1  H     6    24       P1  7948  1.86
      L1  H     6    38       P1  7957  0.63
      P1  H  7989  7998       L1    17  1.00
      L1  C    14    35       P1  7948  0.78

> <Gold.PLP.Chemscore.Internal.Correction>
0.0586

> <Gold.Rescore>
     Score         DG    S(hbond)    S(metal)    S(lipo)     H(rot)  DE(clash)    DE(int)     intcor
     15.71     -18.20       2.56        0.00      76.82       1.88       0.79       1.70       ----

> <Gold.Chemscore.Fitness>
15.7112

> <Gold.Chemscore.DG>
-18.1979

> <Gold.Chemscore.ZeroCoef>
-5.4800

> <Gold.Chemscore.Hbond>
2.5552

> <Gold.Chemscore.Metal>
0.0000

> <Gold.Chemscore.Lipo>
76.8241

> <Gold.Chemscore.Internal_Hbond>
0.0000

> <Gold.Chemscore.DEClash>
0.7874

> <Gold.Chemscore.DEInternal>
1.6993

> <Gold.Chemscore.Rot>
1.8769

> <Gold.Chemscore.Internal.Correction>
   9.000000E+99

> <Gold.Chemscore.Hbonds>
donor molecule, donor type, donor heavy atom, donor atom, acceptor molecule, acceptor atom, score
      L1  H     6    24       P1  7948  0.86
      L1  H     6    38       P1  7957  0.62
      P1  H  7989  7998       L1    17  0.38

> <Gold.Chemscore.Hbond.Weighted>
-8.5345

> <Gold.Chemscore.Metal.Weighted>
-0.0000

> <Gold.Chemscore.Lipo.Weighted>
-8.9884

> <Gold.Chemscore.Internal_Hbond.Weighted>
0.0000

> <Gold.Chemscore.DEClash.Weighted>
0.7874

> <Gold.Chemscore.DEInternal.Weighted>
1.6993

> <Gold.Chemscore.Rot.Weighted>
4.8049

> <Gold.Chemscore.Internal.Correction.Weighted>
   9.000000E+99

> <Gold.Protein.RotatedTorsions>
[ 6907 6896 6895 6894 ] final -135.78 input  -60.11 | X-H torsion
[ 7974 7965 7964 7962 ] final  105.32 input  175.53 | X-H torsion
[ 8008 7997 7996 7995 ] final  -42.69 input   59.86 | X-H torsion
[ 10167 10162 10161 10158 ] final  -97.03 input  -65.29 | X-H torsion
[ 10718 10713 10712 10709 ] final -151.92 input   66.30 | X-H torsion
[ 10763 10752 10751 10750 ] final -156.70 input  -60.55 | X-H torsion
[ 11005 11000 10999 10996 ] final   37.92 input  -57.11 | X-H torsion

> <Gold.Protein.ActiveResidues>
 VAL166  LYS551  ARG553  GLY616  TRP617  ASP618  TYR619  PRO620  LYS621  CYS622 
 ASP623  PHE694  ASN695  SER759  ASP760  ASP761  ALA762  ILE779  LEU786  VAL792 
 PHE793  MET794  SER795  GLU796  ALA797  LYS798  CYS799  TRP800  GLU811  SER814 

> <Gold.Protein.RotatedAtoms>
  151.0020  133.6047  159.2693 H   0  0  0  0  0  0  0  0  0  0  0  0  # atno 6907 bound_to 6896
  151.3229  135.0822  159.9322 H   0  0  0  0  0  0  0  0  0  0  0  0  # atno 6908 bound_to 6896
  152.5276  133.9664  159.7796 H   0  0  0  0  0  0  0  0  0  0  0  0  # atno 6909 bound_to 6896
  145.3212  139.2512  143.3711 H   0  0  0  0  0  0  0  0  0  0  0  0  # atno 7974 bound_to 7965
  154.3998  140.1467  156.3397 H   0  0  0  0  0  0  0  0  0  0  0  0  # atno 8008 bound_to 7997
  155.8368  140.3463  155.5585 H   0  0  0  0  0  0  0  0  0  0  0  0  # atno 8009 bound_to 7997
  155.8130  140.0886  157.1883 H   0  0  0  0  0  0  0  0  0  0  0  0  # atno 8010 bound_to 7997
  140.2877  143.3241  152.0378 H   0  0  0  0  0  0  0  0  0  0  0  0  # atno 10167 bound_to 10162
  156.4656  130.8234  151.2464 H   0  0  0  0  0  0  0  0  0  0  0  0  # atno 10718 bound_to 10713
  154.7693  135.3140  154.8223 H   0  0  0  0  0  0  0  0  0  0  0  0  # atno 10763 bound_to 10752
  153.8963  135.6820  153.4762 H   0  0  0  0  0  0  0  0  0  0  0  0  # atno 10764 bound_to 10752
  153.1303  135.4783  154.9273 H   0  0  0  0  0  0  0  0  0  0  0  0  # atno 10765 bound_to 10752
  140.2178  134.3678  155.8019 H   0  0  0  0  0  0  0  0  0  0  0  0  # atno 11005 bound_to 11000
  146.3081  140.3770  142.8680 LP  0  0  0  0  0  0  0  0  0  0  0  0  # atno 17320 bound_to 7965
  144.8938  140.7557  143.5910 LP  0  0  0  0  0  0  0  0  0  0  0  0  # atno 17321 bound_to 7965
  139.4946  144.6547  151.6598 LP  0  0  0  0  0  0  0  0  0  0  0  0  # atno 17342 bound_to 10162
  140.5759  144.0030  150.6241 LP  0  0  0  0  0  0  0  0  0  0  0  0  # atno 17343 bound_to 10162
  157.7495  131.0093  150.3261 LP  0  0  0  0  0  0  0  0  0  0  0  0  # atno 17370 bound_to 10713
  156.3671  130.3857  149.7205 LP  0  0  0  0  0  0  0  0  0  0  0  0  # atno 17371 bound_to 10713
  141.2224  133.7177  156.8525 LP  0  0  0  0  0  0  0  0  0  0  0  0  # atno 17394 bound_to 11000
  140.1882  134.8984  157.3029 LP  0  0  0  0  0  0  0  0  0  0  0  0  # atno 17395 bound_to 11000

$$$$
