#       Name:                AV-unprocessed.smi:229
#       Creating user name   scv26
#       Creation time:       Thu Mar 26 20:28:16 2020


#       File generated by GOLD software.
#

@<TRIPOS>MOLECULE
AV-unprocessed.smi:229
    70    74     1
SMALL
NO_CHARGES


@<TRIPOS>ATOM
      1 ****        -6.9498   1.4925  -0.5369 C.3            1 S1                 0.0000
      2 ****        -5.5859   2.1066  -0.1977 C.3            1 S1                 0.0000
      3 ****        -4.4935   1.0499   0.0239 C.3            1 S1                 0.0000
      4 ****        -3.1086   1.6899   0.2196 C.3            1 S1                 0.0000
      5 ****        -2.1260   0.6580   0.5312 N.3            1 S1                 0.0000
      6 ****        -0.8085   0.9659   0.4265 C.ar           1 S1                 0.0000
      7 ****        -0.4134   2.2676   0.4153 N.ar           1 S1                 0.0000
      8 ****         0.8814   2.5806   0.3094 C.ar           1 S1                 0.0000
      9 ****         1.9311   1.7643   0.1989 N.ar           1 S1                 0.0000
     10 ****         1.5413   0.4579   0.2036 C.ar           1 S1                 0.0000
     11 ****         0.2070  -0.0258   0.3148 C.ar           1 S1                 0.0000
     12 ****         0.2042  -1.4158   0.2692 N.2            1 S1                 0.0000
     13 ****         1.4638  -1.7348   0.1473 C.2            1 S1                 0.0000
     14 ****         2.3340  -0.6697   0.0916 N.pl3          1 S1                 0.0000
     15 ****         3.7773  -0.7279  -0.0616 C.3            1 S1                 0.0000
     16 ****         4.2234  -0.4629  -1.5160 C.3            1 S1                 0.0000
     17 ****         3.6138  -1.4342  -2.3449 O.3            1 S1                 0.0000
     18 ****         5.7491  -0.5669  -1.7115 C.3            1 S1                 0.0000
     19 ****         6.5798   0.2933  -0.7556 C.3            1 S1                 0.0000
     20 ****         7.8730   0.5401  -1.5168 C.3            1 S1                 0.0000
     21 ****         7.5261   0.1708  -2.9605 C.3            1 S1                 0.0000
     22 ****         6.1172  -0.0068  -2.9637 O.3            1 S1                 0.0000
     23 ****        -2.4931  -0.1400   1.6949 C.3            1 S1                 0.0000
     24 ****        -3.9030  -0.7483   1.5173 C.3            1 S1                 0.0000
     25 ****        -4.3823  -1.4058   2.8075 C.3            1 S1                 0.0000
     26 ****        -4.0134  -2.8685   2.6120 C.3            1 S1                 0.0000
     27 ****        -4.3298  -3.0807   1.2493 O.3            1 S1                 0.0000
     28 ****        -3.9330  -1.9274   0.5161 C.3            1 S1                 0.0000
     29 ****        -4.8305   0.2899   1.1866 O.3            1 S1                 0.0000
     30 ****        -7.6967   2.2707  -0.6938 H              1 S1                 0.0000
     31 ****        -7.3054   0.8484   0.2677 H              1 S1                 0.0000
     32 ****        -6.8972   0.8941  -1.4468 H              1 S1                 0.0000
     33 ****        -5.2885   2.7680  -1.0122 H              1 S1                 0.0000
     34 ****        -5.6776   2.7345   0.6894 H              1 S1                 0.0000
     35 ****        -4.4600   0.4000  -0.8510 H              1 S1                 0.0000
     36 ****        -2.8210   2.2235  -0.6875 H              1 S1                 0.0000
     37 ****        -3.1390   2.4176   1.0320 H              1 S1                 0.0000
     38 ****         1.1083   3.6364   0.3120 H              1 S1                 0.0000
     39 ****         1.7934  -2.7616   0.0819 H              1 S1                 0.0000
     40 ****         4.2139   0.0064   0.6156 H              1 S1                 0.0000
     41 ****         4.1253  -1.7060   0.2733 H              1 S1                 0.0000
     42 ****         3.8814   0.5260  -1.8247 H              1 S1                 0.0000
     43 ****         2.6763  -1.3277  -2.2898 H              1 S1                 0.0000
     44 ****         6.0830  -1.6055  -1.6575 H              1 S1                 0.0000
     45 ****         6.0786   1.2456  -0.5759 H              1 S1                 0.0000
     46 ****         6.7448  -0.1872   0.2092 H              1 S1                 0.0000
     47 ****         8.1854   1.5812  -1.4281 H              1 S1                 0.0000
     48 ****         8.6832  -0.0879  -1.1447 H              1 S1                 0.0000
     49 ****         7.8266   0.9379  -3.6747 H              1 S1                 0.0000
     50 ****         8.0069  -0.7665  -3.2442 H              1 S1                 0.0000
     51 ****        -1.7694  -0.9296   1.8929 H              1 S1                 0.0000
     52 ****        -2.4801   0.5153   2.5671 H              1 S1                 0.0000
     53 ****        -3.9475  -0.9738   3.7094 H              1 S1                 0.0000
     54 ****        -5.4671  -1.3227   2.8919 H              1 S1                 0.0000
     55 ****        -2.9471  -3.0326   2.7757 H              1 S1                 0.0000
     56 ****        -4.5740  -3.5377   3.2649 H              1 S1                 0.0000
     57 ****        -4.6389  -1.7752  -0.3000 H              1 S1                 0.0000
     58 ****        -2.9504  -2.1016   0.0754 H              1 S1                 0.0000
     59 ****        -2.1969   0.0530  -0.2618 LP             1 S1                 0.0000
     60 ****        -1.0961   2.9947   0.4868 LP             1 S1                 0.0000
     61 ****         2.8799   2.0708   0.1226 LP             1 S1                 0.0000
     62 ****        -0.5831  -2.0304   0.3186 LP             1 S1                 0.0000
     63 ****         3.8684  -2.3503  -2.0350 LP             1 S1                 0.0000
     64 ****         3.9131  -1.3070  -3.2905 LP             1 S1                 0.0000
     65 ****         5.6631   0.8753  -3.0887 LP             1 S1                 0.0000
     66 ****         5.8537  -0.6253  -3.7039 LP             1 S1                 0.0000
     67 ****        -5.3144  -3.2237   1.1487 LP             1 S1                 0.0000
     68 ****        -3.8399  -3.8834   0.9091 LP             1 S1                 0.0000
     69 ****        -5.7254  -0.1298   1.0349 LP             1 S1                 0.0000
     70 ****        -4.8841   0.9175   1.9633 LP             1 S1                 0.0000
@<TRIPOS>BOND
    1    1    2 1     
    2    1   30 1     
    3    1   31 1     
    4    1   32 1     
    5    2    3 1     
    6    2   33 1     
    7    2   34 1     
    8    3   29 1     
    9    3    4 1     
   10    3   35 1     
   11    4    5 1     
   12    4   36 1     
   13    4   37 1     
   14    5    6 1     
   15    5   23 1     
   16    6   11 ar    
   17    6    7 ar    
   18    7    8 ar    
   19    8    9 ar    
   20    8   38 1     
   21    9   10 ar    
   22   10   14 1     
   23   10   11 ar    
   24   11   12 1     
   25   12   13 2     
   26   13   14 1     
   27   13   39 1     
   28   14   15 1     
   29   15   16 1     
   30   15   40 1     
   31   15   41 1     
   32   16   17 1     
   33   16   18 1     
   34   16   42 1     
   35   17   43 1     
   36   18   22 1     
   37   18   19 1     
   38   18   44 1     
   39   19   20 1     
   40   19   45 1     
   41   19   46 1     
   42   20   21 1     
   43   20   47 1     
   44   20   48 1     
   45   21   22 1     
   46   21   49 1     
   47   21   50 1     
   48   23   24 1     
   49   23   51 1     
   50   23   52 1     
   51   24   28 1     
   52   24   25 1     
   53   24   29 1     
   54   25   26 1     
   55   25   53 1     
   56   25   54 1     
   57   26   27 1     
   58   26   55 1     
   59   26   56 1     
   60   27   28 1     
   61   28   57 1     
   62   28   58 1     
   63    5   59 1     
   64    7   60 1     
   65    9   61 1     
   66   12   62 1     
   67   17   63 1     
   68   17   64 1     
   69   22   65 1     
   70   22   66 1     
   71   27   67 1     
   72   27   68 1     
   73   29   69 1     
   74   29   70 1     
@<TRIPOS>SUBSTRUCTURE
      1 S1             1
@<TRIPOS>SET
LONE_PAIRS      STATIC     ATOMS    <user>   **** ""
12 59 60 61 62 63 64 65 66 67 68 69 70
DONOR_HYDROGENS      STATIC     ATOMS    <user>   **** ""
1 43
ATOM$BLUE        STATIC     ATOMS    COLORGROUP SYSTEM
12 59 60 61 62 63 64 65 66 67 68 69 70
ATOM$RED        STATIC     ATOMS    COLORGROUP SYSTEM
1 43
