#       Name:                AV-unprocessed.smi:1996
#       Creating user name   scv26
#       Creation time:       Fri Mar 27 10:30:04 2020


#       File generated by GOLD software.
#

@<TRIPOS>MOLECULE
AV-unprocessed.smi:1996
    37    38     1
SMALL
NO_CHARGES


@<TRIPOS>ATOM
      1 ****        -1.9704   1.6310  -0.9339 O.2            1 S1                 0.0000
      2 ****        -2.4735   0.5125  -0.8244 C.2            1 S1                 0.0000
      3 ****        -1.7543  -0.6159  -0.7371 N.am           1 S1                 0.0000
      4 ****        -0.2976  -0.6824  -0.7428 C.3            1 S1                 0.0000
      5 ****         0.2864  -0.3435   0.6399 C.3            1 S1                 0.0000
      6 ****         1.8052  -0.3820   0.6640 C.2            1 S1                 0.0000
      7 ****         2.5431   0.7300   0.8488 C.2            1 S1                 0.0000
      8 ****         4.0616   0.7544   0.8695 C.3            1 S1                 0.0000
      9 ****         4.6779  -0.5482   0.3317 C.3            1 S1                 0.0000
     10 ****         3.9333  -1.7777   0.8667 C.3            1 S1                 0.0000
     11 ****         2.4470  -1.7508   0.4674 C.3            1 S1                 0.0000
     12 ****        -3.7920   0.2537  -0.7727 N.am           1 S1                 0.0000
     13 ****        -4.8726   1.1741  -0.8145 C.2            1 S1                 0.0000
     14 ****        -4.7157   2.5036  -0.9141 N.2            1 S1                 0.0000
     15 ****        -5.9339   3.1706  -0.9304 N.2            1 S1                 0.0000
     16 ****        -6.9600   2.3192  -0.8431 C.2            1 S1                 0.0000
     17 ****        -6.5385   0.6190  -0.7327 S.3            1 S1                 0.0000
     18 ****        -2.2488  -1.4921  -0.6524 H              1 S1                 0.0000
     19 ****        -0.0132  -1.6928  -1.0370 H              1 S1                 0.0000
     20 ****         0.1053  -0.0113  -1.5035 H              1 S1                 0.0000
     21 ****        -0.0491   0.6481   0.9468 H              1 S1                 0.0000
     22 ****        -0.0927  -1.0392   1.3894 H              1 S1                 0.0000
     23 ****         2.0530   1.6804   1.0032 H              1 S1                 0.0000
     24 ****         4.4156   1.6021   0.2824 H              1 S1                 0.0000
     25 ****         4.3809   0.9254   1.8980 H              1 S1                 0.0000
     26 ****         4.6326  -0.5496  -0.7581 H              1 S1                 0.0000
     27 ****         5.7342  -0.5978   0.5970 H              1 S1                 0.0000
     28 ****         4.3999  -2.6928   0.5010 H              1 S1                 0.0000
     29 ****         4.0177  -1.8017   1.9540 H              1 S1                 0.0000
     30 ****         1.9019  -2.4967   1.0469 H              1 S1                 0.0000
     31 ****         2.3435  -2.0288  -0.5819 H              1 S1                 0.0000
     32 ****        -4.0543  -0.7170  -0.6854 H              1 S1                 0.0000
     33 ****        -7.9723   2.6954  -0.8437 H              1 S1                 0.0000
     34 ****        -0.9758   1.7314  -0.9616 LP             1 S1                 0.0000
     35 ****        -2.5564   2.4390  -0.9950 LP             1 S1                 0.0000
     36 ****        -3.8274   2.9595  -0.9699 LP             1 S1                 0.0000
     37 ****        -6.0309   4.1636  -0.9989 LP             1 S1                 0.0000
@<TRIPOS>BOND
    1    1    2 2     
    2    2    3 am    
    3    2   12 am    
    4    3    4 1     
    5    3   18 1     
    6    4    5 1     
    7    4   19 1     
    8    4   20 1     
    9    5    6 1     
   10    5   21 1     
   11    5   22 1     
   12    6   11 1     
   13    6    7 2     
   14    7    8 1     
   15    7   23 1     
   16    8    9 1     
   17    8   24 1     
   18    8   25 1     
   19    9   10 1     
   20    9   26 1     
   21    9   27 1     
   22   10   11 1     
   23   10   28 1     
   24   10   29 1     
   25   11   30 1     
   26   11   31 1     
   27   12   13 1     
   28   12   32 1     
   29   13   17 1     
   30   13   14 2     
   31   14   15 1     
   32   15   16 2     
   33   16   17 1     
   34   16   33 1     
   35    1   34 1     
   36    1   35 1     
   37   14   36 1     
   38   15   37 1     
@<TRIPOS>SUBSTRUCTURE
      1 S1             1
@<TRIPOS>SET
LONE_PAIRS      STATIC     ATOMS    <user>   **** ""
4 34 35 36 37
DONOR_HYDROGENS      STATIC     ATOMS    <user>   **** ""
2 18 32
ATOM$BLUE        STATIC     ATOMS    COLORGROUP SYSTEM
4 34 35 36 37
ATOM$RED        STATIC     ATOMS    COLORGROUP SYSTEM
2 18 32
