AV-unprocessed.smi:1047|AV-procd|sdf|4587|dock10
  -GOLD-   22720 3 63D 1   1.00000     0.00000
 Structure written by MMmdl.
 58 60  0  0  0  0  0  0  0  0  4 V2000
  142.9006  136.8343  155.2992 C   0  0  0  0  0  0  0  0  0  0  0  0
  142.9035  138.2067  154.6113 C   0  0  0  0  0  0  0  0  0  0  0  0
  144.0850  138.4026  153.7342 N   0  3  2  0  0  0  0  0  0  0  0  0
  144.1906  137.3975  152.6479 C   0  0  0  0  0  0  0  0  0  0  0  0
  145.4244  137.6771  151.7740 C   0  0  0  0  0  0  0  0  0  0  0  0
  146.5926  137.7017  152.5860 O   0  0  0  0  0  0  0  0  0  0  0  0
  146.5476  138.7328  153.5670 C   0  0  2  0  0  0  0  0  0  0  0  0
  147.8816  138.7290  154.3297 C   0  0  0  0  0  0  0  0  0  0  0  0
  149.0299  138.6336  153.4060 N   0  3  0  0  0  0  0  0  0  0  0  0
  150.2369  139.3483  153.8686 C   0  0  0  0  0  0  0  0  0  0  0  0
  150.8147  138.7018  155.1420 C   0  0  1  0  0  0  0  0  0  0  0  0
  151.3700  137.4469  154.8049 O   0  0  0  0  0  0  0  0  0  0  0  0
  151.9201  139.5306  155.8267 C   0  0  0  0  0  0  0  0  0  0  0  0
  151.4281  140.7973  156.3866 N   0  0  0  0  0  0  0  0  0  0  0  0
  150.5543  141.6953  155.8550 C   0  0  0  0  0  0  0  0  0  0  0  0
  150.4034  142.7052  156.7554 N   0  3  0  0  0  0  0  0  0  0  0  0
  151.1875  142.4473  157.8813 C   0  0  0  0  0  0  0  0  0  0  0  0
  151.3641  143.1752  159.0517 C   0  0  0  0  0  0  0  0  0  0  0  0
  152.2412  142.6373  160.0200 C   0  0  0  0  0  0  0  0  0  0  0  0
  152.4549  143.4070  161.3122 C   0  0  0  0  0  0  0  0  0  0  0  0
  152.9087  141.4055  159.7958 C   0  0  0  0  0  0  0  0  0  0  0  0
  153.8508  140.8369  160.8437 C   0  0  0  0  0  0  0  0  0  0  0  0
  152.7154  140.6795  158.5987 C   0  0  0  0  0  0  0  0  0  0  0  0
  151.8467  141.2230  157.6541 C   0  0  0  0  0  0  0  0  0  0  0  0
  145.3516  138.4659  154.5027 C   0  0  0  0  0  0  0  0  0  0  0  0
  141.9751  136.6883  155.8566 H   0  0  0  0  0  0  0  0  0  0  0  0
  143.7220  136.7294  156.0072 H   0  0  0  0  0  0  0  0  0  0  0  0
  142.9767  136.0270  154.5704 H   0  0  0  0  0  0  0  0  0  0  0  0
  141.9974  138.2789  154.0084 H   0  0  0  0  0  0  0  0  0  0  0  0
  142.8472  139.0071  155.3504 H   0  0  0  0  0  0  0  0  0  0  0  0
  144.2593  136.3974  153.0789 H   0  0  0  0  0  0  0  0  0  0  0  0
  143.2982  137.4157  152.0231 H   0  0  0  0  0  0  0  0  0  0  0  0
  145.5346  136.8965  151.0209 H   0  0  0  0  0  0  0  0  0  0  0  0
  145.3175  138.6220  151.2390 H   0  0  0  0  0  0  0  0  0  0  0  0
  146.4171  139.7006  153.0785 H   0  0  0  0  0  0  0  0  0  0  0  0
  147.9791  139.6503  154.9058 H   0  0  0  0  0  0  0  0  0  0  0  0
  147.9097  137.9018  155.0405 H   0  0  0  0  0  0  0  0  0  0  0  0
  149.2629  137.6587  153.2793 H   0  0  0  0  0  0  0  0  0  0  0  0
  150.9861  139.3644  153.0757 H   0  0  0  0  0  0  0  0  0  0  0  0
  149.9552  140.3831  154.0647 H   0  0  0  0  0  0  0  0  0  0  0  0
  150.0083  138.5315  155.8569 H   0  0  0  0  0  0  0  0  0  0  0  0
  151.7894  137.0826  155.5701 H   0  0  0  0  0  0  0  0  0  0  0  0
  152.3455  138.9645  156.6567 H   0  0  0  0  0  0  0  0  0  0  0  0
  152.7462  139.7314  155.1445 H   0  0  0  0  0  0  0  0  0  0  0  0
  150.0661  141.6194  154.8938 H   0  0  0  0  0  0  0  0  0  0  0  0
  150.8519  144.1125  159.2155 H   0  0  0  0  0  0  0  0  0  0  0  0
  152.1471  142.8085  162.1697 H   0  0  0  0  0  0  0  0  0  0  0  0
  151.8761  144.3312  161.3266 H   0  0  0  0  0  0  0  0  0  0  0  0
  153.5059  143.6706  161.4323 H   0  0  0  0  0  0  0  0  0  0  0  0
  154.2787  139.8865  160.5230 H   0  0  0  0  0  0  0  0  0  0  0  0
  153.3217  140.6639  161.7813 H   0  0  0  0  0  0  0  0  0  0  0  0
  154.6746  141.5259  161.0328 H   0  0  0  0  0  0  0  0  0  0  0  0
  153.2257  139.7424  158.4339 H   0  0  0  0  0  0  0  0  0  0  0  0
  145.2861  139.2590  155.2491 H   0  0  0  0  0  0  0  0  0  0  0  0
  145.4966  137.5287  155.0429 H   0  0  0  0  0  0  0  0  0  0  0  0
  148.7612  139.0176  152.5108 H   0  0  0  0  0  0  0  0  0  0  0  0
  143.9711  139.3050  153.2947 H   0  0  0  0  0  0  0  0  0  0  0  0
  149.8038  143.5081  156.6120 H   0  0  0  0  0  0  0  0  0  0  0  0
  1  2  1  0  0  0  0
  1 26  1  0  0  0  0
  1 27  1  0  0  0  0
  1 28  1  0  0  0  0
  2  3  1  0  0  0  0
  2 29  1  0  0  0  0
  2 30  1  0  0  0  0
  3 25  1  0  0  0  0
  3  4  1  0  0  0  0
  3 57  1  0  0  0  0
  4  5  1  0  0  0  0
  4 31  1  0  0  0  0
  4 32  1  0  0  0  0
  5  6  1  0  0  0  0
  5 33  1  0  0  0  0
  5 34  1  0  0  0  0
  6  7  1  0  0  0  0
  7  8  1  0  0  0  0
  7 25  1  0  0  0  0
  7 35  1  0  0  0  0
  8  9  1  0  0  0  0
  8 36  1  0  0  0  0
  8 37  1  0  0  0  0
  9 10  1  0  0  0  0
  9 38  1  0  0  0  0
  9 56  1  0  0  0  0
 10 11  1  0  0  0  0
 10 39  1  0  0  0  0
 10 40  1  0  0  0  0
 11 12  1  0  0  0  0
 11 13  1  0  0  0  0
 11 41  1  0  0  0  0
 12 42  1  0  0  0  0
 13 14  1  0  0  0  0
 13 43  1  0  0  0  0
 13 44  1  0  0  0  0
 14 24  1  0  0  0  0
 14 15  1  0  0  0  0
 15 16  2  0  0  0  0
 15 45  1  0  0  0  0
 16 17  1  0  0  0  0
 16 58  1  0  0  0  0
 17 24  2  0  0  0  0
 17 18  1  0  0  0  0
 18 19  2  0  0  0  0
 18 46  1  0  0  0  0
 19 20  1  0  0  0  0
 19 21  1  0  0  0  0
 20 47  1  0  0  0  0
 20 48  1  0  0  0  0
 20 49  1  0  0  0  0
 21 22  1  0  0  0  0
 21 23  2  0  0  0  0
 22 50  1  0  0  0  0
 22 51  1  0  0  0  0
 22 52  1  0  0  0  0
 23 24  1  0  0  0  0
 23 53  1  0  0  0  0
 25 54  1  0  0  0  0
 25 55  1  0  0  0  0
M  CHG  1   3   1
M  CHG  1   9   1
M  CHG  1  16   1
M  END
> <s_m_source_file>
AV-unprocessed.smi

> <i_m_source_file_index>
1047

> <i_lp_mmshare_version>
43012

> <i_f3d_flags>
0

> <s_epik_input>
W0NIM11bQ0gyXU4xW0NIMl1bQ0gyXU9bQ0BIXShbQ0gyXTEpW0NIMl1bTkhdW0NIMl1bQ0BIXShbT0hdKVtDSDJdbihbY0hdbjIpYyhjMjMpW2NIXWMoW0NIM10pYyhbY0hdMylbQ0gzXQ==

> <s_epik_cmdline>
J2VwaWtfcHl0aG9uJywgJy1waCcsICc3LjAnLCAnLXRuJywgJzgnLCAnLW1hJywgJzIwMCcsICctbWV0YWxfYmluZGluZycsICctaW1hZScsICc8aW5maWxlLm1hZT4nLCAnLW9tYWUnLCAnPG91dGZpbGUubWFlPic=

> <r_epik_Ionization_Penalty>
1.6114

> <r_epik_Ionization_Penalty_Charging>
1.61139

> <r_epik_Ionization_Penalty_Neutral>
5.04732e-06

> <r_epik_State_Penalty>
1.63724

> <r_epik_Charging_Adjusted_Penalty>
3.24864

> <i_epik_Tot_Q>
3

> <i_epik_Tot_abs_Q>
3

> <r_epik_Metal_State_Penalty>
5.64594

> <b_epik_Metal_Only>
0

> <s_lp_Force_Field>
OPLS_2005

> <r_lp_Energy>
41.4775

> <b_lp_Chiralities_Consistent>
1

> <s_lp_Variant>
AV-unprocessed.smi:1047-28

> <Gold.Version>
5.8.1

> <Gold.Id.Protein>
6NUR|6NUR_protein|mol2

> <Gold.PLP.Fitness>
59.0239

> <Gold.PLP.PLP>
-41.9240

> <Gold.PLP.part.hbond>
-4.0000

> <Gold.PLP.part.metal>
0.0000

> <Gold.PLP.part.buried>
-1.5164

> <Gold.PLP.part.nonpolar>
-36.7265

> <Gold.PLP.part.repulsive>
1.8416

> <Gold.PLP.ligand.clash>
0.0000

> <Gold.PLP.ligand.torsion>
0.6482

> <Gold.PLP.Chemscore.Hbond>
6.0741

> <Gold.PLP.Chemscore.CHOScore>
0.0000

> <Gold.PLP.Chemscore.Metal>
0.0000

> <Gold.Chemscore.Hbonds>
donor molecule, donor type, donor heavy atom, donor atom, acceptor molecule, acceptor atom, score
      L1  H     3    57       P1 10175  1.56
      L1  H     9    38       P1  7948  1.47
      L1  H     9    56       P1  7957  0.74
      L1  H    16    58       P1  8028  2.00

> <Gold.PLP.Chemscore.Internal.Correction>
0.1739

> <Gold.Rescore>
     Score         DG    S(hbond)    S(metal)    S(lipo)     H(rot)  DE(clash)    DE(int)     intcor
     19.31     -20.35       2.65        0.00     112.36       2.78       0.41       0.63       ----

> <Gold.Chemscore.Fitness>
19.3132

> <Gold.Chemscore.DG>
-20.3548

> <Gold.Chemscore.ZeroCoef>
-5.4800

> <Gold.Chemscore.Hbond>
2.6522

> <Gold.Chemscore.Metal>
0.0000

> <Gold.Chemscore.Lipo>
112.3558

> <Gold.Chemscore.Internal_Hbond>
0.0000

> <Gold.Chemscore.DEClash>
0.4075

> <Gold.Chemscore.DEInternal>
0.6341

> <Gold.Chemscore.Rot>
2.7848

> <Gold.Chemscore.Internal.Correction>
   9.000000E+99

> <Gold.Chemscore.Hbonds>
donor molecule, donor type, donor heavy atom, donor atom, acceptor molecule, acceptor atom, score
      L1  H     3    57       P1 10175  0.77
      L1  H     9    38       P1  7948  0.69
      L1  H     9    56       P1  7957  0.74
      L1  H    16    58       P1  8028  0.99

> <Gold.Chemscore.Hbond.Weighted>
-8.8583

> <Gold.Chemscore.Metal.Weighted>
-0.0000

> <Gold.Chemscore.Lipo.Weighted>
-13.1456

> <Gold.Chemscore.Internal_Hbond.Weighted>
0.0000

> <Gold.Chemscore.DEClash.Weighted>
0.4075

> <Gold.Chemscore.DEInternal.Weighted>
0.6341

> <Gold.Chemscore.Rot.Weighted>
7.1291

> <Gold.Chemscore.Internal.Correction.Weighted>
   9.000000E+99

> <Gold.Protein.RotatedTorsions>
[ 6907 6896 6895 6894 ] final   79.81 input  -60.11 | X-H torsion
[ 7974 7965 7964 7962 ] final  169.50 input  175.53 | X-H torsion
[ 8008 7997 7996 7995 ] final  154.49 input   59.86 | X-H torsion
[ 10167 10162 10161 10158 ] final  -54.26 input  -65.29 | X-H torsion
[ 10718 10713 10712 10709 ] final   96.30 input   66.30 | X-H torsion
[ 10763 10752 10751 10750 ] final  171.42 input  -60.55 | X-H torsion
[ 11005 11000 10999 10996 ] final    3.77 input  -57.11 | X-H torsion

> <Gold.Protein.ActiveResidues>
 VAL166  LYS551  ARG553  GLY616  TRP617  ASP618  TYR619  PRO620  LYS621  CYS622 
 ASP623  PHE694  ASN695  SER759  ASP760  ASP761  ALA762  ILE779  LEU786  VAL792 
 PHE793  MET794  SER795  GLU796  ALA797  LYS798  CYS799  TRP800  GLU811  SER814 

> <Gold.Protein.RotatedAtoms>
  152.5212  134.3454  159.9231 H   0  0  0  0  0  0  0  0  0  0  0  0  # atno 6907 bound_to 6896
  151.3404  133.3958  159.2678 H   0  0  0  0  0  0  0  0  0  0  0  0  # atno 6908 bound_to 6896
  150.9808  134.9181  159.7901 H   0  0  0  0  0  0  0  0  0  0  0  0  # atno 6909 bound_to 6896
  144.7353  139.9063  143.6412 H   0  0  0  0  0  0  0  0  0  0  0  0  # atno 7974 bound_to 7965
  156.2528  140.1965  156.6654 H   0  0  0  0  0  0  0  0  0  0  0  0  # atno 8008 bound_to 7997
  154.6433  140.0581  156.9896 H   0  0  0  0  0  0  0  0  0  0  0  0  # atno 8009 bound_to 7997
  155.1530  140.3253  155.4430 H   0  0  0  0  0  0  0  0  0  0  0  0  # atno 8010 bound_to 7997
  140.6440  143.2524  151.4910 H   0  0  0  0  0  0  0  0  0  0  0  0  # atno 10167 bound_to 10162
  157.6928  131.0573  150.4470 H   0  0  0  0  0  0  0  0  0  0  0  0  # atno 10718 bound_to 10713
  154.4116  135.2756  155.2033 H   0  0  0  0  0  0  0  0  0  0  0  0  # atno 10763 bound_to 10752
  154.4016  135.6043  153.5904 H   0  0  0  0  0  0  0  0  0  0  0  0  # atno 10764 bound_to 10752
  152.9831  135.5928  154.4399 H   0  0  0  0  0  0  0  0  0  0  0  0  # atno 10765 bound_to 10752
  140.5894  133.9938  155.8082 H   0  0  0  0  0  0  0  0  0  0  0  0  # atno 11005 bound_to 11000
  146.1034  139.4032  143.0332 LP  0  0  0  0  0  0  0  0  0  0  0  0  # atno 17320 bound_to 7965
  145.7546  140.9959  143.1232 LP  0  0  0  0  0  0  0  0  0  0  0  0  # atno 17321 bound_to 7965
  139.5650  144.2064  152.1751 LP  0  0  0  0  0  0  0  0  0  0  0  0  # atno 17342 bound_to 10162
  140.1343  144.5260  150.6783 LP  0  0  0  0  0  0  0  0  0  0  0  0  # atno 17343 bound_to 10162
  156.4824  130.4077  149.6453 LP  0  0  0  0  0  0  0  0  0  0  0  0  # atno 17370 bound_to 10713
  156.3494  130.7424  151.2381 LP  0  0  0  0  0  0  0  0  0  0  0  0  # atno 17371 bound_to 10713
  141.0945  133.9865  157.3183 LP  0  0  0  0  0  0  0  0  0  0  0  0  # atno 17394 bound_to 11000
  139.9281  135.0201  156.8305 LP  0  0  0  0  0  0  0  0  0  0  0  0  # atno 17395 bound_to 11000

$$$$
