AV-unprocessed.smi:1553|AV-procd|sdf|6238|dock3
  -GOLD-   22720 6423D 1   1.00000     0.00000
 Structure written by MMmdl.
 37 38  0  0  0  0  0  0  0  0  1 V2000
  145.2648  143.0442  156.0669 C   0  0  0  0  0  0  0  0  0  0  0  0
  146.4366  142.4132  155.3973 C   0  0  0  0  0  0  0  0  0  0  0  0
  147.4456  141.8406  156.0584 N   0  0  0  0  0  0  0  0  0  0  0  0
  148.4311  141.3375  155.2040 C   0  0  0  0  0  0  0  0  0  0  0  0
  149.6740  140.7171  155.7752 C   0  0  0  0  0  0  0  0  0  0  0  0
  149.7204  140.7396  157.3168 C   0  0  0  0  0  0  0  0  0  0  0  0
  150.6522  141.7478  157.8197 N   0  0  0  0  0  0  0  0  0  0  0  0
  151.6623  141.5258  158.6814 C   0  0  0  0  0  0  0  0  0  0  0  0
  151.9593  140.3868  159.0397 O   0  0  0  0  0  0  0  0  0  0  0  0
  152.2217  142.6599  159.1873 N   0  0  0  0  0  0  0  0  0  0  0  0
  151.9541  144.0141  158.6727 C   0  0  0  0  0  0  0  0  0  0  0  0
  151.1388  144.7742  159.7310 C   0  0  0  0  0  0  0  0  0  0  0  0
  151.8937  144.8432  160.9369 O   0  0  0  0  0  0  0  0  0  0  0  0
  152.2580  143.5629  161.4478 C   0  0  0  0  0  0  0  0  0  0  0  0
  153.0715  142.7752  160.3966 C   0  0  1  0  0  0  0  0  0  0  0  0
  153.6157  141.4693  161.0123 C   0  0  0  0  0  0  0  0  0  0  0  0
  148.1382  141.5171  153.8746 C   0  0  0  0  0  0  0  0  0  0  0  0
  146.6280  142.3541  153.6498 S   0  0  0  0  0  0  0  0  0  0  0  0
  145.4317  143.1208  157.1418 H   0  0  0  0  0  0  0  0  0  0  0  0
  144.3702  142.4466  155.8923 H   0  0  0  0  0  0  0  0  0  0  0  0
  145.1024  144.0453  155.6673 H   0  0  0  0  0  0  0  0  0  0  0  0
  149.7691  139.6872  155.4297 H   0  0  0  0  0  0  0  0  0  0  0  0
  150.5510  141.2375  155.3889 H   0  0  0  0  0  0  0  0  0  0  0  0
  148.7189  140.9077  157.7160 H   0  0  0  0  0  0  0  0  0  0  0  0
  150.0331  139.7642  157.6891 H   0  0  0  0  0  0  0  0  0  0  0  0
  150.4531  142.7063  157.5735 H   0  0  0  0  0  0  0  0  0  0  0  0
  152.8977  144.5305  158.4902 H   0  0  0  0  0  0  0  0  0  0  0  0
  151.4370  144.0321  157.7130 H   0  0  0  0  0  0  0  0  0  0  0  0
  150.9245  145.7871  159.3901 H   0  0  0  0  0  0  0  0  0  0  0  0
  150.1805  144.2852  159.9140 H   0  0  0  0  0  0  0  0  0  0  0  0
  152.8473  143.7121  162.3529 H   0  0  0  0  0  0  0  0  0  0  0  0
  151.3616  143.0130  161.7392 H   0  0  0  0  0  0  0  0  0  0  0  0
  153.9480  143.3679  160.1297 H   0  0  0  0  0  0  0  0  0  0  0  0
  154.2626  141.6879  161.8622 H   0  0  0  0  0  0  0  0  0  0  0  0
  154.2143  140.9072  160.2951 H   0  0  0  0  0  0  0  0  0  0  0  0
  152.8145  140.8262  161.3787 H   0  0  0  0  0  0  0  0  0  0  0  0
  148.7291  141.2305  153.0175 H   0  0  0  0  0  0  0  0  0  0  0  0
  1  2  1  0  0  0  0
  1 19  1  0  0  0  0
  1 20  1  0  0  0  0
  1 21  1  0  0  0  0
  2 18  1  0  0  0  0
  2  3  2  0  0  0  0
  3  4  1  0  0  0  0
  4  5  1  0  0  0  0
  4 17  2  0  0  0  0
  5  6  1  0  0  0  0
  5 22  1  0  0  0  0
  5 23  1  0  0  0  0
  6  7  1  0  0  0  0
  6 24  1  0  0  0  0
  6 25  1  0  0  0  0
  7  8  1  0  0  0  0
  7 26  1  0  0  0  0
  8  9  2  0  0  0  0
  8 10  1  0  0  0  0
 10 15  1  0  0  0  0
 10 11  1  0  0  0  0
 11 12  1  0  0  0  0
 11 27  1  0  0  0  0
 11 28  1  0  0  0  0
 12 13  1  0  0  0  0
 12 29  1  0  0  0  0
 12 30  1  0  0  0  0
 13 14  1  0  0  0  0
 14 15  1  0  0  0  0
 14 31  1  0  0  0  0
 14 32  1  0  0  0  0
 15 16  1  0  0  0  0
 15 33  1  0  0  0  0
 16 34  1  0  0  0  0
 16 35  1  0  0  0  0
 16 36  1  0  0  0  0
 17 18  1  0  0  0  0
 17 37  1  0  0  0  0
M  END
> <s_m_source_file>
AV-unprocessed.smi

> <i_m_source_file_index>
1553

> <i_lp_mmshare_version>
43012

> <i_f3d_flags>
0

> <s_epik_input>
W0NIM11jMW5jKFtjSF1zMSlbQ0gyXVtDSDJdW05IXUMoPU8pTjJbQ0gyXVtDSDJdT1tDSDJdW0NASF0yW0NIM10=

> <s_epik_cmdline>
J2VwaWtfcHl0aG9uJywgJy1waCcsICc3LjAnLCAnLXRuJywgJzgnLCAnLW1hJywgJzIwMCcsICctbWV0YWxfYmluZGluZycsICctaW1hZScsICc8aW5maWxlLm1hZT4nLCAnLW9tYWUnLCAnPG91dGZpbGUubWFlPic=

> <r_epik_Ionization_Penalty>
0.0020768

> <r_epik_Ionization_Penalty_Charging>
0

> <r_epik_Ionization_Penalty_Neutral>
0.0020768

> <r_epik_State_Penalty>
0.00139904

> <r_epik_Charging_Adjusted_Penalty>
0.00139904

> <i_epik_Tot_Q>
0

> <i_epik_Tot_abs_Q>
0

> <r_epik_Metal_State_Penalty>
-0

> <b_epik_Metal_Only>
0

> <s_lp_Force_Field>
OPLS_2005

> <r_lp_Energy>
28.2448

> <b_lp_Chiralities_Consistent>
1

> <s_lp_Variant>
AV-unprocessed.smi:1553-1

> <Gold.Version>
5.8.1

> <Gold.Id.Protein>
6NUR|6NUR_protein|mol2

> <Gold.PLP.Fitness>
42.3167

> <Gold.PLP.PLP>
-40.0229

> <Gold.PLP.part.hbond>
0.0000

> <Gold.PLP.part.metal>
0.0000

> <Gold.PLP.part.buried>
-6.8834

> <Gold.PLP.part.nonpolar>
-34.5924

> <Gold.PLP.part.repulsive>
0.3872

> <Gold.PLP.ligand.clash>
0.0237

> <Gold.PLP.ligand.torsion>
0.4156

> <Gold.PLP.Chemscore.Hbond>
0.0000

> <Gold.PLP.Chemscore.CHOScore>
1.0000

> <Gold.PLP.Chemscore.Metal>
0.0000

> <Gold.Chemscore.Hbonds>
donor molecule, donor type, donor heavy atom, donor atom, acceptor molecule, acceptor atom, score
      L1  C    17    37       P1  7957  1.00

> <Gold.PLP.Chemscore.Internal.Correction>
0.1488

> <Gold.Rescore>
     Score         DG    S(hbond)    S(metal)    S(lipo)     H(rot)  DE(clash)    DE(int)     intcor
     11.63     -13.46       0.00        0.00      97.34       1.33       0.03       1.80       ----

> <Gold.Chemscore.Fitness>
11.6261

> <Gold.Chemscore.DG>
-13.4579

> <Gold.Chemscore.ZeroCoef>
-5.4800

> <Gold.Chemscore.Hbond>
0.0000

> <Gold.Chemscore.Metal>
0.0000

> <Gold.Chemscore.Lipo>
97.3416

> <Gold.Chemscore.Internal_Hbond>
0.0000

> <Gold.Chemscore.DEClash>
0.0291

> <Gold.Chemscore.DEInternal>
1.8027

> <Gold.Chemscore.Rot>
1.3325

> <Gold.Chemscore.Internal.Correction>
   9.000000E+99

> <Gold.Chemscore.Hbond.Weighted>
-0.0000

> <Gold.Chemscore.Metal.Weighted>
-0.0000

> <Gold.Chemscore.Lipo.Weighted>
-11.3890

> <Gold.Chemscore.Internal_Hbond.Weighted>
0.0000

> <Gold.Chemscore.DEClash.Weighted>
0.0291

> <Gold.Chemscore.DEInternal.Weighted>
1.8027

> <Gold.Chemscore.Rot.Weighted>
3.4111

> <Gold.Chemscore.Internal.Correction.Weighted>
   9.000000E+99

> <Gold.Protein.RotatedTorsions>
[ 6907 6896 6895 6894 ] final  -34.88 input  -60.11 | X-H torsion
[ 7974 7965 7964 7962 ] final   22.19 input  175.53 | X-H torsion
[ 8008 7997 7996 7995 ] final  -75.76 input   59.86 | X-H torsion
[ 10167 10162 10161 10158 ] final  117.39 input  -65.29 | X-H torsion
[ 10718 10713 10712 10709 ] final    2.75 input   66.30 | X-H torsion
[ 10763 10752 10751 10750 ] final  -24.87 input  -60.55 | X-H torsion
[ 11005 11000 10999 10996 ] final  103.85 input  -57.11 | X-H torsion

> <Gold.Protein.ActiveResidues>
 VAL166  LYS551  ARG553  GLY616  TRP617  ASP618  TYR619  PRO620  LYS621  CYS622 
 ASP623  PHE694  ASN695  SER759  ASP760  ASP761  ALA762  ILE779  LEU786  VAL792 
 PHE793  MET794  SER795  GLU796  ALA797  LYS798  CYS799  TRP800  GLU811  SER814 

> <Gold.Protein.RotatedAtoms>
  151.0470  134.9647  159.8191 H   0  0  0  0  0  0  0  0  0  0  0  0  # atno 6907 bound_to 6896
  152.5374  134.2585  159.8936 H   0  0  0  0  0  0  0  0  0  0  0  0  # atno 6908 bound_to 6896
  151.2600  133.4264  159.2649 H   0  0  0  0  0  0  0  0  0  0  0  0  # atno 6909 bound_to 6896
  146.2040  139.7921  142.8740 H   0  0  0  0  0  0  0  0  0  0  0  0  # atno 7974 bound_to 7965
  154.5445  140.0738  156.8566 H   0  0  0  0  0  0  0  0  0  0  0  0  # atno 8008 bound_to 7997
  155.3114  140.3390  155.4225 H   0  0  0  0  0  0  0  0  0  0  0  0  # atno 8009 bound_to 7997
  156.1906  140.1684  156.8086 H   0  0  0  0  0  0  0  0  0  0  0  0  # atno 8010 bound_to 7997
  139.6182  144.7096  151.2693 H   0  0  0  0  0  0  0  0  0  0  0  0  # atno 10167 bound_to 10162
  156.8676  130.5609  149.5659 H   0  0  0  0  0  0  0  0  0  0  0  0  # atno 10718 bound_to 10713
  153.6908  135.6962  153.5090 H   0  0  0  0  0  0  0  0  0  0  0  0  # atno 10763 bound_to 10752
  153.2415  135.4304  155.0702 H   0  0  0  0  0  0  0  0  0  0  0  0  # atno 10764 bound_to 10752
  154.8373  135.3509  154.6449 H   0  0  0  0  0  0  0  0  0  0  0  0  # atno 10765 bound_to 10752
  139.8787  134.9278  156.5272 H   0  0  0  0  0  0  0  0  0  0  0  0  # atno 11005 bound_to 11000
  145.3386  141.0283  143.3405 LP  0  0  0  0  0  0  0  0  0  0  0  0  # atno 17320 bound_to 7965
  144.8748  139.4987  143.6751 LP  0  0  0  0  0  0  0  0  0  0  0  0  # atno 17321 bound_to 7965
  140.7365  143.6706  150.8085 LP  0  0  0  0  0  0  0  0  0  0  0  0  # atno 17342 bound_to 10162
  140.0313  143.5441  152.2759 LP  0  0  0  0  0  0  0  0  0  0  0  0  # atno 17343 bound_to 10162
  156.0743  130.5769  150.9444 LP  0  0  0  0  0  0  0  0  0  0  0  0  # atno 17370 bound_to 10713
  157.6214  131.0929  150.8615 LP  0  0  0  0  0  0  0  0  0  0  0  0  # atno 17371 bound_to 10713
  140.8407  133.8207  155.9072 LP  0  0  0  0  0  0  0  0  0  0  0  0  # atno 17394 bound_to 11000
  140.9240  134.2106  157.4908 LP  0  0  0  0  0  0  0  0  0  0  0  0  # atno 17395 bound_to 11000

$$$$
