AV-unprocessed.smi:2243|AV-procd|sdf|9067|dock3
  -GOLD-   2272012273D 1   1.00000     0.00000
 Structure written by MMmdl.
 34 35  0  0  0  0  0  0  0  0  1 V2000
  150.5967  140.0205  158.3988 C   0  0  0  0  0  0  0  0  0  0  0  0
  151.3519  141.1742  157.7172 C   0  0  1  0  0  0  0  0  0  0  0  0
  150.7720  141.3676  156.3871 N   0  0  0  0  0  0  0  0  0  0  0  0
  150.6632  140.4432  155.4196 C   0  0  0  0  0  0  0  0  0  0  0  0
  151.0688  139.2874  155.5765 O   0  0  0  0  0  0  0  0  0  0  0  0
  150.0604  141.0025  154.3022 N   0  0  0  0  0  0  0  0  0  0  0  0
  148.7945  141.2844  154.3261 C   0  0  0  0  0  0  0  0  0  0  0  0
  148.0329  141.8397  153.3101 N   0  0  0  0  0  0  0  0  0  0  0  0
  146.7482  141.9656  153.7611 C   0  0  0  0  0  0  0  0  0  0  0  0
  146.7011  141.5097  155.0094 C   0  0  0  0  0  0  0  0  0  0  0  0
  147.9394  141.0846  155.3856 O   0  0  0  0  0  0  0  0  0  0  0  0
  151.3100  142.4984  158.5258 C   0  0  0  0  0  0  0  0  0  0  0  0
  151.8158  143.7093  157.7118 C   0  0  0  0  0  0  0  0  0  0  0  0
  151.8315  144.9888  158.5635 C   0  0  0  0  0  0  0  0  0  0  0  0
  152.6318  144.7940  159.7228 O   0  0  0  0  0  0  0  0  0  0  0  0
  152.1269  143.7698  160.5701 C   0  0  0  0  0  0  0  0  0  0  0  0
  152.1313  142.4230  159.8289 C   0  0  0  0  0  0  0  0  0  0  0  0
  151.0679  139.7257  159.3359 H   0  0  0  0  0  0  0  0  0  0  0  0
  150.5804  139.1352  157.7622 H   0  0  0  0  0  0  0  0  0  0  0  0
  149.5630  140.2937  158.6131 H   0  0  0  0  0  0  0  0  0  0  0  0
  152.3956  140.8689  157.6264 H   0  0  0  0  0  0  0  0  0  0  0  0
  150.4175  142.2912  156.1847 H   0  0  0  0  0  0  0  0  0  0  0  0
  148.3300  142.1176  152.3859 H   0  0  0  0  0  0  0  0  0  0  0  0
  145.9829  142.3800  153.1216 H   0  0  0  0  0  0  0  0  0  0  0  0
  145.9016  141.4238  155.7301 H   0  0  0  0  0  0  0  0  0  0  0  0
  150.2714  142.6945  158.7976 H   0  0  0  0  0  0  0  0  0  0  0  0
  152.8219  143.5100  157.3404 H   0  0  0  0  0  0  0  0  0  0  0  0
  151.1894  143.8774  156.8356 H   0  0  0  0  0  0  0  0  0  0  0  0
  152.2460  145.8153  157.9863 H   0  0  0  0  0  0  0  0  0  0  0  0
  150.8194  145.2783  158.8503 H   0  0  0  0  0  0  0  0  0  0  0  0
  152.7548  143.7090  161.4589 H   0  0  0  0  0  0  0  0  0  0  0  0
  151.1213  144.0246  160.9087 H   0  0  0  0  0  0  0  0  0  0  0  0
  151.7339  141.6569  160.4939 H   0  0  0  0  0  0  0  0  0  0  0  0
  153.1596  142.1382  159.6022 H   0  0  0  0  0  0  0  0  0  0  0  0
  1  2  1  0  0  0  0
  1 18  1  0  0  0  0
  1 19  1  0  0  0  0
  1 20  1  0  0  0  0
  2  3  1  0  0  0  0
  2 12  1  0  0  0  0
  2 21  1  0  0  0  0
  3 22  1  0  0  0  0
  3  4  1  0  0  0  0
  4  6  1  0  0  0  0
  4  5  2  0  0  0  0
  6  7  2  0  0  0  0
  7 11  1  0  0  0  0
  7  8  1  0  0  0  0
  8 23  1  0  0  0  0
  8  9  1  0  0  0  0
  9 24  1  0  0  0  0
  9 10  2  0  0  0  0
 10 25  1  0  0  0  0
 10 11  1  0  0  0  0
 12 17  1  0  0  0  0
 12 13  1  0  0  0  0
 12 26  1  0  0  0  0
 13 14  1  0  0  0  0
 13 27  1  0  0  0  0
 13 28  1  0  0  0  0
 14 15  1  0  0  0  0
 14 29  1  0  0  0  0
 14 30  1  0  0  0  0
 15 16  1  0  0  0  0
 16 17  1  0  0  0  0
 16 31  1  0  0  0  0
 16 32  1  0  0  0  0
 17 33  1  0  0  0  0
 17 34  1  0  0  0  0
M  END
> <s_m_source_file>
AV-unprocessed.smi

> <i_m_source_file_index>
2243

> <i_lp_mmshare_version>
43012

> <i_f3d_flags>
0

> <s_epik_input>
W0NIMl0xW0NIMl1PW0NIMl1bQ0gyXVtDSF0xW0NASF0oW0NIM10pW05IXUMoPU8pW05IXWMybltjSF1bY0hdbzI=

> <s_epik_cmdline>
J2VwaWtfcHl0aG9uJywgJy1waCcsICc3LjAnLCAnLXRuJywgJzgnLCAnLW1hJywgJzIwMCcsICctbWV0YWxfYmluZGluZycsICctaW1hZScsICc8aW5maWxlLm1hZT4nLCAnLW9tYWUnLCAnPG91dGZpbGUubWFlPic=

> <r_lp_tautomer_probability>
0.107061

> <r_epik_Ionization_Penalty>
1.44639

> <r_epik_Ionization_Penalty_Charging>
1.44602

> <r_epik_Ionization_Penalty_Neutral>
0.000368208

> <r_epik_State_Penalty>
2.61815

> <r_epik_Charging_Adjusted_Penalty>
4.06418

> <i_epik_Tot_Q>
0

> <i_epik_Tot_abs_Q>
0

> <r_epik_Metal_State_Penalty>
3.54171

> <b_epik_Metal_Only>
0

> <s_lp_Force_Field>
OPLS_2005

> <r_lp_Energy>
34.6671

> <b_lp_Chiralities_Consistent>
1

> <s_lp_Variant>
AV-unprocessed.smi:2243-6

> <Gold.Version>
5.8.1

> <Gold.Id.Protein>
6NUR|6NUR_protein|mol2

> <Gold.PLP.Fitness>
37.5634

> <Gold.PLP.PLP>
-31.3959

> <Gold.PLP.part.hbond>
-2.0000

> <Gold.PLP.part.metal>
0.0000

> <Gold.PLP.part.buried>
-7.0648

> <Gold.PLP.part.nonpolar>
-23.4982

> <Gold.PLP.part.repulsive>
0.4444

> <Gold.PLP.ligand.clash>
0.0000

> <Gold.PLP.ligand.torsion>
0.8057

> <Gold.PLP.Chemscore.Hbond>
1.6240

> <Gold.PLP.Chemscore.CHOScore>
0.9643

> <Gold.PLP.Chemscore.Metal>
0.0000

> <Gold.Chemscore.Hbonds>
donor molecule, donor type, donor heavy atom, donor atom, acceptor molecule, acceptor atom, score
      P1  H  7989  7998       L1     6  0.22

> <Gold.PLP.Chemscore.Internal.Correction>
0.0140

> <Gold.Rescore>
     Score         DG    S(hbond)    S(metal)    S(lipo)     H(rot)  DE(clash)    DE(int)     intcor
     18.69     -20.20       2.91        0.00      71.49       1.32       0.00       1.51       ----

> <Gold.Chemscore.Fitness>
18.6914

> <Gold.Chemscore.DG>
-20.1989

> <Gold.Chemscore.ZeroCoef>
-5.4800

> <Gold.Chemscore.Hbond>
2.9144

> <Gold.Chemscore.Metal>
0.0000

> <Gold.Chemscore.Lipo>
71.4889

> <Gold.Chemscore.Internal_Hbond>
0.0000

> <Gold.Chemscore.DEClash>
0.0000

> <Gold.Chemscore.DEInternal>
1.5074

> <Gold.Chemscore.Rot>
1.3201

> <Gold.Chemscore.Internal.Correction>
   9.000000E+99

> <Gold.Chemscore.Hbonds>
donor molecule, donor type, donor heavy atom, donor atom, acceptor molecule, acceptor atom, score
      P1  H  7989  7998       L1     6  0.01

> <Gold.Chemscore.Hbond.Weighted>
-9.7340

> <Gold.Chemscore.Metal.Weighted>
-0.0000

> <Gold.Chemscore.Lipo.Weighted>
-8.3642

> <Gold.Chemscore.Internal_Hbond.Weighted>
0.0000

> <Gold.Chemscore.DEClash.Weighted>
0.0000

> <Gold.Chemscore.DEInternal.Weighted>
1.5074

> <Gold.Chemscore.Rot.Weighted>
3.3794

> <Gold.Chemscore.Internal.Correction.Weighted>
   9.000000E+99

> <Gold.Protein.RotatedTorsions>
[ 6907 6896 6895 6894 ] final   50.23 input  -60.11 | X-H torsion
[ 7974 7965 7964 7962 ] final   64.88 input  175.53 | X-H torsion
[ 8008 7997 7996 7995 ] final  -36.43 input   59.86 | X-H torsion
[ 10167 10162 10161 10158 ] final  -77.11 input  -65.29 | X-H torsion
[ 10718 10713 10712 10709 ] final   -2.70 input   66.30 | X-H torsion
[ 10763 10752 10751 10750 ] final  159.07 input  -60.55 | X-H torsion
[ 11005 11000 10999 10996 ] final   40.25 input  -57.11 | X-H torsion

> <Gold.Protein.ActiveResidues>
 VAL166  LYS551  ARG553  GLY616  TRP617  ASP618  TYR619  PRO620  LYS621  CYS622 
 ASP623  PHE694  ASN695  SER759  ASP760  ASP761  ALA762  ILE779  LEU786  VAL792 
 PHE793  MET794  SER795  GLU796  ALA797  LYS798  CYS799  TRP800  GLU811  SER814 

> <Gold.Protein.RotatedAtoms>
  152.2996  134.7627  160.0360 H   0  0  0  0  0  0  0  0  0  0  0  0  # atno 6907 bound_to 6896
  151.8145  133.3381  159.3573 H   0  0  0  0  0  0  0  0  0  0  0  0  # atno 6908 bound_to 6896
  150.7267  134.5562  159.5864 H   0  0  0  0  0  0  0  0  0  0  0  0  # atno 6909 bound_to 6896
  145.8450  139.3218  143.0909 H   0  0  0  0  0  0  0  0  0  0  0  0  # atno 7974 bound_to 7965
  154.4073  140.1631  156.2373 H   0  0  0  0  0  0  0  0  0  0  0  0  # atno 8008 bound_to 7997
  155.9231  140.3420  155.6166 H   0  0  0  0  0  0  0  0  0  0  0  0  # atno 8009 bound_to 7997
  155.7198  140.0767  157.2326 H   0  0  0  0  0  0  0  0  0  0  0  0  # atno 8010 bound_to 7997
  140.4799  143.2405  151.8074 H   0  0  0  0  0  0  0  0  0  0  0  0  # atno 10167 bound_to 10162
  156.7869  130.5349  149.5742 H   0  0  0  0  0  0  0  0  0  0  0  0  # atno 10718 bound_to 10713
  154.2259  135.2780  155.2907 H   0  0  0  0  0  0  0  0  0  0  0  0  # atno 10763 bound_to 10752
  154.5663  135.5632  153.7057 H   0  0  0  0  0  0  0  0  0  0  0  0  # atno 10764 bound_to 10752
  153.0031  135.6310  154.2400 H   0  0  0  0  0  0  0  0  0  0  0  0  # atno 10765 bound_to 10752
  140.1949  134.3941  155.8126 H   0  0  0  0  0  0  0  0  0  0  0  0  # atno 11005 bound_to 11000
  145.9423  140.8971  143.0301 LP  0  0  0  0  0  0  0  0  0  0  0  0  # atno 17320 bound_to 7965
  144.6731  140.1565  143.7426 LP  0  0  0  0  0  0  0  0  0  0  0  0  # atno 17321 bound_to 7965
  139.4831  144.4786  151.9335 LP  0  0  0  0  0  0  0  0  0  0  0  0  # atno 17342 bound_to 10162
  140.3871  144.2662  150.5903 LP  0  0  0  0  0  0  0  0  0  0  0  0  # atno 17343 bound_to 10162
  156.1183  130.6091  151.0154 LP  0  0  0  0  0  0  0  0  0  0  0  0  # atno 17370 bound_to 10713
  157.6619  131.0879  150.7818 LP  0  0  0  0  0  0  0  0  0  0  0  0  # atno 17371 bound_to 10713
  141.2227  133.7065  156.8159 LP  0  0  0  0  0  0  0  0  0  0  0  0  # atno 17394 bound_to 11000
  140.2118  134.8821  157.3283 LP  0  0  0  0  0  0  0  0  0  0  0  0  # atno 17395 bound_to 11000

$$$$
