AV-unprocessed.smi:3046|AV-procd|sdf|11615|dock6
  -GOLD-   2272016593D 1   1.00000     0.00000
 Structure written by MMmdl.
 38 38  0  0  0  0  0  0  0  0  2 V2000
  148.5346  133.7526  154.0741 C   0  0  0  0  0  0  0  0  0  0  0  0
  147.5452  134.2531  154.8288 C   0  0  0  0  0  0  0  0  0  0  0  0
  146.4305  135.1376  154.3057 C   0  0  0  0  0  0  0  0  0  0  0  0
  146.9569  136.3479  153.6865 N   0  0  0  0  0  0  0  0  0  0  0  0
  146.7211  137.5986  154.1126 C   0  0  0  0  0  0  0  0  0  0  0  0
  146.0364  137.8571  155.1033 O   0  0  0  0  0  0  0  0  0  0  0  0
  147.3587  138.7299  153.2953 C   0  0  2  0  0  0  0  0  0  0  0  0
  146.7651  138.7500  151.8783 C   0  0  0  0  0  0  0  0  0  0  0  0
  148.8304  138.5790  153.2112 N   0  3  0  0  0  0  0  0  0  0  0  0
  149.6035  138.8735  154.4433 C   0  0  1  0  0  0  0  0  0  0  0  0
  151.0299  138.3030  154.3656 C   0  0  0  0  0  0  0  0  0  0  0  0
  149.6389  140.3945  154.6907 C   0  0  0  0  0  0  0  0  0  0  0  0
  150.3129  140.7364  155.9311 N   0  0  0  0  0  0  0  0  0  0  0  0
  150.5638  141.9881  156.4530 C   0  0  0  0  0  0  0  0  0  0  0  0
  151.2307  141.8106  157.6313 C   0  0  0  0  0  0  0  0  0  0  0  0
  151.3413  140.3968  157.7483 C   0  0  0  0  0  0  0  0  0  0  0  0
  150.7934  139.7567  156.7278 N   0  0  0  0  0  0  0  0  0  0  0  0
  148.5920  133.9563  153.0146 H   0  0  0  0  0  0  0  0  0  0  0  0
  149.3030  133.1304  154.5089 H   0  0  0  0  0  0  0  0  0  0  0  0
  147.5265  134.0295  155.8859 H   0  0  0  0  0  0  0  0  0  0  0  0
  145.8295  134.5737  153.5906 H   0  0  0  0  0  0  0  0  0  0  0  0
  145.7654  135.4226  155.1215 H   0  0  0  0  0  0  0  0  0  0  0  0
  147.5374  136.2236  152.8696 H   0  0  0  0  0  0  0  0  0  0  0  0
  147.1237  139.6850  153.7681 H   0  0  0  0  0  0  0  0  0  0  0  0
  145.6829  138.8845  151.9015 H   0  0  0  0  0  0  0  0  0  0  0  0
  146.9740  137.8231  151.3422 H   0  0  0  0  0  0  0  0  0  0  0  0
  147.1817  139.5707  151.2932 H   0  0  0  0  0  0  0  0  0  0  0  0
  149.0519  137.6507  152.8792 H   0  0  0  0  0  0  0  0  0  0  0  0
  149.0948  138.4144  155.2925 H   0  0  0  0  0  0  0  0  0  0  0  0
  151.6067  138.5715  155.2511 H   0  0  0  0  0  0  0  0  0  0  0  0
  151.5638  138.6849  153.4945 H   0  0  0  0  0  0  0  0  0  0  0  0
  151.0273  137.2149  154.3076 H   0  0  0  0  0  0  0  0  0  0  0  0
  150.1661  140.8947  153.8773 H   0  0  0  0  0  0  0  0  0  0  0  0
  148.6294  140.8096  154.7066 H   0  0  0  0  0  0  0  0  0  0  0  0
  150.2523  142.8910  155.9481 H   0  0  0  0  0  0  0  0  0  0  0  0
  151.5847  142.5744  158.3079 H   0  0  0  0  0  0  0  0  0  0  0  0
  151.8016  139.8208  158.5376 H   0  0  0  0  0  0  0  0  0  0  0  0
  149.1475  139.2423  152.5180 H   0  0  0  0  0  0  0  0  0  0  0  0
  1  2  2  0  0  0  0
  1 18  1  0  0  0  0
  1 19  1  0  0  0  0
  2  3  1  0  0  0  0
  2 20  1  0  0  0  0
  3  4  1  0  0  0  0
  3 21  1  0  0  0  0
  3 22  1  0  0  0  0
  4  5  1  0  0  0  0
  4 23  1  0  0  0  0
  5  6  2  0  0  0  0
  5  7  1  0  0  0  0
  7  8  1  0  0  0  0
  7  9  1  0  0  0  0
  7 24  1  0  0  0  0
  8 25  1  0  0  0  0
  8 26  1  0  0  0  0
  8 27  1  0  0  0  0
  9 10  1  0  0  0  0
  9 28  1  0  0  0  0
  9 38  1  0  0  0  0
 10 11  1  0  0  0  0
 10 12  1  0  0  0  0
 10 29  1  0  0  0  0
 11 30  1  0  0  0  0
 11 31  1  0  0  0  0
 11 32  1  0  0  0  0
 12 13  1  0  0  0  0
 12 33  1  0  0  0  0
 12 34  1  0  0  0  0
 13 17  1  0  0  0  0
 13 14  1  0  0  0  0
 14 15  2  0  0  0  0
 14 35  1  0  0  0  0
 15 16  1  0  0  0  0
 15 36  1  0  0  0  0
 16 17  2  0  0  0  0
 16 37  1  0  0  0  0
M  CHG  1   9   1
M  END
> <s_m_source_file>
AV-unprocessed.smi

> <i_m_source_file_index>
3046

> <i_lp_mmshare_version>
43012

> <i_f3d_flags>
0

> <s_epik_input>
W0NIMl09W0NIXVtDSDJdW05IXUMoPU8pW0NASF0oW0NIM10pW05IXVtDQEhdKFtDSDNdKVtDSDJdbjFbY0hdW2NIXVtjSF1uMQ==

> <s_epik_cmdline>
J2VwaWtfcHl0aG9uJywgJy1waCcsICc3LjAnLCAnLXRuJywgJzgnLCAnLW1hJywgJzIwMCcsICctbWV0YWxfYmluZGluZycsICctaW1hZScsICc8aW5maWxlLm1hZT4nLCAnLW9tYWUnLCAnPG91dGZpbGUubWFlPic=

> <r_lp_tautomer_probability>
1

> <r_epik_Ionization_Penalty>
0.132961

> <r_epik_Ionization_Penalty_Charging>
0.132956

> <r_epik_Ionization_Penalty_Neutral>
5.00268e-06

> <r_epik_State_Penalty>
0.122332

> <r_epik_Charging_Adjusted_Penalty>
0.255288

> <i_epik_Tot_Q>
1

> <i_epik_Tot_abs_Q>
1

> <r_epik_Metal_State_Penalty>
0.122338

> <b_epik_Metal_Only>
0

> <s_lp_Force_Field>
OPLS_2005

> <r_lp_Energy>
6.26821

> <b_lp_Chiralities_Consistent>
1

> <s_lp_Variant>
AV-unprocessed.smi:3046-3

> <Gold.Version>
5.8.1

> <Gold.Id.Protein>
6NUR|6NUR_protein|mol2

> <Gold.PLP.Fitness>
44.7634

> <Gold.PLP.PLP>
-30.0941

> <Gold.PLP.part.hbond>
-3.0000

> <Gold.PLP.part.metal>
0.0000

> <Gold.PLP.part.buried>
-2.5398

> <Gold.PLP.part.nonpolar>
-25.4302

> <Gold.PLP.part.repulsive>
0.1169

> <Gold.PLP.ligand.clash>
0.0000

> <Gold.PLP.ligand.torsion>
0.2422

> <Gold.PLP.Chemscore.Hbond>
4.0000

> <Gold.PLP.Chemscore.CHOScore>
1.0000

> <Gold.PLP.Chemscore.Metal>
0.0000

> <Gold.Chemscore.Hbonds>
donor molecule, donor type, donor heavy atom, donor atom, acceptor molecule, acceptor atom, score
      L1  H     4    23       P1  7948  1.00
      L1  H     9    28       P1  7948  2.00
      L1  H     9    38       P1  7957  1.00
      L1  C    14    35       P1  8028  1.00

> <Gold.PLP.Chemscore.Internal.Correction>
0.1538

> <Gold.Rescore>
     Score         DG    S(hbond)    S(metal)    S(lipo)     H(rot)  DE(clash)    DE(int)     intcor
     16.16     -17.81       2.96        0.00      70.41       2.26       0.00       1.65       ----

> <Gold.Chemscore.Fitness>
16.1641

> <Gold.Chemscore.DG>
-17.8146

> <Gold.Chemscore.ZeroCoef>
-5.4800

> <Gold.Chemscore.Hbond>
2.9607

> <Gold.Chemscore.Metal>
0.0000

> <Gold.Chemscore.Lipo>
70.4112

> <Gold.Chemscore.Internal_Hbond>
0.0000

> <Gold.Chemscore.DEClash>
0.0048

> <Gold.Chemscore.DEInternal>
1.6457

> <Gold.Chemscore.Rot>
2.2626

> <Gold.Chemscore.Internal.Correction>
   9.000000E+99

> <Gold.Chemscore.Hbonds>
donor molecule, donor type, donor heavy atom, donor atom, acceptor molecule, acceptor atom, score
      L1  H     4    23       P1  7948  1.00
      L1  H     9    28       P1  7948  0.99
      L1  H     9    38       P1  7957  0.99

> <Gold.Chemscore.Hbond.Weighted>
-9.8887

> <Gold.Chemscore.Metal.Weighted>
-0.0000

> <Gold.Chemscore.Lipo.Weighted>
-8.2381

> <Gold.Chemscore.Internal_Hbond.Weighted>
0.0000

> <Gold.Chemscore.DEClash.Weighted>
0.0048

> <Gold.Chemscore.DEInternal.Weighted>
1.6457

> <Gold.Chemscore.Rot.Weighted>
5.7922

> <Gold.Chemscore.Internal.Correction.Weighted>
   9.000000E+99

> <Gold.Protein.RotatedTorsions>
[ 6907 6896 6895 6894 ] final   58.38 input  -60.11 | X-H torsion
[ 7974 7965 7964 7962 ] final  -55.08 input  175.53 | X-H torsion
[ 8008 7997 7996 7995 ] final  -18.18 input   59.86 | X-H torsion
[ 10167 10162 10161 10158 ] final   36.44 input  -65.29 | X-H torsion
[ 10718 10713 10712 10709 ] final   23.66 input   66.30 | X-H torsion
[ 10763 10752 10751 10750 ] final  103.04 input  -60.55 | X-H torsion
[ 11005 11000 10999 10996 ] final  -68.54 input  -57.11 | X-H torsion

> <Gold.Protein.ActiveResidues>
 VAL166  LYS551  ARG553  GLY616  TRP617  ASP618  TYR619  PRO620  LYS621  CYS622 
 ASP623  PHE694  ASN695  SER759  ASP760  ASP761  ALA762  ILE779  LEU786  VAL792 
 PHE793  MET794  SER795  GLU796  ALA797  LYS798  CYS799  TRP800  GLU811  SER814 

> <Gold.Protein.RotatedAtoms>
  152.3818  134.6578  160.0139 H   0  0  0  0  0  0  0  0  0  0  0  0  # atno 6907 bound_to 6896
  151.6839  133.3306  159.3234 H   0  0  0  0  0  0  0  0  0  0  0  0  # atno 6908 bound_to 6896
  150.7754  134.6693  159.6427 H   0  0  0  0  0  0  0  0  0  0  0  0  # atno 6909 bound_to 6896
  145.8782  140.8164  142.9853 H   0  0  0  0  0  0  0  0  0  0  0  0  # atno 7974 bound_to 7965
  154.4925  140.2123  155.9518 H   0  0  0  0  0  0  0  0  0  0  0  0  # atno 8008 bound_to 7997
  156.1324  140.3194  155.8338 H   0  0  0  0  0  0  0  0  0  0  0  0  # atno 8009 bound_to 7997
  155.4271  140.0501  157.3012 H   0  0  0  0  0  0  0  0  0  0  0  0  # atno 8010 bound_to 7997
  140.4127  144.1570  150.6141 H   0  0  0  0  0  0  0  0  0  0  0  0  # atno 10167 bound_to 10162
  157.1692  130.6752  149.6071 H   0  0  0  0  0  0  0  0  0  0  0  0  # atno 10718 bound_to 10713
  153.3474  135.3990  155.1620 H   0  0  0  0  0  0  0  0  0  0  0  0  # atno 10763 bound_to 10752
  154.8656  135.3648  154.5266 H   0  0  0  0  0  0  0  0  0  0  0  0  # atno 10764 bound_to 10752
  153.5715  135.7079  153.5562 H   0  0  0  0  0  0  0  0  0  0  0  0  # atno 10765 bound_to 10752
  141.1534  133.6743  156.6462 H   0  0  0  0  0  0  0  0  0  0  0  0  # atno 11005 bound_to 11000
  144.6726  140.1343  143.7441 LP  0  0  0  0  0  0  0  0  0  0  0  0  # atno 17320 bound_to 7965
  145.9055  139.2456  143.1468 LP  0  0  0  0  0  0  0  0  0  0  0  0  # atno 17321 bound_to 7965
  140.4620  143.2445  151.9207 LP  0  0  0  0  0  0  0  0  0  0  0  0  # atno 17342 bound_to 10162
  139.4782  144.5458  151.8460 LP  0  0  0  0  0  0  0  0  0  0  0  0  # atno 17343 bound_to 10162
  155.9741  130.4685  150.6362 LP  0  0  0  0  0  0  0  0  0  0  0  0  # atno 17370 bound_to 10713
  157.4059  131.0817  151.1265 LP  0  0  0  0  0  0  0  0  0  0  0  0  # atno 17371 bound_to 10713
  140.3356  134.7892  157.4359 LP  0  0  0  0  0  0  0  0  0  0  0  0  # atno 17394 bound_to 11000
  140.0981  134.5510  155.8379 LP  0  0  0  0  0  0  0  0  0  0  0  0  # atno 17395 bound_to 11000

$$$$
