AV-unprocessed.smi:1436|AV-procd|sdf|5860|dock1
  -GOLD-   22720 5533D 1   1.00000     0.00000
 Structure written by MMmdl.
 43 44  0  0  0  0  0  0  0  0  1 V2000
  147.4312  141.8598  154.6056 C   0  0  0  0  0  0  0  0  0  0  0  0
  148.6779  141.0282  154.5137 C   0  0  0  0  0  0  0  0  0  0  0  0
  149.8472  141.5717  154.8063 N   0  0  0  0  0  0  0  0  0  0  0  0
  150.7966  140.5635  154.6148 O   0  0  0  0  0  0  0  0  0  0  0  0
  150.1533  139.4397  154.2078 C   0  0  0  0  0  0  0  0  0  0  0  0
  150.9990  138.2410  153.9406 C   0  0  0  0  0  0  0  0  0  0  0  0
  148.8067  139.6634  154.1248 C   0  0  0  0  0  0  0  0  0  0  0  0
  147.7183  138.7019  153.7163 C   0  0  0  0  0  0  0  0  0  0  0  0
  147.8039  137.4056  154.5279 C   0  0  0  0  0  0  0  0  0  0  0  0
  147.7319  137.4318  155.7572 O   0  0  0  0  0  0  0  0  0  0  0  0
  147.9633  136.2750  153.8227 N   0  0  0  0  0  0  0  0  0  0  0  0
  148.1062  134.9338  154.3848 C   0  0  1  0  0  0  0  0  0  0  0  0
  146.7669  134.4402  154.9548 C   0  0  0  0  0  0  0  0  0  0  0  0
  148.7580  133.9522  153.3803 C   0  0  0  0  0  0  0  0  0  0  0  0
  149.5024  132.8218  153.9447 N   0  0  0  0  0  0  0  0  0  0  0  0
  150.7432  133.2768  154.5640 C   0  0  0  0  0  0  0  0  0  0  0  0
  151.5448  132.1145  155.1746 C   0  0  0  0  0  0  0  0  0  0  0  0
  151.8136  131.1432  154.1693 O   0  0  0  0  0  0  0  0  0  0  0  0
  150.6268  130.6346  153.5704 C   0  0  0  0  0  0  0  0  0  0  0  0
  149.8192  131.7917  152.9576 C   0  0  0  0  0  0  0  0  0  0  0  0
  147.1253  142.2062  153.6184 H   0  0  0  0  0  0  0  0  0  0  0  0
  147.5771  142.7376  155.2357 H   0  0  0  0  0  0  0  0  0  0  0  0
  146.6067  141.2847  155.0274 H   0  0  0  0  0  0  0  0  0  0  0  0
  150.8356  137.8735  152.9273 H   0  0  0  0  0  0  0  0  0  0  0  0
  150.7573  137.4367  154.6353 H   0  0  0  0  0  0  0  0  0  0  0  0
  152.0588  138.4738  154.0478 H   0  0  0  0  0  0  0  0  0  0  0  0
  146.7288  139.1325  153.8715 H   0  0  0  0  0  0  0  0  0  0  0  0
  147.7857  138.4741  152.6518 H   0  0  0  0  0  0  0  0  0  0  0  0
  148.0076  136.3499  152.8169 H   0  0  0  0  0  0  0  0  0  0  0  0
  148.7878  135.0135  155.2336 H   0  0  0  0  0  0  0  0  0  0  0  0
  146.8740  133.4508  155.4002 H   0  0  0  0  0  0  0  0  0  0  0  0
  145.9976  134.3769  154.1847 H   0  0  0  0  0  0  0  0  0  0  0  0
  146.4009  135.1126  155.7311 H   0  0  0  0  0  0  0  0  0  0  0  0
  148.0117  133.5904  152.6710 H   0  0  0  0  0  0  0  0  0  0  0  0
  149.4539  134.5439  152.7840 H   0  0  0  0  0  0  0  0  0  0  0  0
  151.3599  133.7886  153.8235 H   0  0  0  0  0  0  0  0  0  0  0  0
  150.5221  134.0070  155.3435 H   0  0  0  0  0  0  0  0  0  0  0  0
  152.4887  132.4769  155.5823 H   0  0  0  0  0  0  0  0  0  0  0  0
  150.9948  131.6550  155.9974 H   0  0  0  0  0  0  0  0  0  0  0  0
  150.8974  129.9118  152.8005 H   0  0  0  0  0  0  0  0  0  0  0  0
  150.0336  130.1027  154.3160 H   0  0  0  0  0  0  0  0  0  0  0  0
  148.9060  131.3820  152.5295 H   0  0  0  0  0  0  0  0  0  0  0  0
  150.3856  132.2300  152.1359 H   0  0  0  0  0  0  0  0  0  0  0  0
  1  2  1  0  0  0  0
  1 21  1  0  0  0  0
  1 22  1  0  0  0  0
  1 23  1  0  0  0  0
  2  7  1  0  0  0  0
  2  3  2  0  0  0  0
  3  4  1  0  0  0  0
  4  5  1  0  0  0  0
  5  6  1  0  0  0  0
  5  7  2  0  0  0  0
  6 24  1  0  0  0  0
  6 25  1  0  0  0  0
  6 26  1  0  0  0  0
  7  8  1  0  0  0  0
  8  9  1  0  0  0  0
  8 27  1  0  0  0  0
  8 28  1  0  0  0  0
  9 10  2  0  0  0  0
  9 11  1  0  0  0  0
 11 12  1  0  0  0  0
 11 29  1  0  0  0  0
 12 13  1  0  0  0  0
 12 14  1  0  0  0  0
 12 30  1  0  0  0  0
 13 31  1  0  0  0  0
 13 32  1  0  0  0  0
 13 33  1  0  0  0  0
 14 15  1  0  0  0  0
 14 34  1  0  0  0  0
 14 35  1  0  0  0  0
 15 20  1  0  0  0  0
 15 16  1  0  0  0  0
 16 17  1  0  0  0  0
 16 36  1  0  0  0  0
 16 37  1  0  0  0  0
 17 18  1  0  0  0  0
 17 38  1  0  0  0  0
 17 39  1  0  0  0  0
 18 19  1  0  0  0  0
 19 20  1  0  0  0  0
 19 40  1  0  0  0  0
 19 41  1  0  0  0  0
 20 42  1  0  0  0  0
 20 43  1  0  0  0  0
M  END
> <s_m_source_file>
AV-unprocessed.smi

> <i_m_source_file_index>
1436

> <i_lp_mmshare_version>
43012

> <i_f3d_flags>
0

> <s_epik_input>
W0NIM11jMW5vYyhbQ0gzXSljMVtDSDJdQyg9TylbTkhdW0NASF0oW0NIM10pW0NIMl1OMltDSDJdW0NIMl1PW0NIMl1bQ0gyXTI=

> <s_epik_cmdline>
J2VwaWtfcHl0aG9uJywgJy1waCcsICc3LjAnLCAnLXRuJywgJzgnLCAnLW1hJywgJzIwMCcsICctbWV0YWxfYmluZGluZycsICctaW1hZScsICc8aW5maWxlLm1hZT4nLCAnLW9tYWUnLCAnPG91dGZpbGUubWFlPic=

> <r_epik_Ionization_Penalty>
0.234179

> <r_epik_Ionization_Penalty_Charging>
0

> <r_epik_Ionization_Penalty_Neutral>
0.234179

> <r_epik_State_Penalty>
0.224936

> <r_epik_Charging_Adjusted_Penalty>
0.224936

> <i_epik_Tot_Q>
0

> <i_epik_Tot_abs_Q>
0

> <r_epik_Metal_State_Penalty>
0.224936

> <b_epik_Metal_Only>
0

> <s_lp_Force_Field>
OPLS_2005

> <r_lp_Energy>
22.5578

> <b_lp_Chiralities_Consistent>
1

> <s_lp_Variant>
AV-unprocessed.smi:1436-2

> <Gold.Version>
5.8.1

> <Gold.Id.Protein>
6NUR|6NUR_protein|mol2

> <Gold.PLP.Fitness>
35.9071

> <Gold.PLP.PLP>
-30.9409

> <Gold.PLP.part.hbond>
-3.5864

> <Gold.PLP.part.metal>
0.0000

> <Gold.PLP.part.buried>
-1.2322

> <Gold.PLP.part.nonpolar>
-25.3796

> <Gold.PLP.part.repulsive>
0.3053

> <Gold.PLP.ligand.clash>
0.0000

> <Gold.PLP.ligand.torsion>
0.6014

> <Gold.PLP.Chemscore.Hbond>
2.0000

> <Gold.PLP.Chemscore.CHOScore>
0.0000

> <Gold.PLP.Chemscore.Metal>
0.0000

> <Gold.Chemscore.Hbonds>
donor molecule, donor type, donor heavy atom, donor atom, acceptor molecule, acceptor atom, score
      L1  H    11    29       P1  7948  0.41
      P1  H  7989  7998       L1     4  0.73

> <Gold.PLP.Chemscore.Internal.Correction>
0.1690

> <Gold.Rescore>
     Score         DG    S(hbond)    S(metal)    S(lipo)     H(rot)  DE(clash)    DE(int)     intcor
     14.02     -14.60       1.63        0.00      68.96       1.71       0.04       0.54       ----

> <Gold.Chemscore.Fitness>
14.0231

> <Gold.Chemscore.DG>
-14.5978

> <Gold.Chemscore.ZeroCoef>
-5.4800

> <Gold.Chemscore.Hbond>
1.6282

> <Gold.Chemscore.Metal>
0.0000

> <Gold.Chemscore.Lipo>
68.9639

> <Gold.Chemscore.Internal_Hbond>
0.0000

> <Gold.Chemscore.DEClash>
0.0351

> <Gold.Chemscore.DEInternal>
0.5396

> <Gold.Chemscore.Rot>
1.7145

> <Gold.Chemscore.Internal.Correction>
   9.000000E+99

> <Gold.Chemscore.Hbonds>
donor molecule, donor type, donor heavy atom, donor atom, acceptor molecule, acceptor atom, score
      L1  H    11    29       P1  7948  0.40
      P1  H  7989  7998       L1     4  0.21

> <Gold.Chemscore.Hbond.Weighted>
-5.4381

> <Gold.Chemscore.Metal.Weighted>
-0.0000

> <Gold.Chemscore.Lipo.Weighted>
-8.0688

> <Gold.Chemscore.Internal_Hbond.Weighted>
0.0000

> <Gold.Chemscore.DEClash.Weighted>
0.0351

> <Gold.Chemscore.DEInternal.Weighted>
0.5396

> <Gold.Chemscore.Rot.Weighted>
4.3891

> <Gold.Chemscore.Internal.Correction.Weighted>
   9.000000E+99

> <Gold.Protein.RotatedTorsions>
[ 6907 6896 6895 6894 ] final -105.59 input  -60.11 | X-H torsion
[ 7974 7965 7964 7962 ] final -147.24 input  175.53 | X-H torsion
[ 8008 7997 7996 7995 ] final   81.21 input   59.86 | X-H torsion
[ 10167 10162 10161 10158 ] final  156.37 input  -65.29 | X-H torsion
[ 10718 10713 10712 10709 ] final -140.71 input   66.30 | X-H torsion
[ 10763 10752 10751 10750 ] final   -3.11 input  -60.55 | X-H torsion
[ 11005 11000 10999 10996 ] final -110.77 input  -57.11 | X-H torsion

> <Gold.Protein.ActiveResidues>
 VAL166  LYS551  ARG553  GLY616  TRP617  ASP618  TYR619  PRO620  LYS621  CYS622 
 ASP623  PHE694  ASN695  SER759  ASP760  ASP761  ALA762  ILE779  LEU786  VAL792 
 PHE793  MET794  SER795  GLU796  ALA797  LYS798  CYS799  TRP800  GLU811  SER814 

> <Gold.Protein.RotatedAtoms>
  150.7345  134.0103  159.3667 H   0  0  0  0  0  0  0  0  0  0  0  0  # atno 6907 bound_to 6896
  151.8062  135.0692  160.0416 H   0  0  0  0  0  0  0  0  0  0  0  0  # atno 6908 bound_to 6896
  152.3105  133.5711  159.5714 H   0  0  0  0  0  0  0  0  0  0  0  0  # atno 6909 bound_to 6896
  144.8106  140.5352  143.5645 H   0  0  0  0  0  0  0  0  0  0  0  0  # atno 7974 bound_to 7965
  155.8940  140.3437  155.5977 H   0  0  0  0  0  0  0  0  0  0  0  0  # atno 8008 bound_to 7997
  155.7578  140.0828  157.2189 H   0  0  0  0  0  0  0  0  0  0  0  0  # atno 8009 bound_to 7997
  154.4036  140.1541  156.2785 H   0  0  0  0  0  0  0  0  0  0  0  0  # atno 8010 bound_to 7997
  139.4821  144.5015  151.8161 H   0  0  0  0  0  0  0  0  0  0  0  0  # atno 10167 bound_to 10162
  156.3255  130.7558  151.1665 H   0  0  0  0  0  0  0  0  0  0  0  0  # atno 10718 bound_to 10713
  153.3670  135.6993  153.6667 H   0  0  0  0  0  0  0  0  0  0  0  0  # atno 10763 bound_to 10752
  153.5332  135.3588  155.2686 H   0  0  0  0  0  0  0  0  0  0  0  0  # atno 10764 bound_to 10752
  154.8676  135.4186  154.2940 H   0  0  0  0  0  0  0  0  0  0  0  0  # atno 10765 bound_to 10752
  141.0772  133.9280  157.2364 H   0  0  0  0  0  0  0  0  0  0  0  0  # atno 11005 bound_to 11000
  145.5333  139.1475  143.3488 LP  0  0  0  0  0  0  0  0  0  0  0  0  # atno 17320 bound_to 7965
  146.2404  140.5473  142.8936 LP  0  0  0  0  0  0  0  0  0  0  0  0  # atno 17321 bound_to 7965
  140.4509  144.1857  150.5897 LP  0  0  0  0  0  0  0  0  0  0  0  0  # atno 17342 bound_to 10162
  140.4586  143.2458  151.9251 LP  0  0  0  0  0  0  0  0  0  0  0  0  # atno 17343 bound_to 10162
  157.7420  131.0495  150.5054 LP  0  0  0  0  0  0  0  0  0  0  0  0  # atno 17370 bound_to 10713
  156.5212  130.4162  149.6249 LP  0  0  0  0  0  0  0  0  0  0  0  0  # atno 17371 bound_to 10713
  139.9585  135.0160  156.9195 LP  0  0  0  0  0  0  0  0  0  0  0  0  # atno 17394 bound_to 11000
  140.5547  134.0593  155.7380 LP  0  0  0  0  0  0  0  0  0  0  0  0  # atno 17395 bound_to 11000

$$$$
