AV-unprocessed.smi:1817|AV-procd|sdf|7368|dock6
  -GOLD-   22720 9 33D 1   1.00000     0.00000
 Structure written by MMmdl.
 43 44  0  0  0  0  0  0  0  0  2 V2000
  150.8596  142.3997  158.2470 C   0  0  0  0  0  0  0  0  0  0  0  0
  150.7940  141.8342  156.8211 C   0  0  0  0  0  0  0  0  0  0  0  0
  149.4855  142.0809  156.1655 N   0  3  0  0  0  0  0  0  0  0  0  0
  148.3654  141.4348  156.8928 C   0  0  0  0  0  0  0  0  0  0  0  0
  147.0219  141.7408  156.1986 C   0  0  0  0  0  0  0  0  0  0  0  0
  146.9998  141.2456  154.8148 N   0  0  0  0  0  0  0  0  0  0  0  0
  147.0550  139.7751  154.6561 C   0  0  2  0  0  0  0  0  0  0  0  0
  146.9579  139.3922  153.1603 C   0  0  0  0  0  0  0  0  0  0  0  0
  145.9414  139.0542  155.4659 C   0  0  0  0  0  0  0  0  0  0  0  0
  144.6841  138.9708  154.7287 N   0  0  0  0  0  0  0  0  0  0  0  0
  143.6563  138.1779  155.0664 C   0  0  0  0  0  0  0  0  0  0  0  0
  143.6634  137.4491  156.0596 O   0  0  0  0  0  0  0  0  0  0  0  0
  142.6461  138.2838  154.1857 N   0  0  0  0  0  0  0  0  0  0  0  0
  141.4132  137.5791  154.1745 C   0  0  0  0  0  0  0  0  0  0  0  0
  141.2270  136.3960  154.7810 N   0  0  0  0  0  0  0  0  0  0  0  0
  139.9322  135.9235  154.6114 N   0  0  0  0  0  0  0  0  0  0  0  0
  139.1944  136.7669  153.8838 C   0  0  0  0  0  0  0  0  0  0  0  0
  140.0090  138.2216  153.3352 S   0  0  0  0  0  0  0  0  0  0  0  0
  148.0668  141.9763  154.1137 C   0  0  0  0  0  0  0  0  0  0  0  0
  149.4599  141.7079  154.7277 C   0  0  0  0  0  0  0  0  0  0  0  0
  151.7950  142.1137  158.7283 H   0  0  0  0  0  0  0  0  0  0  0  0
  150.0434  142.0183  158.8611 H   0  0  0  0  0  0  0  0  0  0  0  0
  150.8124  143.4882  158.2580 H   0  0  0  0  0  0  0  0  0  0  0  0
  151.6012  142.2402  156.2097 H   0  0  0  0  0  0  0  0  0  0  0  0
  150.9624  140.7581  156.8799 H   0  0  0  0  0  0  0  0  0  0  0  0
  148.5342  140.3601  156.9730 H   0  0  0  0  0  0  0  0  0  0  0  0
  148.3335  141.8190  157.9129 H   0  0  0  0  0  0  0  0  0  0  0  0
  146.1867  141.3508  156.7768 H   0  0  0  0  0  0  0  0  0  0  0  0
  146.8634  142.8203  156.1849 H   0  0  0  0  0  0  0  0  0  0  0  0
  148.0125  139.4142  155.0269 H   0  0  0  0  0  0  0  0  0  0  0  0
  146.8976  138.3132  153.0211 H   0  0  0  0  0  0  0  0  0  0  0  0
  147.8318  139.7091  152.5933 H   0  0  0  0  0  0  0  0  0  0  0  0
  146.0736  139.8300  152.6960 H   0  0  0  0  0  0  0  0  0  0  0  0
  146.2136  138.0317  155.7245 H   0  0  0  0  0  0  0  0  0  0  0  0
  145.7591  139.5759  156.4060 H   0  0  0  0  0  0  0  0  0  0  0  0
  144.5998  139.5423  153.9004 H   0  0  0  0  0  0  0  0  0  0  0  0
  142.7801  138.9325  153.4242 H   0  0  0  0  0  0  0  0  0  0  0  0
  138.1630  136.5304  153.6684 H   0  0  0  0  0  0  0  0  0  0  0  0
  148.0693  141.7490  153.0494 H   0  0  0  0  0  0  0  0  0  0  0  0
  147.8505  143.0443  154.1699 H   0  0  0  0  0  0  0  0  0  0  0  0
  150.1950  142.3004  154.1840 H   0  0  0  0  0  0  0  0  0  0  0  0
  149.7540  140.6656  154.6022 H   0  0  0  0  0  0  0  0  0  0  0  0
  149.3145  143.0751  156.2137 H   0  0  0  0  0  0  0  0  0  0  0  0
  1  2  1  0  0  0  0
  1 21  1  0  0  0  0
  1 22  1  0  0  0  0
  1 23  1  0  0  0  0
  2  3  1  0  0  0  0
  2 24  1  0  0  0  0
  2 25  1  0  0  0  0
  3 20  1  0  0  0  0
  3  4  1  0  0  0  0
  3 43  1  0  0  0  0
  4  5  1  0  0  0  0
  4 26  1  0  0  0  0
  4 27  1  0  0  0  0
  5  6  1  0  0  0  0
  5 28  1  0  0  0  0
  5 29  1  0  0  0  0
  6  7  1  0  0  0  0
  6 19  1  0  0  0  0
  7  8  1  0  0  0  0
  7  9  1  0  0  0  0
  7 30  1  0  0  0  0
  8 31  1  0  0  0  0
  8 32  1  0  0  0  0
  8 33  1  0  0  0  0
  9 10  1  0  0  0  0
  9 34  1  0  0  0  0
  9 35  1  0  0  0  0
 10 11  1  0  0  0  0
 10 36  1  0  0  0  0
 11 12  2  0  0  0  0
 11 13  1  0  0  0  0
 13 14  1  0  0  0  0
 13 37  1  0  0  0  0
 14 18  1  0  0  0  0
 14 15  2  0  0  0  0
 15 16  1  0  0  0  0
 16 17  2  0  0  0  0
 17 18  1  0  0  0  0
 17 38  1  0  0  0  0
 19 20  1  0  0  0  0
 19 39  1  0  0  0  0
 19 40  1  0  0  0  0
 20 41  1  0  0  0  0
 20 42  1  0  0  0  0
M  CHG  1   3   1
M  END
> <s_m_source_file>
AV-unprocessed.smi

> <i_m_source_file_index>
1817

> <i_lp_mmshare_version>
43012

> <i_f3d_flags>
0

> <s_epik_input>
W0NIM11bQ0gyXU4xW0NIMl1bQ0gyXU4oW0NIMl1bQ0gyXTEpW0NASF0oW0NIM10pW0NIMl1bTkhdQyg9TylbTkhdYzJubltjSF1zMg==

> <s_epik_cmdline>
J2VwaWtfcHl0aG9uJywgJy1waCcsICc3LjAnLCAnLXRuJywgJzgnLCAnLW1hJywgJzIwMCcsICctbWV0YWxfYmluZGluZycsICctaW1hZScsICc8aW5maWxlLm1hZT4nLCAnLW9tYWUnLCAnPG91dGZpbGUubWFlPic=

> <r_lp_tautomer_probability>
1

> <r_epik_Ionization_Penalty>
0.0474318

> <r_epik_Ionization_Penalty_Charging>
0.0451959

> <r_epik_Ionization_Penalty_Neutral>
0.00223598

> <r_epik_State_Penalty>
0.165541

> <r_epik_Charging_Adjusted_Penalty>
0.210737

> <i_epik_Tot_Q>
1

> <i_epik_Tot_abs_Q>
1

> <r_epik_Metal_State_Penalty>
0.500395

> <b_epik_Metal_Only>
0

> <s_lp_Force_Field>
OPLS_2005

> <r_lp_Energy>
19.2999

> <b_lp_Chiralities_Consistent>
1

> <s_lp_Variant>
AV-unprocessed.smi:1817-1

> <Gold.Version>
5.8.1

> <Gold.Id.Protein>
6NUR|6NUR_protein|mol2

> <Gold.PLP.Fitness>
43.1270

> <Gold.PLP.PLP>
-29.3350

> <Gold.PLP.part.hbond>
-5.2469

> <Gold.PLP.part.metal>
0.0000

> <Gold.PLP.part.buried>
-1.8489

> <Gold.PLP.part.nonpolar>
-20.5821

> <Gold.PLP.part.repulsive>
0.3522

> <Gold.PLP.ligand.clash>
0.0000

> <Gold.PLP.ligand.torsion>
0.4821

> <Gold.PLP.Chemscore.Hbond>
4.9000

> <Gold.PLP.Chemscore.CHOScore>
0.0000

> <Gold.PLP.Chemscore.Metal>
0.0000

> <Gold.Chemscore.Hbonds>
donor molecule, donor type, donor heavy atom, donor atom, acceptor molecule, acceptor atom, score
      L1  H     3    43       P1  8028  2.00
      L1  H    10    36       P1 10175  1.00
      L1  H    13    37       P1 10175  1.00
      P1  H 11000 11005       L1    16  0.80

> <Gold.PLP.Chemscore.Internal.Correction>
0.0562

> <Gold.Rescore>
     Score         DG    S(hbond)    S(metal)    S(lipo)     H(rot)  DE(clash)    DE(int)     intcor
     17.00     -19.33       3.33        0.00      65.24       1.92       0.59       1.73       ----

> <Gold.Chemscore.Fitness>
17.0007

> <Gold.Chemscore.DG>
-19.3274

> <Gold.Chemscore.ZeroCoef>
-5.4800

> <Gold.Chemscore.Hbond>
3.3319

> <Gold.Chemscore.Metal>
0.0000

> <Gold.Chemscore.Lipo>
65.2401

> <Gold.Chemscore.Internal_Hbond>
0.0000

> <Gold.Chemscore.DEClash>
0.5937

> <Gold.Chemscore.DEInternal>
1.7330

> <Gold.Chemscore.Rot>
1.9196

> <Gold.Chemscore.Internal.Correction>
   9.000000E+99

> <Gold.Chemscore.Hbonds>
donor molecule, donor type, donor heavy atom, donor atom, acceptor molecule, acceptor atom, score
      L1  H     3    43       P1  8028  0.99
      L1  H    10    36       P1 10175  0.98
      L1  H    13    37       P1 10175  0.97
      P1  H 11000 11005       L1    16  0.12

> <Gold.Chemscore.Hbond.Weighted>
-11.1284

> <Gold.Chemscore.Metal.Weighted>
-0.0000

> <Gold.Chemscore.Lipo.Weighted>
-7.6331

> <Gold.Chemscore.Internal_Hbond.Weighted>
0.0000

> <Gold.Chemscore.DEClash.Weighted>
0.5937

> <Gold.Chemscore.DEInternal.Weighted>
1.7330

> <Gold.Chemscore.Rot.Weighted>
4.9141

> <Gold.Chemscore.Internal.Correction.Weighted>
   9.000000E+99

> <Gold.Protein.RotatedTorsions>
[ 6907 6896 6895 6894 ] final  -44.25 input  -60.11 | X-H torsion
[ 7974 7965 7964 7962 ] final   53.73 input  175.53 | X-H torsion
[ 8008 7997 7996 7995 ] final  -82.06 input   59.86 | X-H torsion
[ 10167 10162 10161 10158 ] final  144.24 input  -65.29 | X-H torsion
[ 10718 10713 10712 10709 ] final   71.73 input   66.30 | X-H torsion
[ 10763 10752 10751 10750 ] final   39.07 input  -60.55 | X-H torsion
[ 11005 11000 10999 10996 ] final   63.64 input  -57.11 | X-H torsion

> <Gold.Protein.ActiveResidues>
 VAL166  LYS551  ARG553  GLY616  TRP617  ASP618  TYR619  PRO620  LYS621  CYS622 
 ASP623  PHE694  ASN695  SER759  ASP760  ASP761  ALA762  ILE779  LEU786  VAL792 
 PHE793  MET794  SER795  GLU796  ALA797  LYS798  CYS799  TRP800  GLU811  SER814 

> <Gold.Protein.RotatedAtoms>
  150.9349  134.8762  159.7574 H   0  0  0  0  0  0  0  0  0  0  0  0  # atno 6907 bound_to 6896
  152.5054  134.4025  159.9431 H   0  0  0  0  0  0  0  0  0  0  0  0  # atno 6908 bound_to 6896
  151.4050  133.3705  159.2772 H   0  0  0  0  0  0  0  0  0  0  0  0  # atno 6909 bound_to 6896
  145.9681  139.4123  143.0207 H   0  0  0  0  0  0  0  0  0  0  0  0  # atno 7974 bound_to 7965
  154.6047  140.0638  156.9415 H   0  0  0  0  0  0  0  0  0  0  0  0  # atno 8008 bound_to 7997
  155.2073  140.3320  155.4316 H   0  0  0  0  0  0  0  0  0  0  0  0  # atno 8009 bound_to 7997
  156.2340  140.1854  156.7152 H   0  0  0  0  0  0  0  0  0  0  0  0  # atno 8010 bound_to 7997
  139.4951  144.5985  151.6531 H   0  0  0  0  0  0  0  0  0  0  0  0  # atno 10167 bound_to 10162
  157.6466  130.9543  150.0830 H   0  0  0  0  0  0  0  0  0  0  0  0  # atno 10718 bound_to 10713
  152.9979  135.6231  154.2406 H   0  0  0  0  0  0  0  0  0  0  0  0  # atno 10763 bound_to 10752
  154.2146  135.2798  155.2948 H   0  0  0  0  0  0  0  0  0  0  0  0  # atno 10764 bound_to 10752
  154.5578  135.5714  153.7038 H   0  0  0  0  0  0  0  0  0  0  0  0  # atno 10765 bound_to 10752
  140.0011  134.6441  155.9929 H   0  0  0  0  0  0  0  0  0  0  0  0  # atno 11005 bound_to 11000
  145.7944  140.9799  143.1032 LP  0  0  0  0  0  0  0  0  0  0  0  0  # atno 17320 bound_to 7965
  144.6830  139.9723  143.7482 LP  0  0  0  0  0  0  0  0  0  0  0  0  # atno 17321 bound_to 7965
  140.5629  144.0238  150.6178 LP  0  0  0  0  0  0  0  0  0  0  0  0  # atno 17342 bound_to 10162
  140.3330  143.3066  152.0667 LP  0  0  0  0  0  0  0  0  0  0  0  0  # atno 17343 bound_to 10162
  156.1801  130.3649  149.9047 LP  0  0  0  0  0  0  0  0  0  0  0  0  # atno 17370 bound_to 10713
  156.7002  130.8930  151.3598 LP  0  0  0  0  0  0  0  0  0  0  0  0  # atno 17371 bound_to 10713
  141.1642  133.6537  156.4423 LP  0  0  0  0  0  0  0  0  0  0  0  0  # atno 17394 bound_to 11000
  140.4726  134.6739  157.5136 LP  0  0  0  0  0  0  0  0  0  0  0  0  # atno 17395 bound_to 11000

$$$$
