#       Name:                AV-unprocessed.smi:2124
#       Creating user name   scv26
#       Creation time:       Fri Mar 27 11:40:45 2020


#       File generated by GOLD software.
#

@<TRIPOS>MOLECULE
AV-unprocessed.smi:2124
    52    54     1
SMALL
NO_CHARGES


@<TRIPOS>ATOM
      1 ****        -4.2014   4.9245  -1.4456 C.3            1 S1                 0.0000
      2 ****        -3.7385   3.4851  -1.5054 C.2            1 S1                 0.0000
      3 ****        -3.1837   3.0300  -0.3208 N.pl3          1 S1                 0.0000
      4 ****        -2.7548   1.7156  -0.2698 C.2            1 S1                 0.0000
      5 ****        -2.1811   1.2925   1.0713 C.3            1 S1                 0.0000
      6 ****        -2.8577   0.9004  -1.3503 C.2            1 S1                 0.0000
      7 ****        -2.4074  -0.5589  -1.3306 C.3            1 S1                 0.0000
      8 ****        -0.9076  -0.7869  -1.5270 C.2            1 S1                 0.0000
      9 ****        -0.3394  -0.3250  -2.5161 O.2            1 S1                 0.0000
     10 ****        -0.2813  -1.4978  -0.5761 N.am           1 S1                 0.0000
     11 ****         1.1419  -1.8280  -0.5556 C.3            1 S1                 0.0000
     12 ****         1.3699  -3.1537  -1.3006 C.3            1 S1                 0.0000
     13 ****         1.6320  -1.8812   0.9107 C.3            1 S1                 0.0000
     14 ****         1.4895  -0.5527   1.6887 C.3            1 S1                 0.0000
     15 ****         2.8800  -0.3712   2.3247 C.3            1 S1                 0.0000
     16 ****         3.8797   0.0512   1.2328 C.3            1 S1                 0.0000
     17 ****         4.0698  -1.2480   0.4291 C.3            1 S1                 0.0000
     18 ****         3.1227  -2.2349   1.1431 C.3            1 S1                 0.0000
     19 ****         3.3014  -1.8107   2.5976 C.3            1 S1                 0.0000
     20 ****        -3.4361   1.4524  -2.5984 C.2            1 S1                 0.0000
     21 ****        -3.5317   0.7736  -3.6202 O.2            1 S1                 0.0000
     22 ****        -3.8755   2.7861  -2.5909 N.2            1 S1                 0.0000
     23 ****        -3.0899   3.6018   0.5062 H              1 S1                 0.0000
     24 ****        -4.6453   5.2317  -2.3935 H              1 S1                 0.0000
     25 ****        -3.3612   5.5857  -1.2318 H              1 S1                 0.0000
     26 ****        -4.9504   5.0500  -0.6631 H              1 S1                 0.0000
     27 ****        -2.7632   0.4748   1.4962 H              1 S1                 0.0000
     28 ****        -2.1863   2.1142   1.7883 H              1 S1                 0.0000
     29 ****        -1.1503   0.9596   0.9553 H              1 S1                 0.0000
     30 ****        -2.9396  -1.1368  -2.0867 H              1 S1                 0.0000
     31 ****        -2.7169  -1.0006  -0.3827 H              1 S1                 0.0000
     32 ****        -0.8339  -1.8348   0.1989 H              1 S1                 0.0000
     33 ****         1.6840  -1.0394  -1.0783 H              1 S1                 0.0000
     34 ****         2.4300  -3.4011  -1.3547 H              1 S1                 0.0000
     35 ****         0.9994  -3.0990  -2.3248 H              1 S1                 0.0000
     36 ****         0.8590  -3.9802  -0.8056 H              1 S1                 0.0000
     37 ****         1.0371  -2.6363   1.4286 H              1 S1                 0.0000
     38 ****         1.2307   0.2913   1.0480 H              1 S1                 0.0000
     39 ****         0.7152  -0.6381   2.4521 H              1 S1                 0.0000
     40 ****         2.8810   0.2850   3.1953 H              1 S1                 0.0000
     41 ****         3.5016   0.8691   0.6183 H              1 S1                 0.0000
     42 ****         4.8250   0.3722   1.6720 H              1 S1                 0.0000
     43 ****         3.8543  -1.1262  -0.6315 H              1 S1                 0.0000
     44 ****         5.1024  -1.5905   0.5088 H              1 S1                 0.0000
     45 ****         3.3583  -3.2819   0.9501 H              1 S1                 0.0000
     46 ****         4.3296  -1.9007   2.9532 H              1 S1                 0.0000
     47 ****         2.6375  -2.3330   3.2889 H              1 S1                 0.0000
     48 ****        -0.8581   0.1994  -3.1913 LP             1 S1                 0.0000
     49 ****         0.6411  -0.4740  -2.6445 LP             1 S1                 0.0000
     50 ****        -3.2151  -0.1750  -3.6217 LP             1 S1                 0.0000
     51 ****        -3.9259   1.1705  -4.4490 LP             1 S1                 0.0000
     52 ****        -4.2869   3.1906  -3.4076 LP             1 S1                 0.0000
@<TRIPOS>BOND
    1    1   24 1     
    2    1   25 1     
    3    1   26 1     
    4    1    2 1     
    5    2    3 1     
    6    2   22 2     
    7    3    4 1     
    8    3   23 1     
    9    4    6 2     
   10    4    5 1     
   11    5   27 1     
   12    5   28 1     
   13    5   29 1     
   14    6   20 1     
   15    6    7 1     
   16    7    8 1     
   17    7   30 1     
   18    7   31 1     
   19    8    9 2     
   20    8   10 am    
   21   10   11 1     
   22   10   32 1     
   23   11   12 1     
   24   11   13 1     
   25   11   33 1     
   26   12   34 1     
   27   12   35 1     
   28   12   36 1     
   29   13   18 1     
   30   13   14 1     
   31   13   37 1     
   32   14   15 1     
   33   14   38 1     
   34   14   39 1     
   35   15   19 1     
   36   15   16 1     
   37   15   40 1     
   38   16   17 1     
   39   16   41 1     
   40   16   42 1     
   41   17   18 1     
   42   17   43 1     
   43   17   44 1     
   44   18   19 1     
   45   18   45 1     
   46   19   46 1     
   47   19   47 1     
   48   20   21 2     
   49   20   22 1     
   50    9   48 1     
   51    9   49 1     
   52   21   50 1     
   53   21   51 1     
   54   22   52 1     
@<TRIPOS>SUBSTRUCTURE
      1 S1             1
@<TRIPOS>SET
LONE_PAIRS      STATIC     ATOMS    <user>   **** ""
5 48 49 50 51 52
DONOR_HYDROGENS      STATIC     ATOMS    <user>   **** ""
2 23 32
ATOM$BLUE        STATIC     ATOMS    COLORGROUP SYSTEM
5 48 49 50 51 52
ATOM$RED        STATIC     ATOMS    COLORGROUP SYSTEM
2 23 32
