#       Name:                AV-unprocessed.smi:311
#       Creating user name   scv26
#       Creation time:       Thu Mar 26 22:20:13 2020


#       File generated by GOLD software.
#

@<TRIPOS>MOLECULE
AV-unprocessed.smi:311
    49    51     1
SMALL
NO_CHARGES


@<TRIPOS>ATOM
      1 ****        -3.8309   1.6053  -1.3526 C.3            1 S1                 0.0000
      2 ****        -4.2886   0.2347  -0.9432 C.2            1 S1                 0.0000
      3 ****        -5.5464   0.0479  -0.5804 N.2            1 S1                 0.0000
      4 ****        -5.6533  -1.3071  -0.2522 O.3            1 S1                 0.0000
      5 ****        -4.4400  -1.8891  -0.4304 C.2            1 S1                 0.0000
      6 ****        -4.3414  -3.3450  -0.1230 C.3            1 S1                 0.0000
      7 ****        -3.5289  -0.9683  -0.8696 C.2            1 S1                 0.0000
      8 ****        -2.0707  -1.1701  -1.1926 C.3            1 S1                 0.0000
      9 ****        -1.2085  -0.6542  -0.0395 C.2            1 S1                 0.0000
     10 ****        -1.3074  -1.1581   1.0793 O.2            1 S1                 0.0000
     11 ****        -0.3675   0.3532  -0.3222 N.am           1 S1                 0.0000
     12 ****         0.4948   1.0275   0.6465 C.3            1 S1                 0.0000
     13 ****         0.8368   2.4745   0.2447 C.3            1 S1                 0.0000
     14 ****         2.3028   2.6508   0.6542 C.3            1 S1                 0.0000
     15 ****         2.8675   1.3157   0.4267 N.4            1 S1                 1.0000
     16 ****         4.2212   1.0212   0.9383 C.3            1 S1                 0.0000
     17 ****         4.6526  -0.3605   0.4013 C.3            1 S1                 0.0000
     18 ****         3.6032  -1.4573   0.6939 C.3            1 S1                 0.0000
     19 ****         2.1853  -1.0305   0.2548 C.3            1 S1                 0.0000
     20 ****         1.8617   0.3388   0.8792 C.3            1 S1                 0.0000
     21 ****        -3.1505   1.5538  -2.2025 H              1 S1                 0.0000
     22 ****        -3.3046   2.0987  -0.5353 H              1 S1                 0.0000
     23 ****        -4.6689   2.2409  -1.6402 H              1 S1                 0.0000
     24 ****        -3.4988  -3.5418   0.5399 H              1 S1                 0.0000
     25 ****        -4.1955  -3.9221  -1.0360 H              1 S1                 0.0000
     26 ****        -5.2461  -3.7073   0.3657 H              1 S1                 0.0000
     27 ****        -1.8395  -2.2243  -1.3479 H              1 S1                 0.0000
     28 ****        -1.7996  -0.6624  -2.1193 H              1 S1                 0.0000
     29 ****        -0.3498   0.7000  -1.2706 H              1 S1                 0.0000
     30 ****        -0.0298   1.0692   1.6034 H              1 S1                 0.0000
     31 ****         0.7487   2.5982  -0.8361 H              1 S1                 0.0000
     32 ****         0.1810   3.2081   0.7147 H              1 S1                 0.0000
     33 ****         2.8150   3.4168   0.0710 H              1 S1                 0.0000
     34 ****         2.3789   2.9089   1.7117 H              1 S1                 0.0000
     35 ****         4.9187   1.7897   0.6030 H              1 S1                 0.0000
     36 ****         4.2232   1.0340   2.0293 H              1 S1                 0.0000
     37 ****         4.8018  -0.2919  -0.6771 H              1 S1                 0.0000
     38 ****         5.6169  -0.6426   0.8251 H              1 S1                 0.0000
     39 ****         3.8851  -2.3871   0.1989 H              1 S1                 0.0000
     40 ****         3.5980  -1.6693   1.7639 H              1 S1                 0.0000
     41 ****         2.1293  -0.9763  -0.8334 H              1 S1                 0.0000
     42 ****         1.4627  -1.7812   0.5751 H              1 S1                 0.0000
     43 ****         1.9670   0.2401   1.9619 H              1 S1                 0.0000
     44 ****         2.9163   1.2166  -0.5773 H              1 S1                 0.0000
     45 ****        -6.2724   0.7349  -0.5475 LP             1 S1                 0.0000
     46 ****        -6.3285  -1.7458  -0.8452 LP             1 S1                 0.0000
     47 ****        -5.9363  -1.4019   0.7022 LP             1 S1                 0.0000
     48 ****        -1.9524  -1.9061   1.2355 LP             1 S1                 0.0000
     49 ****        -0.7428  -0.8193   1.8319 LP             1 S1                 0.0000
@<TRIPOS>BOND
    1    1    2 1     
    2    1   21 1     
    3    1   22 1     
    4    1   23 1     
    5    2    7 1     
    6    2    3 2     
    7    3    4 1     
    8    4    5 1     
    9    5    6 1     
   10    5    7 2     
   11    6   24 1     
   12    6   25 1     
   13    6   26 1     
   14    7    8 1     
   15    8    9 1     
   16    8   27 1     
   17    8   28 1     
   18    9   10 2     
   19    9   11 am    
   20   11   12 1     
   21   11   29 1     
   22   12   20 1     
   23   12   13 1     
   24   12   30 1     
   25   13   14 1     
   26   13   31 1     
   27   13   32 1     
   28   14   15 1     
   29   14   33 1     
   30   14   34 1     
   31   15   20 1     
   32   15   16 1     
   33   15   44 1     
   34   16   17 1     
   35   16   35 1     
   36   16   36 1     
   37   17   18 1     
   38   17   37 1     
   39   17   38 1     
   40   18   19 1     
   41   18   39 1     
   42   18   40 1     
   43   19   20 1     
   44   19   41 1     
   45   19   42 1     
   46   20   43 1     
   47    3   45 1     
   48    4   46 1     
   49    4   47 1     
   50   10   48 1     
   51   10   49 1     
@<TRIPOS>SUBSTRUCTURE
      1 S1             1
@<TRIPOS>SET
LONE_PAIRS      STATIC     ATOMS    <user>   **** ""
5 45 46 47 48 49
DONOR_HYDROGENS      STATIC     ATOMS    <user>   **** ""
2 29 44
ATOM$BLUE        STATIC     ATOMS    COLORGROUP SYSTEM
5 45 46 47 48 49
ATOM$RED        STATIC     ATOMS    COLORGROUP SYSTEM
2 29 44
