AV-unprocessed.smi:62|AV-procd|sdf|605|dock7
  -GOLD-   2262016503D 1   1.00000     0.00000
 Structure written by MMmdl.
 30 31  0  0  0  0  0  0  0  0  2 V2000
  151.1604  144.5182  159.0257 C   0  0  0  0  0  0  0  0  0  0  0  0
  151.4800  143.2288  158.4522 N   0  0  0  0  0  0  0  0  0  0  0  0
  151.1773  142.7442  157.2005 C   0  0  0  0  0  0  0  0  0  0  0  0
  151.6770  141.4749  157.1065 C   0  0  0  0  0  0  0  0  0  0  0  0
  151.5602  140.5651  155.9066 C   0  0  0  0  0  0  0  0  0  0  0  0
  150.1735  140.2736  155.5564 N   0  0  0  0  0  0  0  0  0  0  0  0
  149.4874  141.3650  154.8845 C   0  0  0  0  0  0  0  0  0  0  0  0
  148.2865  140.7443  154.1563 C   0  0  0  0  0  0  0  0  0  0  0  0
  148.5908  139.2372  154.1517 C   0  0  1  0  0  0  0  0  0  0  0  0
  148.4315  138.6485  152.8779 O   0  0  0  0  0  0  0  0  0  0  0  0
  150.0375  139.1617  154.6405 C   0  0  0  0  0  0  0  0  0  0  0  0
  152.2888  141.2710  158.3906 C   0  0  0  0  0  0  0  0  0  0  0  0
  152.9901  139.9906  158.7621 C   0  0  0  0  0  0  0  0  0  0  0  0
  153.2831  139.7559  159.9550 O   0  0  0  0  0  0  0  0  0  0  0  0
  153.2561  139.1840  157.8432 O   0  5  0  0  0  0  0  0  0  0  0  0
  152.1605  142.3273  159.1836 N   0  0  0  0  0  0  0  0  0  0  0  0
  150.7078  145.1619  158.2709 H   0  0  0  0  0  0  0  0  0  0  0  0
  152.0685  144.9932  159.3982 H   0  0  0  0  0  0  0  0  0  0  0  0
  150.4587  144.3896  159.8503 H   0  0  0  0  0  0  0  0  0  0  0  0
  150.6295  143.3353  156.4818 H   0  0  0  0  0  0  0  0  0  0  0  0
  152.0649  141.0046  155.0452 H   0  0  0  0  0  0  0  0  0  0  0  0
  152.0876  139.6290  156.0908 H   0  0  0  0  0  0  0  0  0  0  0  0
  149.1870  142.1410  155.5891 H   0  0  0  0  0  0  0  0  0  0  0  0
  150.1494  141.8248  154.1489 H   0  0  0  0  0  0  0  0  0  0  0  0
  147.3545  140.9452  154.6855 H   0  0  0  0  0  0  0  0  0  0  0  0
  148.1951  141.1568  153.1505 H   0  0  0  0  0  0  0  0  0  0  0  0
  147.9386  138.7309  154.8647 H   0  0  0  0  0  0  0  0  0  0  0  0
  148.6839  139.2818  152.2233 H   0  0  0  0  0  0  0  0  0  0  0  0
  150.7241  139.2868  153.8012 H   0  0  0  0  0  0  0  0  0  0  0  0
  150.2662  138.2113  155.1240 H   0  0  0  0  0  0  0  0  0  0  0  0
  1  2  1  0  0  0  0
  1 17  1  0  0  0  0
  1 18  1  0  0  0  0
  1 19  1  0  0  0  0
  2 16  1  0  0  0  0
  2  3  1  0  0  0  0
  3  4  2  0  0  0  0
  3 20  1  0  0  0  0
  4  5  1  0  0  0  0
  4 12  1  0  0  0  0
  5  6  1  0  0  0  0
  5 21  1  0  0  0  0
  5 22  1  0  0  0  0
  6 11  1  0  0  0  0
  6  7  1  0  0  0  0
  7  8  1  0  0  0  0
  7 23  1  0  0  0  0
  7 24  1  0  0  0  0
  8  9  1  0  0  0  0
  8 25  1  0  0  0  0
  8 26  1  0  0  0  0
  9 10  1  0  0  0  0
  9 11  1  0  0  0  0
  9 27  1  0  0  0  0
 10 28  1  0  0  0  0
 11 29  1  0  0  0  0
 11 30  1  0  0  0  0
 12 13  1  0  0  0  0
 12 16  2  0  0  0  0
 13 14  2  0  0  0  0
 13 15  1  0  0  0  0
M  CHG  1  15  -1
M  END
> <s_m_source_file>
AV-unprocessed.smi

> <i_m_source_file_index>
62

> <i_lp_mmshare_version>
43012

> <i_f3d_flags>
0

> <s_epik_input>
W0NIM11uMVtjSF1jKGMobjEpQyg9TylbT0hdKVtDSDJdTjJbQ0gyXVtDSDJdW0NAQEhdKFtPSF0pW0NIMl0y

> <s_epik_cmdline>
J2VwaWtfcHl0aG9uJywgJy1waCcsICc3LjAnLCAnLXRuJywgJzgnLCAnLW1hJywgJzIwMCcsICctbWV0YWxfYmluZGluZycsICctaW1hZScsICc8aW5maWxlLm1hZT4nLCAnLW9tYWUnLCAnPG91dGZpbGUubWFlPic=

> <r_epik_Ionization_Penalty>
1.46526

> <r_epik_Ionization_Penalty_Charging>
0.000523675

> <r_epik_Ionization_Penalty_Neutral>
1.46474

> <r_epik_State_Penalty>
1.55202

> <r_epik_Charging_Adjusted_Penalty>
1.55254

> <i_epik_Tot_Q>
-1

> <i_epik_Tot_abs_Q>
1

> <r_epik_Metal_State_Penalty>
1.552

> <b_epik_Metal_Only>
0

> <s_lp_Force_Field>
OPLS_2005

> <r_lp_Energy>
37.4644

> <b_lp_Chiralities_Consistent>
1

> <s_lp_Variant>
AV-unprocessed.smi:62-5

> <Gold.Version>
5.8.1

> <Gold.Id.Protein>
6NUR|6NUR_protein|mol2

> <Gold.PLP.Fitness>
41.6978

> <Gold.PLP.PLP>
-30.0765

> <Gold.PLP.part.hbond>
-2.7376

> <Gold.PLP.part.metal>
0.0000

> <Gold.PLP.part.buried>
-4.6163

> <Gold.PLP.part.nonpolar>
-22.0395

> <Gold.PLP.part.repulsive>
0.0447

> <Gold.PLP.ligand.clash>
0.0000

> <Gold.PLP.ligand.torsion>
0.1927

> <Gold.PLP.Chemscore.Hbond>
3.0000

> <Gold.PLP.Chemscore.CHOScore>
1.0000

> <Gold.PLP.Chemscore.Metal>
0.0000

> <Gold.Chemscore.Hbonds>
donor molecule, donor type, donor heavy atom, donor atom, acceptor molecule, acceptor atom, score
      L1  H    10    28       P1  7957  1.00
      P1  H  7997  8010       L1    15  1.90
      L1  C     3    20       P1  8028  1.00

> <Gold.PLP.Chemscore.Internal.Correction>
0.0068

> <Gold.Rescore>
     Score         DG    S(hbond)    S(metal)    S(lipo)     H(rot)  DE(clash)    DE(int)     intcor
     14.19     -15.86       1.98        0.00      71.00       1.77       0.24       1.43       ----

> <Gold.Chemscore.Fitness>
14.1857

> <Gold.Chemscore.DG>
-15.8600

> <Gold.Chemscore.ZeroCoef>
-5.4800

> <Gold.Chemscore.Hbond>
1.9753

> <Gold.Chemscore.Metal>
0.0000

> <Gold.Chemscore.Lipo>
70.9984

> <Gold.Chemscore.Internal_Hbond>
0.0000

> <Gold.Chemscore.DEClash>
0.2401

> <Gold.Chemscore.DEInternal>
1.4342

> <Gold.Chemscore.Rot>
1.7674

> <Gold.Chemscore.Internal.Correction>
   9.000000E+99

> <Gold.Chemscore.Hbonds>
donor molecule, donor type, donor heavy atom, donor atom, acceptor molecule, acceptor atom, score
      L1  H    10    28       P1  7957  0.97
      P1  H  7997  8010       L1    15  0.20

> <Gold.Chemscore.Hbond.Weighted>
-6.5977

> <Gold.Chemscore.Metal.Weighted>
-0.0000

> <Gold.Chemscore.Lipo.Weighted>
-8.3068

> <Gold.Chemscore.Internal_Hbond.Weighted>
0.0000

> <Gold.Chemscore.DEClash.Weighted>
0.2401

> <Gold.Chemscore.DEInternal.Weighted>
1.4342

> <Gold.Chemscore.Rot.Weighted>
4.5245

> <Gold.Chemscore.Internal.Correction.Weighted>
   9.000000E+99

> <Gold.Protein.RotatedTorsions>
[ 6907 6896 6895 6894 ] final    9.51 input  -60.11 | X-H torsion
[ 7974 7965 7964 7962 ] final  -78.48 input  175.53 | X-H torsion
[ 8008 7997 7996 7995 ] final   18.56 input   59.86 | X-H torsion
[ 10167 10162 10161 10158 ] final  -43.69 input  -65.29 | X-H torsion
[ 10718 10713 10712 10709 ] final   68.89 input   66.30 | X-H torsion
[ 10763 10752 10751 10750 ] final   49.37 input  -60.55 | X-H torsion
[ 11005 11000 10999 10996 ] final    2.73 input  -57.11 | X-H torsion

> <Gold.Protein.ActiveResidues>
 VAL166  LYS551  ARG553  GLY616  TRP617  ASP618  TYR619  PRO620  LYS621  CYS622 
 ASP623  PHE694  ASN695  SER759  ASP760  ASP761  ALA762  ILE779  LEU786  VAL792 
 PHE793  MET794  SER795  GLU796  ALA797  LYS798  CYS799  TRP800  GLU811  SER814 

> <Gold.Protein.RotatedAtoms>
  151.7233  135.0890  160.0287 H   0  0  0  0  0  0  0  0  0  0  0  0  # atno 6907 bound_to 6896
  152.3588  133.6266  159.6007 H   0  0  0  0  0  0  0  0  0  0  0  0  # atno 6908 bound_to 6896
  150.7589  133.9374  159.3487 H   0  0  0  0  0  0  0  0  0  0  0  0  # atno 6909 bound_to 6896
  145.5860  140.9439  143.1318 H   0  0  0  0  0  0  0  0  0  0  0  0  # atno 7974 bound_to 7965
  154.9078  140.3010  155.5282 H   0  0  0  0  0  0  0  0  0  0  0  0  # atno 8008 bound_to 7997
  156.3016  140.2395  156.4049 H   0  0  0  0  0  0  0  0  0  0  0  0  # atno 8009 bound_to 7997
  154.8456  140.0412  157.1559 H   0  0  0  0  0  0  0  0  0  0  0  0  # atno 8010 bound_to 7997
  140.6924  143.2969  151.3389 H   0  0  0  0  0  0  0  0  0  0  0  0  # atno 10167 bound_to 10162
  157.6315  130.9397  150.0439 H   0  0  0  0  0  0  0  0  0  0  0  0  # atno 10718 bound_to 10713
  152.9787  135.5914  154.4078 H   0  0  0  0  0  0  0  0  0  0  0  0  # atno 10763 bound_to 10752
  154.3717  135.2767  155.2264 H   0  0  0  0  0  0  0  0  0  0  0  0  # atno 10764 bound_to 10752
  154.4217  135.6057  153.6068 H   0  0  0  0  0  0  0  0  0  0  0  0  # atno 10765 bound_to 10752
  140.6010  133.9836  155.8132 H   0  0  0  0  0  0  0  0  0  0  0  0  # atno 11005 bound_to 11000
  144.7373  139.7550  143.7324 LP  0  0  0  0  0  0  0  0  0  0  0  0  # atno 17320 bound_to 7965
  146.1682  139.4822  142.9945 LP  0  0  0  0  0  0  0  0  0  0  0  0  # atno 17321 bound_to 7965
  139.6342  144.0663  152.2501 LP  0  0  0  0  0  0  0  0  0  0  0  0  # atno 17342 bound_to 10162
  140.0147  144.6197  150.7617 LP  0  0  0  0  0  0  0  0  0  0  0  0  # atno 17343 bound_to 10162
  156.1522  130.3642  149.9421 LP  0  0  0  0  0  0  0  0  0  0  0  0  # atno 17370 bound_to 10713
  156.7438  130.9089  151.3633 LP  0  0  0  0  0  0  0  0  0  0  0  0  # atno 17371 bound_to 10713
  141.0872  133.9972  157.3294 LP  0  0  0  0  0  0  0  0  0  0  0  0  # atno 17394 bound_to 11000
  139.9232  135.0201  156.8142 LP  0  0  0  0  0  0  0  0  0  0  0  0  # atno 17395 bound_to 11000

$$$$
