#       Name:                AV-unprocessed.smi:992
#       Creating user name   scv26
#       Creation time:       Fri Mar 27 02:23:34 2020


#       File generated by GOLD software.
#

@<TRIPOS>MOLECULE
AV-unprocessed.smi:992
    36    37     1
SMALL
NO_CHARGES


@<TRIPOS>ATOM
      1 ****        -2.9240  -1.4351   2.1345 C.3            1 S1                 0.0000
      2 ****        -2.3098  -0.7691   0.8989 C.3            1 S1                 0.0000
      3 ****        -0.7751  -0.6928   0.9895 C.3            1 S1                 0.0000
      4 ****        -0.2448   0.0368  -0.1538 N.3            1 S1                 0.0000
      5 ****         1.1547   0.0142  -0.2335 C.ar           1 S1                 0.0000
      6 ****         1.7658  -0.6128  -1.3399 C.ar           1 S1                 0.0000
      7 ****         3.1719  -0.6370  -1.4136 C.ar           1 S1                 0.0000
      8 ****         3.9156  -0.0332  -0.3807 C.ar           1 S1                 0.0000
      9 ****         5.3095  -0.0337  -0.4092 N.pl3          1 S1                 0.0000
     10 ****         3.2147   0.5712   0.6829 C.ar           1 S1                 0.0000
     11 ****         1.8669   0.5974   0.7609 N.ar           1 S1                 0.0000
     12 ****        -0.8107   1.3752  -0.2654 C.3            1 S1                 0.0000
     13 ****        -2.3511   1.3155  -0.3087 C.3            1 S1                 0.0000
     14 ****        -2.9101   0.8183  -1.6536 C.3            1 S1                 0.0000
     15 ****        -2.8455   0.5507   0.7944 O.3            1 S1                 0.0000
     16 ****        -2.5508  -2.4521   2.2580 H              1 S1                 0.0000
     17 ****        -4.0097  -1.4870   2.0498 H              1 S1                 0.0000
     18 ****        -2.6868  -0.8787   3.0417 H              1 S1                 0.0000
     19 ****        -2.5964  -1.3525   0.0236 H              1 S1                 0.0000
     20 ****        -0.4801  -0.1924   1.9132 H              1 S1                 0.0000
     21 ****        -0.3492  -1.6968   1.0157 H              1 S1                 0.0000
     22 ****         1.1699  -1.0688  -2.1170 H              1 S1                 0.0000
     23 ****         3.6663  -1.1116  -2.2487 H              1 S1                 0.0000
     24 ****         5.8200  -0.4645  -1.1668 H              1 S1                 0.0000
     25 ****         5.8517   0.4644   0.2821 H              1 S1                 0.0000
     26 ****         3.7470   1.0459   1.4944 H              1 S1                 0.0000
     27 ****        -0.4959   1.9690   0.5940 H              1 S1                 0.0000
     28 ****        -0.4239   1.8741  -1.1551 H              1 S1                 0.0000
     29 ****        -2.7258   2.3296  -0.1680 H              1 S1                 0.0000
     30 ****        -2.6195   1.4881  -2.4632 H              1 S1                 0.0000
     31 ****        -3.9993   0.7820  -1.6312 H              1 S1                 0.0000
     32 ****        -2.5464  -0.1760  -1.9115 H              1 S1                 0.0000
     33 ****        -0.5506  -0.4624  -0.9646 LP             1 S1                 0.0000
     34 ****         1.4062   1.0359   1.5326 LP             1 S1                 0.0000
     35 ****        -2.6260   1.0427   1.6368 LP             1 S1                 0.0000
     36 ****        -3.8384   0.4765   0.7009 LP             1 S1                 0.0000
@<TRIPOS>BOND
    1    1    2 1     
    2    1   16 1     
    3    1   17 1     
    4    1   18 1     
    5    2   15 1     
    6    2    3 1     
    7    2   19 1     
    8    3    4 1     
    9    3   20 1     
   10    3   21 1     
   11    4    5 1     
   12    4   12 1     
   13    5   11 ar    
   14    5    6 ar    
   15    6    7 ar    
   16    6   22 1     
   17    7    8 ar    
   18    7   23 1     
   19    8    9 1     
   20    8   10 ar    
   21    9   24 1     
   22    9   25 1     
   23   10   11 ar    
   24   10   26 1     
   25   12   13 1     
   26   12   27 1     
   27   12   28 1     
   28   13   14 1     
   29   13   15 1     
   30   13   29 1     
   31   14   30 1     
   32   14   31 1     
   33   14   32 1     
   34    4   33 1     
   35   11   34 1     
   36   15   35 1     
   37   15   36 1     
@<TRIPOS>SUBSTRUCTURE
      1 S1             1
@<TRIPOS>SET
LONE_PAIRS      STATIC     ATOMS    <user>   **** ""
4 33 34 35 36
DONOR_HYDROGENS      STATIC     ATOMS    <user>   **** ""
2 24 25
ATOM$BLUE        STATIC     ATOMS    COLORGROUP SYSTEM
4 33 34 35 36
ATOM$RED        STATIC     ATOMS    COLORGROUP SYSTEM
2 24 25
