AV-unprocessed.smi:1612|AV-procd|sdf|6476|dock10
  -GOLD-   22720 7133D 1   1.00000     0.00000
 Structure written by MMmdl.
 37 38  0  0  0  0  0  0  0  0  1 V2000
  152.9349  138.4489  154.5683 C   0  0  0  0  0  0  0  0  0  0  0  0
  151.6549  138.4409  155.4211 C   0  0  2  0  0  0  0  0  0  0  0  0
  150.7693  137.4045  154.8902 N   0  0  0  0  0  0  0  0  0  0  0  0
  150.8201  136.1042  155.2176 C   0  0  0  0  0  0  0  0  0  0  0  0
  151.6499  135.6340  155.9969 O   0  0  0  0  0  0  0  0  0  0  0  0
  149.8559  135.4068  154.5915 N   0  0  0  0  0  0  0  0  0  0  0  0
  149.5853  134.0148  154.6735 C   0  0  0  0  0  0  0  0  0  0  0  0
  150.0113  133.3920  155.8686 C   0  0  0  0  0  0  0  0  0  0  0  0
  149.7884  132.0132  156.0491 C   0  0  0  0  0  0  0  0  0  0  0  0
  149.1445  131.2913  155.0284 C   0  0  0  0  0  0  0  0  0  0  0  0
  148.7524  131.9874  153.8702 C   0  0  0  0  0  0  0  0  0  0  0  0
  148.9643  133.3090  153.6955 N   0  0  0  0  0  0  0  0  0  0  0  0
  150.9937  139.8323  155.3036 C   0  0  0  0  0  0  0  0  0  0  0  0
  150.3550  140.1106  154.2864 O   0  0  0  0  0  0  0  0  0  0  0  0
  151.1461  140.7189  156.3107 N   0  0  0  0  0  0  0  0  0  0  0  0
  151.9233  140.4355  157.5162 C   0  0  0  0  0  0  0  0  0  0  0  0
  152.0538  141.7699  158.2501 C   0  0  0  0  0  0  0  0  0  0  0  0
  150.8387  142.5640  157.7928 C   0  0  0  0  0  0  0  0  0  0  0  0
  150.5827  142.0675  156.3695 C   0  0  0  0  0  0  0  0  0  0  0  0
  153.6444  139.1976  154.9228 H   0  0  0  0  0  0  0  0  0  0  0  0
  152.7238  138.6620  153.5191 H   0  0  0  0  0  0  0  0  0  0  0  0
  153.4375  137.4822  154.6128 H   0  0  0  0  0  0  0  0  0  0  0  0
  151.9036  138.1941  156.4536 H   0  0  0  0  0  0  0  0  0  0  0  0
  150.0520  137.7071  154.2478 H   0  0  0  0  0  0  0  0  0  0  0  0
  149.2428  135.9330  153.9866 H   0  0  0  0  0  0  0  0  0  0  0  0
  150.5052  133.9615  156.6428 H   0  0  0  0  0  0  0  0  0  0  0  0
  150.1064  131.5187  156.9550 H   0  0  0  0  0  0  0  0  0  0  0  0
  148.9555  130.2328  155.1298 H   0  0  0  0  0  0  0  0  0  0  0  0
  148.2549  131.4701  153.0631 H   0  0  0  0  0  0  0  0  0  0  0  0
  151.3794  139.7135  158.1270 H   0  0  0  0  0  0  0  0  0  0  0  0
  152.9031  140.0144  157.2847 H   0  0  0  0  0  0  0  0  0  0  0  0
  152.1028  141.6542  159.3333 H   0  0  0  0  0  0  0  0  0  0  0  0
  152.9635  142.2773  157.9264 H   0  0  0  0  0  0  0  0  0  0  0  0
  149.9845  142.3190  158.4253 H   0  0  0  0  0  0  0  0  0  0  0  0
  150.9932  143.6422  157.8433 H   0  0  0  0  0  0  0  0  0  0  0  0
  151.1011  142.7012  155.6482 H   0  0  0  0  0  0  0  0  0  0  0  0
  149.5171  142.0827  156.1368 H   0  0  0  0  0  0  0  0  0  0  0  0
  1  2  1  0  0  0  0
  1 20  1  0  0  0  0
  1 21  1  0  0  0  0
  1 22  1  0  0  0  0
  2  3  1  0  0  0  0
  2 13  1  0  0  0  0
  2 23  1  0  0  0  0
  3  4  1  0  0  0  0
  3 24  1  0  0  0  0
  4  5  2  0  0  0  0
  4  6  1  0  0  0  0
  6  7  1  0  0  0  0
  6 25  1  0  0  0  0
  7 12  1  0  0  0  0
  7  8  2  0  0  0  0
  8  9  1  0  0  0  0
  8 26  1  0  0  0  0
  9 10  2  0  0  0  0
  9 27  1  0  0  0  0
 10 11  1  0  0  0  0
 10 28  1  0  0  0  0
 11 12  2  0  0  0  0
 11 29  1  0  0  0  0
 13 14  2  0  0  0  0
 13 15  1  0  0  0  0
 15 19  1  0  0  0  0
 15 16  1  0  0  0  0
 16 17  1  0  0  0  0
 16 30  1  0  0  0  0
 16 31  1  0  0  0  0
 17 18  1  0  0  0  0
 17 32  1  0  0  0  0
 17 33  1  0  0  0  0
 18 19  1  0  0  0  0
 18 34  1  0  0  0  0
 18 35  1  0  0  0  0
 19 36  1  0  0  0  0
 19 37  1  0  0  0  0
M  END
> <s_m_source_file>
AV-unprocessed.smi

> <i_m_source_file_index>
1612

> <i_lp_mmshare_version>
43012

> <i_f3d_flags>
0

> <s_epik_input>
W0NIMl0xW0NIMl1bQ0gyXVtDSDJdTjFDKD1PKVtDQEhdKFtDSDNdKVtOSF1DKD1PKVtOSF1jMltjSF1bY0hdW2NIXVtjSF1uMg==

> <s_epik_cmdline>
J2VwaWtfcHl0aG9uJywgJy1waCcsICc3LjAnLCAnLXRuJywgJzgnLCAnLW1hJywgJzIwMCcsICctbWV0YWxfYmluZGluZycsICctaW1hZScsICc8aW5maWxlLm1hZT4nLCAnLW9tYWUnLCAnPG91dGZpbGUubWFlPic=

> <r_lp_tautomer_probability>
1

> <r_epik_Ionization_Penalty>
3.95281e-05

> <r_epik_Ionization_Penalty_Charging>
0

> <r_epik_Ionization_Penalty_Neutral>
3.95281e-05

> <r_epik_State_Penalty>
-0

> <r_epik_Charging_Adjusted_Penalty>
0

> <i_epik_Tot_Q>
0

> <i_epik_Tot_abs_Q>
0

> <r_epik_Metal_State_Penalty>
-0

> <b_epik_Metal_Only>
0

> <s_lp_Force_Field>
OPLS_2005

> <r_lp_Energy>
30.1614

> <b_lp_Chiralities_Consistent>
1

> <s_lp_Variant>
AV-unprocessed.smi:1612-1

> <Gold.Version>
5.8.1

> <Gold.Id.Protein>
6NUR|6NUR_protein|mol2

> <Gold.PLP.Fitness>
44.7055

> <Gold.PLP.PLP>
-35.2572

> <Gold.PLP.part.hbond>
-3.4641

> <Gold.PLP.part.metal>
0.0000

> <Gold.PLP.part.buried>
-3.1654

> <Gold.PLP.part.nonpolar>
-30.0132

> <Gold.PLP.part.repulsive>
0.5016

> <Gold.PLP.ligand.clash>
0.0000

> <Gold.PLP.ligand.torsion>
1.0051

> <Gold.PLP.Chemscore.Hbond>
2.8160

> <Gold.PLP.Chemscore.CHOScore>
1.0000

> <Gold.PLP.Chemscore.Metal>
0.0000

> <Gold.Chemscore.Hbonds>
donor molecule, donor type, donor heavy atom, donor atom, acceptor molecule, acceptor atom, score
      L1  H     6    25       P1  7948  0.54
      P1  H  7989  7998       L1    14  0.80
      P1  H 10752 10765       L1     5  1.00
      L1  C    11    29       P1 10747  0.01

> <Gold.PLP.Chemscore.Internal.Correction>
0.0105

> <Gold.Rescore>
     Score         DG    S(hbond)    S(metal)    S(lipo)     H(rot)  DE(clash)    DE(int)     intcor
     13.93     -16.39       1.89        0.00      67.61       1.30       0.15       2.30       ----

> <Gold.Chemscore.Fitness>
13.9344

> <Gold.Chemscore.DG>
-16.3851

> <Gold.Chemscore.ZeroCoef>
-5.4800

> <Gold.Chemscore.Hbond>
1.8942

> <Gold.Chemscore.Metal>
0.0000

> <Gold.Chemscore.Lipo>
67.6122

> <Gold.Chemscore.Internal_Hbond>
0.0000

> <Gold.Chemscore.DEClash>
0.1483

> <Gold.Chemscore.DEInternal>
2.3024

> <Gold.Chemscore.Rot>
1.3016

> <Gold.Chemscore.Internal.Correction>
   9.000000E+99

> <Gold.Chemscore.Hbonds>
donor molecule, donor type, donor heavy atom, donor atom, acceptor molecule, acceptor atom, score
      L1  H     6    25       P1  7948  0.43
      P1  H  7989  7998       L1    14  0.12
      P1  H 10752 10765       L1     5  0.65

> <Gold.Chemscore.Hbond.Weighted>
-6.3266

> <Gold.Chemscore.Metal.Weighted>
-0.0000

> <Gold.Chemscore.Lipo.Weighted>
-7.9106

> <Gold.Chemscore.Internal_Hbond.Weighted>
0.0000

> <Gold.Chemscore.DEClash.Weighted>
0.1483

> <Gold.Chemscore.DEInternal.Weighted>
2.3024

> <Gold.Chemscore.Rot.Weighted>
3.3322

> <Gold.Chemscore.Internal.Correction.Weighted>
   9.000000E+99

> <Gold.Protein.RotatedTorsions>
[ 6907 6896 6895 6894 ] final  -93.36 input  -60.11 | X-H torsion
[ 7974 7965 7964 7962 ] final   -8.97 input  175.53 | X-H torsion
[ 8008 7997 7996 7995 ] final -172.59 input   59.86 | X-H torsion
[ 10167 10162 10161 10158 ] final  164.75 input  -65.29 | X-H torsion
[ 10718 10713 10712 10709 ] final   55.07 input   66.30 | X-H torsion
[ 10763 10752 10751 10750 ] final -145.71 input  -60.55 | X-H torsion
[ 11005 11000 10999 10996 ] final   91.67 input  -57.11 | X-H torsion

> <Gold.Protein.ActiveResidues>
 VAL166  LYS551  ARG553  GLY616  TRP617  ASP618  TYR619  PRO620  LYS621  CYS622 
 ASP623  PHE694  ASN695  SER759  ASP760  ASP761  ALA762  ILE779  LEU786  VAL792 
 PHE793  MET794  SER795  GLU796  ALA797  LYS798  CYS799  TRP800  GLU811  SER814 

> <Gold.Protein.RotatedAtoms>
  150.6921  134.1979  159.4310 H   0  0  0  0  0  0  0  0  0  0  0  0  # atno 6907 bound_to 6896
  151.9947  134.9958  160.0572 H   0  0  0  0  0  0  0  0  0  0  0  0  # atno 6908 bound_to 6896
  152.1635  133.4562  159.4910 H   0  0  0  0  0  0  0  0  0  0  0  0  # atno 6909 bound_to 6896
  146.2265  140.2547  142.8349 H   0  0  0  0  0  0  0  0  0  0  0  0  # atno 7974 bound_to 7965
  155.9465  140.1118  157.1012 H   0  0  0  0  0  0  0  0  0  0  0  0  # atno 8008 bound_to 7997
  154.4100  140.1209  156.5062 H   0  0  0  0  0  0  0  0  0  0  0  0  # atno 8009 bound_to 7997
  155.6896  140.3472  155.4890 H   0  0  0  0  0  0  0  0  0  0  0  0  # atno 8010 bound_to 7997
  139.4894  144.4203  151.9194 H   0  0  0  0  0  0  0  0  0  0  0  0  # atno 10167 bound_to 10162
  157.5312  130.8632  149.8691 H   0  0  0  0  0  0  0  0  0  0  0  0  # atno 10718 bound_to 10713
  154.8370  135.3406  154.6548 H   0  0  0  0  0  0  0  0  0  0  0  0  # atno 10763 bound_to 10752
  153.7161  135.6961  153.5029 H   0  0  0  0  0  0  0  0  0  0  0  0  # atno 10764 bound_to 10752
  153.2415  135.4383  155.0656 H   0  0  0  0  0  0  0  0  0  0  0  0  # atno 10765 bound_to 10752
  139.8835  134.8688  156.3462 H   0  0  0  0  0  0  0  0  0  0  0  0  # atno 11005 bound_to 11000
  144.9384  140.8052  143.5645 LP  0  0  0  0  0  0  0  0  0  0  0  0  # atno 17320 bound_to 7965
  145.2497  139.2037  143.4949 LP  0  0  0  0  0  0  0  0  0  0  0  0  # atno 17321 bound_to 7965
  140.3647  144.2929  150.5928 LP  0  0  0  0  0  0  0  0  0  0  0  0  # atno 17342 bound_to 10162
  140.5372  143.2231  151.8144 LP  0  0  0  0  0  0  0  0  0  0  0  0  # atno 17343 bound_to 10162
  156.0424  130.3736  150.1401 LP  0  0  0  0  0  0  0  0  0  0  0  0  # atno 17370 bound_to 10713
  156.9586  130.9797  151.3484 LP  0  0  0  0  0  0  0  0  0  0  0  0  # atno 17371 bound_to 10713
  140.9625  133.7379  156.0421 LP  0  0  0  0  0  0  0  0  0  0  0  0  # atno 17394 bound_to 11000
  140.7972  134.3550  157.5449 LP  0  0  0  0  0  0  0  0  0  0  0  0  # atno 17395 bound_to 11000

$$$$
