AV-unprocessed.smi:1544|AV-procd|sdf|6213|dock3
  -GOLD-   22720 6383D 1   1.00000     0.00000
 Structure written by MMmdl.
 41 42  0  0  0  0  0  0  0  0  1 V2000
  146.0726  138.6742  153.9992 O   0  0  0  0  0  0  0  0  0  0  0  0
  146.9692  138.1059  153.3758 C   0  0  0  0  0  0  0  0  0  0  0  0
  148.2831  138.3586  153.5048 N   0  0  0  0  0  0  0  0  0  0  0  0
  148.9126  139.3332  154.3250 C   0  0  0  0  0  0  0  0  0  0  0  0
  148.2123  140.2551  155.1387 C   0  0  0  0  0  0  0  0  0  0  0  0
  148.9459  141.1886  155.8953 C   0  0  0  0  0  0  0  0  0  0  0  0
  150.3521  141.1789  155.8124 C   0  0  0  0  0  0  0  0  0  0  0  0
  151.0619  142.0938  156.5621 O   0  0  0  0  0  0  0  0  0  0  0  0
  150.5061  142.5410  157.7955 C   0  0  0  0  0  0  0  0  0  0  0  0
  151.4363  143.5904  158.4150 C   0  0  0  0  0  0  0  0  0  0  0  0
  151.7652  144.4896  157.4883 F   0  0  0  0  0  0  0  0  0  0  0  0
  150.8217  144.2157  159.4190 F   0  0  0  0  0  0  0  0  0  0  0  0
  152.5501  143.0119  158.8634 F   0  0  0  0  0  0  0  0  0  0  0  0
  151.0295  140.3090  155.0230 N   0  0  0  0  0  0  0  0  0  0  0  0
  150.3199  139.4183  154.2982 C   0  0  0  0  0  0  0  0  0  0  0  0
  146.7473  137.1276  152.4862 N   0  0  0  0  0  0  0  0  0  0  0  0
  145.4356  136.5938  152.1306 C   0  0  2  0  0  0  0  0  0  0  0  0
  144.7559  136.0154  153.3852 C   0  0  0  0  0  0  0  0  0  0  0  0
  143.3832  135.4037  153.0540 C   0  0  0  0  0  0  0  0  0  0  0  0
  143.4678  134.3512  151.9323 C   0  0  2  0  0  0  0  0  0  0  0  0
  144.1298  133.1939  152.4027 O   0  0  0  0  0  0  0  0  0  0  0  0
  144.1907  134.9038  150.6893 C   0  0  0  0  0  0  0  0  0  0  0  0
  145.5596  135.5157  151.0346 C   0  0  0  0  0  0  0  0  0  0  0  0
  148.9074  137.7457  153.0008 H   0  0  0  0  0  0  0  0  0  0  0  0
  147.1344  140.2744  155.1863 H   0  0  0  0  0  0  0  0  0  0  0  0
  148.4375  141.9024  156.5266 H   0  0  0  0  0  0  0  0  0  0  0  0
  149.5200  142.9783  157.6288 H   0  0  0  0  0  0  0  0  0  0  0  0
  150.3882  141.7028  158.4844 H   0  0  0  0  0  0  0  0  0  0  0  0
  150.8981  138.7467  153.6802 H   0  0  0  0  0  0  0  0  0  0  0  0
  147.5444  136.7150  152.0242 H   0  0  0  0  0  0  0  0  0  0  0  0
  144.8154  137.4100  151.7547 H   0  0  0  0  0  0  0  0  0  0  0  0
  145.3944  135.2531  153.8339 H   0  0  0  0  0  0  0  0  0  0  0  0
  144.6344  136.7957  154.1376 H   0  0  0  0  0  0  0  0  0  0  0  0
  142.9414  134.9670  153.9506 H   0  0  0  0  0  0  0  0  0  0  0  0
  142.7082  136.2014  152.7415 H   0  0  0  0  0  0  0  0  0  0  0  0
  142.4584  134.0475  151.6527 H   0  0  0  0  0  0  0  0  0  0  0  0
  143.6498  132.8533  153.1419 H   0  0  0  0  0  0  0  0  0  0  0  0
  144.3084  134.1212  149.9389 H   0  0  0  0  0  0  0  0  0  0  0  0
  143.5682  135.6724  150.2296 H   0  0  0  0  0  0  0  0  0  0  0  0
  146.0013  135.9422  150.1332 H   0  0  0  0  0  0  0  0  0  0  0  0
  146.2385  134.7287  151.3654 H   0  0  0  0  0  0  0  0  0  0  0  0
  1  2  2  0  0  0  0
  2  3  1  0  0  0  0
  2 16  1  0  0  0  0
  3  4  1  0  0  0  0
  3 24  1  0  0  0  0
  4 15  1  0  0  0  0
  4  5  2  0  0  0  0
  5  6  1  0  0  0  0
  5 25  1  0  0  0  0
  6  7  2  0  0  0  0
  6 26  1  0  0  0  0
  7  8  1  0  0  0  0
  7 14  1  0  0  0  0
  8  9  1  0  0  0  0
  9 10  1  0  0  0  0
  9 27  1  0  0  0  0
  9 28  1  0  0  0  0
 10 11  1  0  0  0  0
 10 12  1  0  0  0  0
 10 13  1  0  0  0  0
 14 15  2  0  0  0  0
 15 29  1  0  0  0  0
 16 17  1  0  0  0  0
 16 30  1  0  0  0  0
 17 23  1  0  0  0  0
 17 18  1  0  0  0  0
 17 31  1  0  0  0  0
 18 19  1  0  0  0  0
 18 32  1  0  0  0  0
 18 33  1  0  0  0  0
 19 20  1  0  0  0  0
 19 34  1  0  0  0  0
 19 35  1  0  0  0  0
 20 21  1  0  0  0  0
 20 22  1  0  0  0  0
 20 36  1  0  0  0  0
 21 37  1  0  0  0  0
 22 23  1  0  0  0  0
 22 38  1  0  0  0  0
 22 39  1  0  0  0  0
 23 40  1  0  0  0  0
 23 41  1  0  0  0  0
M  END
> <s_m_source_file>
AV-unprocessed.smi

> <i_m_source_file_index>
1544

> <i_lp_mmshare_version>
43012

> <i_f3d_flags>
0

> <s_epik_input>
W0NIMl0xW0NIMl1bQ0BIXShbT0hdKVtDSDJdW0NIMl1bQ0BIXTFbTkhdQyg9TylbTkhdYzJbY0hdW2NIXWMobltjSF0yKU9bQ0gyXUMoRikoRilG

> <s_epik_cmdline>
J2VwaWtfcHl0aG9uJywgJy1waCcsICc3LjAnLCAnLXRuJywgJzgnLCAnLW1hJywgJzIwMCcsICctbWV0YWxfYmluZGluZycsICctaW1hZScsICc8aW5maWxlLm1hZT4nLCAnLW9tYWUnLCAnPG91dGZpbGUubWFlPic=

> <r_lp_tautomer_probability>
1

> <r_epik_Ionization_Penalty>
4.43219e-05

> <r_epik_Ionization_Penalty_Charging>
0

> <r_epik_Ionization_Penalty_Neutral>
4.43219e-05

> <r_epik_State_Penalty>
-0

> <r_epik_Charging_Adjusted_Penalty>
0

> <i_epik_Tot_Q>
0

> <i_epik_Tot_abs_Q>
0

> <r_epik_Metal_State_Penalty>
-0

> <b_epik_Metal_Only>
0

> <s_lp_Force_Field>
OPLS_2005

> <r_lp_Energy>
11.0247

> <b_lp_Chiralities_Consistent>
1

> <s_lp_Variant>
AV-unprocessed.smi:1544-2

> <Gold.Version>
5.8.1

> <Gold.Id.Protein>
6NUR|6NUR_protein|mol2

> <Gold.PLP.Fitness>
50.5484

> <Gold.PLP.PLP>
-41.5345

> <Gold.PLP.part.hbond>
-4.1792

> <Gold.PLP.part.metal>
0.0000

> <Gold.PLP.part.buried>
-6.8854

> <Gold.PLP.part.nonpolar>
-32.7704

> <Gold.PLP.part.repulsive>
0.3132

> <Gold.PLP.ligand.clash>
0.0000

> <Gold.PLP.ligand.torsion>
0.4850

> <Gold.PLP.Chemscore.Hbond>
3.3193

> <Gold.PLP.Chemscore.CHOScore>
0.0000

> <Gold.PLP.Chemscore.Metal>
0.0000

> <Gold.Chemscore.Hbonds>
donor molecule, donor type, donor heavy atom, donor atom, acceptor molecule, acceptor atom, score
      L1  H     3    24       P1  7948  0.88
      L1  H    16    30       P1  7948  0.88
      L1  H    21    37       P1 10957  0.60
      P1  H  7989  7998       L1    14  0.30

> <Gold.PLP.Chemscore.Internal.Correction>
0.0262

> <Gold.Rescore>
     Score         DG    S(hbond)    S(metal)    S(lipo)     H(rot)  DE(clash)    DE(int)     intcor
     15.08     -17.31       2.83        0.00      70.76       2.31       0.49       1.74       ----

> <Gold.Chemscore.Fitness>
15.0773

> <Gold.Chemscore.DG>
-17.3072

> <Gold.Chemscore.ZeroCoef>
-5.4800

> <Gold.Chemscore.Hbond>
2.8334

> <Gold.Chemscore.Metal>
0.0000

> <Gold.Chemscore.Lipo>
70.7638

> <Gold.Chemscore.Internal_Hbond>
0.0000

> <Gold.Chemscore.DEClash>
0.4904

> <Gold.Chemscore.DEInternal>
1.7395

> <Gold.Chemscore.Rot>
2.3109

> <Gold.Chemscore.Internal.Correction>
   9.000000E+99

> <Gold.Chemscore.Hbonds>
donor molecule, donor type, donor heavy atom, donor atom, acceptor molecule, acceptor atom, score
      L1  H     3    24       P1  7948  0.86
      L1  H    16    30       P1  7948  0.85
      L1  H    21    37       P1 10957  0.27

> <Gold.Chemscore.Hbond.Weighted>
-9.4637

> <Gold.Chemscore.Metal.Weighted>
-0.0000

> <Gold.Chemscore.Lipo.Weighted>
-8.2794

> <Gold.Chemscore.Internal_Hbond.Weighted>
0.0000

> <Gold.Chemscore.DEClash.Weighted>
0.4904

> <Gold.Chemscore.DEInternal.Weighted>
1.7395

> <Gold.Chemscore.Rot.Weighted>
5.9158

> <Gold.Chemscore.Internal.Correction.Weighted>
   9.000000E+99

> <Gold.Protein.RotatedTorsions>
[ 6907 6896 6895 6894 ] final   65.43 input  -60.11 | X-H torsion
[ 7974 7965 7964 7962 ] final  -61.68 input  175.53 | X-H torsion
[ 8008 7997 7996 7995 ] final   39.58 input   59.86 | X-H torsion
[ 10167 10162 10161 10158 ] final   42.65 input  -65.29 | X-H torsion
[ 10718 10713 10712 10709 ] final -138.28 input   66.30 | X-H torsion
[ 10763 10752 10751 10750 ] final -107.41 input  -60.55 | X-H torsion
[ 11005 11000 10999 10996 ] final  -61.28 input  -57.11 | X-H torsion

> <Gold.Protein.ActiveResidues>
 VAL166  LYS551  ARG553  GLY616  TRP617  ASP618  TYR619  PRO620  LYS621  CYS622 
 ASP623  PHE694  ASN695  SER759  ASP760  ASP761  ALA762  ILE779  LEU786  VAL792 
 PHE793  MET794  SER795  GLU796  ALA797  LYS798  CYS799  TRP800  GLU811  SER814 

> <Gold.Protein.RotatedAtoms>
  152.4406  134.5598  159.9890 H   0  0  0  0  0  0  0  0  0  0  0  0  # atno 6907 bound_to 6896
  151.5696  133.3386  159.2995 H   0  0  0  0  0  0  0  0  0  0  0  0  # atno 6908 bound_to 6896
  150.8312  134.7600  159.6919 H   0  0  0  0  0  0  0  0  0  0  0  0  # atno 6909 bound_to 6896
  145.8005  140.8658  143.0234 H   0  0  0  0  0  0  0  0  0  0  0  0  # atno 7974 bound_to 7965
  155.2391  140.3344  155.4294 H   0  0  0  0  0  0  0  0  0  0  0  0  # atno 8008 bound_to 7997
  156.2263  140.1831  156.7399 H   0  0  0  0  0  0  0  0  0  0  0  0  # atno 8009 bound_to 7997
  154.5905  140.0639  156.9217 H   0  0  0  0  0  0  0  0  0  0  0  0  # atno 8010 bound_to 7997
  140.3522  144.2335  150.6144 H   0  0  0  0  0  0  0  0  0  0  0  0  # atno 10167 bound_to 10162
  156.2975  130.7410  151.1453 H   0  0  0  0  0  0  0  0  0  0  0  0  # atno 10718 bound_to 10713
  154.8073  135.4676  154.0425 H   0  0  0  0  0  0  0  0  0  0  0  0  # atno 10763 bound_to 10752
  153.1884  135.6851  153.8392 H   0  0  0  0  0  0  0  0  0  0  0  0  # atno 10764 bound_to 10752
  153.7918  135.3242  155.3357 H   0  0  0  0  0  0  0  0  0  0  0  0  # atno 10765 bound_to 10752
  141.1318  133.6629  156.5351 H   0  0  0  0  0  0  0  0  0  0  0  0  # atno 11005 bound_to 11000
  144.6769  140.0252  143.7483 LP  0  0  0  0  0  0  0  0  0  0  0  0  # atno 17320 bound_to 7965
  145.9883  139.2994  143.1000 LP  0  0  0  0  0  0  0  0  0  0  0  0  # atno 17321 bound_to 7965
  140.5208  143.2266  151.8392 LP  0  0  0  0  0  0  0  0  0  0  0  0  # atno 17342 bound_to 10162
  139.4825  144.4839  151.9271 LP  0  0  0  0  0  0  0  0  0  0  0  0  # atno 17343 bound_to 10162
  157.7359  131.0567  150.5443 LP  0  0  0  0  0  0  0  0  0  0  0  0  # atno 17370 bound_to 10713
  156.5566  130.4245  149.6082 LP  0  0  0  0  0  0  0  0  0  0  0  0  # atno 17371 bound_to 10713
  140.4184  134.7209  157.4876 LP  0  0  0  0  0  0  0  0  0  0  0  0  # atno 17394 bound_to 11000
  140.0377  134.6313  155.9022 LP  0  0  0  0  0  0  0  0  0  0  0  0  # atno 17395 bound_to 11000

$$$$
