AV-unprocessed.smi:1007|AV-procd|sdf|4399|dock4
  -GOLD-   22720 2333D 1   1.00000     0.00000
 Structure written by MMmdl.
 56 58  0  0  0  0  0  0  0  0  2 V2000
  142.1871  144.2399  157.3934 C   0  0  0  0  0  0  0  0  0  0  0  0
  141.5651  143.1971  156.6627 O   0  0  0  0  0  0  0  0  0  0  0  0
  142.3583  142.7455  155.5784 C   0  0  0  0  0  0  0  0  0  0  0  0
  143.6541  142.1413  156.1399 C   0  0  0  0  0  0  0  0  0  0  0  0
  144.7027  143.1148  156.4618 N   0  0  0  0  0  0  0  0  0  0  0  0
  145.8665  142.5018  157.1010 C   0  0  0  0  0  0  0  0  0  0  0  0
  146.7120  141.6471  156.1352 C   0  0  0  0  0  0  0  0  0  0  0  0
  147.1557  142.4591  154.9727 N   0  3  0  0  0  0  0  0  0  0  0  0
  148.0274  141.6870  154.0515 C   0  0  0  0  0  0  0  0  0  0  0  0
  149.2050  140.9910  154.7698 C   0  0  1  0  0  0  0  0  0  0  0  0
  149.9629  140.2800  153.8100 O   0  0  0  0  0  0  0  0  0  0  0  0
  150.1309  141.9746  155.5200 C   0  0  0  0  0  0  0  0  0  0  0  0
  151.0303  141.3276  156.4622 N   0  0  0  0  0  0  0  0  0  0  0  0
  151.6159  140.1214  156.3288 C   0  0  0  0  0  0  0  0  0  0  0  0
  152.4178  139.7212  157.3109 N   0  0  0  0  0  0  0  0  0  0  0  0
  152.3386  140.7884  158.1887 C   0  0  0  0  0  0  0  0  0  0  0  0
  152.9636  140.9971  159.4374 C   0  0  0  0  0  0  0  0  0  0  0  0
  152.7374  142.1825  160.1724 C   0  0  0  0  0  0  0  0  0  0  0  0
  153.4320  142.3660  161.5103 C   0  0  0  0  0  0  0  0  0  0  0  0
  151.8725  143.1821  159.6595 C   0  0  0  0  0  0  0  0  0  0  0  0
  151.6154  144.4647  160.4300 C   0  0  0  0  0  0  0  0  0  0  0  0
  151.2377  142.9887  158.4150 C   0  0  0  0  0  0  0  0  0  0  0  0
  151.4740  141.8067  157.6908 C   0  0  0  0  0  0  0  0  0  0  0  0
  145.9903  143.0969  154.3029 C   0  0  0  0  0  0  0  0  0  0  0  0
  145.1656  143.9100  155.3218 C   0  0  0  0  0  0  0  0  0  0  0  0
  141.5375  144.5525  158.2110 H   0  0  0  0  0  0  0  0  0  0  0  0
  142.3735  145.1089  156.7609 H   0  0  0  0  0  0  0  0  0  0  0  0
  143.1338  143.9100  157.8231 H   0  0  0  0  0  0  0  0  0  0  0  0
  141.7989  142.0059  155.0051 H   0  0  0  0  0  0  0  0  0  0  0  0
  142.5902  143.5790  154.9132 H   0  0  0  0  0  0  0  0  0  0  0  0
  143.3923  141.6006  157.0503 H   0  0  0  0  0  0  0  0  0  0  0  0
  144.0266  141.3877  155.4469 H   0  0  0  0  0  0  0  0  0  0  0  0
  146.4968  143.2878  157.5196 H   0  0  0  0  0  0  0  0  0  0  0  0
  145.5473  141.8957  157.9497 H   0  0  0  0  0  0  0  0  0  0  0  0
  147.5841  141.2652  156.6671 H   0  0  0  0  0  0  0  0  0  0  0  0
  146.1512  140.7778  155.7893 H   0  0  0  0  0  0  0  0  0  0  0  0
  147.4245  140.9293  153.5489 H   0  0  0  0  0  0  0  0  0  0  0  0
  148.3968  142.3523  153.2699 H   0  0  0  0  0  0  0  0  0  0  0  0
  148.8334  140.2713  155.4978 H   0  0  0  0  0  0  0  0  0  0  0  0
  149.5221  140.3356  152.9752 H   0  0  0  0  0  0  0  0  0  0  0  0
  150.7326  142.5351  154.8036 H   0  0  0  0  0  0  0  0  0  0  0  0
  149.5377  142.7132  156.0613 H   0  0  0  0  0  0  0  0  0  0  0  0
  151.4499  139.5057  155.4570 H   0  0  0  0  0  0  0  0  0  0  0  0
  153.6222  140.2351  159.8281 H   0  0  0  0  0  0  0  0  0  0  0  0
  152.7016  142.5317  162.3025 H   0  0  0  0  0  0  0  0  0  0  0  0
  154.1065  143.2217  161.4757 H   0  0  0  0  0  0  0  0  0  0  0  0
  154.0193  141.4871  161.7773 H   0  0  0  0  0  0  0  0  0  0  0  0
  150.9631  145.1391  159.8743 H   0  0  0  0  0  0  0  0  0  0  0  0
  152.5512  144.9898  160.6226 H   0  0  0  0  0  0  0  0  0  0  0  0
  151.1368  144.2466  161.3850 H   0  0  0  0  0  0  0  0  0  0  0  0
  150.5755  143.7422  158.0158 H   0  0  0  0  0  0  0  0  0  0  0  0
  146.3294  143.7683  153.5154 H   0  0  0  0  0  0  0  0  0  0  0  0
  145.3732  142.3383  153.8202 H   0  0  0  0  0  0  0  0  0  0  0  0
  144.3246  144.3899  154.8229 H   0  0  0  0  0  0  0  0  0  0  0  0
  145.7831  144.7289  155.6935 H   0  0  0  0  0  0  0  0  0  0  0  0
  147.7254  143.2031  155.3503 H   0  0  0  0  0  0  0  0  0  0  0  0
  1  2  1  0  0  0  0
  1 26  1  0  0  0  0
  1 27  1  0  0  0  0
  1 28  1  0  0  0  0
  2  3  1  0  0  0  0
  3  4  1  0  0  0  0
  3 29  1  0  0  0  0
  3 30  1  0  0  0  0
  4  5  1  0  0  0  0
  4 31  1  0  0  0  0
  4 32  1  0  0  0  0
  5 25  1  0  0  0  0
  5  6  1  0  0  0  0
  6  7  1  0  0  0  0
  6 33  1  0  0  0  0
  6 34  1  0  0  0  0
  7  8  1  0  0  0  0
  7 35  1  0  0  0  0
  7 36  1  0  0  0  0
  8  9  1  0  0  0  0
  8 24  1  0  0  0  0
  8 56  1  0  0  0  0
  9 10  1  0  0  0  0
  9 37  1  0  0  0  0
  9 38  1  0  0  0  0
 10 11  1  0  0  0  0
 10 12  1  0  0  0  0
 10 39  1  0  0  0  0
 11 40  1  0  0  0  0
 12 13  1  0  0  0  0
 12 41  1  0  0  0  0
 12 42  1  0  0  0  0
 13 23  1  0  0  0  0
 13 14  1  0  0  0  0
 14 15  2  0  0  0  0
 14 43  1  0  0  0  0
 15 16  1  0  0  0  0
 16 23  2  0  0  0  0
 16 17  1  0  0  0  0
 17 18  2  0  0  0  0
 17 44  1  0  0  0  0
 18 19  1  0  0  0  0
 18 20  1  0  0  0  0
 19 45  1  0  0  0  0
 19 46  1  0  0  0  0
 19 47  1  0  0  0  0
 20 21  1  0  0  0  0
 20 22  2  0  0  0  0
 21 48  1  0  0  0  0
 21 49  1  0  0  0  0
 21 50  1  0  0  0  0
 22 23  1  0  0  0  0
 22 51  1  0  0  0  0
 24 25  1  0  0  0  0
 24 52  1  0  0  0  0
 24 53  1  0  0  0  0
 25 54  1  0  0  0  0
 25 55  1  0  0  0  0
M  CHG  1   8   1
M  END
> <s_m_source_file>
AV-unprocessed.smi

> <i_m_source_file_index>
1007

> <i_lp_mmshare_version>
43012

> <i_f3d_flags>
0

> <s_epik_input>
W0NIM11PW0NIMl1bQ0gyXU4xW0NIMl1bQ0gyXU4oW0NIMl1bQ0gyXTEpW0NIMl1bQ0BIXShbT0hdKVtDSDJdbihbY0hdbjIpYyhjMjMpW2NIXWMoW0NIM10pYyhbY0hdMylbQ0gzXQ==

> <s_epik_cmdline>
J2VwaWtfcHl0aG9uJywgJy1waCcsICc3LjAnLCAnLXRuJywgJzgnLCAnLW1hJywgJzIwMCcsICctbWV0YWxfYmluZGluZycsICctaW1hZScsICc8aW5maWxlLm1hZT4nLCAnLW9tYWUnLCAnPG91dGZpbGUubWFlPic=

> <r_epik_Ionization_Penalty>
0.102698

> <r_epik_Ionization_Penalty_Charging>
0.00226046

> <r_epik_Ionization_Penalty_Neutral>
0.100438

> <r_epik_State_Penalty>
0.191223

> <r_epik_Charging_Adjusted_Penalty>
0.193484

> <i_epik_Tot_Q>
1

> <i_epik_Tot_abs_Q>
1

> <r_epik_Metal_State_Penalty>
0.102154

> <b_epik_Metal_Only>
0

> <s_lp_Force_Field>
OPLS_2005

> <r_lp_Energy>
31.116

> <b_lp_Chiralities_Consistent>
1

> <s_lp_Variant>
AV-unprocessed.smi:1007-2

> <Gold.Version>
5.8.1

> <Gold.Id.Protein>
6NUR|6NUR_protein|mol2

> <Gold.PLP.Fitness>
61.3255

> <Gold.PLP.PLP>
-47.8769

> <Gold.PLP.part.hbond>
-4.0000

> <Gold.PLP.part.metal>
0.0000

> <Gold.PLP.part.buried>
-6.7035

> <Gold.PLP.part.nonpolar>
-38.0121

> <Gold.PLP.part.repulsive>
0.1720

> <Gold.PLP.ligand.clash>
0.0000

> <Gold.PLP.ligand.torsion>
0.5925

> <Gold.PLP.Chemscore.Hbond>
4.8000

> <Gold.PLP.Chemscore.CHOScore>
0.0000

> <Gold.PLP.Chemscore.Metal>
0.0000

> <Gold.Chemscore.Hbonds>
donor molecule, donor type, donor heavy atom, donor atom, acceptor molecule, acceptor atom, score
      L1  H     8    56       P1  8028  2.00
      L1  H    11    40       P1  7957  0.94
      P1  H  7989  7998       L1    11  0.72
      P1  H  7997  8010       L1    15  0.66

> <Gold.PLP.Chemscore.Internal.Correction>
0.2336

> <Gold.Rescore>
     Score         DG    S(hbond)    S(metal)    S(lipo)     H(rot)  DE(clash)    DE(int)     intcor
     19.46     -20.37       2.17        0.00     121.36       2.56       0.05       0.85       ----

> <Gold.Chemscore.Fitness>
19.4634

> <Gold.Chemscore.DG>
-20.3693

> <Gold.Chemscore.ZeroCoef>
-5.4800

> <Gold.Chemscore.Hbond>
2.1683

> <Gold.Chemscore.Metal>
0.0000

> <Gold.Chemscore.Lipo>
121.3609

> <Gold.Chemscore.Internal_Hbond>
0.0000

> <Gold.Chemscore.DEClash>
0.0511

> <Gold.Chemscore.DEInternal>
0.8548

> <Gold.Chemscore.Rot>
2.5594

> <Gold.Chemscore.Internal.Correction>
   9.000000E+99

> <Gold.Chemscore.Hbonds>
donor molecule, donor type, donor heavy atom, donor atom, acceptor molecule, acceptor atom, score
      L1  H     8    56       P1  8028  0.45
      L1  H    11    40       P1  7957  0.91
      P1  H  7989  7998       L1    11  0.30
      P1  H  7997  8010       L1    15  0.06

> <Gold.Chemscore.Hbond.Weighted>
-7.2422

> <Gold.Chemscore.Metal.Weighted>
-0.0000

> <Gold.Chemscore.Lipo.Weighted>
-14.1992

> <Gold.Chemscore.Internal_Hbond.Weighted>
0.0000

> <Gold.Chemscore.DEClash.Weighted>
0.0511

> <Gold.Chemscore.DEInternal.Weighted>
0.8548

> <Gold.Chemscore.Rot.Weighted>
6.5522

> <Gold.Chemscore.Internal.Correction.Weighted>
   9.000000E+99

> <Gold.Protein.RotatedTorsions>
[ 6907 6896 6895 6894 ] final  147.57 input  -60.11 | X-H torsion
[ 7974 7965 7964 7962 ] final  -19.29 input  175.53 | X-H torsion
[ 8008 7997 7996 7995 ] final   57.48 input   59.86 | X-H torsion
[ 10167 10162 10161 10158 ] final  -20.56 input  -65.29 | X-H torsion
[ 10718 10713 10712 10709 ] final  103.81 input   66.30 | X-H torsion
[ 10763 10752 10751 10750 ] final   -7.20 input  -60.55 | X-H torsion
[ 11005 11000 10999 10996 ] final   34.16 input  -57.11 | X-H torsion

> <Gold.Protein.ActiveResidues>
 VAL166  LYS551  ARG553  GLY616  TRP617  ASP618  TYR619  PRO620  LYS621  CYS622 
 ASP623  PHE694  ASN695  SER759  ASP760  ASP761  ALA762  ILE779  LEU786  VAL792 
 PHE793  MET794  SER795  GLU796  ALA797  LYS798  CYS799  TRP800  GLU811  SER814 

> <Gold.Protein.RotatedAtoms>
  152.1530  133.4533  159.4822 H   0  0  0  0  0  0  0  0  0  0  0  0  # atno 6907 bound_to 6896
  150.6897  134.2166  159.4389 H   0  0  0  0  0  0  0  0  0  0  0  0  # atno 6908 bound_to 6896
  152.0064  134.9900  160.0617 H   0  0  0  0  0  0  0  0  0  0  0  0  # atno 6909 bound_to 6896
  146.1849  140.4041  142.8480 H   0  0  0  0  0  0  0  0  0  0  0  0  # atno 7974 bound_to 7965
  155.5344  140.3483  155.4433 H   0  0  0  0  0  0  0  0  0  0  0  0  # atno 8008 bound_to 7997
  156.0695  140.1359  156.9872 H   0  0  0  0  0  0  0  0  0  0  0  0  # atno 8009 bound_to 7997
  154.4521  140.0968  156.6623 H   0  0  0  0  0  0  0  0  0  0  0  0  # atno 8010 bound_to 7997
  140.7277  143.4711  151.0246 H   0  0  0  0  0  0  0  0  0  0  0  0  # atno 10167 bound_to 10162
  157.6761  131.0788  150.5611 H   0  0  0  0  0  0  0  0  0  0  0  0  # atno 10718 bound_to 10713
  153.4230  135.7010  153.6281 H   0  0  0  0  0  0  0  0  0  0  0  0  # atno 10763 bound_to 10752
  153.4728  135.3711  155.2400 H   0  0  0  0  0  0  0  0  0  0  0  0  # atno 10764 bound_to 10752
  154.8723  135.4047  154.3602 H   0  0  0  0  0  0  0  0  0  0  0  0  # atno 10765 bound_to 10752
  140.2557  134.3251  155.7875 H   0  0  0  0  0  0  0  0  0  0  0  0  # atno 11005 bound_to 11000
  144.8379  140.6811  143.6248 LP  0  0  0  0  0  0  0  0  0  0  0  0  # atno 17320 bound_to 7965
  145.3969  139.1605  143.4198 LP  0  0  0  0  0  0  0  0  0  0  0  0  # atno 17321 bound_to 7965
  139.8403  143.7573  152.3180 LP  0  0  0  0  0  0  0  0  0  0  0  0  # atno 17342 bound_to 10162
  139.7719  144.7474  151.0212 LP  0  0  0  0  0  0  0  0  0  0  0  0  # atno 17343 bound_to 10162
  156.5914  130.4330  149.5935 LP  0  0  0  0  0  0  0  0  0  0  0  0  # atno 17370 bound_to 10713
  156.2580  130.6946  151.1705 LP  0  0  0  0  0  0  0  0  0  0  0  0  # atno 17371 bound_to 10713
  141.2196  133.7379  156.9107 LP  0  0  0  0  0  0  0  0  0  0  0  0  # atno 17394 bound_to 11000
  140.1514  134.9227  157.2598 LP  0  0  0  0  0  0  0  0  0  0  0  0  # atno 17395 bound_to 11000

$$$$
