AV-unprocessed.smi:722|AV-procd|sdf|3504|dock4
  -GOLD-   22720 0503D 1   1.00000     0.00000
 Structure written by MMmdl.
 38 39  0  0  0  0  0  0  0  0  1 V2000
  151.7804  138.2203  153.8104 C   0  0  0  0  0  0  0  0  0  0  0  0
  151.6560  139.3980  154.7221 C   0  0  0  0  0  0  0  0  0  0  0  0
  152.7040  140.0568  155.2221 N   0  0  0  0  0  0  0  0  0  0  0  0
  152.1683  141.0547  156.0062 N   0  0  0  0  0  0  0  0  0  0  0  0
  150.8446  140.9121  155.9094 C   0  0  0  0  0  0  0  0  0  0  0  0
  149.6937  141.9456  156.7491 S   0  0  0  0  0  0  0  0  0  0  0  0
  150.9032  142.9141  157.6898 C   0  0  0  0  0  0  0  0  0  0  0  0
  151.7489  142.0204  158.6059 C   0  0  0  0  0  0  0  0  0  0  0  0
  152.4290  142.7974  159.7462 C   0  0  0  0  0  0  0  0  0  0  0  0
  153.0730  141.9133  160.8204 C   0  0  0  0  0  0  0  0  0  0  0  0
  153.1812  142.7990  162.0680 C   0  0  0  0  0  0  0  0  0  0  0  0
  152.1992  143.9619  161.8609 C   0  0  0  0  0  0  0  0  0  0  0  0
  151.4623  143.6683  160.5512 C   0  0  0  0  0  0  0  0  0  0  0  0
  150.4633  139.8900  155.1159 N   0  0  0  0  0  0  0  0  0  0  0  0
  149.1191  139.4326  154.7867 C   0  0  0  0  0  0  0  0  0  0  0  0
  148.2718  140.5684  154.2076 C   0  0  0  0  0  0  0  0  0  0  0  0
  147.0005  140.2896  153.9091 N   0  0  0  0  0  0  0  0  0  0  0  0
  148.7600  141.6815  154.0245 O   0  0  0  0  0  0  0  0  0  0  0  0
  152.8275  137.9426  153.6866 H   0  0  0  0  0  0  0  0  0  0  0  0
  151.3679  138.4595  152.8300 H   0  0  0  0  0  0  0  0  0  0  0  0
  151.2438  137.3651  154.2212 H   0  0  0  0  0  0  0  0  0  0  0  0
  151.5440  143.4446  156.9855 H   0  0  0  0  0  0  0  0  0  0  0  0
  150.3756  143.6695  158.2728 H   0  0  0  0  0  0  0  0  0  0  0  0
  151.1098  141.2464  159.0324 H   0  0  0  0  0  0  0  0  0  0  0  0
  152.5040  141.5012  158.0142 H   0  0  0  0  0  0  0  0  0  0  0  0
  153.1981  143.4481  159.3261 H   0  0  0  0  0  0  0  0  0  0  0  0
  152.4264  141.0619  161.0377 H   0  0  0  0  0  0  0  0  0  0  0  0
  154.0413  141.5184  160.5111 H   0  0  0  0  0  0  0  0  0  0  0  0
  152.9509  142.2320  162.9707 H   0  0  0  0  0  0  0  0  0  0  0  0
  154.1959  143.1843  162.1756 H   0  0  0  0  0  0  0  0  0  0  0  0
  151.5079  144.0716  162.6970 H   0  0  0  0  0  0  0  0  0  0  0  0
  152.7542  144.8966  161.7718 H   0  0  0  0  0  0  0  0  0  0  0  0
  151.1772  144.5776  160.0209 H   0  0  0  0  0  0  0  0  0  0  0  0
  150.5494  143.1105  160.7653 H   0  0  0  0  0  0  0  0  0  0  0  0
  149.1879  138.6006  154.0845 H   0  0  0  0  0  0  0  0  0  0  0  0
  148.6367  139.0423  155.6828 H   0  0  0  0  0  0  0  0  0  0  0  0
  146.4013  141.0079  153.5281 H   0  0  0  0  0  0  0  0  0  0  0  0
  146.6408  139.3597  154.0694 H   0  0  0  0  0  0  0  0  0  0  0  0
  1  2  1  0  0  0  0
  1 19  1  0  0  0  0
  1 20  1  0  0  0  0
  1 21  1  0  0  0  0
  2 14  1  0  0  0  0
  2  3  2  0  0  0  0
  3  4  1  0  0  0  0
  4  5  2  0  0  0  0
  5  6  1  0  0  0  0
  5 14  1  0  0  0  0
  6  7  1  0  0  0  0
  7  8  1  0  0  0  0
  7 22  1  0  0  0  0
  7 23  1  0  0  0  0
  8  9  1  0  0  0  0
  8 24  1  0  0  0  0
  8 25  1  0  0  0  0
  9 13  1  0  0  0  0
  9 10  1  0  0  0  0
  9 26  1  0  0  0  0
 10 11  1  0  0  0  0
 10 27  1  0  0  0  0
 10 28  1  0  0  0  0
 11 12  1  0  0  0  0
 11 29  1  0  0  0  0
 11 30  1  0  0  0  0
 12 13  1  0  0  0  0
 12 31  1  0  0  0  0
 12 32  1  0  0  0  0
 13 33  1  0  0  0  0
 13 34  1  0  0  0  0
 14 15  1  0  0  0  0
 15 16  1  0  0  0  0
 15 35  1  0  0  0  0
 15 36  1  0  0  0  0
 16 17  1  0  0  0  0
 16 18  2  0  0  0  0
 17 37  1  0  0  0  0
 17 38  1  0  0  0  0
M  END
> <s_m_source_file>
AV-unprocessed.smi

> <i_m_source_file_index>
722

> <i_lp_mmshare_version>
43012

> <i_f3d_flags>
0

> <s_epik_input>
W0NIM11jMW5uYyhuMVtDSDJdQyg9TylbTkgyXSlTW0NIMl1bQ0gyXVtDSF0yW0NIMl1bQ0gyXVtDSDJdW0NIMl0y

> <s_epik_cmdline>
J2VwaWtfcHl0aG9uJywgJy1waCcsICc3LjAnLCAnLXRuJywgJzgnLCAnLW1hJywgJzIwMCcsICctbWV0YWxfYmluZGluZycsICctaW1hZScsICc8aW5maWxlLm1hZT4nLCAnLW9tYWUnLCAnPG91dGZpbGUubWFlPic=

> <r_lp_tautomer_probability>
1

> <r_epik_Ionization_Penalty>
8.38536e-06

> <r_epik_Ionization_Penalty_Charging>
0

> <r_epik_Ionization_Penalty_Neutral>
8.38536e-06

> <r_epik_State_Penalty>
-0

> <r_epik_Charging_Adjusted_Penalty>
0

> <i_epik_Tot_Q>
0

> <i_epik_Tot_abs_Q>
0

> <r_epik_Metal_State_Penalty>
-0

> <b_epik_Metal_Only>
0

> <s_lp_Force_Field>
OPLS_2005

> <r_lp_Energy>
19.4661

> <b_lp_Chiralities_Consistent>
1

> <s_lp_Variant>
AV-unprocessed.smi:722-1

> <Gold.Version>
5.8.1

> <Gold.Id.Protein>
6NUR|6NUR_protein|mol2

> <Gold.PLP.Fitness>
44.1769

> <Gold.PLP.PLP>
-41.2497

> <Gold.PLP.part.hbond>
-4.1142

> <Gold.PLP.part.metal>
0.0000

> <Gold.PLP.part.buried>
1.4713

> <Gold.PLP.part.nonpolar>
-37.8967

> <Gold.PLP.part.repulsive>
0.3191

> <Gold.PLP.ligand.clash>
0.0000

> <Gold.PLP.ligand.torsion>
0.1947

> <Gold.PLP.Chemscore.Hbond>
1.0968

> <Gold.PLP.Chemscore.CHOScore>
0.0000

> <Gold.PLP.Chemscore.Metal>
0.0000

> <Gold.Chemscore.Hbonds>
donor molecule, donor type, donor heavy atom, donor atom, acceptor molecule, acceptor atom, score
      P1  H  7997  8010       L1     3  0.95
      P1  H  8011  8017       L1    18  0.46

> <Gold.PLP.Chemscore.Internal.Correction>
0.0262

> <Gold.Rescore>
     Score         DG    S(hbond)    S(metal)    S(lipo)     H(rot)  DE(clash)    DE(int)     intcor
      7.99     -12.65       0.88        0.00      94.32       2.66       2.08       2.57       ----

> <Gold.Chemscore.Fitness>
7.9894

> <Gold.Chemscore.DG>
-12.6453

> <Gold.Chemscore.ZeroCoef>
-5.4800

> <Gold.Chemscore.Hbond>
0.8787

> <Gold.Chemscore.Metal>
0.0000

> <Gold.Chemscore.Lipo>
94.3202

> <Gold.Chemscore.Internal_Hbond>
0.0000

> <Gold.Chemscore.DEClash>
2.0816

> <Gold.Chemscore.DEInternal>
2.5742

> <Gold.Chemscore.Rot>
2.6583

> <Gold.Chemscore.Internal.Correction>
   9.000000E+99

> <Gold.Chemscore.Hbonds>
donor molecule, donor type, donor heavy atom, donor atom, acceptor molecule, acceptor atom, score
      P1  H  7997  8010       L1     3  0.20
      P1  H  8011  8017       L1    18  0.46

> <Gold.Chemscore.Hbond.Weighted>
-2.9350

> <Gold.Chemscore.Metal.Weighted>
-0.0000

> <Gold.Chemscore.Lipo.Weighted>
-11.0355

> <Gold.Chemscore.Internal_Hbond.Weighted>
0.0000

> <Gold.Chemscore.DEClash.Weighted>
2.0816

> <Gold.Chemscore.DEInternal.Weighted>
2.5742

> <Gold.Chemscore.Rot.Weighted>
6.8052

> <Gold.Chemscore.Internal.Correction.Weighted>
   9.000000E+99

> <Gold.Protein.RotatedTorsions>
[ 6907 6896 6895 6894 ] final  164.73 input  -60.11 | X-H torsion
[ 7974 7965 7964 7962 ] final -150.59 input  175.53 | X-H torsion
[ 8008 7997 7996 7995 ] final  117.11 input   59.86 | X-H torsion
[ 10167 10162 10161 10158 ] final  -26.56 input  -65.29 | X-H torsion
[ 10718 10713 10712 10709 ] final  -76.47 input   66.30 | X-H torsion
[ 10763 10752 10751 10750 ] final  174.73 input  -60.55 | X-H torsion
[ 11005 11000 10999 10996 ] final   90.46 input  -57.11 | X-H torsion

> <Gold.Protein.ActiveResidues>
 VAL166  LYS551  ARG553  GLY616  TRP617  ASP618  TYR619  PRO620  LYS621  CYS622 
 ASP623  PHE694  ASN695  SER759  ASP760  ASP761  ALA762  ILE779  LEU786  VAL792 
 PHE793  MET794  SER795  GLU796  ALA797  LYS798  CYS799  TRP800  GLU811  SER814 

> <Gold.Protein.RotatedAtoms>
  151.9054  133.3548  159.3844 H   0  0  0  0  0  0  0  0  0  0  0  0  # atno 6907 bound_to 6896
  150.7070  134.4786  159.5469 H   0  0  0  0  0  0  0  0  0  0  0  0  # atno 6908 bound_to 6896
  152.2382  134.8255  160.0515 H   0  0  0  0  0  0  0  0  0  0  0  0  # atno 6909 bound_to 6896
  144.7898  140.4911  143.5780 H   0  0  0  0  0  0  0  0  0  0  0  0  # atno 7974 bound_to 7965
  156.2476  140.2903  156.0627 H   0  0  0  0  0  0  0  0  0  0  0  0  # atno 8008 bound_to 7997
  155.1758  140.0403  157.2889 H   0  0  0  0  0  0  0  0  0  0  0  0  # atno 8009 bound_to 7997
  154.6294  140.2495  155.7459 H   0  0  0  0  0  0  0  0  0  0  0  0  # atno 8010 bound_to 7997
  140.7282  143.4167  151.1016 H   0  0  0  0  0  0  0  0  0  0  0  0  # atno 10167 bound_to 10162
  156.0174  130.4466  150.3199 H   0  0  0  0  0  0  0  0  0  0  0  0  # atno 10718 bound_to 10713
  154.4579  135.2767  155.1734 H   0  0  0  0  0  0  0  0  0  0  0  0  # atno 10763 bound_to 10752
  154.3534  135.6145  153.5657 H   0  0  0  0  0  0  0  0  0  0  0  0  # atno 10764 bound_to 10752
  152.9852  135.5817  154.4936 H   0  0  0  0  0  0  0  0  0  0  0  0  # atno 10765 bound_to 10752
  139.8855  134.8615  156.3288 H   0  0  0  0  0  0  0  0  0  0  0  0  # atno 11005 bound_to 11000
  145.5823  139.1490  143.3228 LP  0  0  0  0  0  0  0  0  0  0  0  0  # atno 17320 bound_to 7965
  146.2146  140.5953  142.9044 LP  0  0  0  0  0  0  0  0  0  0  0  0  # atno 17321 bound_to 7965
  139.7808  143.8358  152.3137 LP  0  0  0  0  0  0  0  0  0  0  0  0  # atno 17342 bound_to 10162
  139.8308  144.7254  150.9452 LP  0  0  0  0  0  0  0  0  0  0  0  0  # atno 17343 bound_to 10162
  157.1299  131.0269  151.2973 LP  0  0  0  0  0  0  0  0  0  0  0  0  # atno 17370 bound_to 10713
  157.4559  130.7625  149.7192 LP  0  0  0  0  0  0  0  0  0  0  0  0  # atno 17371 bound_to 10713
  140.9737  133.7311  156.0571 LP  0  0  0  0  0  0  0  0  0  0  0  0  # atno 17394 bound_to 11000
  140.7839  134.3695  157.5481 LP  0  0  0  0  0  0  0  0  0  0  0  0  # atno 17395 bound_to 11000

$$$$
