AV-unprocessed.smi:926|AV-procd|sdf|4184|dock1
  -GOLD-   22720 2 83D 1   1.00000     0.00000
 Structure written by MMmdl.
 37 39  0  0  0  0  0  0  0  0  1 V2000
  150.8673  139.8375  154.4162 O   0  0  0  0  0  0  0  0  0  0  0  0
  151.4335  139.5607  155.4734 C   0  0  0  0  0  0  0  0  0  0  0  0
  152.4221  138.3967  155.5275 C   0  0  0  0  0  0  0  0  0  0  0  0
  151.9708  137.3826  156.4610 N   0  0  0  0  0  0  0  0  0  0  0  0
  151.6635  137.4589  157.7577 C   0  0  0  0  0  0  0  0  0  0  0  0
  151.3041  136.2810  158.2445 N   0  0  0  0  0  0  0  0  0  0  0  0
  151.4081  135.4416  157.1475 N   0  0  0  0  0  0  0  0  0  0  0  0
  151.8035  136.0895  156.0862 N   0  0  0  0  0  0  0  0  0  0  0  0
  151.2267  140.2245  156.6215 N   0  0  0  0  0  0  0  0  0  0  0  0
  150.2887  141.3267  156.7923 C   0  0  0  0  0  0  0  0  0  0  0  0
  151.0264  142.6675  156.9543 C   0  0  0  0  0  0  0  0  0  0  0  0
  151.1021  143.1416  158.4185 C   0  0  1  0  0  0  0  0  0  0  0  0
  151.7322  142.1039  159.3772 C   0  0  0  0  0  0  0  0  0  0  0  0
  152.8812  142.8879  160.0367 C   0  0  2  0  0  0  0  0  0  0  0  0
  152.3013  143.9628  160.9746 C   0  0  0  0  0  0  0  0  0  0  0  0
  151.7318  145.0002  159.9886 C   0  0  0  0  0  0  0  0  0  0  0  0
  152.0286  144.3636  158.6171 C   0  0  1  0  0  0  0  0  0  0  0  0
  153.3909  143.7244  158.8707 C   0  0  0  0  0  0  0  0  0  0  0  0
  152.5209  137.9439  154.5402 H   0  0  0  0  0  0  0  0  0  0  0  0
  153.4112  138.7513  155.8218 H   0  0  0  0  0  0  0  0  0  0  0  0
  151.7072  138.3682  158.3396 H   0  0  0  0  0  0  0  0  0  0  0  0
  151.7352  139.9266  157.4417 H   0  0  0  0  0  0  0  0  0  0  0  0
  149.6438  141.3609  155.9138 H   0  0  0  0  0  0  0  0  0  0  0  0
  149.6379  141.1332  157.6463 H   0  0  0  0  0  0  0  0  0  0  0  0
  152.0305  142.5922  156.5352 H   0  0  0  0  0  0  0  0  0  0  0  0
  150.5095  143.4245  156.3630 H   0  0  0  0  0  0  0  0  0  0  0  0
  150.0927  143.3941  158.7468 H   0  0  0  0  0  0  0  0  0  0  0  0
  151.0158  141.7259  160.1073 H   0  0  0  0  0  0  0  0  0  0  0  0
  152.1302  141.2469  158.8319 H   0  0  0  0  0  0  0  0  0  0  0  0
  153.6295  142.2512  160.5096 H   0  0  0  0  0  0  0  0  0  0  0  0
  151.5388  143.5600  161.6424 H   0  0  0  0  0  0  0  0  0  0  0  0
  153.0845  144.4080  161.5894 H   0  0  0  0  0  0  0  0  0  0  0  0
  150.6683  145.1854  160.1439 H   0  0  0  0  0  0  0  0  0  0  0  0
  152.2535  145.9525  160.0928 H   0  0  0  0  0  0  0  0  0  0  0  0
  152.0012  145.0800  157.7954 H   0  0  0  0  0  0  0  0  0  0  0  0
  154.1597  144.4438  159.1584 H   0  0  0  0  0  0  0  0  0  0  0  0
  153.7583  143.1266  158.0353 H   0  0  0  0  0  0  0  0  0  0  0  0
  1  2  2  0  0  0  0
  2  3  1  0  0  0  0
  2  9  1  0  0  0  0
  3  4  1  0  0  0  0
  3 19  1  0  0  0  0
  3 20  1  0  0  0  0
  4  8  1  0  0  0  0
  4  5  1  0  0  0  0
  5  6  2  0  0  0  0
  5 21  1  0  0  0  0
  6  7  1  0  0  0  0
  7  8  2  0  0  0  0
  9 10  1  0  0  0  0
  9 22  1  0  0  0  0
 10 11  1  0  0  0  0
 10 23  1  0  0  0  0
 10 24  1  0  0  0  0
 11 12  1  0  0  0  0
 11 25  1  0  0  0  0
 11 26  1  0  0  0  0
 12 17  1  0  0  0  0
 12 13  1  0  0  0  0
 12 27  1  0  0  0  0
 13 14  1  0  0  0  0
 13 28  1  0  0  0  0
 13 29  1  0  0  0  0
 14 18  1  0  0  0  0
 14 15  1  0  0  0  0
 14 30  1  0  0  0  0
 15 16  1  0  0  0  0
 15 31  1  0  0  0  0
 15 32  1  0  0  0  0
 16 17  1  0  0  0  0
 16 33  1  0  0  0  0
 16 34  1  0  0  0  0
 17 18  1  0  0  0  0
 17 35  1  0  0  0  0
 18 36  1  0  0  0  0
 18 37  1  0  0  0  0
M  END
> <s_m_source_file>
AV-unprocessed.smi

> <i_m_source_file_index>
926

> <i_lp_mmshare_version>
43012

> <i_f3d_flags>
0

> <s_epik_input>
bjFubltjSF1uMVtDSDJdQyg9TylbTkhdW0NIMl1bQ0gyXVtDQEhdKFtDSDJdW0NASF0yMylbQ0BIXShbQ0gyXTMpW0NIMl1bQ0gyXTI=

> <s_epik_cmdline>
J2VwaWtfcHl0aG9uJywgJy1waCcsICc3LjAnLCAnLXRuJywgJzgnLCAnLW1hJywgJzIwMCcsICctbWV0YWxfYmluZGluZycsICctaW1hZScsICc8aW5maWxlLm1hZT4nLCAnLW9tYWUnLCAnPG91dGZpbGUubWFlPic=

> <r_lp_tautomer_probability>
1

> <r_epik_Ionization_Penalty>
4.22645e-07

> <r_epik_Ionization_Penalty_Charging>
0

> <r_epik_Ionization_Penalty_Neutral>
4.22645e-07

> <r_epik_State_Penalty>
-0

> <r_epik_Charging_Adjusted_Penalty>
0

> <i_epik_Tot_Q>
0

> <i_epik_Tot_abs_Q>
0

> <r_epik_Metal_State_Penalty>
-0

> <b_epik_Metal_Only>
0

> <s_lp_Force_Field>
OPLS_2005

> <r_lp_Energy>
50.6471

> <b_lp_Chiralities_Consistent>
1

> <s_lp_Variant>
AV-unprocessed.smi:926-2

> <Gold.Version>
5.8.1

> <Gold.Id.Protein>
6NUR|6NUR_protein|mol2

> <Gold.PLP.Fitness>
47.0257

> <Gold.PLP.PLP>
-40.1686

> <Gold.PLP.part.hbond>
-3.9292

> <Gold.PLP.part.metal>
0.0000

> <Gold.PLP.part.buried>
-5.2203

> <Gold.PLP.part.nonpolar>
-30.7603

> <Gold.PLP.part.repulsive>
0.2232

> <Gold.PLP.ligand.clash>
0.0000

> <Gold.PLP.ligand.torsion>
0.4019

> <Gold.PLP.Chemscore.Hbond>
2.5440

> <Gold.PLP.Chemscore.CHOScore>
0.0000

> <Gold.PLP.Chemscore.Metal>
0.0000

> <Gold.Chemscore.Hbonds>
donor molecule, donor type, donor heavy atom, donor atom, acceptor molecule, acceptor atom, score
      P1  H  6896  6909       L1     6  0.54
      P1  H  7989  7998       L1     1  1.00
      P1  H 10752 10763       L1     8  1.00

> <Gold.PLP.Chemscore.Internal.Correction>
0.0289

> <Gold.Rescore>
     Score         DG    S(hbond)    S(metal)    S(lipo)     H(rot)  DE(clash)    DE(int)     intcor
     18.67     -19.19       2.43        0.00     103.53       2.54       0.06       0.46       ----

> <Gold.Chemscore.Fitness>
18.6681

> <Gold.Chemscore.DG>
-19.1867

> <Gold.Chemscore.ZeroCoef>
-5.4800

> <Gold.Chemscore.Hbond>
2.4268

> <Gold.Chemscore.Metal>
0.0000

> <Gold.Chemscore.Lipo>
103.5285

> <Gold.Chemscore.Internal_Hbond>
0.0000

> <Gold.Chemscore.DEClash>
0.0551

> <Gold.Chemscore.DEInternal>
0.4635

> <Gold.Chemscore.Rot>
2.5436

> <Gold.Chemscore.Internal.Correction>
   9.000000E+99

> <Gold.Chemscore.Hbonds>
donor molecule, donor type, donor heavy atom, donor atom, acceptor molecule, acceptor atom, score
      P1  H  6896  6909       L1     6  0.26
      P1  H  7989  7998       L1     1  0.88
      P1  H 10752 10763       L1     8  0.83

> <Gold.Chemscore.Hbond.Weighted>
-8.1056

> <Gold.Chemscore.Metal.Weighted>
-0.0000

> <Gold.Chemscore.Lipo.Weighted>
-12.1128

> <Gold.Chemscore.Internal_Hbond.Weighted>
0.0000

> <Gold.Chemscore.DEClash.Weighted>
0.0551

> <Gold.Chemscore.DEInternal.Weighted>
0.4635

> <Gold.Chemscore.Rot.Weighted>
6.5117

> <Gold.Chemscore.Internal.Correction.Weighted>
   9.000000E+99

> <Gold.Protein.RotatedTorsions>
[ 6907 6896 6895 6894 ] final   90.63 input  -60.11 | X-H torsion
[ 7974 7965 7964 7962 ] final  -44.35 input  175.53 | X-H torsion
[ 8008 7997 7996 7995 ] final  -40.56 input   59.86 | X-H torsion
[ 10167 10162 10161 10158 ] final   47.41 input  -65.29 | X-H torsion
[ 10718 10713 10712 10709 ] final   90.63 input   66.30 | X-H torsion
[ 10763 10752 10751 10750 ] final   67.05 input  -60.55 | X-H torsion
[ 11005 11000 10999 10996 ] final  -55.47 input  -57.11 | X-H torsion

> <Gold.Protein.ActiveResidues>
 VAL166  LYS551  ARG553  GLY616  TRP617  ASP618  TYR619  PRO620  LYS621  CYS622 
 ASP623  PHE694  ASN695  SER759  ASP760  ASP761  ALA762  ILE779  LEU786  VAL792 
 PHE793  MET794  SER795  GLU796  ALA797  LYS798  CYS799  TRP800  GLU811  SER814 

> <Gold.Protein.RotatedAtoms>
  152.5446  134.1782  159.8624 H   0  0  0  0  0  0  0  0  0  0  0  0  # atno 6907 bound_to 6896
  151.1786  133.4732  159.2601 H   0  0  0  0  0  0  0  0  0  0  0  0  # atno 6908 bound_to 6896
  151.1201  135.0086  159.8590 H   0  0  0  0  0  0  0  0  0  0  0  0  # atno 6909 bound_to 6896
  145.9929  140.7161  142.9308 H   0  0  0  0  0  0  0  0  0  0  0  0  # atno 7974 bound_to 7965
  154.4011  140.1522  156.3047 H   0  0  0  0  0  0  0  0  0  0  0  0  # atno 8008 bound_to 7997
  155.8669  140.3450  155.5773 H   0  0  0  0  0  0  0  0  0  0  0  0  # atno 8009 bound_to 7997
  155.7818  140.0844  157.2046 H   0  0  0  0  0  0  0  0  0  0  0  0  # atno 8010 bound_to 7997
  140.3039  144.2901  150.6213 H   0  0  0  0  0  0  0  0  0  0  0  0  # atno 10167 bound_to 10162
  157.6959  131.0378  150.3607 H   0  0  0  0  0  0  0  0  0  0  0  0  # atno 10718 bound_to 10713
  153.0168  135.5298  154.6920 H   0  0  0  0  0  0  0  0  0  0  0  0  # atno 10763 bound_to 10752
  154.6052  135.2872  155.0495 H   0  0  0  0  0  0  0  0  0  0  0  0  # atno 10764 bound_to 10752
  154.1537  135.6559  153.5022 H   0  0  0  0  0  0  0  0  0  0  0  0  # atno 10765 bound_to 10752
  141.1075  133.6612  156.4474 H   0  0  0  0  0  0  0  0  0  0  0  0  # atno 11005 bound_to 11000
  144.6894  140.3100  143.7249 LP  0  0  0  0  0  0  0  0  0  0  0  0  # atno 17320 bound_to 7965
  145.7603  139.1822  143.2270 LP  0  0  0  0  0  0  0  0  0  0  0  0  # atno 17321 bound_to 7965
  140.5627  143.2190  151.7737 LP  0  0  0  0  0  0  0  0  0  0  0  0  # atno 17342 bound_to 10162
  139.4909  144.4326  151.9855 LP  0  0  0  0  0  0  0  0  0  0  0  0  # atno 17343 bound_to 10162
  156.4044  130.3922  149.6937 LP  0  0  0  0  0  0  0  0  0  0  0  0  # atno 17370 bound_to 10713
  156.4243  130.7784  151.2802 LP  0  0  0  0  0  0  0  0  0  0  0  0  # atno 17371 bound_to 10713
  140.4863  134.6617  157.5192 LP  0  0  0  0  0  0  0  0  0  0  0  0  # atno 17394 bound_to 11000
  139.9952  134.6922  155.9621 LP  0  0  0  0  0  0  0  0  0  0  0  0  # atno 17395 bound_to 11000

$$$$
