AV-unprocessed.smi:3262|AV-procd|sdf|12484|dock1
  -GOLD-   2272018383D 1   1.00000     0.00000
 Structure written by MMmdl.
 39 40  0  0  0  0  0  0  0  0  1 V2000
  151.7043  140.0337  159.2286 O   0  0  0  0  0  0  0  0  0  0  0  0
  151.8474  141.1990  158.8537 C   0  0  0  0  0  0  0  0  0  0  0  0
  151.2500  141.6626  157.7433 N   0  0  0  0  0  0  0  0  0  0  0  0
  150.4055  140.8680  156.8619 C   0  0  0  0  0  0  0  0  0  0  0  0
  150.1285  141.6227  155.5544 C   0  0  0  0  0  0  0  0  0  0  0  0
  149.0091  140.9891  154.7501 C   0  0  0  0  0  0  0  0  0  0  0  0
  147.9193  141.7633  154.2978 C   0  0  0  0  0  0  0  0  0  0  0  0
  146.9098  141.1279  153.5490 C   0  0  0  0  0  0  0  0  0  0  0  0
  147.0288  139.7504  153.2818 C   0  0  0  0  0  0  0  0  0  0  0  0
  148.1574  139.0669  153.7766 C   0  0  0  0  0  0  0  0  0  0  0  0
  149.1308  139.6665  154.4954 N   0  0  0  0  0  0  0  0  0  0  0  0
  152.5664  142.1218  159.5480 N   0  0  0  0  0  0  0  0  0  0  0  0
  152.9414  141.9896  160.9727 C   0  0  0  0  0  0  0  0  0  0  0  0
  152.8821  143.3011  161.7854 C   0  0  0  0  0  0  0  0  0  0  0  0
  151.6466  144.1780  161.5088 C   0  0  0  0  0  0  0  0  0  0  0  0
  151.8415  145.1357  160.3207 C   0  0  0  0  0  0  0  0  0  0  0  0
  151.9369  144.4503  158.9480 C   0  0  0  0  0  0  0  0  0  0  0  0
  153.0136  143.3520  158.8770 C   0  0  0  0  0  0  0  0  0  0  0  0
  151.3879  142.6323  157.4985 H   0  0  0  0  0  0  0  0  0  0  0  0
  150.8949  139.9168  156.6458 H   0  0  0  0  0  0  0  0  0  0  0  0
  149.4685  140.6412  157.3731 H   0  0  0  0  0  0  0  0  0  0  0  0
  149.8656  142.6595  155.7695 H   0  0  0  0  0  0  0  0  0  0  0  0
  151.0325  141.6562  154.9445 H   0  0  0  0  0  0  0  0  0  0  0  0
  147.8580  142.8194  154.5164 H   0  0  0  0  0  0  0  0  0  0  0  0
  146.0603  141.6869  153.1858 H   0  0  0  0  0  0  0  0  0  0  0  0
  146.2740  139.2302  152.7109 H   0  0  0  0  0  0  0  0  0  0  0  0
  148.2817  138.0104  153.5898 H   0  0  0  0  0  0  0  0  0  0  0  0
  152.2818  141.2929  161.4909 H   0  0  0  0  0  0  0  0  0  0  0  0
  153.9420  141.5603  161.0355 H   0  0  0  0  0  0  0  0  0  0  0  0
  152.8942  143.0365  162.8433 H   0  0  0  0  0  0  0  0  0  0  0  0
  153.7905  143.8843  161.6310 H   0  0  0  0  0  0  0  0  0  0  0  0
  150.7574  143.5616  161.3704 H   0  0  0  0  0  0  0  0  0  0  0  0
  151.4550  144.7842  162.3947 H   0  0  0  0  0  0  0  0  0  0  0  0
  151.0115  145.8425  160.2971 H   0  0  0  0  0  0  0  0  0  0  0  0
  152.7363  145.7368  160.4867 H   0  0  0  0  0  0  0  0  0  0  0  0
  150.9645  144.0426  158.6691 H   0  0  0  0  0  0  0  0  0  0  0  0
  152.1623  145.2122  158.2014 H   0  0  0  0  0  0  0  0  0  0  0  0
  153.9539  143.7059  159.3006 H   0  0  0  0  0  0  0  0  0  0  0  0
  153.2479  143.1441  157.8314 H   0  0  0  0  0  0  0  0  0  0  0  0
  1  2  2  0  0  0  0
  2  3  1  0  0  0  0
  2 12  1  0  0  0  0
  3  4  1  0  0  0  0
  3 19  1  0  0  0  0
  4  5  1  0  0  0  0
  4 20  1  0  0  0  0
  4 21  1  0  0  0  0
  5  6  1  0  0  0  0
  5 22  1  0  0  0  0
  5 23  1  0  0  0  0
  6 11  1  0  0  0  0
  6  7  2  0  0  0  0
  7  8  1  0  0  0  0
  7 24  1  0  0  0  0
  8  9  2  0  0  0  0
  8 25  1  0  0  0  0
  9 10  1  0  0  0  0
  9 26  1  0  0  0  0
 10 11  2  0  0  0  0
 10 27  1  0  0  0  0
 12 18  1  0  0  0  0
 12 13  1  0  0  0  0
 13 14  1  0  0  0  0
 13 28  1  0  0  0  0
 13 29  1  0  0  0  0
 14 15  1  0  0  0  0
 14 30  1  0  0  0  0
 14 31  1  0  0  0  0
 15 16  1  0  0  0  0
 15 32  1  0  0  0  0
 15 33  1  0  0  0  0
 16 17  1  0  0  0  0
 16 34  1  0  0  0  0
 16 35  1  0  0  0  0
 17 18  1  0  0  0  0
 17 36  1  0  0  0  0
 17 37  1  0  0  0  0
 18 38  1  0  0  0  0
 18 39  1  0  0  0  0
M  END
> <s_m_source_file>
AV-unprocessed.smi

> <i_m_source_file_index>
3262

> <i_lp_mmshare_version>
43012

> <i_f3d_flags>
0

> <s_epik_input>
W0NIMl0xW0NIMl1bQ0gyXVtDSDJdW0NIMl1bQ0gyXU4xQyg9TylbTkhdW0NIMl1bQ0gyXWMyW2NIXVtjSF1bY0hdW2NIXW4y

> <s_epik_cmdline>
J2VwaWtfcHl0aG9uJywgJy1waCcsICc3LjAnLCAnLXRuJywgJzgnLCAnLW1hJywgJzIwMCcsICctbWV0YWxfYmluZGluZycsICctaW1hZScsICc8aW5maWxlLm1hZT4nLCAnLW9tYWUnLCAnPG91dGZpbGUubWFlPic=

> <r_epik_Ionization_Penalty>
0.0449498

> <r_epik_Ionization_Penalty_Charging>
0

> <r_epik_Ionization_Penalty_Neutral>
0.0449498

> <r_epik_State_Penalty>
0.0380669

> <r_epik_Charging_Adjusted_Penalty>
0.0380669

> <i_epik_Tot_Q>
0

> <i_epik_Tot_abs_Q>
0

> <r_epik_Metal_State_Penalty>
0.0353734

> <b_epik_Metal_Only>
0

> <s_lp_Force_Field>
OPLS_2005

> <r_lp_Energy>
31.2799

> <b_lp_Chiralities_Consistent>
1

> <s_lp_Variant>
AV-unprocessed.smi:3262-1

> <Gold.Version>
5.8.1

> <Gold.Id.Protein>
6NUR|6NUR_protein|mol2

> <Gold.PLP.Fitness>
44.6509

> <Gold.PLP.PLP>
-44.3472

> <Gold.PLP.part.hbond>
0.0000

> <Gold.PLP.part.metal>
0.0000

> <Gold.PLP.part.buried>
-3.2773

> <Gold.PLP.part.nonpolar>
-41.4147

> <Gold.PLP.part.repulsive>
0.1791

> <Gold.PLP.ligand.clash>
2.0709

> <Gold.PLP.ligand.torsion>
0.3188

> <Gold.PLP.Chemscore.Hbond>
0.0000

> <Gold.PLP.Chemscore.CHOScore>
1.0000

> <Gold.PLP.Chemscore.Metal>
0.0000

> <Gold.Chemscore.Hbonds>
donor molecule, donor type, donor heavy atom, donor atom, acceptor molecule, acceptor atom, score
      L1  C    10    27       P1  7948  0.93

> <Gold.PLP.Chemscore.Internal.Correction>
0.0122

> <Gold.Rescore>
     Score         DG    S(hbond)    S(metal)    S(lipo)     H(rot)  DE(clash)    DE(int)     intcor
     16.17     -16.46       0.00        0.00     121.68       1.27       0.07       0.21       ----

> <Gold.Chemscore.Fitness>
16.1702

> <Gold.Chemscore.DG>
-16.4561

> <Gold.Chemscore.ZeroCoef>
-5.4800

> <Gold.Chemscore.Hbond>
0.0000

> <Gold.Chemscore.Metal>
0.0000

> <Gold.Chemscore.Lipo>
121.6847

> <Gold.Chemscore.Internal_Hbond>
0.0000

> <Gold.Chemscore.DEClash>
0.0718

> <Gold.Chemscore.DEInternal>
0.2141

> <Gold.Chemscore.Rot>
1.2738

> <Gold.Chemscore.Internal.Correction>
   9.000000E+99

> <Gold.Chemscore.Hbond.Weighted>
-0.0000

> <Gold.Chemscore.Metal.Weighted>
-0.0000

> <Gold.Chemscore.Lipo.Weighted>
-14.2371

> <Gold.Chemscore.Internal_Hbond.Weighted>
0.0000

> <Gold.Chemscore.DEClash.Weighted>
0.0718

> <Gold.Chemscore.DEInternal.Weighted>
0.2141

> <Gold.Chemscore.Rot.Weighted>
3.2610

> <Gold.Chemscore.Internal.Correction.Weighted>
   9.000000E+99

> <Gold.Protein.RotatedTorsions>
[ 6907 6896 6895 6894 ] final -146.07 input  -60.11 | X-H torsion
[ 7974 7965 7964 7962 ] final  170.64 input  175.53 | X-H torsion
[ 8008 7997 7996 7995 ] final   23.32 input   59.86 | X-H torsion
[ 10167 10162 10161 10158 ] final -175.34 input  -65.29 | X-H torsion
[ 10718 10713 10712 10709 ] final   99.73 input   66.30 | X-H torsion
[ 10763 10752 10751 10750 ] final  143.68 input  -60.55 | X-H torsion
[ 11005 11000 10999 10996 ] final -106.53 input  -57.11 | X-H torsion

> <Gold.Protein.ActiveResidues>
 VAL166  LYS551  ARG553  GLY616  TRP617  ASP618  TYR619  PRO620  LYS621  CYS622 
 ASP623  PHE694  ASN695  SER759  ASP760  ASP761  ALA762  ILE779  LEU786  VAL792 
 PHE793  MET794  SER795  GLU796  ALA797  LYS798  CYS799  TRP800  GLU811  SER814 

> <Gold.Protein.RotatedAtoms>
  151.1365  133.5000  159.2597 H   0  0  0  0  0  0  0  0  0  0  0  0  # atno 6907 bound_to 6896
  151.1701  135.0313  159.8757 H   0  0  0  0  0  0  0  0  0  0  0  0  # atno 6908 bound_to 6896
  152.5461  134.1230  159.8460 H   0  0  0  0  0  0  0  0  0  0  0  0  # atno 6909 bound_to 6896
  144.7318  139.9233  143.6421 H   0  0  0  0  0  0  0  0  0  0  0  0  # atno 7974 bound_to 7965
  154.9791  140.3100  155.4954 H   0  0  0  0  0  0  0  0  0  0  0  0  # atno 8008 bound_to 7997
  156.2956  140.2270  156.4828 H   0  0  0  0  0  0  0  0  0  0  0  0  # atno 8009 bound_to 7997
  154.7806  140.0446  157.1112 H   0  0  0  0  0  0  0  0  0  0  0  0  # atno 8010 bound_to 7997
  139.5586  144.1926  152.1201 H   0  0  0  0  0  0  0  0  0  0  0  0  # atno 10167 bound_to 10162
  157.6870  131.0678  150.4992 H   0  0  0  0  0  0  0  0  0  0  0  0  # atno 10718 bound_to 10713
  153.9763  135.2945  155.3423 H   0  0  0  0  0  0  0  0  0  0  0  0  # atno 10763 bound_to 10752
  154.7294  135.5074  153.8942 H   0  0  0  0  0  0  0  0  0  0  0  0  # atno 10764 bound_to 10752
  153.0876  135.6698  154.0032 H   0  0  0  0  0  0  0  0  0  0  0  0  # atno 10765 bound_to 10752
  141.1000  133.8902  157.1868 H   0  0  0  0  0  0  0  0  0  0  0  0  # atno 11005 bound_to 11000
  146.0913  139.3903  143.0404 LP  0  0  0  0  0  0  0  0  0  0  0  0  # atno 17320 bound_to 7965
  145.7707  140.9898  143.1151 LP  0  0  0  0  0  0  0  0  0  0  0  0  # atno 17321 bound_to 7965
  140.1435  144.5180  150.6729 LP  0  0  0  0  0  0  0  0  0  0  0  0  # atno 17342 bound_to 10162
  140.6863  143.2351  151.5252 LP  0  0  0  0  0  0  0  0  0  0  0  0  # atno 17343 bound_to 10162
  156.5315  130.4186  149.6199 LP  0  0  0  0  0  0  0  0  0  0  0  0  # atno 17370 bound_to 10713
  156.3065  130.7205  151.2089 LP  0  0  0  0  0  0  0  0  0  0  0  0  # atno 17371 bound_to 10713
  139.9848  135.0086  156.9836 LP  0  0  0  0  0  0  0  0  0  0  0  0  # atno 17394 bound_to 11000
  140.5047  134.1062  155.7257 LP  0  0  0  0  0  0  0  0  0  0  0  0  # atno 17395 bound_to 11000

$$$$
