#       Name:                AV-unprocessed.smi:999
#       Creating user name   scv26
#       Creation time:       Fri Mar 27 02:25:05 2020


#       File generated by GOLD software.
#

@<TRIPOS>MOLECULE
AV-unprocessed.smi:999
    44    45     1
SMALL
NO_CHARGES


@<TRIPOS>ATOM
      1 ****        -3.1778  -2.1272  -1.7947 C.3            1 S1                 0.0000
      2 ****        -2.5444  -1.2761  -0.6748 C.3            1 S1                 0.0000
      3 ****        -1.0269  -1.0981  -0.8450 C.2            1 S1                 0.0000
      4 ****        -0.3697  -1.8957  -1.5150 O.2            1 S1                 0.0000
      5 ****        -0.4847  -0.0356  -0.2289 N.am           1 S1                 0.0000
      6 ****         0.9307   0.3191  -0.2367 C.3            1 S1                 0.0000
      7 ****         1.2531   1.1639   1.0082 C.3            1 S1                 0.0000
      8 ****         2.7246   1.6072   1.0242 C.3            1 S1                 0.0000
      9 ****         3.1017   2.3769  -0.2643 C.3            1 S1                 0.0000
     10 ****         4.5831   2.8090  -0.2711 C.2            1 S1                 0.0000
     11 ****         5.2206   2.7597   0.8046 O.co2          1 S1                 0.0000
     12 ****         5.0573   3.2114  -1.3566 O.co2          1 S1                -1.0000
     13 ****         2.7641   1.5351  -1.5167 C.3            1 S1                 0.0000
     14 ****         1.2932   1.0889  -1.5217 C.3            1 S1                 0.0000
     15 ****        -2.8486  -1.7960   0.6537 N.pl3          1 S1                 0.0000
     16 ****        -3.2504  -1.0886   1.7689 C.2            1 S1                 0.0000
     17 ****        -3.3808  -1.9786   2.7961 C.2            1 S1                 0.0000
     18 ****        -3.0201  -3.2238   2.2114 C.2            1 S1                 0.0000
     19 ****        -2.6939  -3.1112   0.9345 N.2            1 S1                 0.0000
     20 ****        -2.9921  -1.6870  -2.7750 H              1 S1                 0.0000
     21 ****        -4.2585  -2.1932  -1.6671 H              1 S1                 0.0000
     22 ****        -2.7846  -3.1445  -1.8108 H              1 S1                 0.0000
     23 ****        -2.9919  -0.2828  -0.7386 H              1 S1                 0.0000
     24 ****        -1.0986   0.5686   0.2975 H              1 S1                 0.0000
     25 ****         1.5268  -0.5946  -0.1910 H              1 S1                 0.0000
     26 ****         0.6112   2.0458   1.0342 H              1 S1                 0.0000
     27 ****         1.0336   0.5952   1.9127 H              1 S1                 0.0000
     28 ****         2.8970   2.2288   1.9041 H              1 S1                 0.0000
     29 ****         3.3626   0.7287   1.1341 H              1 S1                 0.0000
     30 ****         2.5113   3.2936  -0.2986 H              1 S1                 0.0000
     31 ****         2.9623   2.1022  -2.4272 H              1 S1                 0.0000
     32 ****         3.4077   0.6548  -1.5550 H              1 S1                 0.0000
     33 ****         1.1064   0.4684  -2.3989 H              1 S1                 0.0000
     34 ****         0.6510   1.9652  -1.6213 H              1 S1                 0.0000
     35 ****        -3.4088  -0.0207   1.7388 H              1 S1                 0.0000
     36 ****        -3.6832  -1.7710   3.8118 H              1 S1                 0.0000
     37 ****        -2.9820  -4.1989   2.6742 H              1 S1                 0.0000
     38 ****        -0.8227  -2.6704  -1.9561 LP             1 S1                 0.0000
     39 ****         0.6168  -1.7685  -1.6178 LP             1 S1                 0.0000
     40 ****         6.1757   3.0544   0.8337 LP             1 S1                 0.0000
     41 ****         4.7748   2.4257   1.6351 LP             1 S1                 0.0000
     42 ****         6.0067   3.5219  -1.4030 LP             1 S1                 0.0000
     43 ****         4.4868   3.2227  -2.1779 LP             1 S1                 0.0000
     44 ****        -2.3983  -3.8372   0.3137 LP             1 S1                 0.0000
@<TRIPOS>BOND
    1    1    2 1     
    2    1   20 1     
    3    1   21 1     
    4    1   22 1     
    5    2    3 1     
    6    2   15 1     
    7    2   23 1     
    8    3    4 2     
    9    3    5 am    
   10    5    6 1     
   11    5   24 1     
   12    6   14 1     
   13    6    7 1     
   14    6   25 1     
   15    7    8 1     
   16    7   26 1     
   17    7   27 1     
   18    8    9 1     
   19    8   28 1     
   20    8   29 1     
   21    9   10 1     
   22    9   13 1     
   23    9   30 1     
   24   10   11 ar    
   25   10   12 ar    
   26   13   14 1     
   27   13   31 1     
   28   13   32 1     
   29   14   33 1     
   30   14   34 1     
   31   15   19 1     
   32   15   16 1     
   33   16   17 2     
   34   16   35 1     
   35   17   18 1     
   36   17   36 1     
   37   18   19 2     
   38   18   37 1     
   39    4   38 1     
   40    4   39 1     
   41   11   40 1     
   42   11   41 1     
   43   12   42 1     
   44   12   43 1     
   45   19   44 1     
@<TRIPOS>SUBSTRUCTURE
      1 S1             1
@<TRIPOS>SET
LONE_PAIRS      STATIC     ATOMS    <user>   **** ""
7 38 39 40 41 42 43 44
DONOR_HYDROGENS      STATIC     ATOMS    <user>   **** ""
1 24
ATOM$BLUE        STATIC     ATOMS    COLORGROUP SYSTEM
7 38 39 40 41 42 43 44
ATOM$RED        STATIC     ATOMS    COLORGROUP SYSTEM
1 24
