AV-unprocessed.smi:2531|AV-procd|sdf|9965|dock3
  -GOLD-   2272014 03D 1   1.00000     0.00000
 Structure written by MMmdl.
 47 49  0  0  0  0  0  0  0  0  2 V2000
  149.4329  142.6700  158.9521 O   0  0  0  0  0  0  0  0  0  0  0  0
  150.3267  142.3342  158.1740 C   0  0  0  0  0  0  0  0  0  0  0  0
  151.7184  142.9924  158.2393 C   0  0  0  0  0  0  0  0  0  0  0  0
  152.3551  142.8695  159.6381 C   0  0  0  0  0  0  0  0  0  0  0  0
  152.1226  144.2199  160.3136 C   0  0  0  0  0  0  0  0  0  0  0  0
  152.2447  145.2220  159.1697 C   0  0  0  0  0  0  0  0  0  0  0  0
  151.6534  144.5093  157.9475 C   0  0  0  0  0  0  0  0  0  0  0  0
  150.0989  141.4083  157.1530 N   0  0  0  0  0  0  0  0  0  0  0  0
  150.6181  141.6072  155.8081 C   0  0  0  0  0  0  0  0  0  0  0  0
  149.3903  140.8192  155.3312 C   0  0  0  0  0  0  0  0  0  0  0  0
  149.7710  139.0331  155.0220 S   0  0  0  0  0  0  0  0  0  0  0  0
  151.1480  138.9353  154.5138 O   0  0  0  0  0  0  0  0  0  0  0  0
  149.3579  138.2224  156.1777 O   0  0  0  0  0  0  0  0  0  0  0  0
  148.7026  138.6487  153.7206 N   0  0  0  0  0  0  0  0  0  0  0  0
  147.2894  138.4005  154.0192 C   0  0  0  0  0  0  0  0  0  0  0  0
  146.4169  138.4833  152.7537 C   0  0  0  0  0  0  0  0  0  0  0  0
  145.5990  137.2302  152.4982 C   0  0  0  0  0  0  0  0  0  0  0  0
  144.2338  137.1429  152.8467 C   0  0  0  0  0  0  0  0  0  0  0  0
  143.5395  135.9374  152.6142 C   0  0  0  0  0  0  0  0  0  0  0  0
  144.2233  134.8465  152.0385 C   0  0  0  0  0  0  0  0  0  0  0  0
  145.5867  134.9884  151.7097 C   0  0  0  0  0  0  0  0  0  0  0  0
  146.2170  136.1593  151.9485 N   0  3  0  0  0  0  0  0  0  0  0  0
  148.7521  141.0976  156.6990 C   0  0  0  0  0  0  0  0  0  0  0  0
  152.3759  142.5002  157.5212 H   0  0  0  0  0  0  0  0  0  0  0  0
  151.9573  142.0440  160.2307 H   0  0  0  0  0  0  0  0  0  0  0  0
  153.4267  142.6950  159.5328 H   0  0  0  0  0  0  0  0  0  0  0  0
  151.1165  144.2576  160.7337 H   0  0  0  0  0  0  0  0  0  0  0  0
  152.8298  144.4136  161.1204 H   0  0  0  0  0  0  0  0  0  0  0  0
  151.7453  146.1667  159.3863 H   0  0  0  0  0  0  0  0  0  0  0  0
  153.2985  145.4398  158.9905 H   0  0  0  0  0  0  0  0  0  0  0  0
  152.2066  144.7650  157.0431 H   0  0  0  0  0  0  0  0  0  0  0  0
  150.6266  144.8455  157.7920 H   0  0  0  0  0  0  0  0  0  0  0  0
  150.6065  142.6509  155.4880 H   0  0  0  0  0  0  0  0  0  0  0  0
  151.5789  141.1238  155.6281 H   0  0  0  0  0  0  0  0  0  0  0  0
  148.8804  141.2746  154.4821 H   0  0  0  0  0  0  0  0  0  0  0  0
  148.8034  139.3164  152.9558 H   0  0  0  0  0  0  0  0  0  0  0  0
  147.1762  137.4275  154.4994 H   0  0  0  0  0  0  0  0  0  0  0  0
  146.9567  139.1445  154.7432 H   0  0  0  0  0  0  0  0  0  0  0  0
  145.7354  139.3306  152.8389 H   0  0  0  0  0  0  0  0  0  0  0  0
  147.0430  138.6870  151.8837 H   0  0  0  0  0  0  0  0  0  0  0  0
  143.7264  137.9839  153.2964 H   0  0  0  0  0  0  0  0  0  0  0  0
  142.4957  135.8493  152.8784 H   0  0  0  0  0  0  0  0  0  0  0  0
  143.7095  133.9142  151.8545 H   0  0  0  0  0  0  0  0  0  0  0  0
  146.1883  134.2067  151.2695 H   0  0  0  0  0  0  0  0  0  0  0  0
  148.3022  140.2345  157.1901 H   0  0  0  0  0  0  0  0  0  0  0  0
  148.0867  141.9630  156.6882 H   0  0  0  0  0  0  0  0  0  0  0  0
  147.2057  136.2387  151.7099 H   0  0  0  0  0  0  0  0  0  0  0  0
  1  2  2  0  0  0  0
  2  3  1  0  0  0  0
  2  8  1  0  0  0  0
  3  7  1  0  0  0  0
  3  4  1  0  0  0  0
  3 24  1  0  0  0  0
  4  5  1  0  0  0  0
  4 25  1  0  0  0  0
  4 26  1  0  0  0  0
  5  6  1  0  0  0  0
  5 27  1  0  0  0  0
  5 28  1  0  0  0  0
  6  7  1  0  0  0  0
  6 29  1  0  0  0  0
  6 30  1  0  0  0  0
  7 31  1  0  0  0  0
  7 32  1  0  0  0  0
  8 23  1  0  0  0  0
  8  9  1  0  0  0  0
  9 10  1  0  0  0  0
  9 33  1  0  0  0  0
  9 34  1  0  0  0  0
 10 11  1  0  0  0  0
 10 23  1  0  0  0  0
 10 35  1  0  0  0  0
 11 12  2  0  0  0  0
 11 13  2  0  0  0  0
 11 14  1  0  0  0  0
 14 15  1  0  0  0  0
 14 36  1  0  0  0  0
 15 16  1  0  0  0  0
 15 37  1  0  0  0  0
 15 38  1  0  0  0  0
 16 17  1  0  0  0  0
 16 39  1  0  0  0  0
 16 40  1  0  0  0  0
 17 22  1  0  0  0  0
 17 18  2  0  0  0  0
 18 19  1  0  0  0  0
 18 41  1  0  0  0  0
 19 20  2  0  0  0  0
 19 42  1  0  0  0  0
 20 21  1  0  0  0  0
 20 43  1  0  0  0  0
 21 22  2  0  0  0  0
 21 44  1  0  0  0  0
 22 47  1  0  0  0  0
 23 45  1  0  0  0  0
 23 46  1  0  0  0  0
M  CHG  1  22   1
M  END
> <s_m_source_file>
AV-unprocessed.smi

> <i_m_source_file_index>
2531

> <i_lp_mmshare_version>
43012

> <i_f3d_flags>
0

> <s_epik_input>
W0NIMl0xW0NIMl1bQ0gyXVtDSDJdW0NIXTFDKD1PKU4yW0NIMl1bQ0hdKFtDSDJdMilTKD1PKSg9TylbTkhdW0NIMl1bQ0gyXWMzW2NIXVtjSF1bY0hdW2NIXW4z

> <s_epik_cmdline>
J2VwaWtfcHl0aG9uJywgJy1waCcsICc3LjAnLCAnLXRuJywgJzgnLCAnLW1hJywgJzIwMCcsICctbWV0YWxfYmluZGluZycsICctaW1hZScsICc8aW5maWxlLm1hZT4nLCAnLW9tYWUnLCAnPG91dGZpbGUubWFlPic=

> <r_epik_Ionization_Penalty>
2.00952

> <r_epik_Ionization_Penalty_Charging>
2.00945

> <r_epik_Ionization_Penalty_Neutral>
6.7549e-05

> <r_epik_State_Penalty>
2.13885

> <r_epik_Charging_Adjusted_Penalty>
4.1483

> <i_epik_Tot_Q>
1

> <i_epik_Tot_abs_Q>
1

> <r_epik_Metal_State_Penalty>
2.25125

> <b_epik_Metal_Only>
0

> <s_lp_Force_Field>
OPLS_2005

> <r_lp_Energy>
39.4399

> <b_lp_Chiralities_Consistent>
1

> <s_lp_Variant>
AV-unprocessed.smi:2531-2

> <Gold.Version>
5.8.1

> <Gold.Id.Protein>
6NUR|6NUR_protein|mol2

> <Gold.PLP.Fitness>
57.4836

> <Gold.PLP.PLP>
-48.0929

> <Gold.PLP.part.hbond>
-4.9892

> <Gold.PLP.part.metal>
0.0000

> <Gold.PLP.part.buried>
-5.6092

> <Gold.PLP.part.nonpolar>
-38.5713

> <Gold.PLP.part.repulsive>
0.3587

> <Gold.PLP.ligand.clash>
0.0000

> <Gold.PLP.ligand.torsion>
2.1464

> <Gold.PLP.Chemscore.Hbond>
4.0000

> <Gold.PLP.Chemscore.CHOScore>
0.0000

> <Gold.PLP.Chemscore.Metal>
0.0000

> <Gold.Chemscore.Hbonds>
donor molecule, donor type, donor heavy atom, donor atom, acceptor molecule, acceptor atom, score
      L1  H    14    36       P1  7957  0.84
      L1  H    22    47       P1  7948  2.00
      P1  H  7989  7998       L1    12  0.50

> <Gold.PLP.Chemscore.Internal.Correction>
1.6836

> <Gold.Rescore>
     Score         DG    S(hbond)    S(metal)    S(lipo)     H(rot)  DE(clash)    DE(int)     intcor
     20.50     -22.52       2.79        0.00     109.28       1.97       0.04       1.97       ----

> <Gold.Chemscore.Fitness>
20.5034

> <Gold.Chemscore.DG>
-22.5151

> <Gold.Chemscore.ZeroCoef>
-5.4800

> <Gold.Chemscore.Hbond>
2.7858

> <Gold.Chemscore.Metal>
0.0000

> <Gold.Chemscore.Lipo>
109.2837

> <Gold.Chemscore.Internal_Hbond>
0.0000

> <Gold.Chemscore.DEClash>
0.0383

> <Gold.Chemscore.DEInternal>
1.9734

> <Gold.Chemscore.Rot>
1.9749

> <Gold.Chemscore.Internal.Correction>
   9.000000E+99

> <Gold.Chemscore.Hbonds>
donor molecule, donor type, donor heavy atom, donor atom, acceptor molecule, acceptor atom, score
      L1  H    14    36       P1  7957  0.81
      L1  H    22    47       P1  7948  1.00
      P1  H  7989  7998       L1    12  0.32

> <Gold.Chemscore.Hbond.Weighted>
-9.3046

> <Gold.Chemscore.Metal.Weighted>
-0.0000

> <Gold.Chemscore.Lipo.Weighted>
-12.7862

> <Gold.Chemscore.Internal_Hbond.Weighted>
0.0000

> <Gold.Chemscore.DEClash.Weighted>
0.0383

> <Gold.Chemscore.DEInternal.Weighted>
1.9734

> <Gold.Chemscore.Rot.Weighted>
5.0556

> <Gold.Chemscore.Internal.Correction.Weighted>
   9.000000E+99

> <Gold.Protein.RotatedTorsions>
[ 6907 6896 6895 6894 ] final   -5.43 input  -60.11 | X-H torsion
[ 7974 7965 7964 7962 ] final  168.51 input  175.53 | X-H torsion
[ 8008 7997 7996 7995 ] final   74.56 input   59.86 | X-H torsion
[ 10167 10162 10161 10158 ] final  110.54 input  -65.29 | X-H torsion
[ 10718 10713 10712 10709 ] final  111.52 input   66.30 | X-H torsion
[ 10763 10752 10751 10750 ] final  162.23 input  -60.55 | X-H torsion
[ 11005 11000 10999 10996 ] final    4.79 input  -57.11 | X-H torsion

> <Gold.Protein.ActiveResidues>
 VAL166  LYS551  ARG553  GLY616  TRP617  ASP618  TYR619  PRO620  LYS621  CYS622 
 ASP623  PHE694  ASN695  SER759  ASP760  ASP761  ALA762  ILE779  LEU786  VAL792 
 PHE793  MET794  SER795  GLU796  ALA797  LYS798  CYS799  TRP800  GLU811  SER814 

> <Gold.Protein.RotatedAtoms>
  151.4818  135.1052  159.9779 H   0  0  0  0  0  0  0  0  0  0  0  0  # atno 6907 bound_to 6896
  152.4776  133.8172  159.7045 H   0  0  0  0  0  0  0  0  0  0  0  0  # atno 6908 bound_to 6896
  150.8825  133.7291  159.2954 H   0  0  0  0  0  0  0  0  0  0  0  0  # atno 6909 bound_to 6896
  144.7386  139.8918  143.6403 H   0  0  0  0  0  0  0  0  0  0  0  0  # atno 7974 bound_to 7965
  155.8002  140.3476  155.5398 H   0  0  0  0  0  0  0  0  0  0  0  0  # atno 8008 bound_to 7997
  155.8546  140.0961  157.1673 H   0  0  0  0  0  0  0  0  0  0  0  0  # atno 8009 bound_to 7997
  154.4009  140.1370  156.3873 H   0  0  0  0  0  0  0  0  0  0  0  0  # atno 8010 bound_to 7997
  139.6681  144.7126  151.1739 H   0  0  0  0  0  0  0  0  0  0  0  0  # atno 10167 bound_to 10162
  157.6440  131.0952  150.6761 H   0  0  0  0  0  0  0  0  0  0  0  0  # atno 10718 bound_to 10713
  154.2752  135.2764  155.2721 H   0  0  0  0  0  0  0  0  0  0  0  0  # atno 10763 bound_to 10752
  154.5266  135.5741  153.6728 H   0  0  0  0  0  0  0  0  0  0  0  0  # atno 10764 bound_to 10752
  152.9938  135.6217  154.2909 H   0  0  0  0  0  0  0  0  0  0  0  0  # atno 10765 bound_to 10752
  140.5779  134.0040  155.8035 H   0  0  0  0  0  0  0  0  0  0  0  0  # atno 11005 bound_to 11000
  146.1136  139.4144  143.0272 LP  0  0  0  0  0  0  0  0  0  0  0  0  # atno 17320 bound_to 7965
  145.7407  141.0009  143.1302 LP  0  0  0  0  0  0  0  0  0  0  0  0  # atno 17321 bound_to 7965
  140.7607  143.5888  150.8818 LP  0  0  0  0  0  0  0  0  0  0  0  0  # atno 17342 bound_to 10162
  139.9551  143.6228  152.3018 LP  0  0  0  0  0  0  0  0  0  0  0  0  # atno 17343 bound_to 10162
  156.7080  130.4643  149.5555 LP  0  0  0  0  0  0  0  0  0  0  0  0  # atno 17370 bound_to 10713
  156.1749  130.6461  151.0882 LP  0  0  0  0  0  0  0  0  0  0  0  0  # atno 17371 bound_to 10713
  141.1014  133.9761  157.3071 LP  0  0  0  0  0  0  0  0  0  0  0  0  # atno 17394 bound_to 11000
  139.9331  135.0198  156.8465 LP  0  0  0  0  0  0  0  0  0  0  0  0  # atno 17395 bound_to 11000

$$$$
