#       Name:                AV-unprocessed.smi:2748
#       Creating user name   scv26
#       Creation time:       Fri Mar 27 15:03:36 2020


#       File generated by GOLD software.
#

@<TRIPOS>MOLECULE
AV-unprocessed.smi:2748
    36    38     1
SMALL
NO_CHARGES


@<TRIPOS>ATOM
      1 ****        -5.5175   0.8403  -2.0640 O.2            1 S1                 0.0000
      2 ****        -4.2930   0.8099  -1.9498 C.2            1 S1                 0.0000
      3 ****        -3.5128   1.9224  -2.0849 N.pl3          1 S1                -1.0000
      4 ****        -2.1493   1.9079  -1.9635 C.2            1 S1                 0.0000
      5 ****        -1.4668   2.9262  -2.0806 O.2            1 S1                 0.0000
      6 ****        -1.5252   0.7214  -1.7021 N.am           1 S1                 0.0000
      7 ****        -0.0675   0.6141  -1.5547 C.3            1 S1                 0.0000
      8 ****         0.3895   0.9719  -0.1279 C.3            1 S1                 0.0000
      9 ****         1.9347   0.9752   0.0183 C.3            1 S1                 0.0000
     10 ****         2.1451  -0.0567   1.0702 C.ar           1 S1                 0.0000
     11 ****         3.3558  -0.4996   1.6294 C.ar           1 S1                 0.0000
     12 ****         3.2955  -1.5036   2.6209 C.ar           1 S1                 0.0000
     13 ****         2.0482  -2.0371   3.0261 C.ar           1 S1                 0.0000
     14 ****         0.8460  -1.5732   2.4456 C.ar           1 S1                 0.0000
     15 ****         0.9223  -0.5727   1.4606 C.ar           1 S1                 0.0000
     16 ****        -0.1277  -0.0044   0.7977 O.3            1 S1                 0.0000
     17 ****        -2.2823  -0.4519  -1.5462 C.2            1 S1                 0.0000
     18 ****        -3.6248  -0.4565  -1.6572 C.2            1 S1                 0.0000
     19 ****        -4.5302  -1.9145  -1.4574 Cl             1 S1                 0.0000
     20 ****         0.2663  -0.3938  -1.8061 H              1 S1                 0.0000
     21 ****         0.4279   1.2643  -2.2778 H              1 S1                 0.0000
     22 ****         0.0011   1.9502   0.1584 H              1 S1                 0.0000
     23 ****         2.4486   0.6908  -0.9006 H              1 S1                 0.0000
     24 ****         2.3104   1.9434   0.3503 H              1 S1                 0.0000
     25 ****         4.3016  -0.0864   1.3111 H              1 S1                 0.0000
     26 ****         4.2067  -1.8671   3.0727 H              1 S1                 0.0000
     27 ****         2.0149  -2.8047   3.7851 H              1 S1                 0.0000
     28 ****        -0.1083  -1.9761   2.7511 H              1 S1                 0.0000
     29 ****        -1.7082  -1.3400  -1.3259 H              1 S1                 0.0000
     30 ****        -6.0507   0.0011  -1.9566 LP             1 S1                 0.0000
     31 ****        -5.9797   1.7042  -2.2641 LP             1 S1                 0.0000
     32 ****        -3.9613   2.7940  -2.2830 LP             1 S1                 0.0000
     33 ****        -1.9067   3.8038  -2.2711 LP             1 S1                 0.0000
     34 ****        -0.4727   2.8755  -1.9851 LP             1 S1                 0.0000
     35 ****        -0.6321  -0.7087   0.2982 LP             1 S1                 0.0000
     36 ****        -0.7381   0.4417   1.4523 LP             1 S1                 0.0000
@<TRIPOS>BOND
    1    1    2 2     
    2    2   18 1     
    3    2    3 1     
    4    3    4 1     
    5    4    5 2     
    6    4    6 am    
    7    6    7 1     
    8    6   17 1     
    9    7    8 1     
   10    7   20 1     
   11    7   21 1     
   12    8   16 1     
   13    8    9 1     
   14    8   22 1     
   15    9   10 1     
   16    9   23 1     
   17    9   24 1     
   18   10   15 ar    
   19   10   11 ar    
   20   11   12 ar    
   21   11   25 1     
   22   12   13 ar    
   23   12   26 1     
   24   13   14 ar    
   25   13   27 1     
   26   14   15 ar    
   27   14   28 1     
   28   15   16 1     
   29   17   18 2     
   30   17   29 1     
   31   18   19 1     
   32    1   30 1     
   33    1   31 1     
   34    3   32 1     
   35    5   33 1     
   36    5   34 1     
   37   16   35 1     
   38   16   36 1     
@<TRIPOS>SUBSTRUCTURE
      1 S1             1
@<TRIPOS>SET
LONE_PAIRS      STATIC     ATOMS    <user>   **** ""
7 30 31 32 33 34 35 36
ATOM$BLUE        STATIC     ATOMS    COLORGROUP SYSTEM
7 30 31 32 33 34 35 36
