AV-unprocessed.smi:3181|AV-procd|sdf|12150|dock5
  -GOLD-   2272017583D 1   1.00000     0.00000
 Structure written by MMmdl.
 42 43  0  0  0  0  0  0  0  0  2 V2000
  148.3665  142.9095  157.9348 C   0  0  0  0  0  0  0  0  0  0  0  0
  149.4742  142.0013  157.3762 C   0  0  1  0  0  0  0  0  0  0  0  0
  149.0427  141.2413  156.1037 C   0  0  0  0  0  0  0  0  0  0  0  0
  150.0152  140.2507  155.6812 N   0  0  0  0  0  0  0  0  0  0  0  0
  150.0470  139.4752  154.5963 C   0  0  0  0  0  0  0  0  0  0  0  0
  151.1053  138.6792  154.5388 N   0  0  0  0  0  0  0  0  0  0  0  0
  151.7241  139.0366  155.7034 C   0  0  0  0  0  0  0  0  0  0  0  0
  151.1109  139.9743  156.4261 N   0  0  0  0  0  0  0  0  0  0  0  0
  150.6786  142.8142  157.0914 N   0  3  0  0  0  0  0  0  0  0  0  0
  151.5723  143.0867  158.2407 C   0  0  1  0  0  0  0  0  0  0  0  0
  151.2240  144.4175  158.9389 C   0  0  0  0  0  0  0  0  0  0  0  0
  152.1077  144.6580  160.1732 C   0  0  0  0  0  0  0  0  0  0  0  0
  152.0253  143.4839  161.1684 C   0  0  2  0  0  0  0  0  0  0  0  0
  152.8412  143.7565  162.4428 C   0  0  0  0  0  0  0  0  0  0  0  0
  152.3771  142.1356  160.4893 C   0  0  2  0  0  0  0  0  0  0  0  0
  153.8732  141.9636  160.1576 C   0  0  0  0  0  0  0  0  0  0  0  0
  151.4894  141.9201  159.2454 C   0  0  0  0  0  0  0  0  0  0  0  0
  147.4911  142.3349  158.2386 H   0  0  0  0  0  0  0  0  0  0  0  0
  148.0436  143.6429  157.1954 H   0  0  0  0  0  0  0  0  0  0  0  0
  148.7133  143.4534  158.8142 H   0  0  0  0  0  0  0  0  0  0  0  0
  149.7092  141.2711  158.1521 H   0  0  0  0  0  0  0  0  0  0  0  0
  148.0848  140.7442  156.2671 H   0  0  0  0  0  0  0  0  0  0  0  0
  148.8917  141.9341  155.2754 H   0  0  0  0  0  0  0  0  0  0  0  0
  149.2828  139.4945  153.8332 H   0  0  0  0  0  0  0  0  0  0  0  0
  152.6533  138.5924  156.0285 H   0  0  0  0  0  0  0  0  0  0  0  0
  151.2089  142.3719  156.3545 H   0  0  0  0  0  0  0  0  0  0  0  0
  152.5924  143.1403  157.8584 H   0  0  0  0  0  0  0  0  0  0  0  0
  151.3445  145.2554  158.2521 H   0  0  0  0  0  0  0  0  0  0  0  0
  150.1755  144.4129  159.2400 H   0  0  0  0  0  0  0  0  0  0  0  0
  153.1406  144.8142  159.8605 H   0  0  0  0  0  0  0  0  0  0  0  0
  151.7970  145.5812  160.6636 H   0  0  0  0  0  0  0  0  0  0  0  0
  150.9838  143.4120  161.4860 H   0  0  0  0  0  0  0  0  0  0  0  0
  153.8932  143.9350  162.2197 H   0  0  0  0  0  0  0  0  0  0  0  0
  152.7823  142.9162  163.1348 H   0  0  0  0  0  0  0  0  0  0  0  0
  152.4658  144.6374  162.9643 H   0  0  0  0  0  0  0  0  0  0  0  0
  152.1292  141.3418  161.1957 H   0  0  0  0  0  0  0  0  0  0  0  0
  154.2450  142.7515  159.5036 H   0  0  0  0  0  0  0  0  0  0  0  0
  154.0530  141.0108  159.6587 H   0  0  0  0  0  0  0  0  0  0  0  0
  154.4848  141.9666  161.0596 H   0  0  0  0  0  0  0  0  0  0  0  0
  150.4543  141.7998  159.5691 H   0  0  0  0  0  0  0  0  0  0  0  0
  151.7598  140.9836  158.7556 H   0  0  0  0  0  0  0  0  0  0  0  0
  150.3559  143.7090  156.7517 H   0  0  0  0  0  0  0  0  0  0  0  0
  1  2  1  0  0  0  0
  1 18  1  0  0  0  0
  1 19  1  0  0  0  0
  1 20  1  0  0  0  0
  2  3  1  0  0  0  0
  2  9  1  0  0  0  0
  2 21  1  0  0  0  0
  3  4  1  0  0  0  0
  3 22  1  0  0  0  0
  3 23  1  0  0  0  0
  4  8  1  0  0  0  0
  4  5  1  0  0  0  0
  5  6  2  0  0  0  0
  5 24  1  0  0  0  0
  6  7  1  0  0  0  0
  7  8  2  0  0  0  0
  7 25  1  0  0  0  0
  9 10  1  0  0  0  0
  9 26  1  0  0  0  0
  9 42  1  0  0  0  0
 10 17  1  0  0  0  0
 10 11  1  0  0  0  0
 10 27  1  0  0  0  0
 11 12  1  0  0  0  0
 11 28  1  0  0  0  0
 11 29  1  0  0  0  0
 12 13  1  0  0  0  0
 12 30  1  0  0  0  0
 12 31  1  0  0  0  0
 13 14  1  0  0  0  0
 13 15  1  0  0  0  0
 13 32  1  0  0  0  0
 14 33  1  0  0  0  0
 14 34  1  0  0  0  0
 14 35  1  0  0  0  0
 15 16  1  0  0  0  0
 15 17  1  0  0  0  0
 15 36  1  0  0  0  0
 16 37  1  0  0  0  0
 16 38  1  0  0  0  0
 16 39  1  0  0  0  0
 17 40  1  0  0  0  0
 17 41  1  0  0  0  0
M  CHG  1   9   1
M  END
> <s_m_source_file>
AV-unprocessed.smi

> <i_m_source_file_index>
3181

> <i_lp_mmshare_version>
43012

> <i_f3d_flags>
0

> <s_epik_input>
bjFbY0hdbltjSF1uMVtDSDJdW0NAQEhdKFtDSDNdKVtOSF1bQ0BASF0yW0NIMl1bQ0gyXVtDQEBIXShbQ0gzXSlbQ0BASF0oW0NIM10pW0NIMl0y

> <s_epik_cmdline>
J2VwaWtfcHl0aG9uJywgJy1waCcsICc3LjAnLCAnLXRuJywgJzgnLCAnLW1hJywgJzIwMCcsICctbWV0YWxfYmluZGluZycsICctaW1hZScsICc8aW5maWxlLm1hZT4nLCAnLW9tYWUnLCAnPG91dGZpbGUubWFlPic=

> <r_lp_tautomer_probability>
1

> <r_epik_Ionization_Penalty>
0.000617007

> <r_epik_Ionization_Penalty_Charging>
0.000616215

> <r_epik_Ionization_Penalty_Neutral>
7.92544e-07

> <r_epik_State_Penalty>
0.000388807

> <r_epik_Charging_Adjusted_Penalty>
0.00100502

> <i_epik_Tot_Q>
1

> <i_epik_Tot_abs_Q>
1

> <r_epik_Metal_State_Penalty>
-0

> <b_epik_Metal_Only>
0

> <s_lp_Force_Field>
OPLS_2005

> <r_lp_Energy>
21.8546

> <b_lp_Chiralities_Consistent>
1

> <s_lp_Variant>
AV-unprocessed.smi:3181-16

> <Gold.Version>
5.8.1

> <Gold.Id.Protein>
6NUR|6NUR_protein|mol2

> <Gold.PLP.Fitness>
45.7557

> <Gold.PLP.PLP>
-38.2474

> <Gold.PLP.part.hbond>
-2.0000

> <Gold.PLP.part.metal>
0.0000

> <Gold.PLP.part.buried>
-2.5703

> <Gold.PLP.part.nonpolar>
-33.7734

> <Gold.PLP.part.repulsive>
0.1751

> <Gold.PLP.ligand.clash>
0.0057

> <Gold.PLP.ligand.torsion>
0.7360

> <Gold.PLP.Chemscore.Hbond>
2.0000

> <Gold.PLP.Chemscore.CHOScore>
0.9859

> <Gold.PLP.Chemscore.Metal>
0.0000

> <Gold.Chemscore.Hbonds>
donor molecule, donor type, donor heavy atom, donor atom, acceptor molecule, acceptor atom, score
      L1  H     9    42       P1  8028  1.66
      L1  C     5    24       P1  7957  0.44

> <Gold.PLP.Chemscore.Internal.Correction>
0.0283

> <Gold.Rescore>
     Score         DG    S(hbond)    S(metal)    S(lipo)     H(rot)  DE(clash)    DE(int)     intcor
     13.65     -14.38       1.00        0.00      93.78       2.11       0.02       0.70       ----

> <Gold.Chemscore.Fitness>
13.6508

> <Gold.Chemscore.DG>
-14.3757

> <Gold.Chemscore.ZeroCoef>
-5.4800

> <Gold.Chemscore.Hbond>
0.9951

> <Gold.Chemscore.Metal>
0.0000

> <Gold.Chemscore.Lipo>
93.7797

> <Gold.Chemscore.Internal_Hbond>
0.0000

> <Gold.Chemscore.DEClash>
0.0237

> <Gold.Chemscore.DEInternal>
0.7012

> <Gold.Chemscore.Rot>
2.1095

> <Gold.Chemscore.Internal.Correction>
   9.000000E+99

> <Gold.Chemscore.Hbonds>
donor molecule, donor type, donor heavy atom, donor atom, acceptor molecule, acceptor atom, score
      L1  H     9    42       P1  8028  0.78

> <Gold.Chemscore.Hbond.Weighted>
-3.3238

> <Gold.Chemscore.Metal.Weighted>
-0.0000

> <Gold.Chemscore.Lipo.Weighted>
-10.9722

> <Gold.Chemscore.Internal_Hbond.Weighted>
0.0000

> <Gold.Chemscore.DEClash.Weighted>
0.0237

> <Gold.Chemscore.DEInternal.Weighted>
0.7012

> <Gold.Chemscore.Rot.Weighted>
5.4003

> <Gold.Chemscore.Internal.Correction.Weighted>
   9.000000E+99

> <Gold.Protein.RotatedTorsions>
[ 6907 6896 6895 6894 ] final  -74.66 input  -60.11 | X-H torsion
[ 7974 7965 7964 7962 ] final  135.34 input  175.53 | X-H torsion
[ 8008 7997 7996 7995 ] final  -78.31 input   59.86 | X-H torsion
[ 10167 10162 10161 10158 ] final -128.62 input  -65.29 | X-H torsion
[ 10718 10713 10712 10709 ] final  117.64 input   66.30 | X-H torsion
[ 10763 10752 10751 10750 ] final   66.18 input  -60.55 | X-H torsion
[ 11005 11000 10999 10996 ] final -106.21 input  -57.11 | X-H torsion

> <Gold.Protein.ActiveResidues>
 VAL166  LYS551  ARG553  GLY616  TRP617  ASP618  TYR619  PRO620  LYS621  CYS622 
 ASP623  PHE694  ASN695  SER759  ASP760  ASP761  ALA762  ILE779  LEU786  VAL792 
 PHE793  MET794  SER795  GLU796  ALA797  LYS798  CYS799  TRP800  GLU811  SER814 

> <Gold.Protein.RotatedAtoms>
  150.7085  134.4836  159.5481 H   0  0  0  0  0  0  0  0  0  0  0  0  # atno 6907 bound_to 6896
  152.2468  134.8170  160.0461 H   0  0  0  0  0  0  0  0  0  0  0  0  # atno 6908 bound_to 6896
  151.8932  133.3485  159.3842 H   0  0  0  0  0  0  0  0  0  0  0  0  # atno 6909 bound_to 6896
  144.9673  139.4644  143.5450 H   0  0  0  0  0  0  0  0  0  0  0  0  # atno 7974 bound_to 7965
  154.5678  140.0696  156.8918 H   0  0  0  0  0  0  0  0  0  0  0  0  # atno 8008 bound_to 7997
  155.2691  140.3364  155.4248 H   0  0  0  0  0  0  0  0  0  0  0  0  # atno 8009 bound_to 7997
  156.2094  140.1753  156.7714 H   0  0  0  0  0  0  0  0  0  0  0  0  # atno 8010 bound_to 7997
  139.9484  143.6084  152.2483 H   0  0  0  0  0  0  0  0  0  0  0  0  # atno 10167 bound_to 10162
  157.6083  131.1039  150.7644 H   0  0  0  0  0  0  0  0  0  0  0  0  # atno 10718 bound_to 10713
  153.0129  135.5330  154.6784 H   0  0  0  0  0  0  0  0  0  0  0  0  # atno 10763 bound_to 10752
  154.5950  135.2862  155.0598 H   0  0  0  0  0  0  0  0  0  0  0  0  # atno 10764 bound_to 10752
  154.1676  135.6537  153.5054 H   0  0  0  0  0  0  0  0  0  0  0  0  # atno 10765 bound_to 10752
  141.1015  133.8874  157.1829 H   0  0  0  0  0  0  0  0  0  0  0  0  # atno 11005 bound_to 11000
  146.3371  139.8862  142.8816 LP  0  0  0  0  0  0  0  0  0  0  0  0  # atno 17320 bound_to 7965
  145.2611  141.0077  143.3826 LP  0  0  0  0  0  0  0  0  0  0  0  0  # atno 17321 bound_to 7965
  139.6648  144.7662  151.1894 LP  0  0  0  0  0  0  0  0  0  0  0  0  # atno 17342 bound_to 10162
  140.7590  143.5954  150.8753 LP  0  0  0  0  0  0  0  0  0  0  0  0  # atno 17343 bound_to 10162
  156.8027  130.4926  149.5367 LP  0  0  0  0  0  0  0  0  0  0  0  0  # atno 17370 bound_to 10713
  156.1177  130.6087  151.0145 LP  0  0  0  0  0  0  0  0  0  0  0  0  # atno 17371 bound_to 10713
  139.9869  135.0079  156.9884 LP  0  0  0  0  0  0  0  0  0  0  0  0  # atno 17394 bound_to 11000
  140.5009  134.1098  155.7250 LP  0  0  0  0  0  0  0  0  0  0  0  0  # atno 17395 bound_to 11000

$$$$
