#       Name:                AV-unprocessed.smi:3327
#       Creating user name   scv26
#       Creation time:       Fri Mar 27 19:13:39 2020


#       File generated by GOLD software.
#

@<TRIPOS>MOLECULE
AV-unprocessed.smi:3327
    44    45     1
SMALL
NO_CHARGES


@<TRIPOS>ATOM
      1 ****        -3.4060   3.6190  -1.3705 C.3            1 S1                 0.0000
      2 ****        -2.8553   2.2769  -0.8691 C.3            1 S1                 0.0000
      3 ****        -3.9790   1.2309  -0.6996 C.3            1 S1                 0.0000
      4 ****        -3.4597  -0.0798  -0.0784 C.3            1 S1                 0.0000
      5 ****        -2.6526   0.2026   1.2007 C.3            1 S1                 0.0000
      6 ****        -1.5613   1.1287   0.8705 N.am           1 S1                 0.0000
      7 ****        -0.2447   0.8102   0.8271 C.2            1 S1                 0.0000
      8 ****         0.6187   1.6234   0.4918 O.2            1 S1                 0.0000
      9 ****         0.1903  -0.6141   1.2056 C.3            1 S1                 0.0000
     10 ****         1.6412  -0.8270   1.0263 N.4            1 S1                 1.0000
     11 ****         2.1044  -2.1806   1.3911 C.3            1 S1                 0.0000
     12 ****         3.6116  -2.3483   1.1322 C.3            1 S1                 0.0000
     13 ****         3.9687  -2.1726  -0.2656 N.pl3          1 S1                 0.0000
     14 ****         4.8981  -1.3105  -0.8094 C.2            1 S1                 0.0000
     15 ****         4.9018  -1.5150  -2.1595 C.2            1 S1                 0.0000
     16 ****         3.9379  -2.5442  -2.3488 C.2            1 S1                 0.0000
     17 ****         3.3851  -2.9388  -1.2130 N.2            1 S1                 0.0000
     18 ****        -2.0746   2.4401   0.4526 C.3            1 S1                 0.0000
     19 ****        -4.1097   4.0502  -0.6579 H              1 S1                 0.0000
     20 ****        -3.9260   3.4989  -2.3214 H              1 S1                 0.0000
     21 ****        -2.6028   4.3406  -1.5231 H              1 S1                 0.0000
     22 ****        -2.1610   1.9046  -1.6242 H              1 S1                 0.0000
     23 ****        -4.7587   1.6407  -0.0559 H              1 S1                 0.0000
     24 ****        -4.4519   1.0247  -1.6604 H              1 S1                 0.0000
     25 ****        -4.2958  -0.7436   0.1430 H              1 S1                 0.0000
     26 ****        -2.8304  -0.6031  -0.7994 H              1 S1                 0.0000
     27 ****        -3.2968   0.6620   1.9520 H              1 S1                 0.0000
     28 ****        -2.3178  -0.7342   1.6432 H              1 S1                 0.0000
     29 ****        -0.0697  -0.8040   2.2478 H              1 S1                 0.0000
     30 ****        -0.3457  -1.3336   0.5850 H              1 S1                 0.0000
     31 ****         1.8661  -0.6625   0.0551 H              1 S1                 0.0000
     32 ****         1.8940  -2.3537   2.4471 H              1 S1                 0.0000
     33 ****         1.5367  -2.9248   0.8308 H              1 S1                 0.0000
     34 ****         4.1784  -1.6340   1.7311 H              1 S1                 0.0000
     35 ****         3.9348  -3.3429   1.4423 H              1 S1                 0.0000
     36 ****         5.4729  -0.6294  -0.1989 H              1 S1                 0.0000
     37 ****         5.5056  -1.0104  -2.8994 H              1 S1                 0.0000
     38 ****         3.6278  -3.0147  -3.2703 H              1 S1                 0.0000
     39 ****        -1.2827   3.1802   0.3293 H              1 S1                 0.0000
     40 ****        -2.7276   2.8364   1.2319 H              1 S1                 0.0000
     41 ****         2.1360  -0.1495   1.5888 H              1 S1                 0.0000
     42 ****         0.3571   2.5551   0.2397 LP             1 S1                 0.0000
     43 ****         1.5808   1.3515   0.4718 LP             1 S1                 0.0000
     44 ****         2.6903  -3.6464  -1.0846 LP             1 S1                 0.0000
@<TRIPOS>BOND
    1    1    2 1     
    2    1   19 1     
    3    1   20 1     
    4    1   21 1     
    5    2   18 1     
    6    2    3 1     
    7    2   22 1     
    8    3    4 1     
    9    3   23 1     
   10    3   24 1     
   11    4    5 1     
   12    4   25 1     
   13    4   26 1     
   14    5    6 1     
   15    5   27 1     
   16    5   28 1     
   17    6    7 am    
   18    6   18 1     
   19    7    8 2     
   20    7    9 1     
   21    9   10 1     
   22    9   29 1     
   23    9   30 1     
   24   10   11 1     
   25   10   31 1     
   26   10   41 1     
   27   11   12 1     
   28   11   32 1     
   29   11   33 1     
   30   12   13 1     
   31   12   34 1     
   32   12   35 1     
   33   13   17 1     
   34   13   14 1     
   35   14   15 2     
   36   14   36 1     
   37   15   16 1     
   38   15   37 1     
   39   16   17 2     
   40   16   38 1     
   41   18   39 1     
   42   18   40 1     
   43    8   42 1     
   44    8   43 1     
   45   17   44 1     
@<TRIPOS>SUBSTRUCTURE
      1 S1             1
@<TRIPOS>SET
LONE_PAIRS      STATIC     ATOMS    <user>   **** ""
3 42 43 44
DONOR_HYDROGENS      STATIC     ATOMS    <user>   **** ""
2 31 41
ATOM$BLUE        STATIC     ATOMS    COLORGROUP SYSTEM
3 42 43 44
ATOM$RED        STATIC     ATOMS    COLORGROUP SYSTEM
2 31 41
