AV-unprocessed.smi:3145|AV-procd|sdf|11984|dock6
  -GOLD-   2272017393D 1   1.00000     0.00000
 Structure written by MMmdl.
 34 34  0  0  0  0  0  0  0  0  3 V2000
  151.0031  140.9010  158.5850 C   0  0  0  0  0  0  0  0  0  0  0  0
  150.5613  142.2951  158.1207 C   0  0  1  0  0  0  0  0  0  0  0  0
  151.6140  143.3588  158.4977 C   0  0  0  0  0  0  0  0  0  0  0  0
  152.1912  143.1372  159.8112 N   0  0  0  0  0  0  0  0  0  0  0  0
  153.1943  142.2620  160.1704 C   0  0  0  0  0  0  0  0  0  0  0  0
  153.3788  142.3878  161.5174 C   0  0  0  0  0  0  0  0  0  0  0  0
  152.4330  143.3808  161.8977 C   0  0  0  0  0  0  0  0  0  0  0  0
  151.7258  143.8298  160.8733 N   0  0  0  0  0  0  0  0  0  0  0  0
  150.3225  142.2752  156.6602 N   0  3  0  0  0  0  0  0  0  0  0  0
  149.5720  141.1012  156.1672 C   0  0  0  0  0  0  0  0  0  0  0  0
  149.5358  141.0884  154.6350 C   0  0  0  0  0  0  0  0  0  0  0  0
  148.8994  141.9624  154.0344 O   0  0  0  0  0  0  0  0  0  0  0  0
  150.2469  140.0325  154.1574 N   0  5  0  0  0  0  0  0  0  0  0  0
  150.2384  138.7001  154.7594 C   0  0  0  0  0  0  0  0  0  0  0  0
  151.5563  137.9615  154.4692 C   0  0  0  0  0  0  0  0  0  0  0  0
  152.7688  138.7382  154.7819 C   0  0  0  0  0  0  0  0  0  0  0  0
  153.7245  139.3471  155.0237 N   0  0  0  0  0  0  0  0  0  0  0  0
  151.1563  140.8769  159.6642 H   0  0  0  0  0  0  0  0  0  0  0  0
  151.9373  140.5998  158.1092 H   0  0  0  0  0  0  0  0  0  0  0  0
  150.2491  140.1504  158.3448 H   0  0  0  0  0  0  0  0  0  0  0  0
  149.6258  142.5252  158.6337 H   0  0  0  0  0  0  0  0  0  0  0  0
  152.4277  143.3530  157.7713 H   0  0  0  0  0  0  0  0  0  0  0  0
  151.1786  144.3591  158.4648 H   0  0  0  0  0  0  0  0  0  0  0  0
  153.6824  141.6252  159.4472 H   0  0  0  0  0  0  0  0  0  0  0  0
  154.0809  141.8510  162.1378 H   0  0  0  0  0  0  0  0  0  0  0  0
  152.2399  143.7846  162.8807 H   0  0  0  0  0  0  0  0  0  0  0  0
  149.8139  143.1094  156.4031 H   0  0  0  0  0  0  0  0  0  0  0  0
  150.0435  140.1954  156.5530 H   0  0  0  0  0  0  0  0  0  0  0  0
  148.5468  141.1206  156.5370 H   0  0  0  0  0  0  0  0  0  0  0  0
  150.0910  138.7461  155.8392 H   0  0  0  0  0  0  0  0  0  0  0  0
  149.4086  138.1028  154.3816 H   0  0  0  0  0  0  0  0  0  0  0  0
  151.6047  137.0218  155.0198 H   0  0  0  0  0  0  0  0  0  0  0  0
  151.6057  137.7072  153.4104 H   0  0  0  0  0  0  0  0  0  0  0  0
  151.2125  142.2843  156.1836 H   0  0  0  0  0  0  0  0  0  0  0  0
  1  2  1  0  0  0  0
  1 18  1  0  0  0  0
  1 19  1  0  0  0  0
  1 20  1  0  0  0  0
  2  3  1  0  0  0  0
  2  9  1  0  0  0  0
  2 21  1  0  0  0  0
  3  4  1  0  0  0  0
  3 22  1  0  0  0  0
  3 23  1  0  0  0  0
  4  8  1  0  0  0  0
  4  5  1  0  0  0  0
  5  6  2  0  0  0  0
  5 24  1  0  0  0  0
  6  7  1  0  0  0  0
  6 25  1  0  0  0  0
  7  8  2  0  0  0  0
  7 26  1  0  0  0  0
  9 10  1  0  0  0  0
  9 27  1  0  0  0  0
  9 34  1  0  0  0  0
 10 11  1  0  0  0  0
 10 28  1  0  0  0  0
 10 29  1  0  0  0  0
 11 12  2  0  0  0  0
 11 13  1  0  0  0  0
 13 14  1  0  0  0  0
 14 15  1  0  0  0  0
 14 30  1  0  0  0  0
 14 31  1  0  0  0  0
 15 16  1  0  0  0  0
 15 32  1  0  0  0  0
 15 33  1  0  0  0  0
 16 17  3  0  0  0  0
M  CHG  1   9   1
M  CHG  1  13  -1
M  END
> <s_m_source_file>
AV-unprocessed.smi

> <i_m_source_file_index>
3145

> <i_lp_mmshare_version>
43012

> <i_f3d_flags>
0

> <s_epik_input>
bjFbY0hdW2NIXVtjSF1uMVtDSDJdW0NAQEhdKFtDSDNdKVtOSF1bQ0gyXUMoPU8pW05IXVtDSDJdW0NIMl1DI04=

> <s_epik_cmdline>
J2VwaWtfcHl0aG9uJywgJy1waCcsICc3LjAnLCAnLXRuJywgJzgnLCAnLW1hJywgJzIwMCcsICctbWV0YWxfYmluZGluZycsICctaW1hZScsICc8aW5maWxlLm1hZT4nLCAnLW9tYWUnLCAnPG91dGZpbGUubWFlPic=

> <r_lp_tautomer_probability>
1

> <r_epik_Ionization_Penalty>
6.20835

> <r_epik_Ionization_Penalty_Charging>
6.20835

> <r_epik_Ionization_Penalty_Neutral>
3.57231e-06

> <r_epik_State_Penalty>
6.38139

> <r_epik_Charging_Adjusted_Penalty>
12.5897

> <i_epik_Tot_Q>
0

> <i_epik_Tot_abs_Q>
2

> <r_epik_Metal_State_Penalty>
2.31725

> <b_epik_Metal_Only>
1

> <s_lp_Force_Field>
OPLS_2005

> <r_lp_Energy>
1.97057

> <b_lp_Chiralities_Consistent>
1

> <s_lp_Variant>
AV-unprocessed.smi:3145-6

> <Gold.Version>
5.8.1

> <Gold.Id.Protein>
6NUR|6NUR_protein|mol2

> <Gold.PLP.Fitness>
54.4030

> <Gold.PLP.PLP>
-43.2908

> <Gold.PLP.part.hbond>
-3.8707

> <Gold.PLP.part.metal>
0.0000

> <Gold.PLP.part.buried>
-7.2959

> <Gold.PLP.part.nonpolar>
-33.2753

> <Gold.PLP.part.repulsive>
1.2545

> <Gold.PLP.ligand.clash>
0.0000

> <Gold.PLP.ligand.torsion>
1.1639

> <Gold.PLP.Chemscore.Hbond>
4.4080

> <Gold.PLP.Chemscore.CHOScore>
0.0000

> <Gold.PLP.Chemscore.Metal>
0.0000

> <Gold.Chemscore.Hbonds>
donor molecule, donor type, donor heavy atom, donor atom, acceptor molecule, acceptor atom, score
      L1  H     9    27       P1  8028  2.00
      P1  H  7989  7998       L1    13  1.00
      P1  H  7997  8008       L1    17  0.76
      P1  H  8011  8017       L1    12  0.43

> <Gold.PLP.Chemscore.Internal.Correction>
0.2160

> <Gold.Rescore>
     Score         DG    S(hbond)    S(metal)    S(lipo)     H(rot)  DE(clash)    DE(int)     intcor
     14.54     -15.81       2.60        0.00      75.34       2.79       0.25       1.02       ----

> <Gold.Chemscore.Fitness>
14.5359

> <Gold.Chemscore.DG>
-15.8076

> <Gold.Chemscore.ZeroCoef>
-5.4800

> <Gold.Chemscore.Hbond>
2.5950

> <Gold.Chemscore.Metal>
0.0000

> <Gold.Chemscore.Lipo>
75.3440

> <Gold.Chemscore.Internal_Hbond>
0.0000

> <Gold.Chemscore.DEClash>
0.2493

> <Gold.Chemscore.DEInternal>
1.0224

> <Gold.Chemscore.Rot>
2.7949

> <Gold.Chemscore.Internal.Correction>
   9.000000E+99

> <Gold.Chemscore.Hbonds>
donor molecule, donor type, donor heavy atom, donor atom, acceptor molecule, acceptor atom, score
      L1  H     9    27       P1  8028  0.96
      P1  H  7989  7998       L1    13  0.25
      P1  H  7997  8008       L1    17  0.72
      P1  H  8011  8017       L1    12  0.34

> <Gold.Chemscore.Hbond.Weighted>
-8.6674

> <Gold.Chemscore.Metal.Weighted>
-0.0000

> <Gold.Chemscore.Lipo.Weighted>
-8.8153

> <Gold.Chemscore.Internal_Hbond.Weighted>
0.0000

> <Gold.Chemscore.DEClash.Weighted>
0.2493

> <Gold.Chemscore.DEInternal.Weighted>
1.0224

> <Gold.Chemscore.Rot.Weighted>
7.1551

> <Gold.Chemscore.Internal.Correction.Weighted>
   9.000000E+99

> <Gold.Protein.RotatedTorsions>
[ 6907 6896 6895 6894 ] final   87.47 input  -60.11 | X-H torsion
[ 7974 7965 7964 7962 ] final  102.49 input  175.53 | X-H torsion
[ 8008 7997 7996 7995 ] final  -24.00 input   59.86 | X-H torsion
[ 10167 10162 10161 10158 ] final  140.91 input  -65.29 | X-H torsion
[ 10718 10713 10712 10709 ] final -116.02 input   66.30 | X-H torsion
[ 10763 10752 10751 10750 ] final -158.76 input  -60.55 | X-H torsion
[ 11005 11000 10999 10996 ] final -175.82 input  -57.11 | X-H torsion

> <Gold.Protein.ActiveResidues>
 VAL166  LYS551  ARG553  GLY616  TRP617  ASP618  TYR619  PRO620  LYS621  CYS622 
 ASP623  PHE694  ASN695  SER759  ASP760  ASP761  ALA762  ILE779  LEU786  VAL792 
 PHE793  MET794  SER795  GLU796  ALA797  LYS798  CYS799  TRP800  GLU811  SER814 

> <Gold.Protein.RotatedAtoms>
  152.5411  134.2272  159.8810 H   0  0  0  0  0  0  0  0  0  0  0  0  # atno 6907 bound_to 6896
  151.2246  133.4477  159.2609 H   0  0  0  0  0  0  0  0  0  0  0  0  # atno 6908 bound_to 6896
  151.0773  134.9849  159.8394 H   0  0  0  0  0  0  0  0  0  0  0  0  # atno 6909 bound_to 6896
  145.3584  139.2423  143.3520 H   0  0  0  0  0  0  0  0  0  0  0  0  # atno 7974 bound_to 7965
  154.4553  140.1965  156.0398 H   0  0  0  0  0  0  0  0  0  0  0  0  # atno 8008 bound_to 7997
  156.0733  140.3281  155.7575 H   0  0  0  0  0  0  0  0  0  0  0  0  # atno 8009 bound_to 7997
  155.5228  140.0571  157.2894 H   0  0  0  0  0  0  0  0  0  0  0  0  # atno 8010 bound_to 7997
  139.5035  144.6204  151.6063 H   0  0  0  0  0  0  0  0  0  0  0  0  # atno 10167 bound_to 10162
  156.0935  130.6113  150.8982 H   0  0  0  0  0  0  0  0  0  0  0  0  # atno 10718 bound_to 10713
  154.7530  135.3097  154.8522 H   0  0  0  0  0  0  0  0  0  0  0  0  # atno 10763 bound_to 10752
  153.9304  135.6786  153.4750 H   0  0  0  0  0  0  0  0  0  0  0  0  # atno 10764 bound_to 10752
  153.1127  135.4859  154.8991 H   0  0  0  0  0  0  0  0  0  0  0  0  # atno 10765 bound_to 10752
  140.4590  134.6272  157.4834 H   0  0  0  0  0  0  0  0  0  0  0  0  # atno 11005 bound_to 11000
  146.2938  140.4214  142.8729 LP  0  0  0  0  0  0  0  0  0  0  0  0  # atno 17320 bound_to 7965
  144.8664  140.7212  143.6074 LP  0  0  0  0  0  0  0  0  0  0  0  0  # atno 17321 bound_to 7965
  140.5905  143.9788  150.6322 LP  0  0  0  0  0  0  0  0  0  0  0  0  # atno 17342 bound_to 10162
  140.2967  143.3288  152.1011 LP  0  0  0  0  0  0  0  0  0  0  0  0  # atno 17343 bound_to 10162
  157.6090  131.0937  150.8828 LP  0  0  0  0  0  0  0  0  0  0  0  0  # atno 17370 bound_to 10713
  156.8971  130.5233  149.5284 LP  0  0  0  0  0  0  0  0  0  0  0  0  # atno 17371 bound_to 10713
  139.9957  134.6914  155.9613 LP  0  0  0  0  0  0  0  0  0  0  0  0  # atno 17394 bound_to 11000
  141.1630  133.6538  156.4382 LP  0  0  0  0  0  0  0  0  0  0  0  0  # atno 17395 bound_to 11000

$$$$
