AV-unprocessed.smi:2226|AV-procd|sdf|9006|dock4
  -GOLD-   2272012213D 1   1.00000     0.00000
 Structure written by MMmdl.
 41 43  0  0  0  0  0  0  0  0  3 V2000
  146.1417  143.2737  154.1637 C   0  0  0  0  0  0  0  0  0  0  0  0
  147.1259  142.4532  154.9087 N   0  3  2  0  0  0  0  0  0  0  0  0
  148.1380  141.7721  154.0651 C   0  0  1  0  0  0  0  0  0  0  0  0
  149.3254  141.3440  154.9596 C   0  0  0  0  0  0  0  0  0  0  0  0
  148.9135  140.5131  156.1927 C   0  0  0  0  0  0  0  0  0  0  0  0
  147.6347  141.0497  156.8689 C   0  0  0  0  0  0  0  0  0  0  0  0
  146.5364  141.4934  155.8739 C   0  0  2  0  0  0  0  0  0  0  0  0
  145.8107  140.3338  155.1447 C   0  0  0  0  0  0  0  0  0  0  0  0
  146.6553  139.6305  154.0573 C   0  0  1  0  0  0  0  0  0  0  0  0
  145.7726  138.8829  153.1604 N   0  0  0  0  0  0  0  0  0  0  0  0
  145.5915  137.5521  153.1668 C   0  0  0  0  0  0  0  0  0  0  0  0
  146.1597  136.7864  153.9457 O   0  0  0  0  0  0  0  0  0  0  0  0
  144.7187  137.1652  152.2232 N   0  0  0  0  0  0  0  0  0  0  0  0
  144.3141  135.8333  151.9719 C   0  0  0  0  0  0  0  0  0  0  0  0
  144.5742  135.1754  150.8431 N   0  3  0  0  0  0  0  0  0  0  0  0
  144.0399  133.9141  150.9352 C   0  0  0  0  0  0  0  0  0  0  0  0
  143.4476  133.8488  152.1735 C   0  0  0  0  0  0  0  0  0  0  0  0
  143.6116  135.0481  152.8374 O   0  0  0  0  0  0  0  0  0  0  0  0
  147.5025  140.6281  153.2342 C   0  0  0  0  0  0  0  0  0  0  0  0
  145.5099  142.6716  153.5114 H   0  0  0  0  0  0  0  0  0  0  0  0
  146.6536  144.0141  153.5488 H   0  0  0  0  0  0  0  0  0  0  0  0
  145.4952  143.8125  154.8569 H   0  0  0  0  0  0  0  0  0  0  0  0
  148.5324  142.5054  153.3598 H   0  0  0  0  0  0  0  0  0  0  0  0
  150.0684  140.8014  154.3739 H   0  0  0  0  0  0  0  0  0  0  0  0
  149.8271  142.2463  155.3121 H   0  0  0  0  0  0  0  0  0  0  0  0
  148.7901  139.4682  155.9223 H   0  0  0  0  0  0  0  0  0  0  0  0
  149.7304  140.5090  156.9153 H   0  0  0  0  0  0  0  0  0  0  0  0
  147.2416  140.3094  157.5665 H   0  0  0  0  0  0  0  0  0  0  0  0
  147.9103  141.9127  157.4767 H   0  0  0  0  0  0  0  0  0  0  0  0
  145.7871  142.0277  156.4602 H   0  0  0  0  0  0  0  0  0  0  0  0
  145.4597  139.5996  155.8709 H   0  0  0  0  0  0  0  0  0  0  0  0
  144.9071  140.7371  154.6857 H   0  0  0  0  0  0  0  0  0  0  0  0
  147.3292  138.9330  154.5464 H   0  0  0  0  0  0  0  0  0  0  0  0
  145.2593  139.4257  152.4809 H   0  0  0  0  0  0  0  0  0  0  0  0
  145.0767  135.5103  150.0305 H   0  0  0  0  0  0  0  0  0  0  0  0
  144.1323  133.2026  150.1270 H   0  0  0  0  0  0  0  0  0  0  0  0
  142.9051  133.0779  152.7015 H   0  0  0  0  0  0  0  0  0  0  0  0
  146.8722  141.0790  152.4664 H   0  0  0  0  0  0  0  0  0  0  0  0
  148.2781  140.0900  152.6879 H   0  0  0  0  0  0  0  0  0  0  0  0
  147.6411  143.1189  155.4675 H   0  0  0  0  0  0  0  0  0  0  0  0
  144.3105  137.8784  151.6374 H   0  0  0  0  0  0  0  0  0  0  0  0
  1  2  1  0  0  0  0
  1 20  1  0  0  0  0
  1 21  1  0  0  0  0
  1 22  1  0  0  0  0
  2  7  1  0  0  0  0
  2  3  1  0  0  0  0
  2 40  1  0  0  0  0
  3 19  1  0  0  0  0
  3  4  1  0  0  0  0
  3 23  1  0  0  0  0
  4  5  1  0  0  0  0
  4 24  1  0  0  0  0
  4 25  1  0  0  0  0
  5  6  1  0  0  0  0
  5 26  1  0  0  0  0
  5 27  1  0  0  0  0
  6  7  1  0  0  0  0
  6 28  1  0  0  0  0
  6 29  1  0  0  0  0
  7  8  1  0  0  0  0
  7 30  1  0  0  0  0
  8  9  1  0  0  0  0
  8 31  1  0  0  0  0
  8 32  1  0  0  0  0
  9 10  1  0  0  0  0
  9 19  1  0  0  0  0
  9 33  1  0  0  0  0
 10 34  1  0  0  0  0
 10 11  1  0  0  0  0
 11 13  1  0  0  0  0
 11 12  2  0  0  0  0
 13 14  1  0  0  0  0
 13 41  1  0  0  0  0
 14 18  1  0  0  0  0
 14 15  2  0  0  0  0
 15 35  1  0  0  0  0
 15 16  1  0  0  0  0
 16 36  1  0  0  0  0
 16 17  2  0  0  0  0
 17 37  1  0  0  0  0
 17 18  1  0  0  0  0
 19 38  1  0  0  0  0
 19 39  1  0  0  0  0
M  CHG  1   2   1
M  CHG  1  15   1
M  END
> <s_m_source_file>
AV-unprocessed.smi

> <i_m_source_file_index>
2226

> <i_lp_mmshare_version>
43012

> <i_f3d_flags>
0

> <s_epik_input>
W0NIMl0xW0NIMl1bQ0gyXVtDQEhdKE4oW0NIM10pW0NIXTEyKVtDSDJdW0NASF0oW0NIMl0yKVtOSF1DKD1PKVtOSF1jM25bY0hdW2NIXW8z

> <s_epik_cmdline>
J2VwaWtfcHl0aG9uJywgJy1waCcsICc3LjAnLCAnLXRuJywgJzgnLCAnLW1hJywgJzIwMCcsICctbWV0YWxfYmluZGluZycsICctaW1hZScsICc8aW5maWxlLm1hZT4nLCAnLW9tYWUnLCAnPG91dGZpbGUubWFlPic=

> <r_epik_Ionization_Penalty>
6.92532

> <r_epik_Ionization_Penalty_Charging>
6.82059

> <r_epik_Ionization_Penalty_Neutral>
0.104727

> <r_epik_State_Penalty>
2.17671

> <r_epik_Charging_Adjusted_Penalty>
8.99731

> <i_epik_Tot_Q>
2

> <i_epik_Tot_abs_Q>
2

> <r_epik_Metal_State_Penalty>
2.20618

> <b_epik_Metal_Only>
0

> <s_lp_Force_Field>
OPLS_2005

> <r_lp_Energy>
47.1954

> <b_lp_Chiralities_Consistent>
1

> <s_lp_Variant>
AV-unprocessed.smi:2226-6

> <Gold.Version>
5.8.1

> <Gold.Id.Protein>
6NUR|6NUR_protein|mol2

> <Gold.PLP.Fitness>
39.7963

> <Gold.PLP.PLP>
-27.1723

> <Gold.PLP.part.hbond>
-3.0000

> <Gold.PLP.part.metal>
0.0000

> <Gold.PLP.part.buried>
-4.5234

> <Gold.PLP.part.nonpolar>
-21.3192

> <Gold.PLP.part.repulsive>
0.3429

> <Gold.PLP.ligand.clash>
0.0000

> <Gold.PLP.ligand.torsion>
0.7953

> <Gold.PLP.Chemscore.Hbond>
3.7360

> <Gold.PLP.Chemscore.CHOScore>
1.0000

> <Gold.PLP.Chemscore.Metal>
0.0000

> <Gold.Chemscore.Hbonds>
donor molecule, donor type, donor heavy atom, donor atom, acceptor molecule, acceptor atom, score
      L1  H     2    40       P1  8028  2.00
      L1  H    10    34       P1 10175  0.74
      L1  H    13    41       P1 10171  1.00
      L1  C    17    37       P1 10957  1.00

> <Gold.PLP.Chemscore.Internal.Correction>
0.0066

> <Gold.Rescore>
     Score         DG    S(hbond)    S(metal)    S(lipo)     H(rot)  DE(clash)    DE(int)     intcor
     15.64     -17.03       2.22        0.00      57.12       1.00       0.52       0.87       ----

> <Gold.Chemscore.Fitness>
15.6367

> <Gold.Chemscore.DG>
-17.0329

> <Gold.Chemscore.ZeroCoef>
-5.4800

> <Gold.Chemscore.Hbond>
2.2245

> <Gold.Chemscore.Metal>
0.0000

> <Gold.Chemscore.Lipo>
57.1198

> <Gold.Chemscore.Internal_Hbond>
0.0000

> <Gold.Chemscore.DEClash>
0.5223

> <Gold.Chemscore.DEInternal>
0.8739

> <Gold.Chemscore.Rot>
1.0000

> <Gold.Chemscore.Internal.Correction>
   9.000000E+99

> <Gold.Chemscore.Hbonds>
donor molecule, donor type, donor heavy atom, donor atom, acceptor molecule, acceptor atom, score
      L1  H     2    40       P1  8028  0.32
      L1  H    10    34       P1 10175  0.74
      L1  H    13    41       P1 10171  0.92

> <Gold.Chemscore.Hbond.Weighted>
-7.4299

> <Gold.Chemscore.Metal.Weighted>
-0.0000

> <Gold.Chemscore.Lipo.Weighted>
-6.6830

> <Gold.Chemscore.Internal_Hbond.Weighted>
0.0000

> <Gold.Chemscore.DEClash.Weighted>
0.5223

> <Gold.Chemscore.DEInternal.Weighted>
0.8739

> <Gold.Chemscore.Rot.Weighted>
2.5600

> <Gold.Chemscore.Internal.Correction.Weighted>
   9.000000E+99

> <Gold.Protein.RotatedTorsions>
[ 6907 6896 6895 6894 ] final -163.27 input  -60.11 | X-H torsion
[ 7974 7965 7964 7962 ] final  161.42 input  175.53 | X-H torsion
[ 8008 7997 7996 7995 ] final  132.42 input   59.86 | X-H torsion
[ 10167 10162 10161 10158 ] final  -25.34 input  -65.29 | X-H torsion
[ 10718 10713 10712 10709 ] final   93.16 input   66.30 | X-H torsion
[ 10763 10752 10751 10750 ] final -119.98 input  -60.55 | X-H torsion
[ 11005 11000 10999 10996 ] final   56.65 input  -57.11 | X-H torsion

> <Gold.Protein.ActiveResidues>
 VAL166  LYS551  ARG553  GLY616  TRP617  ASP618  TYR619  PRO620  LYS621  CYS622 
 ASP623  PHE694  ASN695  SER759  ASP760  ASP761  ALA762  ILE779  LEU786  VAL792 
 PHE793  MET794  SER795  GLU796  ALA797  LYS798  CYS799  TRP800  GLU811  SER814 

> <Gold.Protein.RotatedAtoms>
  151.3934  133.3781  159.2723 H   0  0  0  0  0  0  0  0  0  0  0  0  # atno 6907 bound_to 6896
  150.9488  134.8891  159.7669 H   0  0  0  0  0  0  0  0  0  0  0  0  # atno 6908 bound_to 6896
  152.5103  134.3888  159.9429 H   0  0  0  0  0  0  0  0  0  0  0  0  # atno 6909 bound_to 6896
  144.7686  139.7896  143.6305 H   0  0  0  0  0  0  0  0  0  0  0  0  # atno 7974 bound_to 7965
  156.2982  140.2547  156.3086 H   0  0  0  0  0  0  0  0  0  0  0  0  # atno 8008 bound_to 7997
  154.9348  140.0397  157.2085 H   0  0  0  0  0  0  0  0  0  0  0  0  # atno 8009 bound_to 7997
  154.8183  140.2856  155.5809 H   0  0  0  0  0  0  0  0  0  0  0  0  # atno 8010 bound_to 7997
  140.7286  143.4274  151.0856 H   0  0  0  0  0  0  0  0  0  0  0  0  # atno 10167 bound_to 10162
  157.6956  131.0468  150.3992 H   0  0  0  0  0  0  0  0  0  0  0  0  # atno 10718 bound_to 10713
  154.8632  135.4219  154.2385 H   0  0  0  0  0  0  0  0  0  0  0  0  # atno 10763 bound_to 10752
  153.3355  135.6990  153.6917 H   0  0  0  0  0  0  0  0  0  0  0  0  # atno 10764 bound_to 10752
  153.5916  135.3554  155.2886 H   0  0  0  0  0  0  0  0  0  0  0  0  # atno 10765 bound_to 10752
  140.0513  134.5733  155.9260 H   0  0  0  0  0  0  0  0  0  0  0  0  # atno 11005 bound_to 11000
  146.1815  139.5010  142.9863 LP  0  0  0  0  0  0  0  0  0  0  0  0  # atno 17320 bound_to 7965
  145.6392  141.0288  143.1821 LP  0  0  0  0  0  0  0  0  0  0  0  0  # atno 17321 bound_to 7965
  139.7927  143.8196  152.3153 LP  0  0  0  0  0  0  0  0  0  0  0  0  # atno 17342 bound_to 10162
  139.8185  144.7306  150.9603 LP  0  0  0  0  0  0  0  0  0  0  0  0  # atno 17343 bound_to 10162
  156.4387  130.3987  149.6711 LP  0  0  0  0  0  0  0  0  0  0  0  0  # atno 17370 bound_to 10713
  156.3903  130.7623  151.2624 LP  0  0  0  0  0  0  0  0  0  0  0  0  # atno 17371 bound_to 10713
  141.1931  133.6578  156.5534 LP  0  0  0  0  0  0  0  0  0  0  0  0  # atno 17394 bound_to 11000
  140.3913  134.7437  157.4723 LP  0  0  0  0  0  0  0  0  0  0  0  0  # atno 17395 bound_to 11000

$$$$
