#       Name:                AV-unprocessed.smi:1135
#       Creating user name   scv26
#       Creation time:       Fri Mar 27 03:43:15 2020


#       File generated by GOLD software.
#

@<TRIPOS>MOLECULE
AV-unprocessed.smi:1135
    48    49     1
SMALL
NO_CHARGES


@<TRIPOS>ATOM
      1 ****        -4.7738   1.7118   0.6534 C.3            1 S1                 0.0000
      2 ****        -3.2900   1.5595   0.2900 C.3            1 S1                 0.0000
      3 ****        -3.0042   2.0532  -1.1376 C.3            1 S1                 0.0000
      4 ****        -1.5169   1.9030  -1.5039 C.3            1 S1                 0.0000
      5 ****        -0.9696   0.4635  -1.3289 C.3            1 S1                 0.0000
      6 ****        -1.5277  -0.4636  -2.4349 C.3            1 S1                 0.0000
      7 ****         0.4898   0.5685  -1.4610 N.am           1 S1                 0.0000
      8 ****         1.4075  -0.4019  -1.3195 C.2            1 S1                 0.0000
      9 ****         1.1468  -1.5863  -1.1074 O.2            1 S1                 0.0000
     10 ****         2.6555   0.0841  -1.3888 N.am           1 S1                 0.0000
     11 ****         3.8742  -0.6894  -1.1581 C.3            1 S1                 0.0000
     12 ****         4.3510  -0.6176   0.3080 C.3            1 S1                 0.0000
     13 ****         3.3091  -1.0723   1.3164 C.ar           1 S1                 0.0000
     14 ****         2.5539  -0.1568   2.0823 C.ar           1 S1                 0.0000
     15 ****         1.5706  -0.6448   2.9679 C.ar           1 S1                 0.0000
     16 ****         1.3672  -2.0362   3.0742 C.ar           1 S1                 0.0000
     17 ****         2.1540  -2.9054   2.2911 C.ar           1 S1                 0.0000
     18 ****         3.0842  -2.3993   1.4519 N.pl3          1 S1                 1.0000
     19 ****        -1.3302  -0.0529   0.0927 C.3            1 S1                 0.0000
     20 ****        -2.8189   0.1049   0.4461 C.3            1 S1                 0.0000
     21 ****        -5.4066   1.1150  -0.0042 H              1 S1                 0.0000
     22 ****        -5.0938   2.7510   0.5711 H              1 S1                 0.0000
     23 ****        -4.9614   1.3898   1.6780 H              1 S1                 0.0000
     24 ****        -2.7167   2.1772   0.9831 H              1 S1                 0.0000
     25 ****        -3.6212   1.5069  -1.8515 H              1 S1                 0.0000
     26 ****        -3.2932   3.1006  -1.2301 H              1 S1                 0.0000
     27 ****        -1.3575   2.2446  -2.5278 H              1 S1                 0.0000
     28 ****        -0.9466   2.5860  -0.8716 H              1 S1                 0.0000
     29 ****        -2.6161  -0.5060  -2.4218 H              1 S1                 0.0000
     30 ****        -1.1748  -1.4888  -2.3249 H              1 S1                 0.0000
     31 ****        -1.2301  -0.1195  -3.4260 H              1 S1                 0.0000
     32 ****         0.8395   1.4989  -1.6382 H              1 S1                 0.0000
     33 ****         2.7712   1.0701  -1.5736 H              1 S1                 0.0000
     34 ****         3.7249  -1.7291  -1.4543 H              1 S1                 0.0000
     35 ****         4.6529  -0.2990  -1.8136 H              1 S1                 0.0000
     36 ****         5.2477  -1.2264   0.4310 H              1 S1                 0.0000
     37 ****         4.6470   0.4049   0.5453 H              1 S1                 0.0000
     38 ****         2.7134   0.9068   1.9817 H              1 S1                 0.0000
     39 ****         0.9764   0.0405   3.5546 H              1 S1                 0.0000
     40 ****         0.6174  -2.4305   3.7443 H              1 S1                 0.0000
     41 ****         2.0637  -3.9818   2.3053 H              1 S1                 0.0000
     42 ****        -1.0529  -1.1011   0.2059 H              1 S1                 0.0000
     43 ****        -0.7449   0.4934   0.8342 H              1 S1                 0.0000
     44 ****        -2.9827  -0.2292   1.4712 H              1 S1                 0.0000
     45 ****        -3.4203  -0.5503  -0.1850 H              1 S1                 0.0000
     46 ****         3.6323  -3.0468   0.8852 H              1 S1                 0.0000
     47 ****         0.1949  -1.8825  -1.0291 LP             1 S1                 0.0000
     48 ****         1.8870  -2.2521  -1.0135 LP             1 S1                 0.0000
@<TRIPOS>BOND
    1    1    2 1     
    2    1   21 1     
    3    1   22 1     
    4    1   23 1     
    5    2   20 1     
    6    2    3 1     
    7    2   24 1     
    8    3    4 1     
    9    3   25 1     
   10    3   26 1     
   11    4    5 1     
   12    4   27 1     
   13    4   28 1     
   14    5    6 1     
   15    5    7 1     
   16    5   19 1     
   17    6   29 1     
   18    6   30 1     
   19    6   31 1     
   20    7    8 am    
   21    7   32 1     
   22    8    9 2     
   23    8   10 am    
   24   10   11 1     
   25   10   33 1     
   26   11   12 1     
   27   11   34 1     
   28   11   35 1     
   29   12   13 1     
   30   12   36 1     
   31   12   37 1     
   32   13   18 ar    
   33   13   14 ar    
   34   14   15 ar    
   35   14   38 1     
   36   15   16 ar    
   37   15   39 1     
   38   16   17 ar    
   39   16   40 1     
   40   17   18 ar    
   41   17   41 1     
   42   18   46 1     
   43   19   20 1     
   44   19   42 1     
   45   19   43 1     
   46   20   44 1     
   47   20   45 1     
   48    9   47 1     
   49    9   48 1     
@<TRIPOS>SUBSTRUCTURE
      1 S1             1
@<TRIPOS>SET
LONE_PAIRS      STATIC     ATOMS    <user>   **** ""
2 47 48
DONOR_HYDROGENS      STATIC     ATOMS    <user>   **** ""
3 32 33 46
ATOM$BLUE        STATIC     ATOMS    COLORGROUP SYSTEM
2 47 48
ATOM$RED        STATIC     ATOMS    COLORGROUP SYSTEM
3 32 33 46
