AV-unprocessed.smi:1618|AV-procd|sdf|6486|dock1
  -GOLD-   22720 7143D 1   1.00000     0.00000
 Structure written by MMmdl.
 28 29  0  0  0  0  0  0  0  0  1 V2000
  154.2389  141.4153  160.8096 C   0  0  0  0  0  0  0  0  0  0  0  0
  153.2294  141.6330  159.7562 N   0  0  0  0  0  0  0  0  0  0  0  0
  153.0676  140.6621  158.8028 C   0  0  0  0  0  0  0  0  0  0  0  0
  153.6935  139.6022  158.7646 O   0  0  0  0  0  0  0  0  0  0  0  0
  152.0520  140.9821  157.7940 C   0  0  0  0  0  0  0  0  0  0  0  0
  151.3242  142.1261  157.8221 C   0  0  0  0  0  0  0  0  0  0  0  0
  150.4179  142.1796  156.7700 N   0  0  0  0  0  0  0  0  0  0  0  0
  150.6635  141.0279  156.1472 C   0  0  0  0  0  0  0  0  0  0  0  0
  149.8259  140.4819  154.7445 Cl  0  0  0  0  0  0  0  0  0  0  0  0
  151.6332  140.2501  156.6815 N   0  0  0  0  0  0  0  0  0  0  0  0
  152.1109  138.9564  156.2097 C   0  0  0  0  0  0  0  0  0  0  0  0
  152.5764  139.0250  154.7492 C   0  0  0  0  0  0  0  0  0  0  0  0
  153.9760  139.1964  154.7030 O   0  0  0  0  0  0  0  0  0  0  0  0
  151.5631  143.0608  158.8598 N   0  0  0  0  0  0  0  0  0  0  0  0
  150.7607  144.2876  158.8524 C   0  0  0  0  0  0  0  0  0  0  0  0
  152.5141  142.8170  159.8209 C   0  0  0  0  0  0  0  0  0  0  0  0
  152.7235  143.6346  160.7211 O   0  0  0  0  0  0  0  0  0  0  0  0
  154.8076  140.4894  160.7177 H   0  0  0  0  0  0  0  0  0  0  0  0
  153.7638  141.3928  161.7915 H   0  0  0  0  0  0  0  0  0  0  0  0
  154.9704  142.2252  160.8098 H   0  0  0  0  0  0  0  0  0  0  0  0
  152.9241  138.6167  156.8512 H   0  0  0  0  0  0  0  0  0  0  0  0
  151.3187  138.2180  156.3303 H   0  0  0  0  0  0  0  0  0  0  0  0
  152.3123  138.1122  154.2145 H   0  0  0  0  0  0  0  0  0  0  0  0
  152.0992  139.8576  154.2313 H   0  0  0  0  0  0  0  0  0  0  0  0
  154.2961  138.8399  153.8884 H   0  0  0  0  0  0  0  0  0  0  0  0
  150.9761  144.9736  159.6719 H   0  0  0  0  0  0  0  0  0  0  0  0
  149.7005  144.0385  158.9097 H   0  0  0  0  0  0  0  0  0  0  0  0
  150.9263  144.8323  157.9224 H   0  0  0  0  0  0  0  0  0  0  0  0
  1  2  1  0  0  0  0
  1 18  1  0  0  0  0
  1 19  1  0  0  0  0
  1 20  1  0  0  0  0
  2 16  1  0  0  0  0
  2  3  1  0  0  0  0
  3  4  2  0  0  0  0
  3  5  1  0  0  0  0
  5 10  1  0  0  0  0
  5  6  2  0  0  0  0
  6  7  1  0  0  0  0
  6 14  1  0  0  0  0
  7  8  2  0  0  0  0
  8  9  1  0  0  0  0
  8 10  1  0  0  0  0
 10 11  1  0  0  0  0
 11 12  1  0  0  0  0
 11 21  1  0  0  0  0
 11 22  1  0  0  0  0
 12 13  1  0  0  0  0
 12 23  1  0  0  0  0
 12 24  1  0  0  0  0
 13 25  1  0  0  0  0
 14 15  1  0  0  0  0
 14 16  1  0  0  0  0
 15 26  1  0  0  0  0
 15 27  1  0  0  0  0
 15 28  1  0  0  0  0
 16 17  2  0  0  0  0
M  END
> <s_m_source_file>
AV-unprocessed.smi

> <i_m_source_file_index>
1618

> <i_lp_mmshare_version>
43012

> <i_f3d_flags>
0

> <s_epik_input>
Tz1jMW4oW0NIM10pYyg9TyluKFtDSDNdKWMoYzEyKW5jKENsKW4yW0NIMl1bQ0gyXVtPSF0=

> <s_epik_cmdline>
J2VwaWtfcHl0aG9uJywgJy1waCcsICc3LjAnLCAnLXRuJywgJzgnLCAnLW1hJywgJzIwMCcsICctbWV0YWxfYmluZGluZycsICctaW1hZScsICc8aW5maWxlLm1hZT4nLCAnLW9tYWUnLCAnPG91dGZpbGUubWFlPic=

> <r_lp_tautomer_probability>
1

> <r_epik_Ionization_Penalty>
1.64879e-07

> <r_epik_Ionization_Penalty_Charging>
1.19961e-09

> <r_epik_Ionization_Penalty_Neutral>
1.63679e-07

> <r_epik_State_Penalty>
-0

> <r_epik_Charging_Adjusted_Penalty>
1.19961e-09

> <i_epik_Tot_Q>
0

> <i_epik_Tot_abs_Q>
0

> <r_epik_Metal_State_Penalty>
-0

> <b_epik_Metal_Only>
0

> <s_lp_Force_Field>
OPLS_2005

> <r_lp_Energy>
32.2378

> <b_lp_Chiralities_Consistent>
1

> <s_lp_Variant>
AV-unprocessed.smi:1618-1

> <Gold.Version>
5.8.1

> <Gold.Id.Protein>
6NUR|6NUR_protein|mol2

> <Gold.PLP.Fitness>
41.5281

> <Gold.PLP.PLP>
-36.0751

> <Gold.PLP.part.hbond>
-1.9800

> <Gold.PLP.part.metal>
0.0000

> <Gold.PLP.part.buried>
-2.8525

> <Gold.PLP.part.nonpolar>
-30.9687

> <Gold.PLP.part.repulsive>
0.2363

> <Gold.PLP.ligand.clash>
0.0000

> <Gold.PLP.ligand.torsion>
0.2736

> <Gold.PLP.Chemscore.Hbond>
2.0000

> <Gold.PLP.Chemscore.CHOScore>
0.0000

> <Gold.PLP.Chemscore.Metal>
0.0000

> <Gold.Chemscore.Hbonds>
donor molecule, donor type, donor heavy atom, donor atom, acceptor molecule, acceptor atom, score
      P1  H  7997  8009       L1     4  1.00
      P1  H  7997  8010       L1    13  1.00

> <Gold.PLP.Chemscore.Internal.Correction>
0.0003

> <Gold.Rescore>
     Score         DG    S(hbond)    S(metal)    S(lipo)     H(rot)  DE(clash)    DE(int)     intcor
      9.34      -9.59       1.13        0.00      46.37       1.99       0.01       0.25       ----

> <Gold.Chemscore.Fitness>
9.3381

> <Gold.Chemscore.DG>
-9.5896

> <Gold.Chemscore.ZeroCoef>
-5.4800

> <Gold.Chemscore.Hbond>
1.1311

> <Gold.Chemscore.Metal>
0.0000

> <Gold.Chemscore.Lipo>
46.3734

> <Gold.Chemscore.Internal_Hbond>
0.0000

> <Gold.Chemscore.DEClash>
0.0060

> <Gold.Chemscore.DEInternal>
0.2455

> <Gold.Chemscore.Rot>
1.9898

> <Gold.Chemscore.Internal.Correction>
   9.000000E+99

> <Gold.Chemscore.Hbonds>
donor molecule, donor type, donor heavy atom, donor atom, acceptor molecule, acceptor atom, score
      P1  H  7997  8009       L1     4  0.24
      P1  H  7997  8010       L1    13  0.91

> <Gold.Chemscore.Hbond.Weighted>
-3.7778

> <Gold.Chemscore.Metal.Weighted>
-0.0000

> <Gold.Chemscore.Lipo.Weighted>
-5.4257

> <Gold.Chemscore.Internal_Hbond.Weighted>
0.0000

> <Gold.Chemscore.DEClash.Weighted>
0.0060

> <Gold.Chemscore.DEInternal.Weighted>
0.2455

> <Gold.Chemscore.Rot.Weighted>
5.0939

> <Gold.Chemscore.Internal.Correction.Weighted>
   9.000000E+99

> <Gold.Protein.RotatedTorsions>
[ 6907 6896 6895 6894 ] final -158.57 input  -60.11 | X-H torsion
[ 7974 7965 7964 7962 ] final -129.35 input  175.53 | X-H torsion
[ 8008 7997 7996 7995 ] final  126.32 input   59.86 | X-H torsion
[ 10167 10162 10161 10158 ] final  -65.38 input  -65.29 | X-H torsion
[ 10718 10713 10712 10709 ] final -135.13 input   66.30 | X-H torsion
[ 10763 10752 10751 10750 ] final  112.70 input  -60.55 | X-H torsion
[ 11005 11000 10999 10996 ] final  170.15 input  -57.11 | X-H torsion

> <Gold.Protein.ActiveResidues>
 VAL166  LYS551  ARG553  GLY616  TRP617  ASP618  TYR619  PRO620  LYS621  CYS622 
 ASP623  PHE694  ASN695  SER759  ASP760  ASP761  ALA762  ILE779  LEU786  VAL792 
 PHE793  MET794  SER795  GLU796  ALA797  LYS798  CYS799  TRP800  GLU811  SER814 

> <Gold.Protein.RotatedAtoms>
  151.3203  133.4043  159.2653 H   0  0  0  0  0  0  0  0  0  0  0  0  # atno 6907 bound_to 6896
  151.0040  134.9345  159.7980 H   0  0  0  0  0  0  0  0  0  0  0  0  # atno 6908 bound_to 6896
  152.5283  134.3168  159.9186 H   0  0  0  0  0  0  0  0  0  0  0  0  # atno 6909 bound_to 6896
  144.9580  140.7417  143.4746 H   0  0  0  0  0  0  0  0  0  0  0  0  # atno 7974 bound_to 7965
  156.2860  140.2695  156.2092 H   0  0  0  0  0  0  0  0  0  0  0  0  # atno 8008 bound_to 7997
  155.0282  140.0386  157.2482 H   0  0  0  0  0  0  0  0  0  0  0  0  # atno 8009 bound_to 7997
  154.7377  140.2719  155.6405 H   0  0  0  0  0  0  0  0  0  0  0  0  # atno 8010 bound_to 7997
  140.5733  143.2319  151.6493 H   0  0  0  0  0  0  0  0  0  0  0  0  # atno 10167 bound_to 10162
  156.2628  130.7220  151.1160 H   0  0  0  0  0  0  0  0  0  0  0  0  # atno 10718 bound_to 10713
  153.4817  135.3678  155.2445 H   0  0  0  0  0  0  0  0  0  0  0  0  # atno 10763 bound_to 10752
  154.8755  135.3956  154.3692 H   0  0  0  0  0  0  0  0  0  0  0  0  # atno 10764 bound_to 10752
  153.4297  135.7082  153.6304 H   0  0  0  0  0  0  0  0  0  0  0  0  # atno 10765 bound_to 10752
  140.3053  134.7562  157.3948 H   0  0  0  0  0  0  0  0  0  0  0  0  # atno 11005 bound_to 11000
  145.2742  139.1943  143.4825 LP  0  0  0  0  0  0  0  0  0  0  0  0  # atno 17320 bound_to 7965
  146.3344  140.2694  142.8605 LP  0  0  0  0  0  0  0  0  0  0  0  0  # atno 17321 bound_to 7965
  139.5129  144.3460  152.0696 LP  0  0  0  0  0  0  0  0  0  0  0  0  # atno 17342 bound_to 10162
  140.2600  144.4077  150.6189 LP  0  0  0  0  0  0  0  0  0  0  0  0  # atno 17343 bound_to 10162
  157.7257  131.0651  150.5943 LP  0  0  0  0  0  0  0  0  0  0  0  0  # atno 17370 bound_to 10713
  156.6032  130.4360  149.5889 LP  0  0  0  0  0  0  0  0  0  0  0  0  # atno 17371 bound_to 10713
  140.1073  134.5393  155.8298 LP  0  0  0  0  0  0  0  0  0  0  0  0  # atno 17394 bound_to 11000
  141.2120  133.6713  156.6622 LP  0  0  0  0  0  0  0  0  0  0  0  0  # atno 17395 bound_to 11000

$$$$
