#       Name:                AV-unprocessed.smi:1232
#       Creating user name   scv26
#       Creation time:       Fri Mar 27 04:24:09 2020


#       File generated by GOLD software.
#

@<TRIPOS>MOLECULE
AV-unprocessed.smi:1232
    61    62     1
SMALL
NO_CHARGES


@<TRIPOS>ATOM
      1 ****        -3.8964  -1.2150  -0.8729 C.3            1 S1                 0.0000
      2 ****        -3.4104  -0.0475  -0.0214 C.2            1 S1                 0.0000
      3 ****        -2.9881   0.9758  -0.5593 O.2            1 S1                 0.0000
      4 ****        -3.4709  -0.2167   1.3095 N.am           1 S1                 0.0000
      5 ****        -3.0306   0.7563   2.3119 C.3            1 S1                 0.0000
      6 ****        -1.4993   0.6579   2.4430 C.2            1 S1                 0.0000
      7 ****        -0.9602  -0.4250   2.6775 O.2            1 S1                 0.0000
      8 ****        -0.8148   1.8012   2.2835 N.am           1 S1                 0.0000
      9 ****         0.6400   1.9113   2.3022 C.3            1 S1                 0.0000
     10 ****         1.3211   1.3699   1.0523 C.ar           1 S1                 0.0000
     11 ****         0.6952   1.3934  -0.2121 C.ar           1 S1                 0.0000
     12 ****         1.3776   0.8633  -1.3228 C.ar           1 S1                 0.0000
     13 ****         2.6746   0.3273  -1.1445 C.ar           1 S1                 0.0000
     14 ****         3.3696  -0.2194  -2.2441 N.3            1 S1                 0.0000
     15 ****         4.7947  -0.4990  -2.0846 C.3            1 S1                 0.0000
     16 ****         5.4310  -0.8125  -3.4485 C.3            1 S1                 0.0000
     17 ****         4.7256  -1.8807  -4.0725 O.3            1 S1                 0.0000
     18 ****         3.3607  -1.5520  -4.3185 C.3            1 S1                 0.0000
     19 ****         2.7117  -2.7205  -5.0678 C.3            1 S1                 0.0000
     20 ****         2.6574  -1.2617  -2.9784 C.3            1 S1                 0.0000
     21 ****         3.2821   0.3259   0.0679 N.ar           1 S1                 0.0000
     22 ****         2.6209   0.8315   1.1304 C.ar           1 S1                 0.0000
     23 ****        -3.7141   0.4263   3.6713 C.3            1 S1                 0.0000
     24 ****        -5.2512   0.4657   3.5627 C.3            1 S1                 0.0000
     25 ****        -3.2658   1.3580   4.8167 C.3            1 S1                 0.0000
     26 ****        -3.1743  -2.0312  -0.8402 H              1 S1                 0.0000
     27 ****        -4.0221  -0.9103  -1.9125 H              1 S1                 0.0000
     28 ****        -4.8547  -1.5859  -0.5082 H              1 S1                 0.0000
     29 ****        -3.8278  -1.0942   1.6584 H              1 S1                 0.0000
     30 ****        -3.3158   1.7624   1.9962 H              1 S1                 0.0000
     31 ****        -1.3359   2.6462   2.0992 H              1 S1                 0.0000
     32 ****         0.9006   2.9648   2.4048 H              1 S1                 0.0000
     33 ****         1.0329   1.4070   3.1869 H              1 S1                 0.0000
     34 ****        -0.2937   1.8083  -0.3381 H              1 S1                 0.0000
     35 ****         0.9069   0.8838  -2.2944 H              1 S1                 0.0000
     36 ****         5.2997   0.3577  -1.6368 H              1 S1                 0.0000
     37 ****         4.9238  -1.3457  -1.4089 H              1 S1                 0.0000
     38 ****         5.4239   0.0682  -4.0929 H              1 S1                 0.0000
     39 ****         6.4734  -1.1028  -3.3184 H              1 S1                 0.0000
     40 ****         3.3162  -0.6658  -4.9542 H              1 S1                 0.0000
     41 ****         1.6650  -2.5114  -5.2892 H              1 S1                 0.0000
     42 ****         2.7533  -3.6384  -4.4806 H              1 S1                 0.0000
     43 ****         3.2206  -2.9066  -6.0138 H              1 S1                 0.0000
     44 ****         2.6301  -2.1634  -2.3649 H              1 S1                 0.0000
     45 ****         1.6232  -0.9799  -3.1716 H              1 S1                 0.0000
     46 ****         3.1463   0.7989   2.0736 H              1 S1                 0.0000
     47 ****        -3.4412  -0.5912   3.9577 H              1 S1                 0.0000
     48 ****        -5.5994   1.4527   3.2561 H              1 S1                 0.0000
     49 ****        -5.7187   0.2330   4.5200 H              1 S1                 0.0000
     50 ****        -5.6295  -0.2590   2.8417 H              1 S1                 0.0000
     51 ****        -3.4655   2.4028   4.5768 H              1 S1                 0.0000
     52 ****        -2.2018   1.2624   5.0335 H              1 S1                 0.0000
     53 ****        -3.7952   1.1246   5.7409 H              1 S1                 0.0000
     54 ****        -2.9633   1.0426  -1.5568 LP             1 S1                 0.0000
     55 ****        -2.6698   1.7404   0.0011 LP             1 S1                 0.0000
     56 ****        -1.5176  -1.2484   2.7841 LP             1 S1                 0.0000
     57 ****         0.0347  -0.4805   2.7611 LP             1 S1                 0.0000
     58 ****         3.3770   0.5825  -2.8416 LP             1 S1                 0.0000
     59 ****         4.7615  -2.6825  -3.4760 LP             1 S1                 0.0000
     60 ****         5.1679  -2.0934  -4.9438 LP             1 S1                 0.0000
     61 ****         4.2053  -0.0439   0.1730 LP             1 S1                 0.0000
@<TRIPOS>BOND
    1    1    2 1     
    2    1   26 1     
    3    1   27 1     
    4    1   28 1     
    5    2    3 2     
    6    2    4 am    
    7    4    5 1     
    8    4   29 1     
    9    5    6 1     
   10    5   23 1     
   11    5   30 1     
   12    6    7 2     
   13    6    8 am    
   14    8    9 1     
   15    8   31 1     
   16    9   10 1     
   17    9   32 1     
   18    9   33 1     
   19   10   22 ar    
   20   10   11 ar    
   21   11   12 ar    
   22   11   34 1     
   23   12   13 ar    
   24   12   35 1     
   25   13   14 1     
   26   13   21 ar    
   27   14   20 1     
   28   14   15 1     
   29   15   16 1     
   30   15   36 1     
   31   15   37 1     
   32   16   17 1     
   33   16   38 1     
   34   16   39 1     
   35   17   18 1     
   36   18   19 1     
   37   18   20 1     
   38   18   40 1     
   39   19   41 1     
   40   19   42 1     
   41   19   43 1     
   42   20   44 1     
   43   20   45 1     
   44   21   22 ar    
   45   22   46 1     
   46   23   24 1     
   47   23   25 1     
   48   23   47 1     
   49   24   48 1     
   50   24   49 1     
   51   24   50 1     
   52   25   51 1     
   53   25   52 1     
   54   25   53 1     
   55    3   54 1     
   56    3   55 1     
   57    7   56 1     
   58    7   57 1     
   59   14   58 1     
   60   17   59 1     
   61   17   60 1     
   62   21   61 1     
@<TRIPOS>SUBSTRUCTURE
      1 S1             1
@<TRIPOS>SET
LONE_PAIRS      STATIC     ATOMS    <user>   **** ""
8 54 55 56 57 58 59 60 61
DONOR_HYDROGENS      STATIC     ATOMS    <user>   **** ""
2 29 31
ATOM$BLUE        STATIC     ATOMS    COLORGROUP SYSTEM
8 54 55 56 57 58 59 60 61
ATOM$RED        STATIC     ATOMS    COLORGROUP SYSTEM
2 29 31
