AV-unprocessed.smi:1207|AV-procd|sdf|5052|dock10
  -GOLD-   22720 4 83D 1   1.00000     0.00000
 Structure written by MMmdl.
 52 54  0  0  0  0  0  0  0  0  2 V2000
  152.5278  142.9102  160.7549 C   0  0  0  0  0  0  0  0  0  0  0  0
  152.3202  142.0362  159.5306 C   0  0  0  0  0  0  0  0  0  0  0  0
  152.8170  140.7131  159.5384 C   0  0  0  0  0  0  0  0  0  0  0  0
  152.6452  139.8685  158.4200 C   0  0  0  0  0  0  0  0  0  0  0  0
  153.0439  138.5593  158.2117 N   0  0  0  0  0  0  0  0  0  0  0  0
  152.5926  138.3335  156.9813 C   0  0  0  0  0  0  0  0  0  0  0  0
  151.9509  139.3448  156.3647 N   0  0  0  0  0  0  0  0  0  0  0  0
  151.3759  139.3388  155.0314 C   0  0  0  0  0  0  0  0  0  0  0  0
  150.1999  138.3520  154.9090 C   0  0  1  0  0  0  0  0  0  0  0  0
  149.6145  138.4737  153.6265 O   0  0  0  0  0  0  0  0  0  0  0  0
  150.6370  136.8894  155.1198 C   0  0  0  0  0  0  0  0  0  0  0  0
  149.5732  135.9383  154.7095 N   0  3  1  0  0  0  0  0  0  0  0  0
  150.0701  134.5473  154.6012 C   0  0  0  0  0  0  0  0  0  0  0  0
  148.3433  136.0437  155.5363 C   0  0  0  0  0  0  0  0  0  0  0  0
  148.5887  135.5296  156.9297 C   0  0  0  0  0  0  0  0  0  0  0  0
  148.1946  134.2709  157.4679 C   0  0  0  0  0  0  0  0  0  0  0  0
  147.4502  133.1571  156.7874 C   0  0  0  0  0  0  0  0  0  0  0  0
  148.5707  134.1330  158.7275 N   0  0  0  0  0  0  0  0  0  0  0  0
  149.2274  135.3205  159.0634 O   0  0  0  0  0  0  0  0  0  0  0  0
  149.2236  136.1368  157.9791 C   0  0  0  0  0  0  0  0  0  0  0  0
  149.8841  137.4636  158.1479 C   0  0  0  0  0  0  0  0  0  0  0  0
  151.9559  140.3874  157.2852 C   0  0  0  0  0  0  0  0  0  0  0  0
  151.4547  141.7012  157.2663 C   0  0  0  0  0  0  0  0  0  0  0  0
  151.6383  142.5329  158.3906 C   0  0  0  0  0  0  0  0  0  0  0  0
  151.0984  143.9517  158.3584 C   0  0  0  0  0  0  0  0  0  0  0  0
  153.0381  142.3666  161.5505 H   0  0  0  0  0  0  0  0  0  0  0  0
  151.5703  143.2537  161.1471 H   0  0  0  0  0  0  0  0  0  0  0  0
  153.1329  143.7815  160.5034 H   0  0  0  0  0  0  0  0  0  0  0  0
  153.3368  140.3346  160.4066 H   0  0  0  0  0  0  0  0  0  0  0  0
  152.7409  137.3782  156.4992 H   0  0  0  0  0  0  0  0  0  0  0  0
  151.0565  140.3513  154.7792 H   0  0  0  0  0  0  0  0  0  0  0  0
  152.1650  139.0740  154.3264 H   0  0  0  0  0  0  0  0  0  0  0  0
  149.4433  138.6232  155.6443 H   0  0  0  0  0  0  0  0  0  0  0  0
  149.6207  137.6265  153.2071 H   0  0  0  0  0  0  0  0  0  0  0  0
  151.5498  136.7109  154.5486 H   0  0  0  0  0  0  0  0  0  0  0  0
  150.8942  136.7075  156.1646 H   0  0  0  0  0  0  0  0  0  0  0  0
  150.3934  134.1707  155.5726 H   0  0  0  0  0  0  0  0  0  0  0  0
  150.9152  134.4913  153.9143 H   0  0  0  0  0  0  0  0  0  0  0  0
  149.2964  133.8831  154.2169 H   0  0  0  0  0  0  0  0  0  0  0  0
  147.9917  137.0763  155.5389 H   0  0  0  0  0  0  0  0  0  0  0  0
  147.5347  135.4731  155.0798 H   0  0  0  0  0  0  0  0  0  0  0  0
  146.5201  133.5191  156.3483 H   0  0  0  0  0  0  0  0  0  0  0  0
  147.1956  132.3557  157.4823 H   0  0  0  0  0  0  0  0  0  0  0  0
  148.0480  132.7219  155.9866 H   0  0  0  0  0  0  0  0  0  0  0  0
  149.8135  138.0595  157.2383 H   0  0  0  0  0  0  0  0  0  0  0  0
  150.9404  137.3402  158.3877 H   0  0  0  0  0  0  0  0  0  0  0  0
  149.4178  138.0268  158.9565 H   0  0  0  0  0  0  0  0  0  0  0  0
  150.9348  142.0669  156.3934 H   0  0  0  0  0  0  0  0  0  0  0  0
  150.6407  144.1821  157.3959 H   0  0  0  0  0  0  0  0  0  0  0  0
  151.9004  144.6708  158.5266 H   0  0  0  0  0  0  0  0  0  0  0  0
  150.3414  144.0891  159.1310 H   0  0  0  0  0  0  0  0  0  0  0  0
  149.3155  136.2169  153.7729 H   0  0  0  0  0  0  0  0  0  0  0  0
  1  2  1  0  0  0  0
  1 26  1  0  0  0  0
  1 27  1  0  0  0  0
  1 28  1  0  0  0  0
  2 24  1  0  0  0  0
  2  3  2  0  0  0  0
  3  4  1  0  0  0  0
  3 29  1  0  0  0  0
  4 22  2  0  0  0  0
  4  5  1  0  0  0  0
  5  6  2  0  0  0  0
  6  7  1  0  0  0  0
  6 30  1  0  0  0  0
  7  8  1  0  0  0  0
  7 22  1  0  0  0  0
  8  9  1  0  0  0  0
  8 31  1  0  0  0  0
  8 32  1  0  0  0  0
  9 10  1  0  0  0  0
  9 11  1  0  0  0  0
  9 33  1  0  0  0  0
 10 34  1  0  0  0  0
 11 12  1  0  0  0  0
 11 35  1  0  0  0  0
 11 36  1  0  0  0  0
 12 13  1  0  0  0  0
 12 14  1  0  0  0  0
 12 52  1  0  0  0  0
 13 37  1  0  0  0  0
 13 38  1  0  0  0  0
 13 39  1  0  0  0  0
 14 15  1  0  0  0  0
 14 40  1  0  0  0  0
 14 41  1  0  0  0  0
 15 20  2  0  0  0  0
 15 16  1  0  0  0  0
 16 17  1  0  0  0  0
 16 18  2  0  0  0  0
 17 42  1  0  0  0  0
 17 43  1  0  0  0  0
 17 44  1  0  0  0  0
 18 19  1  0  0  0  0
 19 20  1  0  0  0  0
 20 21  1  0  0  0  0
 21 45  1  0  0  0  0
 21 46  1  0  0  0  0
 21 47  1  0  0  0  0
 22 23  1  0  0  0  0
 23 24  2  0  0  0  0
 23 48  1  0  0  0  0
 24 25  1  0  0  0  0
 25 49  1  0  0  0  0
 25 50  1  0  0  0  0
 25 51  1  0  0  0  0
M  CHG  1  12   1
M  END
> <s_m_source_file>
AV-unprocessed.smi

> <i_m_source_file_index>
1207

> <i_lp_mmshare_version>
43012

> <i_f3d_flags>
0

> <s_epik_input>
W0NIM11jKFtjSF0xKWMoW0NIM10pW2NIXWMoYzEyKW4oW2NIXW4yKVtDSDJdW0NASF0oW09IXSlbQ0gyXU4oW0NIM10pW0NIMl1jM2MoW0NIM10pbm9jM1tDSDNd

> <s_epik_cmdline>
J2VwaWtfcHl0aG9uJywgJy1waCcsICc3LjAnLCAnLXRuJywgJzgnLCAnLW1hJywgJzIwMCcsICctbWV0YWxfYmluZGluZycsICctaW1hZScsICc8aW5maWxlLm1hZT4nLCAnLW9tYWUnLCAnPG91dGZpbGUubWFlPic=

> <r_epik_Ionization_Penalty>
0.646518

> <r_epik_Ionization_Penalty_Charging>
0.559419

> <r_epik_Ionization_Penalty_Neutral>
0.0870981

> <r_epik_State_Penalty>
0.661677

> <r_epik_Charging_Adjusted_Penalty>
1.2211

> <i_epik_Tot_Q>
1

> <i_epik_Tot_abs_Q>
1

> <r_epik_Metal_State_Penalty>
0.649158

> <b_epik_Metal_Only>
0

> <s_lp_Force_Field>
OPLS_2005

> <r_lp_Energy>
8.27883

> <b_lp_Chiralities_Consistent>
1

> <s_lp_Variant>
AV-unprocessed.smi:1207-4

> <Gold.Version>
5.8.1

> <Gold.Id.Protein>
6NUR|6NUR_protein|mol2

> <Gold.PLP.Fitness>
49.9492

> <Gold.PLP.PLP>
-38.6566

> <Gold.PLP.part.hbond>
-4.4853

> <Gold.PLP.part.metal>
0.0000

> <Gold.PLP.part.buried>
-5.4902

> <Gold.PLP.part.nonpolar>
-29.1502

> <Gold.PLP.part.repulsive>
0.0348

> <Gold.PLP.ligand.clash>
0.0000

> <Gold.PLP.ligand.torsion>
0.4369

> <Gold.PLP.Chemscore.Hbond>
4.0000

> <Gold.PLP.Chemscore.CHOScore>
0.0000

> <Gold.PLP.Chemscore.Metal>
0.0000

> <Gold.Chemscore.Hbonds>
donor molecule, donor type, donor heavy atom, donor atom, acceptor molecule, acceptor atom, score
      L1  H    10    34       P1  7948  1.00
      L1  H    12    52       P1  7948  2.00
      P1  H  6896  6909       L1    19  1.00

> <Gold.PLP.Chemscore.Internal.Correction>
0.1663

> <Gold.Rescore>
     Score         DG    S(hbond)    S(metal)    S(lipo)     H(rot)  DE(clash)    DE(int)     intcor
     19.86     -20.42       2.75        0.00     102.88       2.46       0.06       0.50       ----

> <Gold.Chemscore.Fitness>
19.8561

> <Gold.Chemscore.DG>
-20.4161

> <Gold.Chemscore.ZeroCoef>
-5.4800

> <Gold.Chemscore.Hbond>
2.7510

> <Gold.Chemscore.Metal>
0.0000

> <Gold.Chemscore.Lipo>
102.8770

> <Gold.Chemscore.Internal_Hbond>
0.0000

> <Gold.Chemscore.DEClash>
0.0576

> <Gold.Chemscore.DEInternal>
0.5025

> <Gold.Chemscore.Rot>
2.4565

> <Gold.Chemscore.Internal.Correction>
   9.000000E+99

> <Gold.Chemscore.Hbonds>
donor molecule, donor type, donor heavy atom, donor atom, acceptor molecule, acceptor atom, score
      L1  H    10    34       P1  7948  0.73
      L1  H    12    52       P1  7948  0.85
      P1  H  6896  6909       L1    19  0.38

> <Gold.Chemscore.Hbond.Weighted>
-9.1882

> <Gold.Chemscore.Metal.Weighted>
-0.0000

> <Gold.Chemscore.Lipo.Weighted>
-12.0366

> <Gold.Chemscore.Internal_Hbond.Weighted>
0.0000

> <Gold.Chemscore.DEClash.Weighted>
0.0576

> <Gold.Chemscore.DEInternal.Weighted>
0.5025

> <Gold.Chemscore.Rot.Weighted>
6.2887

> <Gold.Chemscore.Internal.Correction.Weighted>
   9.000000E+99

> <Gold.Protein.RotatedTorsions>
[ 6907 6896 6895 6894 ] final   63.48 input  -60.11 | X-H torsion
[ 7974 7965 7964 7962 ] final  -24.23 input  175.53 | X-H torsion
[ 8008 7997 7996 7995 ] final  102.45 input   59.86 | X-H torsion
[ 10167 10162 10161 10158 ] final   24.90 input  -65.29 | X-H torsion
[ 10718 10713 10712 10709 ] final  -18.12 input   66.30 | X-H torsion
[ 10763 10752 10751 10750 ] final   74.03 input  -60.55 | X-H torsion
[ 11005 11000 10999 10996 ] final  170.04 input  -57.11 | X-H torsion

> <Gold.Protein.ActiveResidues>
 VAL166  LYS551  ARG553  GLY616  TRP617  ASP618  TYR619  PRO620  LYS621  CYS622 
 ASP623  PHE694  ASN695  SER759  ASP760  ASP761  ALA762  ILE779  LEU786  VAL792 
 PHE793  MET794  SER795  GLU796  ALA797  LYS798  CYS799  TRP800  GLU811  SER814 

> <Gold.Protein.RotatedAtoms>
  152.4256  134.5874  159.9964 H   0  0  0  0  0  0  0  0  0  0  0  0  # atno 6907 bound_to 6896
  151.6012  133.3350  159.3056 H   0  0  0  0  0  0  0  0  0  0  0  0  # atno 6908 bound_to 6896
  150.8145  134.7357  159.6783 H   0  0  0  0  0  0  0  0  0  0  0  0  # atno 6909 bound_to 6896
  146.1567  140.4723  142.8588 H   0  0  0  0  0  0  0  0  0  0  0  0  # atno 7974 bound_to 7965
  156.1394  140.3181  155.8472 H   0  0  0  0  0  0  0  0  0  0  0  0  # atno 8008 bound_to 7997
  155.4183  140.0510  157.3044 H   0  0  0  0  0  0  0  0  0  0  0  0  # atno 8009 bound_to 7997
  154.4963  140.2112  155.9451 H   0  0  0  0  0  0  0  0  0  0  0  0  # atno 8010 bound_to 7997
  140.5150  144.0097  150.6390 H   0  0  0  0  0  0  0  0  0  0  0  0  # atno 10167 bound_to 10162
  156.5641  130.4733  149.6393 H   0  0  0  0  0  0  0  0  0  0  0  0  # atno 10718 bound_to 10713
  153.0560  135.5041  154.7982 H   0  0  0  0  0  0  0  0  0  0  0  0  # atno 10763 bound_to 10752
  154.6807  135.2968  154.9619 H   0  0  0  0  0  0  0  0  0  0  0  0  # atno 10764 bound_to 10752
  154.0406  135.6717  153.4842 H   0  0  0  0  0  0  0  0  0  0  0  0  # atno 10765 bound_to 10752
  140.3042  134.7570  157.3940 H   0  0  0  0  0  0  0  0  0  0  0  0  # atno 11005 bound_to 11000
  144.7973  140.6147  143.6501 LP  0  0  0  0  0  0  0  0  0  0  0  0  # atno 17320 bound_to 7965
  145.4689  139.1505  143.3825 LP  0  0  0  0  0  0  0  0  0  0  0  0  # atno 17321 bound_to 7965
  140.3430  143.3008  152.0568 LP  0  0  0  0  0  0  0  0  0  0  0  0  # atno 17342 bound_to 10162
  139.4907  144.6429  151.6840 LP  0  0  0  0  0  0  0  0  0  0  0  0  # atno 17343 bound_to 10162
  156.2773  130.7051  151.1865 LP  0  0  0  0  0  0  0  0  0  0  0  0  # atno 17370 bound_to 10713
  157.7362  131.0564  150.5425 LP  0  0  0  0  0  0  0  0  0  0  0  0  # atno 17371 bound_to 10713
  140.1082  134.5381  155.8290 LP  0  0  0  0  0  0  0  0  0  0  0  0  # atno 17394 bound_to 11000
  141.2122  133.6716  156.6639 LP  0  0  0  0  0  0  0  0  0  0  0  0  # atno 17395 bound_to 11000

$$$$
