AV-unprocessed.smi:2095|AV-procd|sdf|8554|dock5
  -GOLD-   2272011273D 1   1.00000     0.00000
 Structure written by MMmdl.
 42 43  0  0  0  0  0  0  0  0  2 V2000
  147.0064  140.1645  157.4184 C   0  0  0  0  0  0  0  0  0  0  0  0
  148.0108  141.1692  156.8358 C   0  0  2  0  0  0  0  0  0  0  0  0
  148.6677  140.6239  155.5593 C   0  0  0  0  0  0  0  0  0  0  0  0
  149.6813  141.6364  155.0201 C   0  0  0  0  0  0  0  0  0  0  0  0
  150.7155  141.9939  156.0969 C   0  0  0  0  0  0  0  0  0  0  0  0
  150.0670  142.5408  157.3231 N   0  3  2  0  0  0  0  0  0  0  0  0
  151.0741  143.0837  158.2951 C   0  0  2  0  0  0  0  0  0  0  0  0
  151.5683  144.5139  157.9605 C   0  0  0  0  0  0  0  0  0  0  0  0
  152.2694  142.1025  158.4136 C   0  0  0  0  0  0  0  0  0  0  0  0
  151.8477  140.7593  158.8002 N   0  0  0  0  0  0  0  0  0  0  0  0
  152.6398  139.6763  158.8555 C   0  0  0  0  0  0  0  0  0  0  0  0
  153.8202  139.6773  158.5089 O   0  0  0  0  0  0  0  0  0  0  0  0
  152.0092  138.4023  159.4180 C   0  0  0  0  0  0  0  0  0  0  0  0
  153.0180  137.5675  160.0440 N   0  0  0  0  0  0  0  0  0  0  0  0
  153.8546  137.8123  161.0546 C   0  0  0  0  0  0  0  0  0  0  0  0
  154.6490  136.7804  161.2930 N   0  0  0  0  0  0  0  0  0  0  0  0
  154.2465  135.8492  160.3501 N   0  0  0  0  0  0  0  0  0  0  0  0
  153.2794  136.3107  159.6057 N   0  0  0  0  0  0  0  0  0  0  0  0
  149.0809  141.5646  157.8757 C   0  0  0  0  0  0  0  0  0  0  0  0
  147.4973  139.2341  157.7056 H   0  0  0  0  0  0  0  0  0  0  0  0
  146.2295  139.9204  156.6932 H   0  0  0  0  0  0  0  0  0  0  0  0
  146.5142  140.5677  158.3038 H   0  0  0  0  0  0  0  0  0  0  0  0
  147.4548  142.0695  156.5688 H   0  0  0  0  0  0  0  0  0  0  0  0
  149.1681  139.6775  155.7697 H   0  0  0  0  0  0  0  0  0  0  0  0
  147.9114  140.4163  154.8014 H   0  0  0  0  0  0  0  0  0  0  0  0
  150.1834  141.2271  154.1427 H   0  0  0  0  0  0  0  0  0  0  0  0
  149.1649  142.5388  154.6896 H   0  0  0  0  0  0  0  0  0  0  0  0
  151.2974  141.1088  156.3596 H   0  0  0  0  0  0  0  0  0  0  0  0
  151.4176  142.7089  155.6720 H   0  0  0  0  0  0  0  0  0  0  0  0
  150.5872  143.1516  159.2697 H   0  0  0  0  0  0  0  0  0  0  0  0
  152.2833  144.8784  158.6976 H   0  0  0  0  0  0  0  0  0  0  0  0
  150.7566  145.2411  157.9653 H   0  0  0  0  0  0  0  0  0  0  0  0
  152.0586  144.5505  156.9870 H   0  0  0  0  0  0  0  0  0  0  0  0
  152.7906  141.9960  157.4640 H   0  0  0  0  0  0  0  0  0  0  0  0
  153.0057  142.5023  159.1128 H   0  0  0  0  0  0  0  0  0  0  0  0
  150.8881  140.6546  159.0968 H   0  0  0  0  0  0  0  0  0  0  0  0
  151.2474  138.6551  160.1568 H   0  0  0  0  0  0  0  0  0  0  0  0
  151.5175  137.8383  158.6237 H   0  0  0  0  0  0  0  0  0  0  0  0
  153.8899  138.7429  161.6016 H   0  0  0  0  0  0  0  0  0  0  0  0
  148.5506  141.9974  158.7233 H   0  0  0  0  0  0  0  0  0  0  0  0
  149.6073  140.6798  158.2377 H   0  0  0  0  0  0  0  0  0  0  0  0
  149.5161  143.3354  157.0305 H   0  0  0  0  0  0  0  0  0  0  0  0
  1  2  1  0  0  0  0
  1 20  1  0  0  0  0
  1 21  1  0  0  0  0
  1 22  1  0  0  0  0
  2 19  1  0  0  0  0
  2  3  1  0  0  0  0
  2 23  1  0  0  0  0
  3  4  1  0  0  0  0
  3 24  1  0  0  0  0
  3 25  1  0  0  0  0
  4  5  1  0  0  0  0
  4 26  1  0  0  0  0
  4 27  1  0  0  0  0
  5  6  1  0  0  0  0
  5 28  1  0  0  0  0
  5 29  1  0  0  0  0
  6  7  1  0  0  0  0
  6 19  1  0  0  0  0
  6 42  1  0  0  0  0
  7  8  1  0  0  0  0
  7  9  1  0  0  0  0
  7 30  1  0  0  0  0
  8 31  1  0  0  0  0
  8 32  1  0  0  0  0
  8 33  1  0  0  0  0
  9 10  1  0  0  0  0
  9 34  1  0  0  0  0
  9 35  1  0  0  0  0
 10 11  1  0  0  0  0
 10 36  1  0  0  0  0
 11 12  2  0  0  0  0
 11 13  1  0  0  0  0
 13 14  1  0  0  0  0
 13 37  1  0  0  0  0
 13 38  1  0  0  0  0
 14 18  1  0  0  0  0
 14 15  1  0  0  0  0
 15 16  2  0  0  0  0
 15 39  1  0  0  0  0
 16 17  1  0  0  0  0
 17 18  2  0  0  0  0
 19 40  1  0  0  0  0
 19 41  1  0  0  0  0
M  CHG  1   6   1
M  END
> <s_m_source_file>
AV-unprocessed.smi

> <i_m_source_file_index>
2095

> <i_lp_mmshare_version>
43012

> <i_f3d_flags>
0

> <s_epik_input>
W0NIM11bQ0BASF0xW0NIMl1bQ0gyXVtDSDJdTihbQ0gyXTEpW0NASF0oW0NIM10pW0NIMl1bTkhdQyg9TylbQ0gyXW4yW2NIXW5ubjI=

> <s_epik_cmdline>
J2VwaWtfcHl0aG9uJywgJy1waCcsICc3LjAnLCAnLXRuJywgJzgnLCAnLW1hJywgJzIwMCcsICctbWV0YWxfYmluZGluZycsICctaW1hZScsICc8aW5maWxlLm1hZT4nLCAnLW9tYWUnLCAnPG91dGZpbGUubWFlPic=

> <r_lp_tautomer_probability>
1

> <r_epik_Ionization_Penalty>
0.00268321

> <r_epik_Ionization_Penalty_Charging>
0.00267875

> <r_epik_Ionization_Penalty_Neutral>
4.46125e-06

> <r_epik_State_Penalty>
0.00186642

> <r_epik_Charging_Adjusted_Penalty>
0.00454517

> <i_epik_Tot_Q>
1

> <i_epik_Tot_abs_Q>
1

> <r_epik_Metal_State_Penalty>
-0

> <b_epik_Metal_Only>
0

> <s_lp_Force_Field>
OPLS_2005

> <r_lp_Energy>
25.312

> <b_lp_Chiralities_Consistent>
1

> <s_lp_Variant>
AV-unprocessed.smi:2095-1

> <Gold.Version>
5.8.1

> <Gold.Id.Protein>
6NUR|6NUR_protein|mol2

> <Gold.PLP.Fitness>
39.0758

> <Gold.PLP.PLP>
-28.7752

> <Gold.PLP.part.hbond>
-3.8094

> <Gold.PLP.part.metal>
0.0000

> <Gold.PLP.part.buried>
-4.7060

> <Gold.PLP.part.nonpolar>
-20.0707

> <Gold.PLP.part.repulsive>
0.1567

> <Gold.PLP.ligand.clash>
0.0000

> <Gold.PLP.ligand.torsion>
0.8847

> <Gold.PLP.Chemscore.Hbond>
4.0000

> <Gold.PLP.Chemscore.CHOScore>
0.0000

> <Gold.PLP.Chemscore.Metal>
0.0000

> <Gold.Chemscore.Hbonds>
donor molecule, donor type, donor heavy atom, donor atom, acceptor molecule, acceptor atom, score
      L1  H     6    42       P1  8028  1.95
      P1  H  6896  6908       L1    18  0.94
      P1  H  7997  8010       L1    12  1.00

> <Gold.PLP.Chemscore.Internal.Correction>
0.0700

> <Gold.Rescore>
     Score         DG    S(hbond)    S(metal)    S(lipo)     H(rot)  DE(clash)    DE(int)     intcor
     14.30     -15.33       2.82        0.00      61.55       2.64       0.04       0.99       ----

> <Gold.Chemscore.Fitness>
14.3023

> <Gold.Chemscore.DG>
-15.3301

> <Gold.Chemscore.ZeroCoef>
-5.4800

> <Gold.Chemscore.Hbond>
2.8196

> <Gold.Chemscore.Metal>
0.0000

> <Gold.Chemscore.Lipo>
61.5462

> <Gold.Chemscore.Internal_Hbond>
0.0000

> <Gold.Chemscore.DEClash>
0.0354

> <Gold.Chemscore.DEInternal>
0.9924

> <Gold.Chemscore.Rot>
2.6439

> <Gold.Chemscore.Internal.Correction>
   9.000000E+99

> <Gold.Chemscore.Hbonds>
donor molecule, donor type, donor heavy atom, donor atom, acceptor molecule, acceptor atom, score
      L1  H     6    42       P1  8028  0.85
      P1  H  6896  6908       L1    18  0.20
      P1  H  7997  8010       L1    12  1.00

> <Gold.Chemscore.Hbond.Weighted>
-9.4176

> <Gold.Chemscore.Metal.Weighted>
-0.0000

> <Gold.Chemscore.Lipo.Weighted>
-7.2009

> <Gold.Chemscore.Internal_Hbond.Weighted>
0.0000

> <Gold.Chemscore.DEClash.Weighted>
0.0354

> <Gold.Chemscore.DEInternal.Weighted>
0.9924

> <Gold.Chemscore.Rot.Weighted>
6.7685

> <Gold.Chemscore.Internal.Correction.Weighted>
   9.000000E+99

> <Gold.Protein.RotatedTorsions>
[ 6907 6896 6895 6894 ] final -100.48 input  -60.11 | X-H torsion
[ 7974 7965 7964 7962 ] final  -98.99 input  175.53 | X-H torsion
[ 8008 7997 7996 7995 ] final   21.12 input   59.86 | X-H torsion
[ 10167 10162 10161 10158 ] final  107.03 input  -65.29 | X-H torsion
[ 10718 10713 10712 10709 ] final -132.89 input   66.30 | X-H torsion
[ 10763 10752 10751 10750 ] final  -49.11 input  -60.55 | X-H torsion
[ 11005 11000 10999 10996 ] final   68.15 input  -57.11 | X-H torsion

> <Gold.Protein.ActiveResidues>
 VAL166  LYS551  ARG553  GLY616  TRP617  ASP618  TYR619  PRO620  LYS621  CYS622 
 ASP623  PHE694  ASN695  SER759  ASP760  ASP761  ALA762  ILE779  LEU786  VAL792 
 PHE793  MET794  SER795  GLU796  ALA797  LYS798  CYS799  TRP800  GLU811  SER814 

> <Gold.Protein.RotatedAtoms>
  150.7117  134.0881  159.3921 H   0  0  0  0  0  0  0  0  0  0  0  0  # atno 6907 bound_to 6896
  151.8866  135.0430  160.0503 H   0  0  0  0  0  0  0  0  0  0  0  0  # atno 6908 bound_to 6896
  152.2525  133.5192  159.5370 H   0  0  0  0  0  0  0  0  0  0  0  0  # atno 6909 bound_to 6896
  145.3133  140.9405  143.2757 H   0  0  0  0  0  0  0  0  0  0  0  0  # atno 7974 bound_to 7965
  154.9459  140.3059  155.5098 H   0  0  0  0  0  0  0  0  0  0  0  0  # atno 8008 bound_to 7997
  156.2992  140.2328  156.4470 H   0  0  0  0  0  0  0  0  0  0  0  0  # atno 8009 bound_to 7997
  154.8101  140.0429  157.1325 H   0  0  0  0  0  0  0  0  0  0  0  0  # atno 8010 bound_to 7997
  139.6960  144.7101  151.1266 H   0  0  0  0  0  0  0  0  0  0  0  0  # atno 10167 bound_to 10162
  156.2392  130.7085  151.0939 H   0  0  0  0  0  0  0  0  0  0  0  0  # atno 10718 bound_to 10713
  154.0887  135.6580  153.4849 H   0  0  0  0  0  0  0  0  0  0  0  0  # atno 10763 bound_to 10752
  153.0329  135.5197  154.7402 H   0  0  0  0  0  0  0  0  0  0  0  0  # atno 10764 bound_to 10752
  154.6519  135.3002  154.9945 H   0  0  0  0  0  0  0  0  0  0  0  0  # atno 10765 bound_to 10752
  139.9729  134.6871  156.0412 H   0  0  0  0  0  0  0  0  0  0  0  0  # atno 11005 bound_to 11000
  144.8998  139.4665  143.6638 LP  0  0  0  0  0  0  0  0  0  0  0  0  # atno 17320 bound_to 7965
  146.3109  139.7745  142.9020 LP  0  0  0  0  0  0  0  0  0  0  0  0  # atno 17321 bound_to 7965
  140.7696  143.5491  150.9225 LP  0  0  0  0  0  0  0  0  0  0  0  0  # atno 17342 bound_to 10162
  139.9171  143.6651  152.3104 LP  0  0  0  0  0  0  0  0  0  0  0  0  # atno 17343 bound_to 10162
  157.7168  131.0705  150.6296 LP  0  0  0  0  0  0  0  0  0  0  0  0  # atno 17370 bound_to 10713
  156.6368  130.4447  149.5766 LP  0  0  0  0  0  0  0  0  0  0  0  0  # atno 17371 bound_to 10713
  141.1407  133.6565  156.3722 LP  0  0  0  0  0  0  0  0  0  0  0  0  # atno 17394 bound_to 11000
  140.5256  134.6262  157.5333 LP  0  0  0  0  0  0  0  0  0  0  0  0  # atno 17395 bound_to 11000

$$$$
