#       Name:                AV-unprocessed.smi:2888
#       Creating user name   scv26
#       Creation time:       Fri Mar 27 15:57:05 2020


#       File generated by GOLD software.
#

@<TRIPOS>MOLECULE
AV-unprocessed.smi:2888
    37    39     1
SMALL
NO_CHARGES


@<TRIPOS>ATOM
      1 ****        -3.4131  -2.0169  -0.2027 C.3            1 S1                 0.0000
      2 ****        -2.7082  -0.6850  -0.3454 C.ar           1 S1                 0.0000
      3 ****        -3.4117   0.5355  -0.2741 C.ar           1 S1                 0.0000
      4 ****        -2.6384   1.7060  -0.4223 C.ar           1 S1                 0.0000
      5 ****        -3.2667   3.0822  -0.3646 C.3            1 S1                 0.0000
      6 ****        -1.3019   1.6573  -0.6181 N.ar           1 S1                 0.0000
      7 ****        -0.7388   0.4474  -0.6652 C.ar           1 S1                 0.0000
      8 ****         0.6306   0.4371  -0.8563 N.pl3          1 S1                 0.0000
      9 ****         1.4723  -0.7428  -0.6941 C.3            1 S1                 0.0000
     10 ****         2.9311  -0.5045  -1.0901 C.3            1 S1                 0.0000
     11 ****         3.6780  -0.9734   0.1670 C.3            1 S1                 0.0000
     12 ****         3.5602   0.0483   1.3050 C.3            1 S1                 0.0000
     13 ****         2.1043  -0.1290   1.7311 C.3            1 S1                 0.0000
     14 ****         1.6197  -1.2227   0.7634 C.3            1 S1                 0.0000
     15 ****         2.8071  -1.9876   0.6404 O.3            1 S1                 0.0000
     16 ****        -1.3720  -0.7252  -0.5407 N.ar           1 S1                 0.0000
     17 ****        -4.4944  -1.8872  -0.1537 H              1 S1                 0.0000
     18 ****        -3.0875  -2.5208   0.7076 H              1 S1                 0.0000
     19 ****        -3.1863  -2.6608  -1.0530 H              1 S1                 0.0000
     20 ****        -4.4795   0.5717  -0.1150 H              1 S1                 0.0000
     21 ****        -4.3550   3.0172  -0.3440 H              1 S1                 0.0000
     22 ****        -2.9778   3.6703  -1.2360 H              1 S1                 0.0000
     23 ****        -2.9386   3.6098   0.5312 H              1 S1                 0.0000
     24 ****         1.0867   1.3353  -0.9181 H              1 S1                 0.0000
     25 ****         1.0719  -1.5536  -1.3045 H              1 S1                 0.0000
     26 ****         3.1937  -1.1187  -1.9521 H              1 S1                 0.0000
     27 ****         3.1576   0.5344  -1.3341 H              1 S1                 0.0000
     28 ****         4.6982  -1.3081  -0.0225 H              1 S1                 0.0000
     29 ****         4.2318  -0.2048   2.1260 H              1 S1                 0.0000
     30 ****         3.7864   1.0638   0.9782 H              1 S1                 0.0000
     31 ****         2.0517  -0.4800   2.7623 H              1 S1                 0.0000
     32 ****         1.5253   0.7921   1.6612 H              1 S1                 0.0000
     33 ****         0.7633  -1.7880   1.1316 H              1 S1                 0.0000
     34 ****        -0.7588   2.4904  -0.7230 LP             1 S1                 0.0000
     35 ****         3.1067  -2.3585   1.5195 LP             1 S1                 0.0000
     36 ****         2.7063  -2.7327  -0.0188 LP             1 S1                 0.0000
     37 ****        -0.8777  -1.5930  -0.5900 LP             1 S1                 0.0000
@<TRIPOS>BOND
    1    1    2 1     
    2    1   17 1     
    3    1   18 1     
    4    1   19 1     
    5    2   16 ar    
    6    2    3 ar    
    7    3    4 ar    
    8    3   20 1     
    9    4    5 1     
   10    4    6 ar    
   11    5   21 1     
   12    5   22 1     
   13    5   23 1     
   14    6    7 ar    
   15    7    8 1     
   16    7   16 ar    
   17    8    9 1     
   18    8   24 1     
   19    9   14 1     
   20    9   10 1     
   21    9   25 1     
   22   10   11 1     
   23   10   26 1     
   24   10   27 1     
   25   11   15 1     
   26   11   12 1     
   27   11   28 1     
   28   12   13 1     
   29   12   29 1     
   30   12   30 1     
   31   13   14 1     
   32   13   31 1     
   33   13   32 1     
   34   14   15 1     
   35   14   33 1     
   36    6   34 1     
   37   15   35 1     
   38   15   36 1     
   39   16   37 1     
@<TRIPOS>SUBSTRUCTURE
      1 S1             1
@<TRIPOS>SET
LONE_PAIRS      STATIC     ATOMS    <user>   **** ""
4 34 35 36 37
DONOR_HYDROGENS      STATIC     ATOMS    <user>   **** ""
1 24
ATOM$BLUE        STATIC     ATOMS    COLORGROUP SYSTEM
4 34 35 36 37
ATOM$RED        STATIC     ATOMS    COLORGROUP SYSTEM
1 24
