AV-unprocessed.smi:3132|AV-procd|sdf|11929|dock5
  -GOLD-   2272017313D 1   1.00000     0.00000
 Structure written by MMmdl.
 34 35  0  0  0  0  0  0  0  0  2 V2000
  151.0018  140.2801  155.5372 C   0  0  0  0  0  0  0  0  0  0  0  0
  149.7866  141.1800  155.7983 C   0  0  2  0  0  0  0  0  0  0  0  0
  149.1181  141.6176  154.4768 C   0  0  0  0  0  0  0  0  0  0  0  0
  148.4063  140.5248  153.8053 N   0  0  0  0  0  0  0  0  0  0  0  0
  147.0976  140.5124  153.3945 C   0  0  0  0  0  0  0  0  0  0  0  0
  146.8741  139.2787  152.8397 C   0  0  0  0  0  0  0  0  0  0  0  0
  148.0564  138.5938  152.9289 N   0  3  0  0  0  0  0  0  0  0  0  0
  148.9876  139.3542  153.5138 C   0  0  0  0  0  0  0  0  0  0  0  0
  150.2146  142.3427  156.5750 N   0  0  0  0  0  0  0  0  0  0  0  0
  150.9330  142.3064  157.7087 C   0  0  0  0  0  0  0  0  0  0  0  0
  151.3413  141.2619  158.2177 O   0  0  0  0  0  0  0  0  0  0  0  0
  151.1880  143.6538  158.3916 C   0  0  2  0  0  0  0  0  0  0  0  0
  152.6767  143.9653  158.6315 C   0  0  0  0  0  0  0  0  0  0  0  0
  152.8362  143.8147  160.1314 C   0  0  0  0  0  0  0  0  0  0  0  0
  151.4539  144.2101  160.6297 C   0  0  0  0  0  0  0  0  0  0  0  0
  150.5839  143.6080  159.6836 O   0  0  0  0  0  0  0  0  0  0  0  0
  150.7159  139.3874  154.9801 H   0  0  0  0  0  0  0  0  0  0  0  0
  151.4561  139.9509  156.4726 H   0  0  0  0  0  0  0  0  0  0  0  0
  151.7669  140.8009  154.9603 H   0  0  0  0  0  0  0  0  0  0  0  0
  149.0716  140.5926  156.3773 H   0  0  0  0  0  0  0  0  0  0  0  0
  148.4085  142.4278  154.6507 H   0  0  0  0  0  0  0  0  0  0  0  0
  149.8659  141.9976  153.7789 H   0  0  0  0  0  0  0  0  0  0  0  0
  146.4368  141.3558  153.5340 H   0  0  0  0  0  0  0  0  0  0  0  0
  145.9857  138.8478  152.4015 H   0  0  0  0  0  0  0  0  0  0  0  0
  150.0053  139.0735  153.7200 H   0  0  0  0  0  0  0  0  0  0  0  0
  149.9209  143.2475  156.2357 H   0  0  0  0  0  0  0  0  0  0  0  0
  150.7326  144.4595  157.8132 H   0  0  0  0  0  0  0  0  0  0  0  0
  153.3644  143.3237  158.0785 H   0  0  0  0  0  0  0  0  0  0  0  0
  152.8866  144.9946  158.3375 H   0  0  0  0  0  0  0  0  0  0  0  0
  153.0426  142.7741  160.3854 H   0  0  0  0  0  0  0  0  0  0  0  0
  153.6333  144.4345  160.5430 H   0  0  0  0  0  0  0  0  0  0  0  0
  151.2527  143.8589  161.6418 H   0  0  0  0  0  0  0  0  0  0  0  0
  151.3265  145.2935  160.6057 H   0  0  0  0  0  0  0  0  0  0  0  0
  148.2057  137.6469  152.6035 H   0  0  0  0  0  0  0  0  0  0  0  0
  1  2  1  0  0  0  0
  1 17  1  0  0  0  0
  1 18  1  0  0  0  0
  1 19  1  0  0  0  0
  2  3  1  0  0  0  0
  2  9  1  0  0  0  0
  2 20  1  0  0  0  0
  3  4  1  0  0  0  0
  3 21  1  0  0  0  0
  3 22  1  0  0  0  0
  4  8  1  0  0  0  0
  4  5  1  0  0  0  0
  5  6  2  0  0  0  0
  5 23  1  0  0  0  0
  6  7  1  0  0  0  0
  6 24  1  0  0  0  0
  7  8  2  0  0  0  0
  7 34  1  0  0  0  0
  8 25  1  0  0  0  0
  9 10  1  0  0  0  0
  9 26  1  0  0  0  0
 10 11  2  0  0  0  0
 10 12  1  0  0  0  0
 12 16  1  0  0  0  0
 12 13  1  0  0  0  0
 12 27  1  0  0  0  0
 13 14  1  0  0  0  0
 13 28  1  0  0  0  0
 13 29  1  0  0  0  0
 14 15  1  0  0  0  0
 14 30  1  0  0  0  0
 14 31  1  0  0  0  0
 15 16  1  0  0  0  0
 15 32  1  0  0  0  0
 15 33  1  0  0  0  0
M  CHG  1   7   1
M  END
> <s_m_source_file>
AV-unprocessed.smi

> <i_m_source_file_index>
3132

> <i_lp_mmshare_version>
43012

> <i_f3d_flags>
0

> <s_epik_input>
W2NIXTFuW2NIXVtjSF1uMVtDSDJdW0NAQEhdKFtDSDNdKVtOSF1DKD1PKVtDQEBIXTJbQ0gyXVtDSDJdW0NIMl1PMg==

> <s_epik_cmdline>
J2VwaWtfcHl0aG9uJywgJy1waCcsICc3LjAnLCAnLXRuJywgJzgnLCAnLW1hJywgJzIwMCcsICctbWV0YWxfYmluZGluZycsICctaW1hZScsICc8aW5maWxlLm1hZT4nLCAnLW9tYWUnLCAnPG91dGZpbGUubWFlPic=

> <r_lp_tautomer_probability>
1

> <r_epik_Ionization_Penalty>
0.250802

> <r_epik_Ionization_Penalty_Charging>
0

> <r_epik_Ionization_Penalty_Neutral>
0.250802

> <r_epik_State_Penalty>
0.242139

> <r_epik_Charging_Adjusted_Penalty>
0.242139

> <i_epik_Tot_Q>
1

> <i_epik_Tot_abs_Q>
1

> <r_epik_Metal_State_Penalty>
0.533361

> <b_epik_Metal_Only>
0

> <s_lp_Force_Field>
OPLS_2005

> <r_lp_Energy>
20.2127

> <b_lp_Chiralities_Consistent>
1

> <s_lp_Variant>
AV-unprocessed.smi:3132-1

> <Gold.Version>
5.8.1

> <Gold.Id.Protein>
6NUR|6NUR_protein|mol2

> <Gold.PLP.Fitness>
43.0254

> <Gold.PLP.PLP>
-34.3759

> <Gold.PLP.part.hbond>
-3.2767

> <Gold.PLP.part.metal>
0.0000

> <Gold.PLP.part.buried>
2.0403

> <Gold.PLP.part.nonpolar>
-32.9015

> <Gold.PLP.part.repulsive>
0.2052

> <Gold.PLP.ligand.clash>
0.0000

> <Gold.PLP.ligand.torsion>
0.1875

> <Gold.PLP.Chemscore.Hbond>
3.0000

> <Gold.PLP.Chemscore.CHOScore>
0.0000

> <Gold.PLP.Chemscore.Metal>
0.0000

> <Gold.Chemscore.Hbonds>
donor molecule, donor type, donor heavy atom, donor atom, acceptor molecule, acceptor atom, score
      L1  H     7    34       P1  7948  2.00
      L1  H     9    26       P1  8028  1.00

> <Gold.PLP.Chemscore.Internal.Correction>
0.0244

> <Gold.Rescore>
     Score         DG    S(hbond)    S(metal)    S(lipo)     H(rot)  DE(clash)    DE(int)     intcor
     13.39     -16.93       1.98        0.00      83.53       1.93       1.50       2.05       ----

> <Gold.Chemscore.Fitness>
13.3869

> <Gold.Chemscore.DG>
-16.9318

> <Gold.Chemscore.ZeroCoef>
-5.4800

> <Gold.Chemscore.Hbond>
1.9825

> <Gold.Chemscore.Metal>
0.0000

> <Gold.Chemscore.Lipo>
83.5303

> <Gold.Chemscore.Internal_Hbond>
0.0000

> <Gold.Chemscore.DEClash>
1.4990

> <Gold.Chemscore.DEInternal>
2.0460

> <Gold.Chemscore.Rot>
1.9308

> <Gold.Chemscore.Internal.Correction>
   9.000000E+99

> <Gold.Chemscore.Hbonds>
donor molecule, donor type, donor heavy atom, donor atom, acceptor molecule, acceptor atom, score
      L1  H     7    34       P1  7948  1.00
      L1  H     9    26       P1  8028  1.00

> <Gold.Chemscore.Hbond.Weighted>
-6.6217

> <Gold.Chemscore.Metal.Weighted>
-0.0000

> <Gold.Chemscore.Lipo.Weighted>
-9.7730

> <Gold.Chemscore.Internal_Hbond.Weighted>
0.0000

> <Gold.Chemscore.DEClash.Weighted>
1.4990

> <Gold.Chemscore.DEInternal.Weighted>
2.0460

> <Gold.Chemscore.Rot.Weighted>
4.9429

> <Gold.Chemscore.Internal.Correction.Weighted>
   9.000000E+99

> <Gold.Protein.RotatedTorsions>
[ 6907 6896 6895 6894 ] final    9.10 input  -60.11 | X-H torsion
[ 7974 7965 7964 7962 ] final   -6.24 input  175.53 | X-H torsion
[ 8008 7997 7996 7995 ] final   45.20 input   59.86 | X-H torsion
[ 10167 10162 10161 10158 ] final  134.82 input  -65.29 | X-H torsion
[ 10718 10713 10712 10709 ] final   71.28 input   66.30 | X-H torsion
[ 10763 10752 10751 10750 ] final  -82.30 input  -60.55 | X-H torsion
[ 11005 11000 10999 10996 ] final  159.06 input  -57.11 | X-H torsion

> <Gold.Protein.ActiveResidues>
 VAL166  LYS551  ARG553  GLY616  TRP617  ASP618  TYR619  PRO620  LYS621  CYS622 
 ASP623  PHE694  ASN695  SER759  ASP760  ASP761  ALA762  ILE779  LEU786  VAL792 
 PHE793  MET794  SER795  GLU796  ALA797  LYS798  CYS799  TRP800  GLU811  SER814 

> <Gold.Protein.RotatedAtoms>
  151.7167  135.0902  160.0276 H   0  0  0  0  0  0  0  0  0  0  0  0  # atno 6907 bound_to 6896
  152.3627  133.6313  159.6036 H   0  0  0  0  0  0  0  0  0  0  0  0  # atno 6908 bound_to 6896
  150.7616  133.9313  159.3469 H   0  0  0  0  0  0  0  0  0  0  0  0  # atno 6909 bound_to 6896
  146.2335  140.2142  142.8336 H   0  0  0  0  0  0  0  0  0  0  0  0  # atno 7974 bound_to 7965
  155.3319  140.3403  155.4239 H   0  0  0  0  0  0  0  0  0  0  0  0  # atno 8008 bound_to 7997
  156.1857  140.1680  156.8226 H   0  0  0  0  0  0  0  0  0  0  0  0  # atno 8009 bound_to 7997
  154.5384  140.0730  156.8450 H   0  0  0  0  0  0  0  0  0  0  0  0  # atno 8010 bound_to 7997
  139.5241  144.6548  151.5194 H   0  0  0  0  0  0  0  0  0  0  0  0  # atno 10167 bound_to 10162
  157.6444  130.9520  150.0768 H   0  0  0  0  0  0  0  0  0  0  0  0  # atno 10718 bound_to 10713
  154.5741  135.5596  153.7123 H   0  0  0  0  0  0  0  0  0  0  0  0  # atno 10763 bound_to 10752
  153.0058  135.6304  154.2073 H   0  0  0  0  0  0  0  0  0  0  0  0  # atno 10764 bound_to 10752
  154.2013  135.2878  155.2969 H   0  0  0  0  0  0  0  0  0  0  0  0  # atno 10765 bound_to 10752
  140.1925  134.8397  157.2928 H   0  0  0  0  0  0  0  0  0  0  0  0  # atno 11005 bound_to 11000
  144.9683  140.8343  143.5471 LP  0  0  0  0  0  0  0  0  0  0  0  0  # atno 17320 bound_to 7965
  145.2120  139.2200  143.5138 LP  0  0  0  0  0  0  0  0  0  0  0  0  # atno 17321 bound_to 7965
  140.6369  143.8966  150.6655 LP  0  0  0  0  0  0  0  0  0  0  0  0  # atno 17342 bound_to 10162
  140.2288  143.3751  152.1582 LP  0  0  0  0  0  0  0  0  0  0  0  0  # atno 17343 bound_to 10162
  156.1756  130.3648  149.9105 LP  0  0  0  0  0  0  0  0  0  0  0  0  # atno 17370 bound_to 10713
  156.7070  130.8955  151.3605 LP  0  0  0  0  0  0  0  0  0  0  0  0  # atno 17371 bound_to 10713
  140.2143  134.4100  155.7597 LP  0  0  0  0  0  0  0  0  0  0  0  0  # atno 17394 bound_to 11000
  141.2226  133.7134  156.8389 LP  0  0  0  0  0  0  0  0  0  0  0  0  # atno 17395 bound_to 11000

$$$$
