AV-unprocessed.smi:100|AV-procd|sdf|902|dock3
  -GOLD-   2262017403D 1   1.00000     0.00000
 Structure written by MMmdl.
 31 33  0  0  0  0  0  0  0  0  1 V2000
  152.8720  140.1449  158.4384 N   0  0  0  0  0  0  0  0  0  0  0  0
  152.2684  139.9111  157.2649 C   0  0  0  0  0  0  0  0  0  0  0  0
  152.9768  139.2970  156.2890 N   0  0  0  0  0  0  0  0  0  0  0  0
  152.3972  139.0554  155.1090 C   0  0  0  0  0  0  0  0  0  0  0  0
  151.1536  139.3411  154.7154 N   0  0  0  0  0  0  0  0  0  0  0  0
  150.4367  139.9571  155.7016 C   0  0  0  0  0  0  0  0  0  0  0  0
  150.9246  140.2778  156.9995 C   0  0  0  0  0  0  0  0  0  0  0  0
  149.9313  140.9044  157.7390 N   0  0  0  0  0  0  0  0  0  0  0  0
  148.9147  140.9497  156.9210 C   0  0  0  0  0  0  0  0  0  0  0  0
  149.1268  140.3987  155.6755 N   0  0  0  0  0  0  0  0  0  0  0  0
  148.1404  140.3056  154.5484 C   0  0  1  0  0  0  0  0  0  0  0  0
  146.9932  139.6533  155.0063 O   0  0  0  0  0  0  0  0  0  0  0  0
  145.8389  140.3633  154.5699 C   0  0  1  0  0  0  0  0  0  0  0  0
  144.6322  140.0513  155.4687 C   0  0  0  0  0  0  0  0  0  0  0  0
  143.4876  140.7343  155.0036 O   0  0  0  0  0  0  0  0  0  0  0  0
  146.2929  141.8256  154.5532 C   0  0  1  0  0  0  0  0  0  0  0  0
  146.2951  142.3174  155.7943 F   0  0  0  0  0  0  0  0  0  0  0  0
  147.7083  141.6894  154.0170 C   0  0  1  0  0  0  0  0  0  0  0  0
  148.5329  142.7819  154.3830 O   0  0  0  0  0  0  0  0  0  0  0  0
  152.3644  140.6024  159.1818 H   0  0  0  0  0  0  0  0  0  0  0  0
  153.8310  139.8617  158.5771 H   0  0  0  0  0  0  0  0  0  0  0  0
  153.0174  138.5628  154.3748 H   0  0  0  0  0  0  0  0  0  0  0  0
  147.9692  141.3859  157.2084 H   0  0  0  0  0  0  0  0  0  0  0  0
  148.6483  139.7020  153.7950 H   0  0  0  0  0  0  0  0  0  0  0  0
  145.6279  140.0408  153.5485 H   0  0  0  0  0  0  0  0  0  0  0  0
  144.4228  138.9815  155.4531 H   0  0  0  0  0  0  0  0  0  0  0  0
  144.8275  140.3223  156.5066 H   0  0  0  0  0  0  0  0  0  0  0  0
  143.3614  140.5208  154.0917 H   0  0  0  0  0  0  0  0  0  0  0  0
  145.6587  142.4690  153.9430 H   0  0  0  0  0  0  0  0  0  0  0  0
  147.6729  141.6246  152.9288 H   0  0  0  0  0  0  0  0  0  0  0  0
  148.3966  142.9688  155.2990 H   0  0  0  0  0  0  0  0  0  0  0  0
  1  2  1  0  0  0  0
  1 20  1  0  0  0  0
  1 21  1  0  0  0  0
  2  7  1  0  0  0  0
  2  3  2  0  0  0  0
  3  4  1  0  0  0  0
  4  5  2  0  0  0  0
  4 22  1  0  0  0  0
  5  6  1  0  0  0  0
  6 10  1  0  0  0  0
  6  7  2  0  0  0  0
  7  8  1  0  0  0  0
  8  9  2  0  0  0  0
  9 10  1  0  0  0  0
  9 23  1  0  0  0  0
 10 11  1  0  0  0  0
 11 18  1  0  0  0  0
 11 12  1  0  0  0  0
 11 24  1  0  0  0  0
 12 13  1  0  0  0  0
 13 14  1  0  0  0  0
 13 16  1  0  0  0  0
 13 25  1  0  0  0  0
 14 15  1  0  0  0  0
 14 26  1  0  0  0  0
 14 27  1  0  0  0  0
 15 28  1  0  0  0  0
 16 17  1  0  0  0  0
 16 18  1  0  0  0  0
 16 29  1  0  0  0  0
 18 19  1  0  0  0  0
 18 30  1  0  0  0  0
 19 31  1  0  0  0  0
M  END
> <s_m_source_file>
AV-unprocessed.smi

> <i_m_source_file_index>
100

> <i_lp_mmshare_version>
43012

> <i_f3d_flags>
0

> <s_epik_input>
bjFbY0hdbmMoW05IMl0pYyhjMTIpbltjSF1uMltDQEBIXTNPW0NAQEhdKFtDSDJdW09IXSlbQ0BIXShGKVtDQEhdM1tPSF0=

> <s_epik_cmdline>
J2VwaWtfcHl0aG9uJywgJy1waCcsICc3LjAnLCAnLXRuJywgJzgnLCAnLW1hJywgJzIwMCcsICctbWV0YWxfYmluZGluZycsICctaW1hZScsICc8aW5maWxlLm1hZT4nLCAnLW9tYWUnLCAnPG91dGZpbGUubWFlPic=

> <r_lp_tautomer_probability>
1

> <r_epik_Ionization_Penalty>
0.000750324

> <r_epik_Ionization_Penalty_Charging>
0

> <r_epik_Ionization_Penalty_Neutral>
0.000750324

> <r_epik_State_Penalty>
-0

> <r_epik_Charging_Adjusted_Penalty>
0

> <i_epik_Tot_Q>
0

> <i_epik_Tot_abs_Q>
0

> <r_epik_Metal_State_Penalty>
-0

> <b_epik_Metal_Only>
0

> <s_epik_Chemistry_Notes>
This compound contains an acetal/aminal-like group ( X-CH(R)-Y where X, Y are N, S, or O) that may be acid/base labile, releasing an aldehyde.

> <s_lp_Force_Field>
OPLS_2005

> <r_lp_Energy>
37.3061

> <b_lp_Chiralities_Consistent>
1

> <s_lp_Variant>
AV-unprocessed.smi:100-6

> <Gold.Version>
5.8.1

> <Gold.Id.Protein>
6NUR|6NUR_protein|mol2

> <Gold.PLP.Fitness>
35.1211

> <Gold.PLP.PLP>
-23.3012

> <Gold.PLP.part.hbond>
-5.0333

> <Gold.PLP.part.metal>
0.0000

> <Gold.PLP.part.buried>
-1.7539

> <Gold.PLP.part.nonpolar>
-18.5222

> <Gold.PLP.part.repulsive>
0.4971

> <Gold.PLP.ligand.clash>
0.0000

> <Gold.PLP.ligand.torsion>
0.0419

> <Gold.PLP.Chemscore.Hbond>
3.9670

> <Gold.PLP.Chemscore.CHOScore>
0.0000

> <Gold.PLP.Chemscore.Metal>
0.0000

> <Gold.Chemscore.Hbonds>
donor molecule, donor type, donor heavy atom, donor atom, acceptor molecule, acceptor atom, score
      L1  H    15    28       P1 10175  1.00
      L1  H    19    31       P1  8028  0.18
      P1  H  7989  7998       L1     5  0.80
      P1  H  7997  8009       L1     3  1.00
      P1  H  8022  8030       L1    19  0.78

> <Gold.PLP.Chemscore.Internal.Correction>
0.0026

> <Gold.Rescore>
     Score         DG    S(hbond)    S(metal)    S(lipo)     H(rot)  DE(clash)    DE(int)     intcor
      7.83      -8.01       2.42        0.00      22.30       3.19       0.13       0.04       ----

> <Gold.Chemscore.Fitness>
7.8333

> <Gold.Chemscore.DG>
-8.0078

> <Gold.Chemscore.ZeroCoef>
-5.4800

> <Gold.Chemscore.Hbond>
2.4209

> <Gold.Chemscore.Metal>
0.0000

> <Gold.Chemscore.Lipo>
22.2954

> <Gold.Chemscore.Internal_Hbond>
0.0000

> <Gold.Chemscore.DEClash>
0.1304

> <Gold.Chemscore.DEInternal>
0.0441

> <Gold.Chemscore.Rot>
3.1901

> <Gold.Chemscore.Internal.Correction>
   9.000000E+99

> <Gold.Chemscore.Hbonds>
donor molecule, donor type, donor heavy atom, donor atom, acceptor molecule, acceptor atom, score
      L1  H    15    28       P1 10175  0.97
      L1  H    19    31       P1  8028  0.19
      P1  H  7989  7998       L1     5  0.04
      P1  H  7997  8009       L1     3  0.29
      P1  H  8022  8030       L1    19  0.20

> <Gold.Chemscore.Hbond.Weighted>
-8.0859

> <Gold.Chemscore.Metal.Weighted>
-0.0000

> <Gold.Chemscore.Lipo.Weighted>
-2.6086

> <Gold.Chemscore.Internal_Hbond.Weighted>
0.0000

> <Gold.Chemscore.DEClash.Weighted>
0.1304

> <Gold.Chemscore.DEInternal.Weighted>
0.0441

> <Gold.Chemscore.Rot.Weighted>
8.1667

> <Gold.Chemscore.Internal.Correction.Weighted>
   9.000000E+99

> <Gold.Protein.RotatedTorsions>
[ 6907 6896 6895 6894 ] final  -24.11 input  -60.11 | X-H torsion
[ 7974 7965 7964 7962 ] final   63.79 input  175.53 | X-H torsion
[ 8008 7997 7996 7995 ] final -163.24 input   59.86 | X-H torsion
[ 10167 10162 10161 10158 ] final  138.79 input  -65.29 | X-H torsion
[ 10718 10713 10712 10709 ] final  -63.02 input   66.30 | X-H torsion
[ 10763 10752 10751 10750 ] final   39.58 input  -60.55 | X-H torsion
[ 11005 11000 10999 10996 ] final  -21.20 input  -57.11 | X-H torsion

> <Gold.Protein.ActiveResidues>
 VAL166  LYS551  ARG553  GLY616  TRP617  ASP618  TYR619  PRO620  LYS621  CYS622 
 ASP623  PHE694  ASN695  SER759  ASP760  ASP761  ALA762  ILE779  LEU786  VAL792 
 PHE793  MET794  SER795  GLU796  ALA797  LYS798  CYS799  TRP800  GLU811  SER814 

> <Gold.Protein.RotatedAtoms>
  151.1943  135.0416  159.8845 H   0  0  0  0  0  0  0  0  0  0  0  0  # atno 6907 bound_to 6896
  152.5437  134.0921  159.8291 H   0  0  0  0  0  0  0  0  0  0  0  0  # atno 6908 bound_to 6896
  151.1053  133.5165  159.2640 H   0  0  0  0  0  0  0  0  0  0  0  0  # atno 6909 bound_to 6896
  145.8578  139.3295  143.0837 H   0  0  0  0  0  0  0  0  0  0  0  0  # atno 7974 bound_to 7965
  155.8184  140.0916  157.1863 H   0  0  0  0  0  0  0  0  0  0  0  0  # atno 8008 bound_to 7997
  154.3979  140.1441  156.3530 H   0  0  0  0  0  0  0  0  0  0  0  0  # atno 8009 bound_to 7997
  155.8292  140.3443  155.5564 H   0  0  0  0  0  0  0  0  0  0  0  0  # atno 8010 bound_to 7997
  139.5099  144.6333  151.5762 H   0  0  0  0  0  0  0  0  0  0  0  0  # atno 10167 bound_to 10162
  156.0818  130.4216  150.1217 H   0  0  0  0  0  0  0  0  0  0  0  0  # atno 10718 bound_to 10713
  152.9963  135.6216  154.2488 H   0  0  0  0  0  0  0  0  0  0  0  0  # atno 10763 bound_to 10752
  154.2227  135.2795  155.2920 H   0  0  0  0  0  0  0  0  0  0  0  0  # atno 10764 bound_to 10752
  154.5515  135.5732  153.6985 H   0  0  0  0  0  0  0  0  0  0  0  0  # atno 10765 bound_to 10752
  140.8538  133.7837  155.9997 H   0  0  0  0  0  0  0  0  0  0  0  0  # atno 11005 bound_to 11000
  145.9283  140.9066  143.0369 LP  0  0  0  0  0  0  0  0  0  0  0  0  # atno 17320 bound_to 7965
  144.6727  140.1384  143.7439 LP  0  0  0  0  0  0  0  0  0  0  0  0  # atno 17321 bound_to 7965
  140.6073  143.9501  150.6427 LP  0  0  0  0  0  0  0  0  0  0  0  0  # atno 17342 bound_to 10162
  140.2732  143.3441  152.1219 LP  0  0  0  0  0  0  0  0  0  0  0  0  # atno 17343 bound_to 10162
  156.9247  130.9694  151.3543 LP  0  0  0  0  0  0  0  0  0  0  0  0  # atno 17370 bound_to 10713
  157.5937  130.8462  149.8697 LP  0  0  0  0  0  0  0  0  0  0  0  0  # atno 17371 bound_to 10713
  140.8760  134.2669  157.5168 LP  0  0  0  0  0  0  0  0  0  0  0  0  # atno 17394 bound_to 11000
  139.8705  134.9591  156.4321 LP  0  0  0  0  0  0  0  0  0  0  0  0  # atno 17395 bound_to 11000

$$$$
