#       Name:                AV-unprocessed.smi:707
#       Creating user name   scv26
#       Creation time:       Fri Mar 27 00:44:25 2020


#       File generated by GOLD software.
#

@<TRIPOS>MOLECULE
AV-unprocessed.smi:707
    50    51     1
SMALL
NO_CHARGES


@<TRIPOS>ATOM
      1 ****        -4.5936   3.7745   2.0914 C.3            1 S1                 0.0000
      2 ****        -5.2506   3.0663   0.9512 C.2            1 S1                 0.0000
      3 ****        -6.5767   2.9559   0.8078 N.2            1 S1                 0.0000
      4 ****        -6.7653   2.2389  -0.3575 N.2            1 S1                 0.0000
      5 ****        -5.5337   1.9889  -0.8007 C.2            1 S1                 0.0000
      6 ****        -4.5454   2.4754  -0.0346 N.pl3          1 S1                 0.0000
      7 ****        -3.1124   2.3722  -0.2359 C.3            1 S1                 0.0000
      8 ****        -2.5437   1.0973   0.4091 C.3            1 S1                 0.0000
      9 ****        -1.0991   1.0054   0.2360 N.am           1 S1                 0.0000
     10 ****        -0.4808   0.6259  -0.8928 C.2            1 S1                 0.0000
     11 ****        -1.0782   0.3132  -1.9225 O.2            1 S1                 0.0000
     12 ****         1.0447   0.6043  -0.8557 C.3            1 S1                 0.0000
     13 ****         1.4571  -0.3990   0.0612 O.3            1 S1                 0.0000
     14 ****         2.8643  -0.4909   0.2578 C.3            1 S1                 0.0000
     15 ****         3.1008  -1.2855   1.5543 C.3            1 S1                 0.0000
     16 ****         2.6782  -2.7570   1.4068 C.3            1 S1                 0.0000
     17 ****         3.3799  -3.4253   0.2136 C.3            1 S1                 0.0000
     18 ****         3.1373  -2.6477  -1.0942 C.3            1 S1                 0.0000
     19 ****         3.8451  -3.3130  -2.2831 C.3            1 S1                 0.0000
     20 ****         3.5711  -1.1773  -0.9320 C.3            1 S1                 0.0000
     21 ****        -5.3410   4.1336   2.7995 H              1 S1                 0.0000
     22 ****        -4.0261   4.6300   1.7252 H              1 S1                 0.0000
     23 ****        -3.9170   3.0994   2.6155 H              1 S1                 0.0000
     24 ****        -5.3470   1.4340  -1.7087 H              1 S1                 0.0000
     25 ****        -2.9186   2.3803  -1.3092 H              1 S1                 0.0000
     26 ****        -2.6310   3.2597   0.1757 H              1 S1                 0.0000
     27 ****        -2.7561   1.0933   1.4788 H              1 S1                 0.0000
     28 ****        -3.0249   0.2096  -0.0052 H              1 S1                 0.0000
     29 ****        -0.5257   1.2398   1.0335 H              1 S1                 0.0000
     30 ****         1.4252   0.4064  -1.8576 H              1 S1                 0.0000
     31 ****         1.4109   1.5842  -0.5462 H              1 S1                 0.0000
     32 ****         3.2704   0.5126   0.3952 H              1 S1                 0.0000
     33 ****         4.1585  -1.2408   1.8170 H              1 S1                 0.0000
     34 ****         2.5602  -0.8231   2.3806 H              1 S1                 0.0000
     35 ****         2.9058  -3.3015   2.3234 H              1 S1                 0.0000
     36 ****         1.5972  -2.8169   1.2749 H              1 S1                 0.0000
     37 ****         4.4509  -3.4882   0.4117 H              1 S1                 0.0000
     38 ****         3.0250  -4.4513   0.1096 H              1 S1                 0.0000
     39 ****         2.0664  -2.6630  -1.3023 H              1 S1                 0.0000
     40 ****         4.9261  -3.3315  -2.1418 H              1 S1                 0.0000
     41 ****         3.6393  -2.7780  -3.2107 H              1 S1                 0.0000
     42 ****         3.5084  -4.3416  -2.4152 H              1 S1                 0.0000
     43 ****         3.3962  -0.6284  -1.8566 H              1 S1                 0.0000
     44 ****         4.6492  -1.1392  -0.7694 H              1 S1                 0.0000
     45 ****        -7.2830   3.3169   1.4168 LP             1 S1                 0.0000
     46 ****        -7.6325   1.9678  -0.7753 LP             1 S1                 0.0000
     47 ****        -2.0777   0.3342  -1.9466 LP             1 S1                 0.0000
     48 ****        -0.5641   0.0380  -2.7348 LP             1 S1                 0.0000
     49 ****         1.1327  -1.2820  -0.2781 LP             1 S1                 0.0000
     50 ****         1.0321  -0.2052   0.9454 LP             1 S1                 0.0000
@<TRIPOS>BOND
    1    1    2 1     
    2    1   21 1     
    3    1   22 1     
    4    1   23 1     
    5    2    6 1     
    6    2    3 2     
    7    3    4 1     
    8    4    5 2     
    9    5    6 1     
   10    5   24 1     
   11    6    7 1     
   12    7    8 1     
   13    7   25 1     
   14    7   26 1     
   15    8    9 1     
   16    8   27 1     
   17    8   28 1     
   18    9   10 am    
   19    9   29 1     
   20   10   11 2     
   21   10   12 1     
   22   12   13 1     
   23   12   30 1     
   24   12   31 1     
   25   13   14 1     
   26   14   20 1     
   27   14   15 1     
   28   14   32 1     
   29   15   16 1     
   30   15   33 1     
   31   15   34 1     
   32   16   17 1     
   33   16   35 1     
   34   16   36 1     
   35   17   18 1     
   36   17   37 1     
   37   17   38 1     
   38   18   19 1     
   39   18   20 1     
   40   18   39 1     
   41   19   40 1     
   42   19   41 1     
   43   19   42 1     
   44   20   43 1     
   45   20   44 1     
   46    3   45 1     
   47    4   46 1     
   48   11   47 1     
   49   11   48 1     
   50   13   49 1     
   51   13   50 1     
@<TRIPOS>SUBSTRUCTURE
      1 S1             1
@<TRIPOS>SET
LONE_PAIRS      STATIC     ATOMS    <user>   **** ""
6 45 46 47 48 49 50
DONOR_HYDROGENS      STATIC     ATOMS    <user>   **** ""
1 29
ATOM$BLUE        STATIC     ATOMS    COLORGROUP SYSTEM
6 45 46 47 48 49 50
ATOM$RED        STATIC     ATOMS    COLORGROUP SYSTEM
1 29
