AV-unprocessed.smi:916|AV-procd|sdf|4161|dock2
  -GOLD-   22720 2 63D 1   1.00000     0.00000
 Structure written by MMmdl.
 43 44  0  0  0  0  0  0  0  0  1 V2000
  143.8051  132.6906  148.5666 C   0  0  0  0  0  0  0  0  0  0  0  0
  144.5331  132.3758  149.8782 C   0  0  0  0  0  0  0  0  0  0  0  0
  144.4933  133.5230  150.8414 C   0  0  0  0  0  0  0  0  0  0  0  0
  143.3913  134.0040  151.5059 C   0  0  0  0  0  0  0  0  0  0  0  0
  143.7857  135.3551  152.5344 S   0  0  0  0  0  0  0  0  0  0  0  0
  145.4566  135.2155  152.0112 C   0  0  0  0  0  0  0  0  0  0  0  0
  146.4696  136.0866  152.4905 N   0  0  0  0  0  0  0  0  0  0  0  0
  146.3241  137.2124  153.2112 C   0  0  0  0  0  0  0  0  0  0  0  0
  145.2507  137.6742  153.6002 O   0  0  0  0  0  0  0  0  0  0  0  0
  147.5105  137.7858  153.4595 N   0  0  0  0  0  0  0  0  0  0  0  0
  147.7131  139.0207  154.2114 C   0  0  0  0  0  0  0  0  0  0  0  0
  149.1128  139.0812  154.8552 C   0  0  1  0  0  0  0  0  0  0  0  0
  150.1501  138.1829  154.2071 C   0  0  0  0  0  0  0  0  0  0  0  0
  151.4543  138.7998  154.6992 C   0  0  0  0  0  0  0  0  0  0  0  0
  151.1999  140.1960  154.8116 O   0  0  0  0  0  0  0  0  0  0  0  0
  149.7988  140.4503  154.7248 C   0  0  2  0  0  0  0  0  0  0  0  0
  149.3647  141.5324  155.7406 C   0  0  0  0  0  0  0  0  0  0  0  0
  149.9967  141.2748  157.1175 C   0  0  0  0  0  0  0  0  0  0  0  0
  147.8373  141.6782  155.8667 C   0  0  0  0  0  0  0  0  0  0  0  0
  145.6664  134.2233  151.1391 N   0  0  0  0  0  0  0  0  0  0  0  0
  143.8463  131.8403  147.8856 H   0  0  0  0  0  0  0  0  0  0  0  0
  144.2562  133.5445  148.0599 H   0  0  0  0  0  0  0  0  0  0  0  0
  142.7552  132.9237  148.7464 H   0  0  0  0  0  0  0  0  0  0  0  0
  144.0849  131.4913  150.3322 H   0  0  0  0  0  0  0  0  0  0  0  0
  145.5678  132.1080  149.6604 H   0  0  0  0  0  0  0  0  0  0  0  0
  142.3743  133.6450  151.4526 H   0  0  0  0  0  0  0  0  0  0  0  0
  147.4148  135.8234  152.2536 H   0  0  0  0  0  0  0  0  0  0  0  0
  148.3391  137.3348  153.1000 H   0  0  0  0  0  0  0  0  0  0  0  0
  147.5403  139.8942  153.5801 H   0  0  0  0  0  0  0  0  0  0  0  0
  146.9510  139.0560  154.9899 H   0  0  0  0  0  0  0  0  0  0  0  0
  149.0366  138.7993  155.9049 H   0  0  0  0  0  0  0  0  0  0  0  0
  150.0482  137.1341  154.4869 H   0  0  0  0  0  0  0  0  0  0  0  0
  150.0911  138.2536  153.1200 H   0  0  0  0  0  0  0  0  0  0  0  0
  151.7079  138.4137  155.6873 H   0  0  0  0  0  0  0  0  0  0  0  0
  152.2910  138.5981  154.0302 H   0  0  0  0  0  0  0  0  0  0  0  0
  149.6165  140.8197  153.7141 H   0  0  0  0  0  0  0  0  0  0  0  0
  149.7553  142.4886  155.3913 H   0  0  0  0  0  0  0  0  0  0  0  0
  149.6509  140.3319  157.5424 H   0  0  0  0  0  0  0  0  0  0  0  0
  149.7444  142.0689  157.8209 H   0  0  0  0  0  0  0  0  0  0  0  0
  151.0842  141.2304  157.0512 H   0  0  0  0  0  0  0  0  0  0  0  0
  147.3722  140.7435  156.1814 H   0  0  0  0  0  0  0  0  0  0  0  0
  147.3762  141.9816  154.9276 H   0  0  0  0  0  0  0  0  0  0  0  0
  147.5797  142.4375  156.6054 H   0  0  0  0  0  0  0  0  0  0  0  0
  1  2  1  0  0  0  0
  1 21  1  0  0  0  0
  1 22  1  0  0  0  0
  1 23  1  0  0  0  0
  2  3  1  0  0  0  0
  2 24  1  0  0  0  0
  2 25  1  0  0  0  0
  3 20  1  0  0  0  0
  3  4  2  0  0  0  0
  4  5  1  0  0  0  0
  4 26  1  0  0  0  0
  5  6  1  0  0  0  0
  6  7  1  0  0  0  0
  6 20  2  0  0  0  0
  7  8  1  0  0  0  0
  7 27  1  0  0  0  0
  8  9  2  0  0  0  0
  8 10  1  0  0  0  0
 10 11  1  0  0  0  0
 10 28  1  0  0  0  0
 11 12  1  0  0  0  0
 11 29  1  0  0  0  0
 11 30  1  0  0  0  0
 12 16  1  0  0  0  0
 12 13  1  0  0  0  0
 12 31  1  0  0  0  0
 13 14  1  0  0  0  0
 13 32  1  0  0  0  0
 13 33  1  0  0  0  0
 14 15  1  0  0  0  0
 14 34  1  0  0  0  0
 14 35  1  0  0  0  0
 15 16  1  0  0  0  0
 16 17  1  0  0  0  0
 16 36  1  0  0  0  0
 17 18  1  0  0  0  0
 17 19  1  0  0  0  0
 17 37  1  0  0  0  0
 18 38  1  0  0  0  0
 18 39  1  0  0  0  0
 18 40  1  0  0  0  0
 19 41  1  0  0  0  0
 19 42  1  0  0  0  0
 19 43  1  0  0  0  0
M  END
> <s_m_source_file>
AV-unprocessed.smi

> <i_m_source_file_index>
916

> <i_lp_mmshare_version>
43012

> <i_f3d_flags>
0

> <s_epik_input>
W0NIM11bQ0gyXWMxW2NIXXNjKG4xKVtOSF1DKD1PKVtOSF1bQ0gyXVtDQEBIXTJbQ0gyXVtDSDJdT1tDQEhdMltDSF0oW0NIM10pW0NIM10=

> <s_epik_cmdline>
J2VwaWtfcHl0aG9uJywgJy1waCcsICc3LjAnLCAnLXRuJywgJzgnLCAnLW1hJywgJzIwMCcsICctbWV0YWxfYmluZGluZycsICctaW1hZScsICc8aW5maWxlLm1hZT4nLCAnLW9tYWUnLCAnPG91dGZpbGUubWFlPic=

> <r_lp_tautomer_probability>
0.999

> <r_epik_Ionization_Penalty>
0.000518907

> <r_epik_Ionization_Penalty_Charging>
0

> <r_epik_Ionization_Penalty_Neutral>
0.000518907

> <r_epik_State_Penalty>
0.000177984

> <r_epik_Charging_Adjusted_Penalty>
0.000177984

> <i_epik_Tot_Q>
0

> <i_epik_Tot_abs_Q>
0

> <r_epik_Metal_State_Penalty>
-0

> <b_epik_Metal_Only>
0

> <s_lp_Force_Field>
OPLS_2005

> <r_lp_Energy>
16.7847

> <b_lp_Chiralities_Consistent>
1

> <s_lp_Variant>
AV-unprocessed.smi:916-4

> <Gold.Version>
5.8.1

> <Gold.Id.Protein>
6NUR|6NUR_protein|mol2

> <Gold.PLP.Fitness>
42.2612

> <Gold.PLP.PLP>
-33.2752

> <Gold.PLP.part.hbond>
-2.9628

> <Gold.PLP.part.metal>
0.0000

> <Gold.PLP.part.buried>
-1.9574

> <Gold.PLP.part.nonpolar>
-28.0812

> <Gold.PLP.part.repulsive>
0.4165

> <Gold.PLP.ligand.clash>
0.0000

> <Gold.PLP.ligand.torsion>
1.0243

> <Gold.PLP.Chemscore.Hbond>
2.9120

> <Gold.PLP.Chemscore.CHOScore>
0.7425

> <Gold.PLP.Chemscore.Metal>
0.0000

> <Gold.Chemscore.Hbonds>
donor molecule, donor type, donor heavy atom, donor atom, acceptor molecule, acceptor atom, score
      L1  H     7    27       P1  7948  1.00
      L1  H    10    28       P1  7948  0.90
      P1  H  7989  7998       L1    15  0.95
      L1  C     4    26       P1 10186  0.75

> <Gold.PLP.Chemscore.Internal.Correction>
0.0712

> <Gold.Rescore>
     Score         DG    S(hbond)    S(metal)    S(lipo)     H(rot)  DE(clash)    DE(int)     intcor
     17.33     -19.60       2.34        0.00      87.16       1.52       0.12       2.15       ----

> <Gold.Chemscore.Fitness>
17.3319

> <Gold.Chemscore.DG>
-19.6035

> <Gold.Chemscore.ZeroCoef>
-5.4800

> <Gold.Chemscore.Hbond>
2.3432

> <Gold.Chemscore.Metal>
0.0000

> <Gold.Chemscore.Lipo>
87.1624

> <Gold.Chemscore.Internal_Hbond>
0.0000

> <Gold.Chemscore.DEClash>
0.1203

> <Gold.Chemscore.DEInternal>
2.1513

> <Gold.Chemscore.Rot>
1.5238

> <Gold.Chemscore.Internal.Correction>
   9.000000E+99

> <Gold.Chemscore.Hbonds>
donor molecule, donor type, donor heavy atom, donor atom, acceptor molecule, acceptor atom, score
      L1  H     7    27       P1  7948  0.95
      L1  H    10    28       P1  7948  0.88
      P1  H  7989  7998       L1    15  0.13

> <Gold.Chemscore.Hbond.Weighted>
-7.8263

> <Gold.Chemscore.Metal.Weighted>
-0.0000

> <Gold.Chemscore.Lipo.Weighted>
-10.1980

> <Gold.Chemscore.Internal_Hbond.Weighted>
0.0000

> <Gold.Chemscore.DEClash.Weighted>
0.1203

> <Gold.Chemscore.DEInternal.Weighted>
2.1513

> <Gold.Chemscore.Rot.Weighted>
3.9008

> <Gold.Chemscore.Internal.Correction.Weighted>
   9.000000E+99

> <Gold.Protein.RotatedTorsions>
[ 6907 6896 6895 6894 ] final -126.80 input  -60.11 | X-H torsion
[ 7974 7965 7964 7962 ] final   44.86 input  175.53 | X-H torsion
[ 8008 7997 7996 7995 ] final  -28.65 input   59.86 | X-H torsion
[ 10167 10162 10161 10158 ] final   61.09 input  -65.29 | X-H torsion
[ 10718 10713 10712 10709 ] final  159.64 input   66.30 | X-H torsion
[ 10763 10752 10751 10750 ] final -177.60 input  -60.55 | X-H torsion
[ 11005 11000 10999 10996 ] final  126.62 input  -57.11 | X-H torsion

> <Gold.Protein.ActiveResidues>
 VAL166  LYS551  ARG553  GLY616  TRP617  ASP618  TYR619  PRO620  LYS621  CYS622 
 ASP623  PHE694  ASN695  SER759  ASP760  ASP761  ALA762  ILE779  LEU786  VAL792 
 PHE793  MET794  SER795  GLU796  ALA797  LYS798  CYS799  TRP800  GLU811  SER814 

> <Gold.Protein.RotatedAtoms>
  150.9007  133.7122  159.2879 H   0  0  0  0  0  0  0  0  0  0  0  0  # atno 6907 bound_to 6896
  151.4642  135.1039  159.9743 H   0  0  0  0  0  0  0  0  0  0  0  0  # atno 6908 bound_to 6896
  152.4875  133.8363  159.7184 H   0  0  0  0  0  0  0  0  0  0  0  0  # atno 6909 bound_to 6896
  146.0531  139.5028  142.9705 H   0  0  0  0  0  0  0  0  0  0  0  0  # atno 7974 bound_to 7965
  154.4323  140.1839  156.1123 H   0  0  0  0  0  0  0  0  0  0  0  0  # atno 8008 bound_to 7997
  156.0208  140.3341  155.7011 H   0  0  0  0  0  0  0  0  0  0  0  0  # atno 8009 bound_to 7997
  155.5979  140.0637  157.2731 H   0  0  0  0  0  0  0  0  0  0  0  0  # atno 8010 bound_to 7997
  140.1585  144.4393  150.6721 H   0  0  0  0  0  0  0  0  0  0  0  0  # atno 10167 bound_to 10162
  157.1614  131.0588  151.2230 H   0  0  0  0  0  0  0  0  0  0  0  0  # atno 10718 bound_to 10713
  154.5581  135.2818  155.0945 H   0  0  0  0  0  0  0  0  0  0  0  0  # atno 10763 bound_to 10752
  154.2364  135.6365  153.5196 H   0  0  0  0  0  0  0  0  0  0  0  0  # atno 10764 bound_to 10752
  153.0021  135.5549  154.6167 H   0  0  0  0  0  0  0  0  0  0  0  0  # atno 10765 bound_to 10752
  139.9465  134.9629  156.8733 H   0  0  0  0  0  0  0  0  0  0  0  0  # atno 11005 bound_to 11000
  145.6690  141.0221  143.1668 LP  0  0  0  0  0  0  0  0  0  0  0  0  # atno 17320 bound_to 7965
  144.7133  139.8288  143.7407 LP  0  0  0  0  0  0  0  0  0  0  0  0  # atno 17321 bound_to 7965
  140.6658  143.2267  151.5747 LP  0  0  0  0  0  0  0  0  0  0  0  0  # atno 17342 bound_to 10162
  139.5392  144.2695  152.1315 LP  0  0  0  0  0  0  0  0  0  0  0  0  # atno 17343 bound_to 10162
  157.4129  130.7395  149.6853 LP  0  0  0  0  0  0  0  0  0  0  0  0  # atno 17370 bound_to 10713
  155.9753  130.4090  150.3858 LP  0  0  0  0  0  0  0  0  0  0  0  0  # atno 17371 bound_to 10713
  140.5822  134.0341  155.7468 LP  0  0  0  0  0  0  0  0  0  0  0  0  # atno 17394 bound_to 11000
  141.1117  133.9606  157.2898 LP  0  0  0  0  0  0  0  0  0  0  0  0  # atno 17395 bound_to 11000

$$$$
