#       Name:                AV-unprocessed.smi:334
#       Creating user name   scv26
#       Creation time:       Thu Mar 26 22:27:48 2020


#       File generated by GOLD software.
#

@<TRIPOS>MOLECULE
AV-unprocessed.smi:334
    50    52     1
SMALL
NO_CHARGES


@<TRIPOS>ATOM
      1 ****        -1.8560  -1.8166   2.3354 C.3            1 S1                 0.0000
      2 ****        -1.3735  -0.9879   1.1332 C.3            1 S1                 0.0000
      3 ****         0.0884  -0.9624   1.1503 N.am           1 S1                 0.0000
      4 ****         0.8569   0.1222   1.3347 C.2            1 S1                 0.0000
      5 ****         0.4067   1.2445   1.5676 O.2            1 S1                 0.0000
      6 ****         2.3718  -0.1046   1.2491 C.3            1 S1                 0.0000
      7 ****         3.0832   1.0375   0.6514 N.am           1 S1                 0.0000
      8 ****         3.7283   1.9268   1.5337 C.2            1 S1                 0.0000
      9 ****         4.4009   3.0086   1.0946 C.2            1 S1                 0.0000
     10 ****         5.0522   3.9147   2.0150 N.pl3          1 S1                 1.0000
     11 ****         5.6600   4.8786   1.5604 O.2            1 S1                 0.0000
     12 ****         4.9795   3.6939   3.2203 O.2            1 S1                -1.0000
     13 ****         4.4471   3.2388  -0.3365 C.2            1 S1                 0.0000
     14 ****         3.8295   2.3940  -1.1853 C.2            1 S1                 0.0000
     15 ****         3.0953   1.2190  -0.7051 C.2            1 S1                 0.0000
     16 ****         2.5256   0.4452  -1.4751 O.2            1 S1                 0.0000
     17 ****        -1.8656  -1.5477  -0.2252 C.3            1 S1                 0.0000
     18 ****        -1.3395  -0.7626  -1.4548 C.3            1 S1                 0.0000
     19 ****        -2.6206  -0.4211  -2.2344 C.3            1 S1                 0.0000
     20 ****        -3.2220  -1.7058  -2.8324 C.3            1 S1                 0.0000
     21 ****        -3.7882  -2.4218  -1.5923 C.3            1 S1                 0.0000
     22 ****        -3.3984  -1.4726  -0.4429 C.3            1 S1                 0.0000
     23 ****        -3.5892  -0.1101  -1.1023 C.3            1 S1                 0.0000
     24 ****        -2.9410  -1.8032   2.4291 H              1 S1                 0.0000
     25 ****        -1.4515  -1.4211   3.2679 H              1 S1                 0.0000
     26 ****        -1.5418  -2.8576   2.2533 H              1 S1                 0.0000
     27 ****        -1.7653   0.0236   1.2506 H              1 S1                 0.0000
     28 ****         0.5541  -1.8406   0.9729 H              1 S1                 0.0000
     29 ****         2.7400  -0.3099   2.2549 H              1 S1                 0.0000
     30 ****         2.5806  -1.0115   0.6778 H              1 S1                 0.0000
     31 ****         3.6303   1.6722   2.5790 H              1 S1                 0.0000
     32 ****         4.9759   4.0907  -0.7379 H              1 S1                 0.0000
     33 ****         3.8753   2.5855  -2.2474 H              1 S1                 0.0000
     34 ****        -1.5393  -2.5868  -0.2957 H              1 S1                 0.0000
     35 ****        -0.8379   0.1602  -1.1606 H              1 S1                 0.0000
     36 ****        -0.6330  -1.3444  -2.0477 H              1 S1                 0.0000
     37 ****        -2.4884   0.3806  -2.9614 H              1 S1                 0.0000
     38 ****        -4.0205  -1.4710  -3.5375 H              1 S1                 0.0000
     39 ****        -2.4768  -2.3053  -3.3564 H              1 S1                 0.0000
     40 ****        -4.8727  -2.5116  -1.6662 H              1 S1                 0.0000
     41 ****        -3.3804  -3.4253  -1.4651 H              1 S1                 0.0000
     42 ****        -3.9969  -1.6304   0.4533 H              1 S1                 0.0000
     43 ****        -3.2730   0.7271  -0.4780 H              1 S1                 0.0000
     44 ****        -4.6106   0.0662  -1.4442 H              1 S1                 0.0000
     45 ****        -0.5816   1.3842   1.6281 LP             1 S1                 0.0000
     46 ****         1.0295   2.0163   1.6962 LP             1 S1                 0.0000
     47 ****         5.6978   5.0250   0.5719 LP             1 S1                 0.0000
     48 ****         6.1177   5.5179   2.1784 LP             1 S1                 0.0000
     49 ****         2.0333  -0.3469  -1.1144 LP             1 S1                 0.0000
     50 ****         2.5553   0.6090  -2.4612 LP             1 S1                 0.0000
@<TRIPOS>BOND
    1    1    2 1     
    2    1   24 1     
    3    1   25 1     
    4    1   26 1     
    5    2    3 1     
    6    2   17 1     
    7    2   27 1     
    8    3    4 am    
    9    3   28 1     
   10    4    5 2     
   11    4    6 1     
   12    6    7 1     
   13    6   29 1     
   14    6   30 1     
   15    7   15 am    
   16    7    8 1     
   17    8    9 2     
   18    8   31 1     
   19    9   10 1     
   20    9   13 1     
   21   10   11 2     
   22   10   12 1     
   23   13   14 2     
   24   13   32 1     
   25   14   15 1     
   26   14   33 1     
   27   15   16 2     
   28   17   22 1     
   29   17   18 1     
   30   17   34 1     
   31   18   19 1     
   32   18   35 1     
   33   18   36 1     
   34   19   23 1     
   35   19   20 1     
   36   19   37 1     
   37   20   21 1     
   38   20   38 1     
   39   20   39 1     
   40   21   22 1     
   41   21   40 1     
   42   21   41 1     
   43   22   23 1     
   44   22   42 1     
   45   23   43 1     
   46   23   44 1     
   47    5   45 1     
   48    5   46 1     
   49   11   47 1     
   50   11   48 1     
   51   16   49 1     
   52   16   50 1     
@<TRIPOS>SUBSTRUCTURE
      1 S1             1
@<TRIPOS>SET
LONE_PAIRS      STATIC     ATOMS    <user>   **** ""
7 45 46 47 48 12 49 50
DONOR_HYDROGENS      STATIC     ATOMS    <user>   **** ""
1 28
ATOM$BLUE        STATIC     ATOMS    COLORGROUP SYSTEM
7 45 46 47 48 12 49 50
ATOM$RED        STATIC     ATOMS    COLORGROUP SYSTEM
1 28
