#       Name:                AV-unprocessed.smi:109
#       Creating user name   scv26
#       Creation time:       Thu Mar 26 18:10:45 2020


#       File generated by GOLD software.
#

@<TRIPOS>MOLECULE
AV-unprocessed.smi:109
    71    74     1
SMALL
NO_CHARGES


@<TRIPOS>ATOM
      1 ****        -4.9638   0.7917   3.7587 O.3            1 S1                 0.0000
      2 ****        -3.7373   0.9038   3.0699 C.3            1 S1                 0.0000
      3 ****        -3.9963   1.0846   1.5657 C.3            1 S1                 0.0000
      4 ****        -2.6960   1.2448   0.7472 C.3            1 S1                 0.0000
      5 ****        -1.9351  -0.0044   0.7749 N.pl3          1 S1                 0.0000
      6 ****        -0.5866  -0.0182   0.6829 C.ar           1 S1                 0.0000
      7 ****         0.1311   1.1339   0.6258 N.ar           1 S1                 0.0000
      8 ****         1.4640   1.0873   0.5484 C.ar           1 S1                 0.0000
      9 ****         2.2606   0.0171   0.5189 N.ar           1 S1                 0.0000
     10 ****         1.5467  -1.1444   0.5734 C.ar           1 S1                 0.0000
     11 ****         0.1291  -1.2431   0.6527 C.ar           1 S1                 0.0000
     12 ****        -0.2492  -2.5785   0.6863 N.2            1 S1                 0.0000
     13 ****         0.8823  -3.2280   0.6314 C.2            1 S1                 0.0000
     14 ****         2.0136  -2.4451   0.5642 N.pl3          1 S1                 0.0000
     15 ****         3.4360  -2.9172   0.5063 C.3            1 S1                 0.0000
     16 ****         4.2322  -2.0898   1.3020 O.3            1 S1                 0.0000
     17 ****         5.2629  -1.4900   0.5215 C.3            1 S1                 0.0000
     18 ****         6.5071  -1.2062   1.3812 C.3            1 S1                 0.0000
     19 ****         7.4801  -0.5154   0.6267 O.3            1 S1                 0.0000
     20 ****         5.4424  -2.4298  -0.6798 C.3            1 S1                 0.0000
     21 ****         6.3002  -3.5123  -0.3686 O.3            1 S1                 0.0000
     22 ****         4.0259  -2.9278  -0.9194 C.3            1 S1                 0.0000
     23 ****         3.3465  -2.0837  -1.8319 O.3            1 S1                 0.0000
     24 ****        -2.9188   1.7191  -0.7150 C.3            1 S1                 0.0000
     25 ****        -3.3866   3.1880  -0.8019 C.3            1 S1                 0.0000
     26 ****        -3.4951   3.6572  -2.2621 C.3            1 S1                 0.0000
     27 ****        -4.4273   2.7431  -3.0727 C.3            1 S1                 0.0000
     28 ****        -3.9769   1.2762  -2.9899 C.3            1 S1                 0.0000
     29 ****        -3.8662   0.8083  -1.5293 C.3            1 S1                 0.0000
     30 ****         3.4138  -3.9109   0.9554 H              1 S1                 0.0000
     31 ****         4.8718  -0.5412   0.1527 H              1 S1                 0.0000
     32 ****         5.8559  -1.9105  -1.5455 H              1 S1                 0.0000
     33 ****         4.0004  -3.9424  -1.3193 H              1 S1                 0.0000
     34 ****        -4.7816   0.6829   4.6796 H              1 S1                 0.0000
     35 ****        -3.1830   1.7534   3.4697 H              1 S1                 0.0000
     36 ****        -3.1450   0.0084   3.2606 H              1 S1                 0.0000
     37 ****        -4.5738   0.2379   1.1922 H              1 S1                 0.0000
     38 ****        -4.6271   1.9635   1.4374 H              1 S1                 0.0000
     39 ****        -2.1125   2.0146   1.2532 H              1 S1                 0.0000
     40 ****        -2.4869  -0.8494   0.8149 H              1 S1                 0.0000
     41 ****         1.9647   2.0432   0.5069 H              1 S1                 0.0000
     42 ****         0.9233  -4.3075   0.6414 H              1 S1                 0.0000
     43 ****         6.2321  -0.5850   2.2340 H              1 S1                 0.0000
     44 ****         6.9361  -2.1239   1.7837 H              1 S1                 0.0000
     45 ****         8.2078  -0.3080   1.1930 H              1 S1                 0.0000
     46 ****         7.1631  -3.1670  -0.1965 H              1 S1                 0.0000
     47 ****         2.4382  -2.3429  -1.8592 H              1 S1                 0.0000
     48 ****        -1.9463   1.6862  -1.2089 H              1 S1                 0.0000
     49 ****        -4.3567   3.3109  -0.3209 H              1 S1                 0.0000
     50 ****        -2.6907   3.8327  -0.2641 H              1 S1                 0.0000
     51 ****        -3.8605   4.6841  -2.2958 H              1 S1                 0.0000
     52 ****        -2.5043   3.6665  -2.7180 H              1 S1                 0.0000
     53 ****        -5.4464   2.8340  -2.6947 H              1 S1                 0.0000
     54 ****        -4.4529   3.0665  -4.1137 H              1 S1                 0.0000
     55 ****        -4.6794   0.6413  -3.5308 H              1 S1                 0.0000
     56 ****        -3.0120   1.1608  -3.4852 H              1 S1                 0.0000
     57 ****        -3.5130  -0.2230  -1.5069 H              1 S1                 0.0000
     58 ****        -4.8611   0.8044  -1.0835 H              1 S1                 0.0000
     59 ****        -5.4702  -0.0009   3.4191 LP             1 S1                 0.0000
     60 ****        -5.5067   1.6195   3.6178 LP             1 S1                 0.0000
     61 ****        -0.3383   2.0167   0.6417 LP             1 S1                 0.0000
     62 ****         3.2581   0.0610   0.4637 LP             1 S1                 0.0000
     63 ****        -1.1738  -2.9556   0.7401 LP             1 S1                 0.0000
     64 ****         4.6462  -2.6340   2.0318 LP             1 S1                 0.0000
     65 ****         3.6631  -1.3721   1.7033 LP             1 S1                 0.0000
     66 ****         7.0867   0.3279   0.2606 LP             1 S1                 0.0000
     67 ****         7.7936  -1.0920  -0.1278 LP             1 S1                 0.0000
     68 ****         6.3377  -4.1469  -1.1406 LP             1 S1                 0.0000
     69 ****         5.9601  -3.9915   0.4406 LP             1 S1                 0.0000
     70 ****         3.7512  -2.1751  -2.7418 LP             1 S1                 0.0000
     71 ****         3.4174  -1.1332  -1.5295 LP             1 S1                 0.0000
@<TRIPOS>BOND
    1    1    2 1     
    2    1   34 1     
    3    2    3 1     
    4    2   35 1     
    5    2   36 1     
    6    3    4 1     
    7    3   37 1     
    8    3   38 1     
    9    4    5 1     
   10    4   24 1     
   11    4   39 1     
   12    5    6 1     
   13    5   40 1     
   14    6   11 ar    
   15    6    7 ar    
   16    7    8 ar    
   17    8    9 ar    
   18    8   41 1     
   19    9   10 ar    
   20   10   14 1     
   21   10   11 ar    
   22   11   12 1     
   23   12   13 2     
   24   13   14 1     
   25   13   42 1     
   26   14   15 1     
   27   15   30 1     
   28   15   22 1     
   29   15   16 1     
   30   16   17 1     
   31   17   31 1     
   32   17   18 1     
   33   17   20 1     
   34   18   19 1     
   35   18   43 1     
   36   18   44 1     
   37   19   45 1     
   38   20   32 1     
   39   20   21 1     
   40   20   22 1     
   41   21   46 1     
   42   22   33 1     
   43   22   23 1     
   44   23   47 1     
   45   24   29 1     
   46   24   25 1     
   47   24   48 1     
   48   25   26 1     
   49   25   49 1     
   50   25   50 1     
   51   26   27 1     
   52   26   51 1     
   53   26   52 1     
   54   27   28 1     
   55   27   53 1     
   56   27   54 1     
   57   28   29 1     
   58   28   55 1     
   59   28   56 1     
   60   29   57 1     
   61   29   58 1     
   62    1   59 1     
   63    1   60 1     
   64    7   61 1     
   65    9   62 1     
   66   12   63 1     
   67   16   64 1     
   68   16   65 1     
   69   19   66 1     
   70   19   67 1     
   71   21   68 1     
   72   21   69 1     
   73   23   70 1     
   74   23   71 1     
@<TRIPOS>SUBSTRUCTURE
      1 S1             1
@<TRIPOS>SET
LONE_PAIRS      STATIC     ATOMS    <user>   **** ""
13 59 60 61 62 63 64 65 66 67 68 69 70 71
DONOR_HYDROGENS      STATIC     ATOMS    <user>   **** ""
5 34 40 45 46 47
ATOM$BLUE        STATIC     ATOMS    COLORGROUP SYSTEM
13 59 60 61 62 63 64 65 66 67 68 69 70 71
ATOM$RED        STATIC     ATOMS    COLORGROUP SYSTEM
5 34 40 45 46 47
