#       Name:                AV-unprocessed.smi:21
#       Creating user name   scv26
#       Creation time:       Thu Mar 26 15:29:25 2020


#       File generated by GOLD software.
#

@<TRIPOS>MOLECULE
AV-unprocessed.smi:21
    72    75     1
SMALL
NO_CHARGES


@<TRIPOS>ATOM
      1 ****        -3.5436  -2.7535  -6.5062 C.3            1 S1                 0.0000
      2 ****        -3.7120  -1.6767  -5.5986 O.3            1 S1                 0.0000
      3 ****        -2.9649  -1.8240  -4.4004 C.3            1 S1                 0.0000
      4 ****        -3.0258  -0.5462  -3.5752 C.3            1 S1                 0.0000
      5 ****        -2.6978  -1.0338  -2.1614 C.3            1 S1                 0.0000
      6 ****        -3.2284  -0.1003  -1.0528 C.3            1 S1                 0.0000
      7 ****        -2.6170   1.2270  -1.0627 N.3            1 S1                 0.0000
      8 ****        -3.2649   2.2247  -0.2234 C.3            1 S1                 0.0000
      9 ****        -1.2758   1.2299  -0.9008 C.ar           1 S1                 0.0000
     10 ****        -0.5264   1.6762  -1.9382 N.ar           1 S1                 0.0000
     11 ****         0.8066   1.6924  -1.8395 C.ar           1 S1                 0.0000
     12 ****         1.5727   1.3142  -0.8135 N.ar           1 S1                 0.0000
     13 ****         0.8186   0.8667   0.2313 C.ar           1 S1                 0.0000
     14 ****        -0.6014   0.7898   0.2725 C.ar           1 S1                 0.0000
     15 ****        -1.0152   0.2820   1.4982 N.2            1 S1                 0.0000
     16 ****         0.0977   0.0811   2.1502 C.2            1 S1                 0.0000
     17 ****         1.2459   0.4089   1.4653 N.pl3          1 S1                 0.0000
     18 ****         2.6085   0.2855   1.9545 C.3            1 S1                 0.0000
     19 ****         2.9937   1.3831   2.9788 C.3            1 S1                 0.0000
     20 ****         2.8592   2.7971   2.3558 C.3            1 S1                 0.0000
     21 ****         2.7992   3.8060   3.3415 O.3            1 S1                 0.0000
     22 ****         4.4184   1.1239   3.5435 C.3            1 S1                 0.0000
     23 ****         4.6051  -0.2266   4.2169 C.3            1 S1                 0.0000
     24 ****         5.8711  -0.0164   5.0400 C.3            1 S1                 0.0000
     25 ****         5.8754   1.3598   5.3977 O.3            1 S1                 0.0000
     26 ****         4.8551   2.0502   4.6845 C.3            1 S1                 0.0000
     27 ****        -3.3042  -2.3825  -2.0688 N.4            1 S1                 1.0000
     28 ****        -2.5468  -3.3272  -1.2188 C.3            1 S1                 0.0000
     29 ****        -3.5464  -2.8754  -3.4457 C.3            1 S1                 0.0000
     30 ****        -1.9194  -2.0508  -4.6186 H              1 S1                 0.0000
     31 ****        -1.6146  -1.1475  -2.0841 H              1 S1                 0.0000
     32 ****        -4.1268  -2.5646  -7.4075 H              1 S1                 0.0000
     33 ****        -3.8876  -3.6958  -6.0788 H              1 S1                 0.0000
     34 ****        -2.4988  -2.8622  -6.8000 H              1 S1                 0.0000
     35 ****        -2.3363   0.2195  -3.9321 H              1 S1                 0.0000
     36 ****        -4.0346  -0.1312  -3.6077 H              1 S1                 0.0000
     37 ****        -4.3076   0.0143  -1.1614 H              1 S1                 0.0000
     38 ****        -3.0724  -0.5575  -0.0754 H              1 S1                 0.0000
     39 ****        -2.7428   3.1813  -0.2746 H              1 S1                 0.0000
     40 ****        -3.2927   1.9027   0.8183 H              1 S1                 0.0000
     41 ****        -4.2906   2.3864  -0.5554 H              1 S1                 0.0000
     42 ****         1.3353   2.0632  -2.7054 H              1 S1                 0.0000
     43 ****         0.1132  -0.3110   3.1570 H              1 S1                 0.0000
     44 ****         2.6963  -0.7068   2.3959 H              1 S1                 0.0000
     45 ****         3.2920   0.3056   1.1048 H              1 S1                 0.0000
     46 ****         2.2831   1.3121   3.8041 H              1 S1                 0.0000
     47 ****         3.6847   2.9996   1.6729 H              1 S1                 0.0000
     48 ****         1.9432   2.8946   1.7755 H              1 S1                 0.0000
     49 ****         2.7071   4.6420   2.9104 H              1 S1                 0.0000
     50 ****         5.1468   1.2058   2.7347 H              1 S1                 0.0000
     51 ****         3.7629  -0.4429   4.8760 H              1 S1                 0.0000
     52 ****         4.7093  -1.0524   3.5126 H              1 S1                 0.0000
     53 ****         5.9064  -0.6579   5.9206 H              1 S1                 0.0000
     54 ****         6.7560  -0.2200   4.4360 H              1 S1                 0.0000
     55 ****         5.2203   3.0127   4.3261 H              1 S1                 0.0000
     56 ****         4.0275   2.2353   5.3705 H              1 S1                 0.0000
     57 ****        -1.5580  -3.5251  -1.6348 H              1 S1                 0.0000
     58 ****        -3.0792  -4.2751  -1.1360 H              1 S1                 0.0000
     59 ****        -2.4208  -2.9246  -0.2132 H              1 S1                 0.0000
     60 ****        -4.6256  -2.9557  -3.5810 H              1 S1                 0.0000
     61 ****        -3.1192  -3.8628  -3.6271 H              1 S1                 0.0000
     62 ****        -4.2152  -2.2644  -1.6487 H              1 S1                 0.0000
     63 ****        -4.6812  -1.6114  -5.3613 LP             1 S1                 0.0000
     64 ****        -3.4219  -0.8333  -6.0508 LP             1 S1                 0.0000
     65 ****        -2.7899   1.5221  -2.0024 LP             1 S1                 0.0000
     66 ****        -0.9701   1.9930  -2.7764 LP             1 S1                 0.0000
     67 ****         2.5719   1.3539  -0.8113 LP             1 S1                 0.0000
     68 ****        -1.9500   0.1101   1.8091 LP             1 S1                 0.0000
     69 ****         3.6389   3.7973   3.8845 LP             1 S1                 0.0000
     70 ****         2.0138   3.6467   3.9397 LP             1 S1                 0.0000
     71 ****         6.7646   1.7579   5.1724 LP             1 S1                 0.0000
     72 ****         5.7103   1.4473   6.3801 LP             1 S1                 0.0000
@<TRIPOS>BOND
    1    1    2 1     
    2    1   32 1     
    3    1   33 1     
    4    1   34 1     
    5    2    3 1     
    6    3   30 1     
    7    3   29 1     
    8    3    4 1     
    9    4    5 1     
   10    4   35 1     
   11    4   36 1     
   12    5   31 1     
   13    5    6 1     
   14    5   27 1     
   15    6    7 1     
   16    6   37 1     
   17    6   38 1     
   18    7    8 1     
   19    7    9 1     
   20    8   39 1     
   21    8   40 1     
   22    8   41 1     
   23    9   14 ar    
   24    9   10 ar    
   25   10   11 ar    
   26   11   12 ar    
   27   11   42 1     
   28   12   13 ar    
   29   13   17 1     
   30   13   14 ar    
   31   14   15 1     
   32   15   16 2     
   33   16   17 1     
   34   16   43 1     
   35   17   18 1     
   36   18   19 1     
   37   18   44 1     
   38   18   45 1     
   39   19   20 1     
   40   19   22 1     
   41   19   46 1     
   42   20   21 1     
   43   20   47 1     
   44   20   48 1     
   45   21   49 1     
   46   22   26 1     
   47   22   23 1     
   48   22   50 1     
   49   23   24 1     
   50   23   51 1     
   51   23   52 1     
   52   24   25 1     
   53   24   53 1     
   54   24   54 1     
   55   25   26 1     
   56   26   55 1     
   57   26   56 1     
   58   27   28 1     
   59   27   29 1     
   60   27   62 1     
   61   28   57 1     
   62   28   58 1     
   63   28   59 1     
   64   29   60 1     
   65   29   61 1     
   66    2   63 1     
   67    2   64 1     
   68    7   65 1     
   69   10   66 1     
   70   12   67 1     
   71   15   68 1     
   72   21   69 1     
   73   21   70 1     
   74   25   71 1     
   75   25   72 1     
@<TRIPOS>SUBSTRUCTURE
      1 S1             1
@<TRIPOS>SET
LONE_PAIRS      STATIC     ATOMS    <user>   **** ""
10 63 64 65 66 67 68 69 70 71 72
DONOR_HYDROGENS      STATIC     ATOMS    <user>   **** ""
2 49 62
ATOM$BLUE        STATIC     ATOMS    COLORGROUP SYSTEM
10 63 64 65 66 67 68 69 70 71 72
ATOM$RED        STATIC     ATOMS    COLORGROUP SYSTEM
2 49 62
