AV-unprocessed.smi:1506|AV-procd|sdf|6079|dock5
  -GOLD-   22720 6203D 1   1.00000     0.00000
 Structure written by MMmdl.
 40 42  0  0  0  0  0  0  0  0  2 V2000
  147.1764  134.1295  161.4210 C   0  0  0  0  0  0  0  0  0  0  0  0
  147.9035  134.5795  160.1707 C   0  0  0  0  0  0  0  0  0  0  0  0
  147.9336  133.7553  159.0283 C   0  0  0  0  0  0  0  0  0  0  0  0
  148.6109  134.1835  157.8718 C   0  0  0  0  0  0  0  0  0  0  0  0
  149.2586  135.4338  157.8513 C   0  0  0  0  0  0  0  0  0  0  0  0
  149.2337  136.2731  158.9940 C   0  0  0  0  0  0  0  0  0  0  0  0
  149.8383  137.5103  159.0606 O   0  0  0  0  0  0  0  0  0  0  0  0
  150.5336  137.9817  157.9138 C   0  0  0  0  0  0  0  0  0  0  0  0
  151.8088  138.7104  158.3628 C   0  0  1  0  0  0  0  0  0  0  0  0
  152.7528  137.7427  158.7772 O   0  0  0  0  0  0  0  0  0  0  0  0
  152.4066  139.5938  157.2492 C   0  0  0  0  0  0  0  0  0  0  0  0
  151.8595  140.9582  157.2516 N   0  0  0  0  0  0  0  0  0  0  0  0
  151.1198  141.5955  156.3037 C   0  0  0  0  0  0  0  0  0  0  0  0
  150.8476  142.8472  156.7658 N   0  3  0  0  0  0  0  0  0  0  0  0
  151.4215  143.0134  158.0279 C   0  0  0  0  0  0  0  0  0  0  0  0
  151.4182  144.1036  158.8926 C   0  0  0  0  0  0  0  0  0  0  0  0
  152.1010  143.9432  160.1161 C   0  0  0  0  0  0  0  0  0  0  0  0
  152.7520  142.7356  160.4409 C   0  0  0  0  0  0  0  0  0  0  0  0
  152.7496  141.6369  159.5563 C   0  0  0  0  0  0  0  0  0  0  0  0
  152.0736  141.8032  158.3475 C   0  0  0  0  0  0  0  0  0  0  0  0
  148.5513  135.8314  160.1465 C   0  0  0  0  0  0  0  0  0  0  0  0
  146.9463  133.0641  161.3840 H   0  0  0  0  0  0  0  0  0  0  0  0
  146.2409  134.6786  161.5298 H   0  0  0  0  0  0  0  0  0  0  0  0
  147.7880  134.3128  162.3048 H   0  0  0  0  0  0  0  0  0  0  0  0
  147.4393  132.7949  159.0344 H   0  0  0  0  0  0  0  0  0  0  0  0
  148.6343  133.5509  156.9966 H   0  0  0  0  0  0  0  0  0  0  0  0
  149.7682  135.7250  156.9457 H   0  0  0  0  0  0  0  0  0  0  0  0
  150.8003  137.1333  157.2808 H   0  0  0  0  0  0  0  0  0  0  0  0
  149.9046  138.6562  157.3301 H   0  0  0  0  0  0  0  0  0  0  0  0
  151.5772  139.3297  159.2304 H   0  0  0  0  0  0  0  0  0  0  0  0
  153.0915  137.9957  159.6221 H   0  0  0  0  0  0  0  0  0  0  0  0
  153.4936  139.6377  157.3164 H   0  0  0  0  0  0  0  0  0  0  0  0
  152.1805  139.1633  156.2730 H   0  0  0  0  0  0  0  0  0  0  0  0
  150.8040  141.1817  155.3568 H   0  0  0  0  0  0  0  0  0  0  0  0
  150.9190  145.0294  158.6468 H   0  0  0  0  0  0  0  0  0  0  0  0
  152.1248  144.7626  160.8202 H   0  0  0  0  0  0  0  0  0  0  0  0
  153.2635  142.6496  161.3886 H   0  0  0  0  0  0  0  0  0  0  0  0
  153.2488  140.7163  159.8189 H   0  0  0  0  0  0  0  0  0  0  0  0
  148.5254  136.4627  161.0228 H   0  0  0  0  0  0  0  0  0  0  0  0
  150.3076  143.5346  156.2559 H   0  0  0  0  0  0  0  0  0  0  0  0
  1  2  1  0  0  0  0
  1 22  1  0  0  0  0
  1 23  1  0  0  0  0
  1 24  1  0  0  0  0
  2 21  1  0  0  0  0
  2  3  2  0  0  0  0
  3  4  1  0  0  0  0
  3 25  1  0  0  0  0
  4  5  2  0  0  0  0
  4 26  1  0  0  0  0
  5  6  1  0  0  0  0
  5 27  1  0  0  0  0
  6  7  1  0  0  0  0
  6 21  2  0  0  0  0
  7  8  1  0  0  0  0
  8  9  1  0  0  0  0
  8 28  1  0  0  0  0
  8 29  1  0  0  0  0
  9 10  1  0  0  0  0
  9 11  1  0  0  0  0
  9 30  1  0  0  0  0
 10 31  1  0  0  0  0
 11 12  1  0  0  0  0
 11 32  1  0  0  0  0
 11 33  1  0  0  0  0
 12 20  1  0  0  0  0
 12 13  1  0  0  0  0
 13 14  2  0  0  0  0
 13 34  1  0  0  0  0
 14 15  1  0  0  0  0
 14 40  1  0  0  0  0
 15 20  2  0  0  0  0
 15 16  1  0  0  0  0
 16 17  2  0  0  0  0
 16 35  1  0  0  0  0
 17 18  1  0  0  0  0
 17 36  1  0  0  0  0
 18 19  2  0  0  0  0
 18 37  1  0  0  0  0
 19 20  1  0  0  0  0
 19 38  1  0  0  0  0
 21 39  1  0  0  0  0
M  CHG  1  14   1
M  END
> <s_m_source_file>
AV-unprocessed.smi

> <i_m_source_file_index>
1506

> <i_lp_mmshare_version>
43012

> <i_f3d_flags>
0

> <s_epik_input>
W0NIM11jMVtjSF1bY0hdW2NIXWMoW2NIXTEpT1tDSDJdW0NASF0oW09IXSlbQ0gyXW4oW2NIXW4yKWMoYzIzKVtjSF1bY0hdW2NIXVtjSF0z

> <s_epik_cmdline>
J2VwaWtfcHl0aG9uJywgJy1waCcsICc3LjAnLCAnLXRuJywgJzgnLCAnLW1hJywgJzIwMCcsICctbWV0YWxfYmluZGluZycsICctaW1hZScsICc8aW5maWxlLm1hZT4nLCAnLW9tYWUnLCAnPG91dGZpbGUubWFlPic=

> <r_lp_tautomer_probability>
1

> <r_epik_Ionization_Penalty>
1.37864

> <r_epik_Ionization_Penalty_Charging>
1.37864

> <r_epik_Ionization_Penalty_Neutral>
2.3993e-06

> <r_epik_State_Penalty>
1.45896

> <r_epik_Charging_Adjusted_Penalty>
2.8376

> <i_epik_Tot_Q>
1

> <i_epik_Tot_abs_Q>
1

> <r_epik_Metal_State_Penalty>
5.49899

> <b_epik_Metal_Only>
0

> <s_lp_Force_Field>
OPLS_2005

> <r_lp_Energy>
20.0977

> <b_lp_Chiralities_Consistent>
1

> <s_lp_Variant>
AV-unprocessed.smi:1506-4

> <Gold.Version>
5.8.1

> <Gold.Id.Protein>
6NUR|6NUR_protein|mol2

> <Gold.PLP.Fitness>
48.6768

> <Gold.PLP.PLP>
-44.1312

> <Gold.PLP.part.hbond>
-2.1371

> <Gold.PLP.part.metal>
0.0000

> <Gold.PLP.part.buried>
-5.3543

> <Gold.PLP.part.nonpolar>
-36.7054

> <Gold.PLP.part.repulsive>
0.0261

> <Gold.PLP.ligand.clash>
0.0000

> <Gold.PLP.ligand.torsion>
0.7642

> <Gold.PLP.Chemscore.Hbond>
2.0049

> <Gold.PLP.Chemscore.CHOScore>
0.0000

> <Gold.PLP.Chemscore.Metal>
0.0000

> <Gold.Chemscore.Hbonds>
donor molecule, donor type, donor heavy atom, donor atom, acceptor molecule, acceptor atom, score
      L1  H    14    40       P1  8028  2.00

> <Gold.PLP.Chemscore.Internal.Correction>
0.0595

> <Gold.Rescore>
     Score         DG    S(hbond)    S(metal)    S(lipo)     H(rot)  DE(clash)    DE(int)     intcor
     16.41     -17.35       1.00        0.00     122.54       2.27       0.16       0.78       ----

> <Gold.Chemscore.Fitness>
16.4054

> <Gold.Chemscore.DG>
-17.3450

> <Gold.Chemscore.ZeroCoef>
-5.4800

> <Gold.Chemscore.Hbond>
1.0016

> <Gold.Chemscore.Metal>
0.0000

> <Gold.Chemscore.Lipo>
122.5368

> <Gold.Chemscore.Internal_Hbond>
0.0000

> <Gold.Chemscore.DEClash>
0.1569

> <Gold.Chemscore.DEInternal>
0.7827

> <Gold.Chemscore.Rot>
2.2723

> <Gold.Chemscore.Internal.Correction>
   9.000000E+99

> <Gold.Chemscore.Hbonds>
donor molecule, donor type, donor heavy atom, donor atom, acceptor molecule, acceptor atom, score
      L1  H    14    40       P1  8028  0.99

> <Gold.Chemscore.Hbond.Weighted>
-3.3452

> <Gold.Chemscore.Metal.Weighted>
-0.0000

> <Gold.Chemscore.Lipo.Weighted>
-14.3368

> <Gold.Chemscore.Internal_Hbond.Weighted>
0.0000

> <Gold.Chemscore.DEClash.Weighted>
0.1569

> <Gold.Chemscore.DEInternal.Weighted>
0.7827

> <Gold.Chemscore.Rot.Weighted>
5.8170

> <Gold.Chemscore.Internal.Correction.Weighted>
   9.000000E+99

> <Gold.Protein.RotatedTorsions>
[ 6907 6896 6895 6894 ] final   97.51 input  -60.11 | X-H torsion
[ 7974 7965 7964 7962 ] final   33.53 input  175.53 | X-H torsion
[ 8008 7997 7996 7995 ] final    8.61 input   59.86 | X-H torsion
[ 10167 10162 10161 10158 ] final -145.60 input  -65.29 | X-H torsion
[ 10718 10713 10712 10709 ] final   19.33 input   66.30 | X-H torsion
[ 10763 10752 10751 10750 ] final  -34.51 input  -60.55 | X-H torsion
[ 11005 11000 10999 10996 ] final  -52.18 input  -57.11 | X-H torsion

> <Gold.Protein.ActiveResidues>
 VAL166  LYS551  ARG553  GLY616  TRP617  ASP618  TYR619  PRO620  LYS621  CYS622 
 ASP623  PHE694  ASN695  SER759  ASP760  ASP761  ALA762  ILE779  LEU786  VAL792 
 PHE793  MET794  SER795  GLU796  ALA797  LYS798  CYS799  TRP800  GLU811  SER814 

> <Gold.Protein.RotatedAtoms>
  152.5422  134.0722  159.8198 H   0  0  0  0  0  0  0  0  0  0  0  0  # atno 6907 bound_to 6896
  151.0835  133.5364  159.2626 H   0  0  0  0  0  0  0  0  0  0  0  0  # atno 6908 bound_to 6896
  151.2182  135.0517  159.8993 H   0  0  0  0  0  0  0  0  0  0  0  0  # atno 6909 bound_to 6896
  146.1414  139.6385  142.9160 H   0  0  0  0  0  0  0  0  0  0  0  0  # atno 7974 bound_to 7965
  154.7691  140.2798  155.6152 H   0  0  0  0  0  0  0  0  0  0  0  0  # atno 8008 bound_to 7997
  156.2930  140.2645  156.2417 H   0  0  0  0  0  0  0  0  0  0  0  0  # atno 8009 bound_to 7997
  154.9922  140.0373  157.2314 H   0  0  0  0  0  0  0  0  0  0  0  0  # atno 8010 bound_to 7997
  139.7791  143.8127  152.2636 H   0  0  0  0  0  0  0  0  0  0  0  0  # atno 10167 bound_to 10162
  157.1089  130.6500  149.5892 H   0  0  0  0  0  0  0  0  0  0  0  0  # atno 10718 bound_to 10713
  153.8478  135.6851  153.4795 H   0  0  0  0  0  0  0  0  0  0  0  0  # atno 10763 bound_to 10752
  153.1415  135.4655  154.9500 H   0  0  0  0  0  0  0  0  0  0  0  0  # atno 10764 bound_to 10752
  154.7816  135.3270  154.7925 H   0  0  0  0  0  0  0  0  0  0  0  0  # atno 10765 bound_to 10752
  141.0911  133.6632  156.3986 H   0  0  0  0  0  0  0  0  0  0  0  0  # atno 11005 bound_to 11000
  145.5037  141.0437  143.2526 LP  0  0  0  0  0  0  0  0  0  0  0  0  # atno 17320 bound_to 7965
  144.7797  139.6552  143.7159 LP  0  0  0  0  0  0  0  0  0  0  0  0  # atno 17321 bound_to 7965
  139.8184  144.7306  150.9604 LP  0  0  0  0  0  0  0  0  0  0  0  0  # atno 17342 bound_to 10162
  140.7817  143.4182  151.0883 LP  0  0  0  0  0  0  0  0  0  0  0  0  # atno 17343 bound_to 10162
  155.9855  130.4885  150.7035 LP  0  0  0  0  0  0  0  0  0  0  0  0  # atno 17370 bound_to 10713
  157.4576  131.0879  151.0780 LP  0  0  0  0  0  0  0  0  0  0  0  0  # atno 17371 bound_to 10713
  140.5250  134.6267  157.5331 LP  0  0  0  0  0  0  0  0  0  0  0  0  # atno 17394 bound_to 11000
  139.9737  134.7251  155.9992 LP  0  0  0  0  0  0  0  0  0  0  0  0  # atno 17395 bound_to 11000

$$$$
