AV-unprocessed.smi:99|AV-procd|sdf|894|dock3
  -GOLD-   2262017383D 1   1.00000     0.00000
 Structure written by MMmdl.
 52 55  0  0  0  0  0  0  0  0  2 V2000
  145.2552  136.5782  152.6788 O   0  0  0  0  0  0  0  0  0  0  0  0
  145.7952  135.4753  152.7842 C   0  0  0  0  0  0  0  0  0  0  0  0
  146.6260  135.1432  153.7901 O   0  0  0  0  0  0  0  0  0  0  0  0
  146.8010  136.0081  154.9006 C   0  0  0  0  0  0  0  0  0  0  0  0
  147.8258  135.3807  155.8537 C   0  0  1  0  0  0  0  0  0  0  0  0
  149.0930  135.2601  155.2120 O   0  0  0  0  0  0  0  0  0  0  0  0
  150.1297  135.4055  156.1447 C   0  0  1  0  0  0  0  0  0  0  0  0
  151.0116  136.5649  155.7333 N   0  0  0  0  0  0  0  0  0  0  0  0
  150.7454  137.2923  154.5848 C   0  0  0  0  0  0  0  0  0  0  0  0
  151.5186  138.3351  154.2189 C   0  0  0  0  0  0  0  0  0  0  0  0
  152.6589  138.7090  155.0510 C   0  0  0  0  0  0  0  0  0  0  0  0
  153.3640  139.6546  154.7046 O   0  0  0  0  0  0  0  0  0  0  0  0
  152.8903  137.9873  156.1854 N   0  5  0  0  0  0  0  0  0  0  0  0
  152.1056  136.9358  156.5619 C   0  0  0  0  0  0  0  0  0  0  0  0
  152.2933  136.2917  157.5943 O   0  0  0  0  0  0  0  0  0  0  0  0
  149.4940  135.6859  157.5152 C   0  0  2  0  0  0  0  0  0  0  0  0
  149.4080  134.4888  158.2664 O   0  0  0  0  0  0  0  0  0  0  0  0
  148.1316  136.2131  157.0978 C   0  0  2  0  0  0  0  0  0  0  0  0
  147.1715  136.0961  158.1437 O   0  0  0  0  0  0  0  0  0  0  0  0
  147.3731  136.6761  159.3473 C   0  0  0  0  0  0  0  0  0  0  0  0
  148.0217  137.7114  159.5119 O   0  0  0  0  0  0  0  0  0  0  0  0
  146.6907  135.9533  160.4581 C   0  0  0  0  0  0  0  0  0  0  0  0
  145.5303  135.1938  160.1799 C   0  0  0  0  0  0  0  0  0  0  0  0
  144.8791  134.4781  161.2031 C   0  0  0  0  0  0  0  0  0  0  0  0
  145.3796  134.5151  162.5176 C   0  0  0  0  0  0  0  0  0  0  0  0
  146.5310  135.2697  162.8078 C   0  0  0  0  0  0  0  0  0  0  0  0
  147.1844  135.9853  161.7856 C   0  0  0  0  0  0  0  0  0  0  0  0
  145.5812  134.3551  151.8227 C   0  0  0  0  0  0  0  0  0  0  0  0
  144.7287  134.5475  150.7109 C   0  0  0  0  0  0  0  0  0  0  0  0
  144.4913  133.5000  149.7996 C   0  0  0  0  0  0  0  0  0  0  0  0
  145.1030  132.2471  149.9889 C   0  0  0  0  0  0  0  0  0  0  0  0
  145.9566  132.0440  151.0885 C   0  0  0  0  0  0  0  0  0  0  0  0
  146.1973  133.0911  151.9989 C   0  0  0  0  0  0  0  0  0  0  0  0
  147.1588  136.9733  154.5410 H   0  0  0  0  0  0  0  0  0  0  0  0
  145.8591  136.1790  155.4240 H   0  0  0  0  0  0  0  0  0  0  0  0
  147.5093  134.3766  156.1416 H   0  0  0  0  0  0  0  0  0  0  0  0
  150.7676  134.5204  156.1160 H   0  0  0  0  0  0  0  0  0  0  0  0
  149.9021  137.0351  153.9622 H   0  0  0  0  0  0  0  0  0  0  0  0
  151.2954  138.8918  153.3206 H   0  0  0  0  0  0  0  0  0  0  0  0
  150.0669  136.4196  158.0837 H   0  0  0  0  0  0  0  0  0  0  0  0
  148.5253  134.1585  158.2020 H   0  0  0  0  0  0  0  0  0  0  0  0
  148.2649  137.2534  156.7975 H   0  0  0  0  0  0  0  0  0  0  0  0
  145.1319  135.1439  159.1767 H   0  0  0  0  0  0  0  0  0  0  0  0
  143.9970  133.8974  160.9772 H   0  0  0  0  0  0  0  0  0  0  0  0
  144.8811  133.9649  163.3021 H   0  0  0  0  0  0  0  0  0  0  0  0
  146.9163  135.2988  163.8164 H   0  0  0  0  0  0  0  0  0  0  0  0
  148.0684  136.5513  162.0414 H   0  0  0  0  0  0  0  0  0  0  0  0
  144.2429  135.4988  150.5482 H   0  0  0  0  0  0  0  0  0  0  0  0
  143.8359  133.6578  148.9556 H   0  0  0  0  0  0  0  0  0  0  0  0
  144.9174  131.4430  149.2921 H   0  0  0  0  0  0  0  0  0  0  0  0
  146.4242  131.0821  151.2385 H   0  0  0  0  0  0  0  0  0  0  0  0
  146.8529  132.8981  152.8355 H   0  0  0  0  0  0  0  0  0  0  0  0
  1  2  2  0  0  0  0
  2  3  1  0  0  0  0
  2 28  1  0  0  0  0
  3  4  1  0  0  0  0
  4  5  1  0  0  0  0
  4 34  1  0  0  0  0
  4 35  1  0  0  0  0
  5 18  1  0  0  0  0
  5  6  1  0  0  0  0
  5 36  1  0  0  0  0
  6  7  1  0  0  0  0
  7  8  1  0  0  0  0
  7 16  1  0  0  0  0
  7 37  1  0  0  0  0
  8 14  1  0  0  0  0
  8  9  1  0  0  0  0
  9 10  2  0  0  0  0
  9 38  1  0  0  0  0
 10 11  1  0  0  0  0
 10 39  1  0  0  0  0
 11 12  2  0  0  0  0
 11 13  1  0  0  0  0
 13 14  1  0  0  0  0
 14 15  2  0  0  0  0
 16 17  1  0  0  0  0
 16 18  1  0  0  0  0
 16 40  1  0  0  0  0
 17 41  1  0  0  0  0
 18 19  1  0  0  0  0
 18 42  1  0  0  0  0
 19 20  1  0  0  0  0
 20 21  2  0  0  0  0
 20 22  1  0  0  0  0
 22 27  1  0  0  0  0
 22 23  2  0  0  0  0
 23 24  1  0  0  0  0
 23 43  1  0  0  0  0
 24 25  2  0  0  0  0
 24 44  1  0  0  0  0
 25 26  1  0  0  0  0
 25 45  1  0  0  0  0
 26 27  2  0  0  0  0
 26 46  1  0  0  0  0
 27 47  1  0  0  0  0
 28 33  1  0  0  0  0
 28 29  2  0  0  0  0
 29 30  1  0  0  0  0
 29 48  1  0  0  0  0
 30 31  2  0  0  0  0
 30 49  1  0  0  0  0
 31 32  1  0  0  0  0
 31 50  1  0  0  0  0
 32 33  2  0  0  0  0
 32 51  1  0  0  0  0
 33 52  1  0  0  0  0
M  CHG  1  13  -1
M  END
> <s_m_source_file>
AV-unprocessed.smi

> <i_m_source_file_index>
99

> <i_lp_mmshare_version>
43012

> <i_f3d_flags>
0

> <s_epik_input>
W2NIXTFbY0hdW2NIXVtjSF1bY0hdYzFDKD1PKU9bQ0gyXVtDQEBIXTJPW0NAQEhdKG4zW2NIXVtjSF1jKD1PKVtuSF1jMz1PKVtDQEBIXShbT0hdKVtDQEhdMk9DKD1PKWM0W2NIXVtjSF1bY0hdW2NIXVtjSF00

> <s_epik_cmdline>
J2VwaWtfcHl0aG9uJywgJy1waCcsICc3LjAnLCAnLXRuJywgJzgnLCAnLW1hJywgJzIwMCcsICctbWV0YWxfYmluZGluZycsICctaW1hZScsICc8aW5maWxlLm1hZT4nLCAnLW9tYWUnLCAnPG91dGZpbGUubWFlPic=

> <r_lp_tautomer_probability>
1

> <r_epik_Ionization_Penalty>
2.89159

> <r_epik_Ionization_Penalty_Charging>
2.1077e-08

> <r_epik_Ionization_Penalty_Neutral>
2.89159

> <r_epik_State_Penalty>
2.88671

> <r_epik_Charging_Adjusted_Penalty>
2.88671

> <i_epik_Tot_Q>
-1

> <i_epik_Tot_abs_Q>
1

> <r_epik_Metal_State_Penalty>
0.0727308

> <b_epik_Metal_Only>
1

> <s_epik_Chemistry_Notes>
This compound has an ester and may undergo hydrolysis at high or low pH. This compound contains an acetal/aminal-like group ( X-CH(R)-Y where X, Y are N, S, or O) that may be acid/base labile, releasing an aldehyde.

> <s_lp_Force_Field>
OPLS_2005

> <r_lp_Energy>
45.2634

> <b_lp_Chiralities_Consistent>
1

> <s_lp_Variant>
AV-unprocessed.smi:99-30

> <Gold.Version>
5.8.1

> <Gold.Id.Protein>
6NUR|6NUR_protein|mol2

> <Gold.PLP.Fitness>
54.5571

> <Gold.PLP.PLP>
-45.9461

> <Gold.PLP.part.hbond>
-4.8410

> <Gold.PLP.part.metal>
0.0000

> <Gold.PLP.part.buried>
-6.7971

> <Gold.PLP.part.nonpolar>
-35.2833

> <Gold.PLP.part.repulsive>
0.3798

> <Gold.PLP.ligand.clash>
0.0000

> <Gold.PLP.ligand.torsion>
0.8012

> <Gold.PLP.Chemscore.Hbond>
2.3713

> <Gold.PLP.Chemscore.CHOScore>
1.0000

> <Gold.PLP.Chemscore.Metal>
0.0000

> <Gold.Chemscore.Hbonds>
donor molecule, donor type, donor heavy atom, donor atom, acceptor molecule, acceptor atom, score
      P1  H  6896  6909       L1    17  1.00
      P1  H  6934  6947       L1    21  0.42
      P1  H  7989  7998       L1    12  0.02
      P1  H  7997  8010       L1    12  1.00
      L1  C     9    38       P1  7948  1.00

> <Gold.PLP.Chemscore.Internal.Correction>
0.0996

> <Gold.Rescore>
     Score         DG    S(hbond)    S(metal)    S(lipo)     H(rot)  DE(clash)    DE(int)     intcor
     16.43     -18.41       2.67        0.00     102.91       3.13       0.07       1.91       ----

> <Gold.Chemscore.Fitness>
16.4307

> <Gold.Chemscore.DG>
-18.4099

> <Gold.Chemscore.ZeroCoef>
-5.4800

> <Gold.Chemscore.Hbond>
2.6687

> <Gold.Chemscore.Metal>
0.0000

> <Gold.Chemscore.Lipo>
102.9138

> <Gold.Chemscore.Internal_Hbond>
0.0000

> <Gold.Chemscore.DEClash>
0.0652

> <Gold.Chemscore.DEInternal>
1.9140

> <Gold.Chemscore.Rot>
3.1346

> <Gold.Chemscore.Internal.Correction>
   9.000000E+99

> <Gold.Chemscore.Hbonds>
donor molecule, donor type, donor heavy atom, donor atom, acceptor molecule, acceptor atom, score
      P1  H  6896  6909       L1    17  0.98
      P1  H  6934  6947       L1    21  0.37
      P1  H  7989  7998       L1    12  0.01
      P1  H  7997  8010       L1    12  0.99

> <Gold.Chemscore.Hbond.Weighted>
-8.9135

> <Gold.Chemscore.Metal.Weighted>
-0.0000

> <Gold.Chemscore.Lipo.Weighted>
-12.0409

> <Gold.Chemscore.Internal_Hbond.Weighted>
0.0000

> <Gold.Chemscore.DEClash.Weighted>
0.0652

> <Gold.Chemscore.DEInternal.Weighted>
1.9140

> <Gold.Chemscore.Rot.Weighted>
8.0246

> <Gold.Chemscore.Internal.Correction.Weighted>
   9.000000E+99

> <Gold.Protein.RotatedTorsions>
[ 6907 6896 6895 6894 ] final   18.10 input  -60.11 | X-H torsion
[ 7974 7965 7964 7962 ] final   13.02 input  175.53 | X-H torsion
[ 8008 7997 7996 7995 ] final  127.23 input   59.86 | X-H torsion
[ 10167 10162 10161 10158 ] final  157.51 input  -65.29 | X-H torsion
[ 10718 10713 10712 10709 ] final -102.08 input   66.30 | X-H torsion
[ 10763 10752 10751 10750 ] final  -40.55 input  -60.55 | X-H torsion
[ 11005 11000 10999 10996 ] final  -20.09 input  -57.11 | X-H torsion

> <Gold.Protein.ActiveResidues>
 VAL166  LYS551  ARG553  GLY616  TRP617  ASP618  TYR619  PRO620  LYS621  CYS622 
 ASP623  PHE694  ASN695  SER759  ASP760  ASP761  ALA762  ILE779  LEU786  VAL792 
 PHE793  MET794  SER795  GLU796  ALA797  LYS798  CYS799  TRP800  GLU811  SER814 

> <Gold.Protein.RotatedAtoms>
  151.8600  135.0527  160.0468 H   0  0  0  0  0  0  0  0  0  0  0  0  # atno 6907 bound_to 6896
  152.2670  133.5343  159.5424 H   0  0  0  0  0  0  0  0  0  0  0  0  # atno 6908 bound_to 6896
  150.7137  134.0667  159.3892 H   0  0  0  0  0  0  0  0  0  0  0  0  # atno 6909 bound_to 6896
  146.2339  139.9251  142.8504 H   0  0  0  0  0  0  0  0  0  0  0  0  # atno 7974 bound_to 7965
  156.2885  140.2674  156.2239 H   0  0  0  0  0  0  0  0  0  0  0  0  # atno 8008 bound_to 7997
  155.0140  140.0387  157.2429 H   0  0  0  0  0  0  0  0  0  0  0  0  # atno 8009 bound_to 7997
  154.7493  140.2740  155.6311 H   0  0  0  0  0  0  0  0  0  0  0  0  # atno 8010 bound_to 7997
  139.4823  144.4910  151.8308 H   0  0  0  0  0  0  0  0  0  0  0  0  # atno 10167 bound_to 10162
  156.0216  130.5403  150.7057 H   0  0  0  0  0  0  0  0  0  0  0  0  # atno 10718 bound_to 10713
  153.9478  135.6754  153.4744 H   0  0  0  0  0  0  0  0  0  0  0  0  # atno 10763 bound_to 10752
  153.0899  135.4880  154.8667 H   0  0  0  0  0  0  0  0  0  0  0  0  # atno 10764 bound_to 10752
  154.7342  135.3145  154.8799 H   0  0  0  0  0  0  0  0  0  0  0  0  # atno 10765 bound_to 10752
  140.8431  133.7912  155.9882 H   0  0  0  0  0  0  0  0  0  0  0  0  # atno 11005 bound_to 11000
  145.2099  140.9891  143.4106 LP  0  0  0  0  0  0  0  0  0  0  0  0  # atno 17320 bound_to 7965
  144.9700  139.3890  143.6313 LP  0  0  0  0  0  0  0  0  0  0  0  0  # atno 17321 bound_to 7965
  140.4395  144.2006  150.5890 LP  0  0  0  0  0  0  0  0  0  0  0  0  # atno 17342 bound_to 10162
  140.4698  143.2417  151.9105 LP  0  0  0  0  0  0  0  0  0  0  0  0  # atno 17343 bound_to 10162
  157.4707  131.0893  151.0645 LP  0  0  0  0  0  0  0  0  0  0  0  0  # atno 17370 bound_to 10713
  157.1107  130.6020  149.5481 LP  0  0  0  0  0  0  0  0  0  0  0  0  # atno 17371 bound_to 10713
  140.8873  134.2538  157.5113 LP  0  0  0  0  0  0  0  0  0  0  0  0  # atno 17394 bound_to 11000
  139.8703  134.9644  156.4495 LP  0  0  0  0  0  0  0  0  0  0  0  0  # atno 17395 bound_to 11000

$$$$
