#       Name:                AV-unprocessed.smi:3080
#       Creating user name   scv26
#       Creation time:       Fri Mar 27 17:13:40 2020


#       File generated by GOLD software.
#

@<TRIPOS>MOLECULE
AV-unprocessed.smi:3080
    28    29     1
SMALL
NO_CHARGES


@<TRIPOS>ATOM
      1 ****        -2.7289   3.6230   0.4087 C.ar           1 S1                 0.0000
      2 ****        -2.6252   3.0381  -0.8681 C.ar           1 S1                 0.0000
      3 ****        -2.1071   1.7327  -0.9761 C.ar           1 S1                 0.0000
      4 ****        -1.7155   1.0659   0.2044 C.ar           1 S1                 0.0000
      5 ****        -1.1443  -0.3382   0.1499 C.3            1 S1                 0.0000
      6 ****         0.3855  -0.3467   0.2746 C.3            1 S1                 0.0000
      7 ****         0.9164  -1.7216   0.2184 N.4            1 S1                 1.0000
      8 ****         2.3866  -1.7906   0.3198 C.3            1 S1                 0.0000
      9 ****         3.0886  -1.8434  -1.0151 C.3            1 S1                 0.0000
     10 ****         2.9560  -3.0970  -0.1753 C.3            1 S1                 0.0000
     11 ****        -1.8105   1.6217   1.4331 N.ar           1 S1                 0.0000
     12 ****        -2.3088   2.8739   1.5257 C.ar           1 S1                 0.0000
     13 ****        -3.1213   4.6221   0.5293 H              1 S1                 0.0000
     14 ****        -2.9365   3.5809  -1.7483 H              1 S1                 0.0000
     15 ****        -2.0139   1.2593  -1.9426 H              1 S1                 0.0000
     16 ****        -1.5890  -0.9301   0.9514 H              1 S1                 0.0000
     17 ****        -1.4461  -0.8123  -0.7851 H              1 S1                 0.0000
     18 ****         0.8293   0.2410  -0.5303 H              1 S1                 0.0000
     19 ****         0.6886   0.1136   1.2161 H              1 S1                 0.0000
     20 ****         0.5176  -2.2496   0.9817 H              1 S1                 0.0000
     21 ****         2.8378  -1.2918   1.1758 H              1 S1                 0.0000
     22 ****         2.4842  -1.7758  -1.9179 H              1 S1                 0.0000
     23 ****         4.0753  -1.3897  -1.0816 H              1 S1                 0.0000
     24 ****         3.8573  -3.4683   0.3086 H              1 S1                 0.0000
     25 ****         2.2659  -3.8636  -0.5235 H              1 S1                 0.0000
     26 ****        -2.3735   3.2916   2.5196 H              1 S1                 0.0000
     27 ****         0.6316  -2.1459  -0.6527 H              1 S1                 0.0000
     28 ****        -1.5207   1.1210   2.2487 LP             1 S1                 0.0000
@<TRIPOS>BOND
    1    1   12 ar    
    2    1    2 ar    
    3    1   13 1     
    4    2    3 ar    
    5    2   14 1     
    6    3    4 ar    
    7    3   15 1     
    8    4    5 1     
    9    4   11 ar    
   10    5    6 1     
   11    5   16 1     
   12    5   17 1     
   13    6    7 1     
   14    6   18 1     
   15    6   19 1     
   16    7    8 1     
   17    7   20 1     
   18    7   27 1     
   19    8   10 1     
   20    8    9 1     
   21    8   21 1     
   22    9   10 1     
   23    9   22 1     
   24    9   23 1     
   25   10   24 1     
   26   10   25 1     
   27   11   12 ar    
   28   12   26 1     
   29   11   28 1     
@<TRIPOS>SUBSTRUCTURE
      1 S1             1
@<TRIPOS>SET
LONE_PAIRS      STATIC     ATOMS    <user>   **** ""
1 28
DONOR_HYDROGENS      STATIC     ATOMS    <user>   **** ""
2 20 27
ATOM$BLUE        STATIC     ATOMS    COLORGROUP SYSTEM
1 28
ATOM$RED        STATIC     ATOMS    COLORGROUP SYSTEM
2 20 27
