AV-unprocessed.smi:2031|AV-procd|sdf|8230|dock4
  -GOLD-   2272010503D 1   1.00000     0.00000
 Structure written by MMmdl.
 41 42  0  0  0  0  0  0  0  0  3 V2000
  153.2043  137.2742  156.9759 C   0  0  0  0  0  0  0  0  0  0  0  0
  152.3619  138.0388  156.0135 C   0  0  0  0  0  0  0  0  0  0  0  0
  151.1908  137.7530  155.3702 C   0  0  0  0  0  0  0  0  0  0  0  0
  150.9496  138.9254  154.6053 C   0  0  0  0  0  0  0  0  0  0  0  0
  149.8006  139.0248  153.7766 N   0  0  0  0  0  0  0  0  0  0  0  0
  148.5097  138.8201  154.0969 C   0  0  0  0  0  0  0  0  0  0  0  0
  148.1960  138.4970  155.2487 O   0  0  0  0  0  0  0  0  0  0  0  0
  147.6798  139.0109  153.0343 N   0  5  0  0  0  0  0  0  0  0  0  0
  146.3749  138.3737  152.8643 C   0  0  0  0  0  0  0  0  0  0  0  0
  146.2588  137.1651  153.8126 C   0  0  0  0  0  0  0  0  0  0  0  0
  146.2796  135.8777  153.0606 N   0  3  0  0  0  0  0  0  0  0  0  0
  145.1098  135.6711  152.1644 C   0  0  0  0  0  0  0  0  0  0  0  0
  145.5731  135.1531  150.7921 C   0  0  0  0  0  0  0  0  0  0  0  0
  145.9734  133.6702  150.7655 C   0  0  0  0  0  0  0  0  0  0  0  0
  147.0509  133.2826  151.7918 C   0  0  0  0  0  0  0  0  0  0  0  0
  146.5234  133.3298  153.2348 C   0  0  0  0  0  0  0  0  0  0  0  0
  146.6124  134.7062  153.9239 C   0  0  0  0  0  0  0  0  0  0  0  0
  151.8911  139.8433  154.7671 N   0  0  0  0  0  0  0  0  0  0  0  0
  152.8004  139.2800  155.6702 O   0  0  0  0  0  0  0  0  0  0  0  0
  152.7838  136.2861  157.1633 H   0  0  0  0  0  0  0  0  0  0  0  0
  153.2741  137.7989  157.9288 H   0  0  0  0  0  0  0  0  0  0  0  0
  154.2138  137.1436  156.5859 H   0  0  0  0  0  0  0  0  0  0  0  0
  150.6017  136.8505  155.4376 H   0  0  0  0  0  0  0  0  0  0  0  0
  149.9781  139.2769  152.8157 H   0  0  0  0  0  0  0  0  0  0  0  0
  145.5650  139.0703  153.0825 H   0  0  0  0  0  0  0  0  0  0  0  0
  146.1993  138.0330  151.8431 H   0  0  0  0  0  0  0  0  0  0  0  0
  147.0575  137.1818  154.5561 H   0  0  0  0  0  0  0  0  0  0  0  0
  145.3339  137.2784  154.3786 H   0  0  0  0  0  0  0  0  0  0  0  0
  144.3653  135.0176  152.6209 H   0  0  0  0  0  0  0  0  0  0  0  0
  144.5957  136.6137  151.9776 H   0  0  0  0  0  0  0  0  0  0  0  0
  144.7652  135.2966  150.0737 H   0  0  0  0  0  0  0  0  0  0  0  0
  146.4008  135.7658  150.4313 H   0  0  0  0  0  0  0  0  0  0  0  0
  145.0880  133.0509  150.9148 H   0  0  0  0  0  0  0  0  0  0  0  0
  146.3362  133.4290  149.7656 H   0  0  0  0  0  0  0  0  0  0  0  0
  147.3646  132.2606  151.5759 H   0  0  0  0  0  0  0  0  0  0  0  0
  147.9430  133.9005  151.6799 H   0  0  0  0  0  0  0  0  0  0  0  0
  145.4955  132.9663  153.2603 H   0  0  0  0  0  0  0  0  0  0  0  0
  147.0883  132.6196  153.8396 H   0  0  0  0  0  0  0  0  0  0  0  0
  147.6256  134.8397  154.3045 H   0  0  0  0  0  0  0  0  0  0  0  0
  145.9579  134.6966  154.7966 H   0  0  0  0  0  0  0  0  0  0  0  0
  147.0569  135.9799  152.4237 H   0  0  0  0  0  0  0  0  0  0  0  0
  1  2  1  0  0  0  0
  1 20  1  0  0  0  0
  1 21  1  0  0  0  0
  1 22  1  0  0  0  0
  2 19  1  0  0  0  0
  2  3  2  0  0  0  0
  3  4  1  0  0  0  0
  3 23  1  0  0  0  0
  4  5  1  0  0  0  0
  4 18  2  0  0  0  0
  5  6  1  0  0  0  0
  5 24  1  0  0  0  0
  6  7  2  0  0  0  0
  6  8  1  0  0  0  0
  8  9  1  0  0  0  0
  9 10  1  0  0  0  0
  9 25  1  0  0  0  0
  9 26  1  0  0  0  0
 10 11  1  0  0  0  0
 10 27  1  0  0  0  0
 10 28  1  0  0  0  0
 11 17  1  0  0  0  0
 11 12  1  0  0  0  0
 11 41  1  0  0  0  0
 12 13  1  0  0  0  0
 12 29  1  0  0  0  0
 12 30  1  0  0  0  0
 13 14  1  0  0  0  0
 13 31  1  0  0  0  0
 13 32  1  0  0  0  0
 14 15  1  0  0  0  0
 14 33  1  0  0  0  0
 14 34  1  0  0  0  0
 15 16  1  0  0  0  0
 15 35  1  0  0  0  0
 15 36  1  0  0  0  0
 16 17  1  0  0  0  0
 16 37  1  0  0  0  0
 16 38  1  0  0  0  0
 17 39  1  0  0  0  0
 17 40  1  0  0  0  0
 18 19  1  0  0  0  0
M  CHG  1   8  -1
M  CHG  1  11   1
M  END
> <s_m_source_file>
AV-unprocessed.smi

> <i_m_source_file_index>
2031

> <i_lp_mmshare_version>
43012

> <i_f3d_flags>
0

> <s_epik_input>
W0NIM11jMVtjSF1jKG5vMSlbTkhdQyg9TylbTkhdW0NIMl1bQ0gyXU4yW0NIMl1bQ0gyXVtDSDJdW0NIMl1bQ0gyXVtDSDJdMg==

> <s_epik_cmdline>
J2VwaWtfcHl0aG9uJywgJy1waCcsICc3LjAnLCAnLXRuJywgJzgnLCAnLW1hJywgJzIwMCcsICctbWV0YWxfYmluZGluZycsICctaW1hZScsICc8aW5maWxlLm1hZT4nLCAnLW9tYWUnLCAnPG91dGZpbGUubWFlPic=

> <r_epik_Ionization_Penalty>
6.7666

> <r_epik_Ionization_Penalty_Charging>
6.7666

> <r_epik_Ionization_Penalty_Neutral>
5.77131e-06

> <r_epik_State_Penalty>
6.79217

> <r_epik_Charging_Adjusted_Penalty>
13.5588

> <i_epik_Tot_Q>
0

> <i_epik_Tot_abs_Q>
2

> <r_epik_Metal_State_Penalty>
2.72569

> <b_epik_Metal_Only>
1

> <s_lp_Force_Field>
OPLS_2005

> <r_lp_Energy>
19.0994

> <b_lp_Chiralities_Consistent>
1

> <s_lp_Variant>
AV-unprocessed.smi:2031-3

> <Gold.Version>
5.8.1

> <Gold.Id.Protein>
6NUR|6NUR_protein|mol2

> <Gold.PLP.Fitness>
39.9879

> <Gold.PLP.PLP>
-27.4341

> <Gold.PLP.part.hbond>
-3.7431

> <Gold.PLP.part.metal>
0.0000

> <Gold.PLP.part.buried>
-5.0422

> <Gold.PLP.part.nonpolar>
-19.7985

> <Gold.PLP.part.repulsive>
1.9038

> <Gold.PLP.ligand.clash>
0.0000

> <Gold.PLP.ligand.torsion>
1.1696

> <Gold.PLP.Chemscore.Hbond>
4.9440

> <Gold.PLP.Chemscore.CHOScore>
0.0000

> <Gold.PLP.Chemscore.Metal>
0.0000

> <Gold.Chemscore.Hbonds>
donor molecule, donor type, donor heavy atom, donor atom, acceptor molecule, acceptor atom, score
      L1  H     5    24       P1  7957  1.00
      L1  H    11    41       P1  7948  2.00
      P1  H  7989  7998       L1    18  0.94
      P1  H  7997  8010       L1    19  1.00

> <Gold.PLP.Chemscore.Internal.Correction>
0.0611

> <Gold.Rescore>
     Score         DG    S(hbond)    S(metal)    S(lipo)     H(rot)  DE(clash)    DE(int)     intcor
     17.63     -20.30       3.73        0.00      53.95       1.54       0.10       2.57       ----

> <Gold.Chemscore.Fitness>
17.6316

> <Gold.Chemscore.DG>
-20.3030

> <Gold.Chemscore.ZeroCoef>
-5.4800

> <Gold.Chemscore.Hbond>
3.7291

> <Gold.Chemscore.Metal>
0.0000

> <Gold.Chemscore.Lipo>
53.9515

> <Gold.Chemscore.Internal_Hbond>
0.0000

> <Gold.Chemscore.DEClash>
0.1025

> <Gold.Chemscore.DEInternal>
2.5689

> <Gold.Chemscore.Rot>
1.5409

> <Gold.Chemscore.Internal.Correction>
   9.000000E+99

> <Gold.Chemscore.Hbonds>
donor molecule, donor type, donor heavy atom, donor atom, acceptor molecule, acceptor atom, score
      L1  H     5    24       P1  7957  0.93
      L1  H    11    41       P1  7948  0.97
      P1  H  7989  7998       L1    18  0.41
      P1  H  7997  8010       L1    19  0.98

> <Gold.Chemscore.Hbond.Weighted>
-12.4553

> <Gold.Chemscore.Metal.Weighted>
-0.0000

> <Gold.Chemscore.Lipo.Weighted>
-6.3123

> <Gold.Chemscore.Internal_Hbond.Weighted>
0.0000

> <Gold.Chemscore.DEClash.Weighted>
0.1025

> <Gold.Chemscore.DEInternal.Weighted>
2.5689

> <Gold.Chemscore.Rot.Weighted>
3.9446

> <Gold.Chemscore.Internal.Correction.Weighted>
   9.000000E+99

> <Gold.Protein.RotatedTorsions>
[ 6907 6896 6895 6894 ] final  -53.63 input  -60.11 | X-H torsion
[ 7974 7965 7964 7962 ] final   24.87 input  175.53 | X-H torsion
[ 8008 7997 7996 7995 ] final   92.34 input   59.86 | X-H torsion
[ 10167 10162 10161 10158 ] final    4.50 input  -65.29 | X-H torsion
[ 10718 10713 10712 10709 ] final   73.82 input   66.30 | X-H torsion
[ 10763 10752 10751 10750 ] final -139.02 input  -60.55 | X-H torsion
[ 11005 11000 10999 10996 ] final  -18.90 input  -57.11 | X-H torsion

> <Gold.Protein.ActiveResidues>
 VAL166  LYS551  ARG553  GLY616  TRP617  ASP618  TYR619  PRO620  LYS621  CYS622 
 ASP623  PHE694  ASN695  SER759  ASP760  ASP761  ALA762  ILE779  LEU786  VAL792 
 PHE793  MET794  SER795  GLU796  ALA797  LYS798  CYS799  TRP800  GLU811  SER814 

> <Gold.Protein.RotatedAtoms>
  150.8409  134.7701  159.6931 H   0  0  0  0  0  0  0  0  0  0  0  0  # atno 6907 bound_to 6896
  152.4497  134.5417  159.9851 H   0  0  0  0  0  0  0  0  0  0  0  0  # atno 6908 bound_to 6896
  151.5557  133.3373  159.2997 H   0  0  0  0  0  0  0  0  0  0  0  0  # atno 6909 bound_to 6896
  146.1917  139.7545  142.8827 H   0  0  0  0  0  0  0  0  0  0  0  0  # atno 7974 bound_to 7965
  156.0343  140.3326  155.7173 H   0  0  0  0  0  0  0  0  0  0  0  0  # atno 8008 bound_to 7997
  155.5839  140.0639  157.2794 H   0  0  0  0  0  0  0  0  0  0  0  0  # atno 8009 bound_to 7997
  154.4366  140.1839  156.0993 H   0  0  0  0  0  0  0  0  0  0  0  0  # atno 8010 bound_to 7997
  140.6531  143.7494  150.7608 H   0  0  0  0  0  0  0  0  0  0  0  0  # atno 10167 bound_to 10162
  157.6565  130.9647  150.1123 H   0  0  0  0  0  0  0  0  0  0  0  0  # atno 10718 bound_to 10713
  154.8621  135.3595  154.5478 H   0  0  0  0  0  0  0  0  0  0  0  0  # atno 10763 bound_to 10752
  153.6098  135.7010  153.5356 H   0  0  0  0  0  0  0  0  0  0  0  0  # atno 10764 bound_to 10752
  153.3219  135.4149  155.1385 H   0  0  0  0  0  0  0  0  0  0  0  0  # atno 10765 bound_to 10752
  140.8314  133.7994  155.9763 H   0  0  0  0  0  0  0  0  0  0  0  0  # atno 11005 bound_to 11000
  145.3773  141.0352  143.3197 LP  0  0  0  0  0  0  0  0  0  0  0  0  # atno 17320 bound_to 7965
  144.8499  139.5338  143.6861 LP  0  0  0  0  0  0  0  0  0  0  0  0  # atno 17321 bound_to 7965
  140.1149  143.4665  152.2348 LP  0  0  0  0  0  0  0  0  0  0  0  0  # atno 17342 bound_to 10162
  139.5749  144.7482  151.3791 LP  0  0  0  0  0  0  0  0  0  0  0  0  # atno 17343 bound_to 10162
  156.2016  130.3660  149.8780 LP  0  0  0  0  0  0  0  0  0  0  0  0  # atno 17370 bound_to 10713
  156.6683  130.8810  151.3558 LP  0  0  0  0  0  0  0  0  0  0  0  0  # atno 17371 bound_to 10713
  140.8994  134.2397  157.5050 LP  0  0  0  0  0  0  0  0  0  0  0  0  # atno 17394 bound_to 11000
  139.8705  134.9699  156.4683 LP  0  0  0  0  0  0  0  0  0  0  0  0  # atno 17395 bound_to 11000

$$$$
