AV-unprocessed.smi:33|AV-procd|sdf|214|dock7
  -GOLD-   2262015523D 1   1.00000     0.00000
 Structure written by MMmdl.
 67 72  0  0  0  0  0  0  0  0  1 V2000
  146.1254  135.0727  157.4302 O   0  0  0  0  0  0  0  0  0  0  0  0
  146.4708  134.1310  158.1466 C   0  0  0  0  0  0  0  0  0  0  0  0
  146.8803  132.9429  157.6705 O   0  0  0  0  0  0  0  0  0  0  0  0
  147.2080  132.7862  156.3003 C   0  0  0  0  0  0  0  0  0  0  0  0
  148.1265  133.9490  155.9154 C   0  0  1  0  0  0  0  0  0  0  0  0
  149.1326  134.1397  156.9043 O   0  0  0  0  0  0  0  0  0  0  0  0
  150.2060  134.8363  156.3481 C   0  0  2  0  0  0  0  0  0  0  0  0
  150.2491  136.2357  156.8960 N   0  0  0  0  0  0  0  0  0  0  0  0
  149.3134  136.8159  157.7244 C   0  0  0  0  0  0  0  0  0  0  0  0
  149.5533  138.0510  158.0705 N   0  0  0  0  0  0  0  0  0  0  0  0
  150.7451  138.3506  157.4265 C   0  0  0  0  0  0  0  0  0  0  0  0
  151.5651  139.5082  157.3667 C   0  0  0  0  0  0  0  0  0  0  0  0
  151.2564  140.6533  158.0142 N   0  0  0  0  0  0  0  0  0  0  0  0
  149.9256  141.2206  157.7574 C   0  0  0  0  0  0  0  0  0  0  0  0
  149.3984  141.9450  158.6040 O   0  0  0  0  0  0  0  0  0  0  0  0
  149.1895  140.8918  156.4902 C   0  0  0  0  0  0  0  0  0  0  0  0
  147.8435  140.4682  156.5429 C   0  0  0  0  0  0  0  0  0  0  0  0
  147.1454  140.1746  155.3555 C   0  0  0  0  0  0  0  0  0  0  0  0
  147.7820  140.3219  154.1083 C   0  0  0  0  0  0  0  0  0  0  0  0
  149.1149  140.7711  154.0477 C   0  0  0  0  0  0  0  0  0  0  0  0
  149.8144  141.0628  155.2343 C   0  0  0  0  0  0  0  0  0  0  0  0
  152.2755  141.2085  158.9164 C   0  0  0  0  0  0  0  0  0  0  0  0
  153.1451  140.4679  159.3796 O   0  0  0  0  0  0  0  0  0  0  0  0
  152.2348  142.6555  159.3187 C   0  0  0  0  0  0  0  0  0  0  0  0
  152.1271  143.6591  158.3310 C   0  0  0  0  0  0  0  0  0  0  0  0
  152.0774  145.0172  158.7007 C   0  0  0  0  0  0  0  0  0  0  0  0
  152.1153  145.3793  160.0606 C   0  0  0  0  0  0  0  0  0  0  0  0
  152.1927  144.3825  161.0518 C   0  0  0  0  0  0  0  0  0  0  0  0
  152.2439  143.0241  160.6830 C   0  0  0  0  0  0  0  0  0  0  0  0
  152.7006  139.4556  156.6259 N   0  0  0  0  0  0  0  0  0  0  0  0
  153.0078  138.3326  155.9719 C   0  0  0  0  0  0  0  0  0  0  0  0
  152.3341  137.1810  155.9311 N   0  0  0  0  0  0  0  0  0  0  0  0
  151.1955  137.2241  156.6838 C   0  0  0  0  0  0  0  0  0  0  0  0
  150.0394  134.7932  154.8111 C   0  0  2  0  0  0  0  0  0  0  0  0
  149.6582  136.0269  154.2263 O   0  0  0  0  0  0  0  0  0  0  0  0
  148.9377  133.7590  154.6373 C   0  0  1  0  0  0  0  0  0  0  0  0
  149.4708  132.5361  154.5957 F   0  0  0  0  0  0  0  0  0  0  0  0
  146.4807  134.1850  159.6372 C   0  0  0  0  0  0  0  0  0  0  0  0
  147.6793  133.9091  160.3353 C   0  0  0  0  0  0  0  0  0  0  0  0
  147.7159  133.9555  161.7427 C   0  0  0  0  0  0  0  0  0  0  0  0
  146.5549  134.2797  162.4690 C   0  0  0  0  0  0  0  0  0  0  0  0
  145.3567  134.5585  161.7861 C   0  0  0  0  0  0  0  0  0  0  0  0
  145.3183  134.5120  160.3791 C   0  0  0  0  0  0  0  0  0  0  0  0
  147.7001  131.8288  156.1238 H   0  0  0  0  0  0  0  0  0  0  0  0
  146.2944  132.8106  155.7052 H   0  0  0  0  0  0  0  0  0  0  0  0
  147.5342  134.8582  155.8080 H   0  0  0  0  0  0  0  0  0  0  0  0
  151.1391  134.3867  156.6894 H   0  0  0  0  0  0  0  0  0  0  0  0
  148.4372  136.2859  158.0689 H   0  0  0  0  0  0  0  0  0  0  0  0
  147.3452  140.3521  157.4947 H   0  0  0  0  0  0  0  0  0  0  0  0
  146.1204  139.8373  155.4015 H   0  0  0  0  0  0  0  0  0  0  0  0
  147.2461  140.0970  153.1982 H   0  0  0  0  0  0  0  0  0  0  0  0
  149.6011  140.8935  153.0912 H   0  0  0  0  0  0  0  0  0  0  0  0
  150.8356  141.4119  155.1762 H   0  0  0  0  0  0  0  0  0  0  0  0
  152.0978  143.3927  157.2842 H   0  0  0  0  0  0  0  0  0  0  0  0
  152.0094  145.7809  157.9401 H   0  0  0  0  0  0  0  0  0  0  0  0
  152.0783  146.4210  160.3434 H   0  0  0  0  0  0  0  0  0  0  0  0
  152.2127  144.6595  162.0954 H   0  0  0  0  0  0  0  0  0  0  0  0
  152.2998  142.2675  161.4525 H   0  0  0  0  0  0  0  0  0  0  0  0
  153.9233  138.3598  155.3996 H   0  0  0  0  0  0  0  0  0  0  0  0
  150.9743  134.4709  154.3510 H   0  0  0  0  0  0  0  0  0  0  0  0
  149.4823  135.8830  153.3091 H   0  0  0  0  0  0  0  0  0  0  0  0
  148.3501  133.8887  153.7273 H   0  0  0  0  0  0  0  0  0  0  0  0
  148.5832  133.6584  159.7990 H   0  0  0  0  0  0  0  0  0  0  0  0
  148.6365  133.7422  162.2654 H   0  0  0  0  0  0  0  0  0  0  0  0
  146.5841  134.3162  163.5479 H   0  0  0  0  0  0  0  0  0  0  0  0
  144.4648  134.8105  162.3409 H   0  0  0  0  0  0  0  0  0  0  0  0
  144.3838  134.7357  159.8863 H   0  0  0  0  0  0  0  0  0  0  0  0
  1  2  2  0  0  0  0
  2  3  1  0  0  0  0
  2 38  1  0  0  0  0
  3  4  1  0  0  0  0
  4  5  1  0  0  0  0
  4 44  1  0  0  0  0
  4 45  1  0  0  0  0
  5 36  1  0  0  0  0
  5  6  1  0  0  0  0
  5 46  1  0  0  0  0
  6  7  1  0  0  0  0
  7  8  1  0  0  0  0
  7 34  1  0  0  0  0
  7 47  1  0  0  0  0
  8 33  1  0  0  0  0
  8  9  1  0  0  0  0
  9 10  2  0  0  0  0
  9 48  1  0  0  0  0
 10 11  1  0  0  0  0
 11 33  2  0  0  0  0
 11 12  1  0  0  0  0
 12 13  1  0  0  0  0
 12 30  2  0  0  0  0
 13 14  1  0  0  0  0
 13 22  1  0  0  0  0
 14 15  2  0  0  0  0
 14 16  1  0  0  0  0
 16 21  1  0  0  0  0
 16 17  2  0  0  0  0
 17 18  1  0  0  0  0
 17 49  1  0  0  0  0
 18 19  2  0  0  0  0
 18 50  1  0  0  0  0
 19 20  1  0  0  0  0
 19 51  1  0  0  0  0
 20 21  2  0  0  0  0
 20 52  1  0  0  0  0
 21 53  1  0  0  0  0
 22 23  2  0  0  0  0
 22 24  1  0  0  0  0
 24 29  1  0  0  0  0
 24 25  2  0  0  0  0
 25 26  1  0  0  0  0
 25 54  1  0  0  0  0
 26 27  2  0  0  0  0
 26 55  1  0  0  0  0
 27 28  1  0  0  0  0
 27 56  1  0  0  0  0
 28 29  2  0  0  0  0
 28 57  1  0  0  0  0
 29 58  1  0  0  0  0
 30 31  1  0  0  0  0
 31 32  2  0  0  0  0
 31 59  1  0  0  0  0
 32 33  1  0  0  0  0
 34 35  1  0  0  0  0
 34 36  1  0  0  0  0
 34 60  1  0  0  0  0
 35 61  1  0  0  0  0
 36 37  1  0  0  0  0
 36 62  1  0  0  0  0
 38 43  1  0  0  0  0
 38 39  2  0  0  0  0
 39 40  1  0  0  0  0
 39 63  1  0  0  0  0
 40 41  2  0  0  0  0
 40 64  1  0  0  0  0
 41 42  1  0  0  0  0
 41 65  1  0  0  0  0
 42 43  2  0  0  0  0
 42 66  1  0  0  0  0
 43 67  1  0  0  0  0
M  END
> <s_m_source_file>
AV-unprocessed.smi

> <i_m_source_file_index>
33

> <i_lp_mmshare_version>
43012

> <i_f3d_flags>
0

> <s_epik_input>
W2NIXTFbY0hdW2NIXVtjSF1bY0hdYzFDKD1PKU9bQ0gyXVtDQEBIXTJPW0NASF0oW0NAQEhdKFtPSF0pW0NAQEhdMkYpbihbY0hdbjMpYyhjMzQpbltjSF1uYzROKEMoPU8pYzVbY0hdW2NIXVtjSF1bY0hdW2NIXTUpQyg9TyljNltjSF1bY0hdW2NIXVtjSF1bY0hdNg==

> <s_epik_cmdline>
J2VwaWtfcHl0aG9uJywgJy1waCcsICc3LjAnLCAnLXRuJywgJzgnLCAnLW1hJywgJzIwMCcsICctbWV0YWxfYmluZGluZycsICctaW1hZScsICc8aW5maWxlLm1hZT4nLCAnLW9tYWUnLCAnPG91dGZpbGUubWFlPic=

> <r_lp_tautomer_probability>
1

> <r_epik_Ionization_Penalty>
0.00067664

> <r_epik_Ionization_Penalty_Charging>
0

> <r_epik_Ionization_Penalty_Neutral>
0.00067664

> <r_epik_State_Penalty>
0.000428095

> <r_epik_Charging_Adjusted_Penalty>
0.000428095

> <i_epik_Tot_Q>
0

> <i_epik_Tot_abs_Q>
0

> <r_epik_Metal_State_Penalty>
-0

> <b_epik_Metal_Only>
0

> <s_epik_Chemistry_Notes>
This compound has an ester and may undergo hydrolysis at high or low pH. This compound contains an acetal/aminal-like group ( X-CH(R)-Y where X, Y are N, S, or O) that may be acid/base labile, releasing an aldehyde.

> <s_lp_Force_Field>
OPLS_2005

> <r_lp_Energy>
71.2242

> <b_lp_Chiralities_Consistent>
1

> <s_lp_Variant>
AV-unprocessed.smi:33-16

> <Gold.Version>
5.8.1

> <Gold.Id.Protein>
6NUR|6NUR_protein|mol2

> <Gold.PLP.Fitness>
65.3793

> <Gold.PLP.PLP>
-63.5997

> <Gold.PLP.part.hbond>
-4.0169

> <Gold.PLP.part.metal>
0.0000

> <Gold.PLP.part.buried>
-5.4686

> <Gold.PLP.part.nonpolar>
-53.4559

> <Gold.PLP.part.repulsive>
0.0839

> <Gold.PLP.ligand.clash>
0.0062

> <Gold.PLP.ligand.torsion>
4.6493

> <Gold.PLP.Chemscore.Hbond>
2.2805

> <Gold.PLP.Chemscore.CHOScore>
0.0000

> <Gold.PLP.Chemscore.Metal>
0.0000

> <Gold.Chemscore.Hbonds>
donor molecule, donor type, donor heavy atom, donor atom, acceptor molecule, acceptor atom, score
      L1  H    35    61       P1  7948  1.00
      P1  H  7997  8010       L1    30  0.80
      P1  H 10752 10764       L1    32  0.46

> <Gold.PLP.Chemscore.Internal.Correction>
4.2431

> <Gold.Rescore>
     Score         DG    S(hbond)    S(metal)    S(lipo)     H(rot)  DE(clash)    DE(int)     intcor
     11.33     -21.36       1.22        0.00     156.05       2.52       0.28       9.74       ----

> <Gold.Chemscore.Fitness>
11.3342

> <Gold.Chemscore.DG>
-21.3552

> <Gold.Chemscore.ZeroCoef>
-5.4800

> <Gold.Chemscore.Hbond>
1.2219

> <Gold.Chemscore.Metal>
0.0000

> <Gold.Chemscore.Lipo>
156.0468

> <Gold.Chemscore.Internal_Hbond>
0.0000

> <Gold.Chemscore.DEClash>
0.2819

> <Gold.Chemscore.DEInternal>
9.7391

> <Gold.Chemscore.Rot>
2.5247

> <Gold.Chemscore.Internal.Correction>
   9.000000E+99

> <Gold.Chemscore.Hbonds>
donor molecule, donor type, donor heavy atom, donor atom, acceptor molecule, acceptor atom, score
      L1  H    35    61       P1  7948  0.24
      P1  H  7997  8010       L1    30  0.11
      P1  H 10752 10764       L1    32  0.44

> <Gold.Chemscore.Hbond.Weighted>
-4.0810

> <Gold.Chemscore.Metal.Weighted>
-0.0000

> <Gold.Chemscore.Lipo.Weighted>
-18.2575

> <Gold.Chemscore.Internal_Hbond.Weighted>
0.0000

> <Gold.Chemscore.DEClash.Weighted>
0.2819

> <Gold.Chemscore.DEInternal.Weighted>
9.7391

> <Gold.Chemscore.Rot.Weighted>
6.4633

> <Gold.Chemscore.Internal.Correction.Weighted>
   9.000000E+99

> <Gold.Protein.RotatedTorsions>
[ 6907 6896 6895 6894 ] final   36.52 input  -60.11 | X-H torsion
[ 7974 7965 7964 7962 ] final  -49.05 input  175.53 | X-H torsion
[ 8008 7997 7996 7995 ] final   49.01 input   59.86 | X-H torsion
[ 10167 10162 10161 10158 ] final   44.71 input  -65.29 | X-H torsion
[ 10718 10713 10712 10709 ] final  173.44 input   66.30 | X-H torsion
[ 10763 10752 10751 10750 ] final  -60.42 input  -60.55 | X-H torsion
[ 11005 11000 10999 10996 ] final -117.35 input  -57.11 | X-H torsion

> <Gold.Protein.ActiveResidues>
 VAL166  LYS551  ARG553  GLY616  TRP617  ASP618  TYR619  PRO620  LYS621  CYS622 
 ASP623  PHE694  ASN695  SER759  ASP760  ASP761  ALA762  ILE779  LEU786  VAL792 
 PHE793  MET794  SER795  GLU796  ALA797  LYS798  CYS799  TRP800  GLU811  SER814 

> <Gold.Protein.RotatedAtoms>
  152.1309  134.9136  160.0558 H   0  0  0  0  0  0  0  0  0  0  0  0  # atno 6907 bound_to 6896
  152.0241  133.3905  159.4278 H   0  0  0  0  0  0  0  0  0  0  0  0  # atno 6908 bound_to 6896
  150.6856  134.3515  159.4955 H   0  0  0  0  0  0  0  0  0  0  0  0  # atno 6909 bound_to 6896
  145.9447  140.7629  142.9534 H   0  0  0  0  0  0  0  0  0  0  0  0  # atno 7974 bound_to 7965
  155.3952  140.3435  155.4253 H   0  0  0  0  0  0  0  0  0  0  0  0  # atno 8008 bound_to 7997
  156.1535  140.1578  156.8764 H   0  0  0  0  0  0  0  0  0  0  0  0  # atno 8009 bound_to 7997
  154.5073  140.0799  156.7902 H   0  0  0  0  0  0  0  0  0  0  0  0  # atno 8010 bound_to 7997
  140.3315  144.2583  150.6167 H   0  0  0  0  0  0  0  0  0  0  0  0  # atno 10167 bound_to 10162
  156.9642  131.0070  151.2920 H   0  0  0  0  0  0  0  0  0  0  0  0  # atno 10718 bound_to 10713
  154.2690  135.6294  153.5303 H   0  0  0  0  0  0  0  0  0  0  0  0  # atno 10763 bound_to 10752
  152.9883  135.5605  154.5621 H   0  0  0  0  0  0  0  0  0  0  0  0  # atno 10764 bound_to 10752
  154.5187  135.2881  155.1256 H   0  0  0  0  0  0  0  0  0  0  0  0  # atno 10765 bound_to 10752
  141.0361  133.9908  157.3069 H   0  0  0  0  0  0  0  0  0  0  0  0  # atno 11005 bound_to 11000
  144.6785  140.2337  143.7352 LP  0  0  0  0  0  0  0  0  0  0  0  0  # atno 17320 bound_to 7965
  145.8252  139.2061  143.1915 LP  0  0  0  0  0  0  0  0  0  0  0  0  # atno 17321 bound_to 7965
  140.5393  143.2227  151.8111 LP  0  0  0  0  0  0  0  0  0  0  0  0  # atno 17342 bound_to 10162
  139.4856  144.4621  151.9528 LP  0  0  0  0  0  0  0  0  0  0  0  0  # atno 17343 bound_to 10162
  157.5637  130.8263  149.8299 LP  0  0  0  0  0  0  0  0  0  0  0  0  # atno 17370 bound_to 10713
  156.0309  130.3765  150.1690 LP  0  0  0  0  0  0  0  0  0  0  0  0  # atno 17371 bound_to 10713
  139.9241  135.0201  156.8172 LP  0  0  0  0  0  0  0  0  0  0  0  0  # atno 17394 bound_to 11000
  140.6320  133.9897  155.7666 LP  0  0  0  0  0  0  0  0  0  0  0  0  # atno 17395 bound_to 11000

$$$$
