AV-unprocessed.smi:1484|AV-procd|sdf|5997|dock8
  -GOLD-   22720 6 93D 1   1.00000     0.00000
 Structure written by MMmdl.
 38 39  0  0  0  0  0  0  0  0  1 V2000
  153.9106  133.6566  163.3020 C   0  0  0  0  0  0  0  0  0  0  0  0
  154.6365  135.0029  163.4318 C   0  0  2  0  0  0  0  0  0  0  0  0
  155.9929  134.8450  164.1451 C   0  0  0  0  0  0  0  0  0  0  0  0
  156.7209  136.1917  164.2801 C   0  0  0  0  0  0  0  0  0  0  0  0
  155.8459  137.2328  164.9999 C   0  0  0  0  0  0  0  0  0  0  0  0
  154.4735  137.4070  164.3216 C   0  0  1  0  0  0  0  0  0  0  0  0
  154.6282  138.0864  163.0363 N   0  0  0  0  0  0  0  0  0  0  0  0
  155.1176  139.3229  162.8605 C   0  0  0  0  0  0  0  0  0  0  0  0
  155.4936  140.0384  163.7903 O   0  0  0  0  0  0  0  0  0  0  0  0
  155.1638  139.8232  161.4094 C   0  0  0  0  0  0  0  0  0  0  0  0
  154.1638  140.8590  161.1137 N   0  0  0  0  0  0  0  0  0  0  0  0
  153.9184  141.7262  162.1676 N   0  0  0  0  0  0  0  0  0  0  0  0
  153.0706  142.6884  162.0269 C   0  0  0  0  0  0  0  0  0  0  0  0
  152.8600  143.5258  163.0947 O   0  0  0  0  0  0  0  0  0  0  0  0
  152.3589  142.8829  160.7827 C   0  0  0  0  0  0  0  0  0  0  0  0
  152.6013  142.0302  159.7634 C   0  0  0  0  0  0  0  0  0  0  0  0
  153.5578  140.9288  159.8887 C   0  0  0  0  0  0  0  0  0  0  0  0
  153.7979  140.1378  158.9769 O   0  0  0  0  0  0  0  0  0  0  0  0
  153.7625  136.0453  164.1603 C   0  0  0  0  0  0  0  0  0  0  0  0
  153.0251  144.3968  162.7681 H   0  0  0  0  0  0  0  0  0  0  0  0
  153.6898  133.2287  164.2804 H   0  0  0  0  0  0  0  0  0  0  0  0
  154.5157  132.9355  162.7515 H   0  0  0  0  0  0  0  0  0  0  0  0
  152.9670  133.7700  162.7674 H   0  0  0  0  0  0  0  0  0  0  0  0
  154.8274  135.3661  162.4209 H   0  0  0  0  0  0  0  0  0  0  0  0
  155.8409  134.4145  165.1359 H   0  0  0  0  0  0  0  0  0  0  0  0
  156.6232  134.1433  163.5978 H   0  0  0  0  0  0  0  0  0  0  0  0
  157.6549  136.0537  164.8255 H   0  0  0  0  0  0  0  0  0  0  0  0
  156.9956  136.5593  163.2907 H   0  0  0  0  0  0  0  0  0  0  0  0
  155.6951  136.9151  166.0325 H   0  0  0  0  0  0  0  0  0  0  0  0
  156.3667  138.1896  165.0512 H   0  0  0  0  0  0  0  0  0  0  0  0
  153.8636  138.0427  164.9661 H   0  0  0  0  0  0  0  0  0  0  0  0
  154.3379  137.5736  162.2163 H   0  0  0  0  0  0  0  0  0  0  0  0
  156.1648  140.1972  161.1862 H   0  0  0  0  0  0  0  0  0  0  0  0
  155.0205  138.9638  160.7518 H   0  0  0  0  0  0  0  0  0  0  0  0
  151.6520  143.6929  160.6798 H   0  0  0  0  0  0  0  0  0  0  0  0
  152.0773  142.1633  158.8286 H   0  0  0  0  0  0  0  0  0  0  0  0
  152.8160  136.1748  163.6339 H   0  0  0  0  0  0  0  0  0  0  0  0
  153.5032  135.6653  165.1496 H   0  0  0  0  0  0  0  0  0  0  0  0
  1  2  1  0  0  0  0
  1 21  1  0  0  0  0
  1 22  1  0  0  0  0
  1 23  1  0  0  0  0
  2 19  1  0  0  0  0
  2  3  1  0  0  0  0
  2 24  1  0  0  0  0
  3  4  1  0  0  0  0
  3 25  1  0  0  0  0
  3 26  1  0  0  0  0
  4  5  1  0  0  0  0
  4 27  1  0  0  0  0
  4 28  1  0  0  0  0
  5  6  1  0  0  0  0
  5 29  1  0  0  0  0
  5 30  1  0  0  0  0
  6  7  1  0  0  0  0
  6 19  1  0  0  0  0
  6 31  1  0  0  0  0
  7  8  1  0  0  0  0
  7 32  1  0  0  0  0
  8  9  2  0  0  0  0
  8 10  1  0  0  0  0
 10 33  1  0  0  0  0
 10 34  1  0  0  0  0
 10 11  1  0  0  0  0
 11 12  1  0  0  0  0
 11 17  1  0  0  0  0
 12 13  2  0  0  0  0
 13 14  1  0  0  0  0
 13 15  1  0  0  0  0
 14 20  1  0  0  0  0
 15 35  1  0  0  0  0
 15 16  2  0  0  0  0
 16 36  1  0  0  0  0
 16 17  1  0  0  0  0
 17 18  2  0  0  0  0
 19 37  1  0  0  0  0
 19 38  1  0  0  0  0
M  END
> <s_m_source_file>
AV-unprocessed.smi

> <i_m_source_file_index>
1484

> <i_lp_mmshare_version>
43012

> <i_f3d_flags>
0

> <s_epik_input>
W0NIM11bQ0BASF0xW0NIMl1bQ0gyXVtDSDJdW0NASF0oW0NIMl0xKVtOSF1DKD1PKVtDSDJdbjJbbkhdYyg9TylbY0hdW2NIXWMyPU8=

> <s_epik_cmdline>
J2VwaWtfcHl0aG9uJywgJy1waCcsICc3LjAnLCAnLXRuJywgJzgnLCAnLW1hJywgJzIwMCcsICctbWV0YWxfYmluZGluZycsICctaW1hZScsICc8aW5maWxlLm1hZT4nLCAnLW9tYWUnLCAnPG91dGZpbGUubWFlPic=

> <r_lp_tautomer_probability>
0.9996

> <r_epik_Ionization_Penalty>
2.10343

> <r_epik_Ionization_Penalty_Charging>
3.97871e-08

> <r_epik_Ionization_Penalty_Neutral>
2.10343

> <r_epik_State_Penalty>
1.67966

> <r_epik_Charging_Adjusted_Penalty>
1.67966

> <i_epik_Tot_Q>
0

> <i_epik_Tot_abs_Q>
0

> <r_epik_Metal_State_Penalty>
1.67966

> <b_epik_Metal_Only>
0

> <s_lp_Force_Field>
OPLS_2005

> <r_lp_Energy>
17.3635

> <b_lp_Chiralities_Consistent>
1

> <s_lp_Variant>
AV-unprocessed.smi:1484-5

> <Gold.Version>
5.8.1

> <Gold.Id.Protein>
6NUR|6NUR_protein|mol2

> <Gold.PLP.Fitness>
40.7746

> <Gold.PLP.PLP>
-39.0025

> <Gold.PLP.part.hbond>
-2.9185

> <Gold.PLP.part.metal>
0.0000

> <Gold.PLP.part.buried>
-4.8583

> <Gold.PLP.part.nonpolar>
-30.8192

> <Gold.PLP.part.repulsive>
0.0223

> <Gold.PLP.ligand.clash>
0.0000

> <Gold.PLP.ligand.torsion>
0.4856

> <Gold.PLP.Chemscore.Hbond>
0.9120

> <Gold.PLP.Chemscore.CHOScore>
0.0000

> <Gold.PLP.Chemscore.Metal>
0.0000

> <Gold.Chemscore.Hbonds>
donor molecule, donor type, donor heavy atom, donor atom, acceptor molecule, acceptor atom, score
      P1  H  7997  8008       L1    18  0.80

> <Gold.PLP.Chemscore.Internal.Correction>
0.0073

> <Gold.Rescore>
     Score         DG    S(hbond)    S(metal)    S(lipo)     H(rot)  DE(clash)    DE(int)     intcor
      9.67     -11.52       0.98        0.00      72.76       2.24       0.01       1.84       ----

> <Gold.Chemscore.Fitness>
9.6728

> <Gold.Chemscore.DG>
-11.5248

> <Gold.Chemscore.ZeroCoef>
-5.4800

> <Gold.Chemscore.Hbond>
0.9796

> <Gold.Chemscore.Metal>
0.0000

> <Gold.Chemscore.Lipo>
72.7597

> <Gold.Chemscore.Internal_Hbond>
0.0000

> <Gold.Chemscore.DEClash>
0.0124

> <Gold.Chemscore.DEInternal>
1.8395

> <Gold.Chemscore.Rot>
2.2421

> <Gold.Chemscore.Internal.Correction>
   9.000000E+99

> <Gold.Chemscore.Hbonds>
donor molecule, donor type, donor heavy atom, donor atom, acceptor molecule, acceptor atom, score
      P1  H  7997  8008       L1    18  0.77

> <Gold.Chemscore.Hbond.Weighted>
-3.2717

> <Gold.Chemscore.Metal.Weighted>
-0.0000

> <Gold.Chemscore.Lipo.Weighted>
-8.5129

> <Gold.Chemscore.Internal_Hbond.Weighted>
0.0000

> <Gold.Chemscore.DEClash.Weighted>
0.0124

> <Gold.Chemscore.DEInternal.Weighted>
1.8395

> <Gold.Chemscore.Rot.Weighted>
5.7398

> <Gold.Chemscore.Internal.Correction.Weighted>
   9.000000E+99

> <Gold.Protein.RotatedTorsions>
[ 6907 6896 6895 6894 ] final   13.89 input  -60.11 | X-H torsion
[ 7974 7965 7964 7962 ] final  -62.73 input  175.53 | X-H torsion
[ 8008 7997 7996 7995 ] final -115.60 input   59.86 | X-H torsion
[ 10167 10162 10161 10158 ] final  -34.82 input  -65.29 | X-H torsion
[ 10718 10713 10712 10709 ] final  -44.35 input   66.30 | X-H torsion
[ 10763 10752 10751 10750 ] final  172.44 input  -60.55 | X-H torsion
[ 11005 11000 10999 10996 ] final  104.68 input  -57.11 | X-H torsion

> <Gold.Protein.ActiveResidues>
 VAL166  LYS551  ARG553  GLY616  TRP617  ASP618  TYR619  PRO620  LYS621  CYS622 
 ASP623  PHE694  ASN695  SER759  ASP760  ASP761  ALA762  ILE779  LEU786  VAL792 
 PHE793  MET794  SER795  GLU796  ALA797  LYS798  CYS799  TRP800  GLU811  SER814 

> <Gold.Protein.RotatedAtoms>
  151.7935  135.0729  160.0390 H   0  0  0  0  0  0  0  0  0  0  0  0  # atno 6907 bound_to 6896
  152.3140  133.5778  159.5708 H   0  0  0  0  0  0  0  0  0  0  0  0  # atno 6908 bound_to 6896
  150.7334  134.0027  159.3685 H   0  0  0  0  0  0  0  0  0  0  0  0  # atno 6909 bound_to 6896
  145.7877  140.8727  143.0297 H   0  0  0  0  0  0  0  0  0  0  0  0  # atno 7974 bound_to 7965
  155.0546  140.0393  157.2556 H   0  0  0  0  0  0  0  0  0  0  0  0  # atno 8008 bound_to 7997
  154.7109  140.2692  155.6606 H   0  0  0  0  0  0  0  0  0  0  0  0  # atno 8009 bound_to 7997
  156.2789  140.2722  156.1750 H   0  0  0  0  0  0  0  0  0  0  0  0  # atno 8010 bound_to 7997
  140.7178  143.3521  151.2134 H   0  0  0  0  0  0  0  0  0  0  0  0  # atno 10167 bound_to 10162
  156.2394  130.4178  149.8778 H   0  0  0  0  0  0  0  0  0  0  0  0  # atno 10718 bound_to 10713
  154.4261  135.2759  155.1943 H   0  0  0  0  0  0  0  0  0  0  0  0  # atno 10763 bound_to 10752
  154.3869  135.6075  153.5825 H   0  0  0  0  0  0  0  0  0  0  0  0  # atno 10764 bound_to 10752
  152.9834  135.5894  154.4565 H   0  0  0  0  0  0  0  0  0  0  0  0  # atno 10765 bound_to 10752
  139.8794  134.9309  156.5398 H   0  0  0  0  0  0  0  0  0  0  0  0  # atno 11005 bound_to 11000
  144.6786  140.0079  143.7484 LP  0  0  0  0  0  0  0  0  0  0  0  0  # atno 17320 bound_to 7965
  146.0009  139.3090  143.0928 LP  0  0  0  0  0  0  0  0  0  0  0  0  # atno 17321 bound_to 7965
  139.7054  143.9464  152.2924 LP  0  0  0  0  0  0  0  0  0  0  0  0  # atno 17342 bound_to 10162
  139.9171  144.6822  150.8501 LP  0  0  0  0  0  0  0  0  0  0  0  0  # atno 17343 bound_to 10162
  156.6365  130.8687  151.3505 LP  0  0  0  0  0  0  0  0  0  0  0  0  # atno 17370 bound_to 10713
  157.7169  130.9508  150.1288 LP  0  0  0  0  0  0  0  0  0  0  0  0  # atno 17371 bound_to 10713
  140.8319  133.8272  155.8992 LP  0  0  0  0  0  0  0  0  0  0  0  0  # atno 17394 bound_to 11000
  140.9321  134.2009  157.4857 LP  0  0  0  0  0  0  0  0  0  0  0  0  # atno 17395 bound_to 11000

$$$$
