AV-unprocessed.smi:1016|AV-procd|sdf|4437|dock9
  -GOLD-   22720 2393D 1   1.00000     0.00000
 Structure written by MMmdl.
 39 40  0  0  0  0  0  0  0  0  2 V2000
  147.0222  137.4221  163.1937 C   0  0  0  0  0  0  0  0  0  0  0  0
  147.4710  136.5063  162.0939 C   0  0  0  0  0  0  0  0  0  0  0  0
  147.4525  135.0610  162.2140 C   0  0  0  0  0  0  0  0  0  0  0  0
  147.8707  134.3054  161.1761 C   0  0  0  0  0  0  0  0  0  0  0  0
  148.3484  134.9052  159.9322 C   0  0  0  0  0  0  0  0  0  0  0  0
  148.7407  134.2442  158.9713 O   0  0  0  0  0  0  0  0  0  0  0  0
  148.3280  136.2715  159.9381 N   0  0  0  0  0  0  0  0  0  0  0  0
  148.8242  137.0473  158.7892 C   0  0  0  0  0  0  0  0  0  0  0  0
  150.2157  137.6752  158.9876 C   0  0  0  0  0  0  0  0  0  0  0  0
  151.0554  137.0419  159.6247 O   0  0  0  0  0  0  0  0  0  0  0  0
  150.4241  138.8918  158.4448 N   0  0  0  0  0  0  0  0  0  0  0  0
  151.5851  139.7939  158.4304 C   0  0  0  0  0  0  0  0  0  0  0  0
  152.2968  139.5006  157.0844 C   0  0  0  0  0  0  0  0  0  0  0  0
  151.6799  139.7517  156.0251 O   0  0  0  0  0  0  0  0  0  0  0  0
  153.4356  138.9823  157.1284 O   0  5  0  0  0  0  0  0  0  0  0  0
  151.2386  141.3106  158.5731 C   0  0  0  0  0  0  0  0  0  0  0  0
  152.4829  142.2073  158.7268 C   0  0  0  0  0  0  0  0  0  0  0  0
  153.3430  141.7624  159.9182 C   0  0  0  0  0  0  0  0  0  0  0  0
  153.7283  140.2812  159.7999 C   0  0  0  0  0  0  0  0  0  0  0  0
  152.4803  139.3914  159.6375 C   0  0  0  0  0  0  0  0  0  0  0  0
  147.8892  137.0489  160.9979 N   0  0  0  0  0  0  0  0  0  0  0  0
  146.6982  136.8586  164.0690 H   0  0  0  0  0  0  0  0  0  0  0  0
  146.1864  138.0412  162.8666 H   0  0  0  0  0  0  0  0  0  0  0  0
  147.8328  138.0825  163.5032 H   0  0  0  0  0  0  0  0  0  0  0  0
  147.1062  134.6016  163.1279 H   0  0  0  0  0  0  0  0  0  0  0  0
  147.8574  133.2292  161.2669 H   0  0  0  0  0  0  0  0  0  0  0  0
  148.8452  136.4277  157.8911 H   0  0  0  0  0  0  0  0  0  0  0  0
  148.1244  137.8537  158.5631 H   0  0  0  0  0  0  0  0  0  0  0  0
  149.6210  139.2771  157.9690 H   0  0  0  0  0  0  0  0  0  0  0  0
  150.6410  141.6619  157.7307 H   0  0  0  0  0  0  0  0  0  0  0  0
  150.6232  141.4597  159.4610 H   0  0  0  0  0  0  0  0  0  0  0  0
  153.0793  142.1876  157.8142 H   0  0  0  0  0  0  0  0  0  0  0  0
  152.1737  143.2436  158.8643 H   0  0  0  0  0  0  0  0  0  0  0  0
  154.2407  142.3778  159.9814 H   0  0  0  0  0  0  0  0  0  0  0  0
  152.7917  141.9223  160.8455 H   0  0  0  0  0  0  0  0  0  0  0  0
  154.4017  140.1429  158.9534 H   0  0  0  0  0  0  0  0  0  0  0  0
  154.2862  139.9746  160.6850 H   0  0  0  0  0  0  0  0  0  0  0  0
  151.8899  139.4557  160.5529 H   0  0  0  0  0  0  0  0  0  0  0  0
  152.7861  138.3462  159.5690 H   0  0  0  0  0  0  0  0  0  0  0  0
  1  2  1  0  0  0  0
  1 22  1  0  0  0  0
  1 23  1  0  0  0  0
  1 24  1  0  0  0  0
  2 21  2  0  0  0  0
  2  3  1  0  0  0  0
  3  4  2  0  0  0  0
  3 25  1  0  0  0  0
  4  5  1  0  0  0  0
  4 26  1  0  0  0  0
  5  6  2  0  0  0  0
  5  7  1  0  0  0  0
  7  8  1  0  0  0  0
  7 21  1  0  0  0  0
  8  9  1  0  0  0  0
  8 27  1  0  0  0  0
  8 28  1  0  0  0  0
  9 10  2  0  0  0  0
  9 11  1  0  0  0  0
 11 12  1  0  0  0  0
 11 29  1  0  0  0  0
 12 20  1  0  0  0  0
 12 13  1  0  0  0  0
 12 16  1  0  0  0  0
 13 14  2  0  0  0  0
 13 15  1  0  0  0  0
 16 17  1  0  0  0  0
 16 30  1  0  0  0  0
 16 31  1  0  0  0  0
 17 18  1  0  0  0  0
 17 32  1  0  0  0  0
 17 33  1  0  0  0  0
 18 19  1  0  0  0  0
 18 34  1  0  0  0  0
 18 35  1  0  0  0  0
 19 20  1  0  0  0  0
 19 36  1  0  0  0  0
 19 37  1  0  0  0  0
 20 38  1  0  0  0  0
 20 39  1  0  0  0  0
M  CHG  1  15  -1
M  END
> <s_m_source_file>
AV-unprocessed.smi

> <i_m_source_file_index>
1016

> <i_lp_mmshare_version>
43012

> <i_f3d_flags>
0

> <s_epik_input>
W0NIM11jMVtjSF1bY0hdYyg9TyluKG4xKVtDSDJdQyg9TylbTkhdQzIoQyg9TylbT0hdKVtDSDJdW0NIMl1bQ0gyXVtDSDJdW0NIMl0y

> <s_epik_cmdline>
J2VwaWtfcHl0aG9uJywgJy1waCcsICc3LjAnLCAnLXRuJywgJzgnLCAnLW1hJywgJzIwMCcsICctbWV0YWxfYmluZGluZycsICctaW1hZScsICc8aW5maWxlLm1hZT4nLCAnLW9tYWUnLCAnPG91dGZpbGUubWFlPic=

> <r_lp_tautomer_probability>
1

> <r_epik_Ionization_Penalty>
0.000398047

> <r_epik_Ionization_Penalty_Charging>
0.000398029

> <r_epik_Ionization_Penalty_Neutral>
1.87077e-08

> <r_epik_State_Penalty>
0.000243291

> <r_epik_Charging_Adjusted_Penalty>
0.00064132

> <i_epik_Tot_Q>
-1

> <i_epik_Tot_abs_Q>
1

> <r_epik_Metal_State_Penalty>
-0

> <b_epik_Metal_Only>
0

> <s_lp_Force_Field>
OPLS_2005

> <r_lp_Energy>
18.8649

> <b_lp_Chiralities_Consistent>
1

> <s_lp_Variant>
AV-unprocessed.smi:1016-1

> <Gold.Version>
5.8.1

> <Gold.Id.Protein>
6NUR|6NUR_protein|mol2

> <Gold.PLP.Fitness>
50.9602

> <Gold.PLP.PLP>
-37.6423

> <Gold.PLP.part.hbond>
-4.9212

> <Gold.PLP.part.metal>
0.0000

> <Gold.PLP.part.buried>
-4.6461

> <Gold.PLP.part.nonpolar>
-28.7678

> <Gold.PLP.part.repulsive>
0.1547

> <Gold.PLP.ligand.clash>
0.0810

> <Gold.PLP.ligand.torsion>
1.0456

> <Gold.PLP.Chemscore.Hbond>
5.1461

> <Gold.PLP.Chemscore.CHOScore>
0.0000

> <Gold.PLP.Chemscore.Metal>
0.0000

> <Gold.Chemscore.Hbonds>
donor molecule, donor type, donor heavy atom, donor atom, acceptor molecule, acceptor atom, score
      P1  H  6896  6908       L1     6  0.86
      P1  H  6896  6909       L1    10  1.00
      P1  H  6931  6943       L1    21  0.69
      P1  H  6934  6947       L1    21  0.69
      P1  H  7997  8010       L1    15  2.00

> <Gold.PLP.Chemscore.Internal.Correction>
0.0519

> <Gold.Rescore>
     Score         DG    S(hbond)    S(metal)    S(lipo)     H(rot)  DE(clash)    DE(int)     intcor
     16.42     -20.72       3.25        0.00      83.27       2.09       0.66       3.64       ----

> <Gold.Chemscore.Fitness>
16.4160

> <Gold.Chemscore.DG>
-20.7157

> <Gold.Chemscore.ZeroCoef>
-5.4800

> <Gold.Chemscore.Hbond>
3.2478

> <Gold.Chemscore.Metal>
0.0000

> <Gold.Chemscore.Lipo>
83.2742

> <Gold.Chemscore.Internal_Hbond>
0.0000

> <Gold.Chemscore.DEClash>
0.6627

> <Gold.Chemscore.DEInternal>
3.6371

> <Gold.Chemscore.Rot>
2.0918

> <Gold.Chemscore.Internal.Correction>
   9.000000E+99

> <Gold.Chemscore.Hbonds>
donor molecule, donor type, donor heavy atom, donor atom, acceptor molecule, acceptor atom, score
      P1  H  6896  6908       L1     6  0.39
      P1  H  6896  6909       L1    10  0.92
      P1  H  6931  6943       L1    21  0.07
      P1  H  6934  6947       L1    21  0.44
      P1  H  7997  8010       L1    15  0.74

> <Gold.Chemscore.Hbond.Weighted>
-10.8476

> <Gold.Chemscore.Metal.Weighted>
-0.0000

> <Gold.Chemscore.Lipo.Weighted>
-9.7431

> <Gold.Chemscore.Internal_Hbond.Weighted>
0.0000

> <Gold.Chemscore.DEClash.Weighted>
0.6627

> <Gold.Chemscore.DEInternal.Weighted>
3.6371

> <Gold.Chemscore.Rot.Weighted>
5.3549

> <Gold.Chemscore.Internal.Correction.Weighted>
   9.000000E+99

> <Gold.Protein.RotatedTorsions>
[ 6907 6896 6895 6894 ] final  125.84 input  -60.11 | X-H torsion
[ 7974 7965 7964 7962 ] final -123.31 input  175.53 | X-H torsion
[ 8008 7997 7996 7995 ] final   37.94 input   59.86 | X-H torsion
[ 10167 10162 10161 10158 ] final   36.16 input  -65.29 | X-H torsion
[ 10718 10713 10712 10709 ] final   79.52 input   66.30 | X-H torsion
[ 10763 10752 10751 10750 ] final  119.14 input  -60.55 | X-H torsion
[ 11005 11000 10999 10996 ] final -141.51 input  -57.11 | X-H torsion

> <Gold.Protein.ActiveResidues>
 VAL166  LYS551  ARG553  GLY616  TRP617  ASP618  TYR619  PRO620  LYS621  CYS622 
 ASP623  PHE694  ASN695  SER759  ASP760  ASP761  ALA762  ILE779  LEU786  VAL792 
 PHE793  MET794  SER795  GLU796  ALA797  LYS798  CYS799  TRP800  GLU811  SER814 

> <Gold.Protein.RotatedAtoms>
  152.3956  133.6742  159.6273 H   0  0  0  0  0  0  0  0  0  0  0  0  # atno 6907 bound_to 6896
  150.7856  133.8879  159.3313 H   0  0  0  0  0  0  0  0  0  0  0  0  # atno 6908 bound_to 6896
  151.6657  135.0985  160.0239 H   0  0  0  0  0  0  0  0  0  0  0  0  # atno 6909 bound_to 6896
  145.0201  140.7980  143.4386 H   0  0  0  0  0  0  0  0  0  0  0  0  # atno 7974 bound_to 7965
  155.2121  140.3324  155.4327 H   0  0  0  0  0  0  0  0  0  0  0  0  # atno 8008 bound_to 7997
  156.2366  140.1875  156.7150 H   0  0  0  0  0  0  0  0  0  0  0  0  # atno 8009 bound_to 7997
  154.6071  140.0614  156.9431 H   0  0  0  0  0  0  0  0  0  0  0  0  # atno 8010 bound_to 7997
  140.4154  144.1535  150.6143 H   0  0  0  0  0  0  0  0  0  0  0  0  # atno 10167 bound_to 10162
  157.6779  130.9918  150.1944 H   0  0  0  0  0  0  0  0  0  0  0  0  # atno 10718 bound_to 10713
  153.5785  135.3488  155.2865 H   0  0  0  0  0  0  0  0  0  0  0  0  # atno 10763 bound_to 10752
  154.8671  135.4176  154.2647 H   0  0  0  0  0  0  0  0  0  0  0  0  # atno 10764 bound_to 10752
  153.3428  135.7051  153.6923 H   0  0  0  0  0  0  0  0  0  0  0  0  # atno 10765 bound_to 10752
  140.8317  134.2509  157.4853 H   0  0  0  0  0  0  0  0  0  0  0  0  # atno 11005 bound_to 11000
  145.1907  139.2302  143.5244 LP  0  0  0  0  0  0  0  0  0  0  0  0  # atno 17320 bound_to 7965
  146.3484  140.1703  142.8589 LP  0  0  0  0  0  0  0  0  0  0  0  0  # atno 17321 bound_to 7965
  140.4593  143.2455  151.9242 LP  0  0  0  0  0  0  0  0  0  0  0  0  # atno 17342 bound_to 10162
  139.4782  144.5484  151.8423 LP  0  0  0  0  0  0  0  0  0  0  0  0  # atno 17343 bound_to 10162
  156.2648  130.3715  149.8092 LP  0  0  0  0  0  0  0  0  0  0  0  0  # atno 17370 bound_to 10713
  156.5827  130.8472  151.3387 LP  0  0  0  0  0  0  0  0  0  0  0  0  # atno 17371 bound_to 10713
  139.8705  134.9589  156.4316 LP  0  0  0  0  0  0  0  0  0  0  0  0  # atno 17394 bound_to 11000
  140.8991  133.7792  155.9659 LP  0  0  0  0  0  0  0  0  0  0  0  0  # atno 17395 bound_to 11000

$$$$
