AV-unprocessed.smi:1873|AV-procd|sdf|7609|dock8
  -GOLD-   22720 9333D 1   1.00000     0.00000
 Structure written by MMmdl.
 37 39  0  0  0  0  0  0  0  0  2 V2000
  150.9392  137.6724  156.3360 O   0  0  0  0  0  0  0  0  0  0  0  0
  150.2192  138.6160  157.1061 C   0  0  2  0  0  0  0  0  0  0  0  0
  151.2039  139.5913  157.7811 C   0  0  0  0  0  0  0  0  0  0  0  0
  150.9292  140.9940  157.4460 N   0  0  0  0  0  0  0  0  0  0  0  0
  150.0423  141.5255  156.5618 C   0  0  0  0  0  0  0  0  0  0  0  0
  150.1600  142.8810  156.6269 N   0  3  0  0  0  0  0  0  0  0  0  0
  151.1374  143.2199  157.5656 C   0  0  0  0  0  0  0  0  0  0  0  0
  151.6114  144.4598  157.9830 C   0  0  0  0  0  0  0  0  0  0  0  0
  152.6221  144.4524  158.9672 C   0  0  0  0  0  0  0  0  0  0  0  0
  153.1222  143.2454  159.4982 C   0  0  0  0  0  0  0  0  0  0  0  0
  152.6334  141.9940  159.0687 C   0  0  0  0  0  0  0  0  0  0  0  0
  151.6357  142.0109  158.0950 C   0  0  0  0  0  0  0  0  0  0  0  0
  149.3080  137.9534  158.1264 C   0  0  0  0  0  0  0  0  0  0  0  0
  147.9088  138.1248  158.0618 C   0  0  0  0  0  0  0  0  0  0  0  0
  147.0734  137.4999  159.0077 C   0  0  0  0  0  0  0  0  0  0  0  0
  147.6193  136.6892  160.0231 C   0  0  0  0  0  0  0  0  0  0  0  0
  146.7525  136.1157  160.9255 O   0  0  0  0  0  0  0  0  0  0  0  0
  147.2542  135.3989  161.9662 C   0  0  0  0  0  0  0  0  0  0  0  0
  147.8530  136.2208  162.8628 F   0  0  0  0  0  0  0  0  0  0  0  0
  146.2480  134.7576  162.6080 F   0  0  0  0  0  0  0  0  0  0  0  0
  149.0237  136.5257  160.0909 C   0  0  0  0  0  0  0  0  0  0  0  0
  149.8599  137.1500  159.1456 C   0  0  0  0  0  0  0  0  0  0  0  0
  150.6924  136.8048  156.6187 H   0  0  0  0  0  0  0  0  0  0  0  0
  149.5949  139.1729  156.4064 H   0  0  0  0  0  0  0  0  0  0  0  0
  151.1773  139.4855  158.8665 H   0  0  0  0  0  0  0  0  0  0  0  0
  152.2282  139.3749  157.4742 H   0  0  0  0  0  0  0  0  0  0  0  0
  149.3636  140.9719  155.9287 H   0  0  0  0  0  0  0  0  0  0  0  0
  151.2299  145.3860  157.5786 H   0  0  0  0  0  0  0  0  0  0  0  0
  153.0212  145.3916  159.3221 H   0  0  0  0  0  0  0  0  0  0  0  0
  153.8970  143.2798  160.2506 H   0  0  0  0  0  0  0  0  0  0  0  0
  153.0215  141.0745  159.4813 H   0  0  0  0  0  0  0  0  0  0  0  0
  147.4707  138.7353  157.2857 H   0  0  0  0  0  0  0  0  0  0  0  0
  146.0038  137.6402  158.9505 H   0  0  0  0  0  0  0  0  0  0  0  0
  147.9680  134.6458  161.6309 H   0  0  0  0  0  0  0  0  0  0  0  0
  149.4748  135.9268  160.8680 H   0  0  0  0  0  0  0  0  0  0  0  0
  150.9290  137.0100  159.2093 H   0  0  0  0  0  0  0  0  0  0  0  0
  149.6107  143.5243  156.0715 H   0  0  0  0  0  0  0  0  0  0  0  0
  1  2  1  0  0  0  0
  1 23  1  0  0  0  0
  2  3  1  0  0  0  0
  2 13  1  0  0  0  0
  2 24  1  0  0  0  0
  3  4  1  0  0  0  0
  3 25  1  0  0  0  0
  3 26  1  0  0  0  0
  4 12  1  0  0  0  0
  4  5  1  0  0  0  0
  5  6  2  0  0  0  0
  5 27  1  0  0  0  0
  6  7  1  0  0  0  0
  6 37  1  0  0  0  0
  7 12  2  0  0  0  0
  7  8  1  0  0  0  0
  8  9  2  0  0  0  0
  8 28  1  0  0  0  0
  9 10  1  0  0  0  0
  9 29  1  0  0  0  0
 10 11  2  0  0  0  0
 10 30  1  0  0  0  0
 11 12  1  0  0  0  0
 11 31  1  0  0  0  0
 13 22  1  0  0  0  0
 13 14  2  0  0  0  0
 14 15  1  0  0  0  0
 14 32  1  0  0  0  0
 15 16  2  0  0  0  0
 15 33  1  0  0  0  0
 16 17  1  0  0  0  0
 16 21  1  0  0  0  0
 17 18  1  0  0  0  0
 18 19  1  0  0  0  0
 18 20  1  0  0  0  0
 18 34  1  0  0  0  0
 21 22  2  0  0  0  0
 21 35  1  0  0  0  0
 22 36  1  0  0  0  0
M  CHG  1   6   1
M  END
> <s_m_source_file>
AV-unprocessed.smi

> <i_m_source_file_index>
1873

> <i_lp_mmshare_version>
43012

> <i_f3d_flags>
0

> <s_epik_input>
RltDSF0oRilPYyhbY0hdW2NIXTEpW2NIXVtjSF1jMVtDQEhdKFtPSF0pW0NIMl1uKFtjSF1uMiljKGMyMylbY0hdW2NIXVtjSF1bY0hdMw==

> <s_epik_cmdline>
J2VwaWtfcHl0aG9uJywgJy1waCcsICc3LjAnLCAnLXRuJywgJzgnLCAnLW1hJywgJzIwMCcsICctbWV0YWxfYmluZGluZycsICctaW1hZScsICc8aW5maWxlLm1hZT4nLCAnLW9tYWUnLCAnPG91dGZpbGUubWFlPic=

> <r_lp_tautomer_probability>
1

> <r_epik_Ionization_Penalty>
1.3029

> <r_epik_Ionization_Penalty_Charging>
1.3029

> <r_epik_Ionization_Penalty_Neutral>
2.50501e-07

> <r_epik_State_Penalty>
1.377

> <r_epik_Charging_Adjusted_Penalty>
2.6799

> <i_epik_Tot_Q>
1

> <i_epik_Tot_abs_Q>
1

> <r_epik_Metal_State_Penalty>
5.40879

> <b_epik_Metal_Only>
0

> <s_lp_Force_Field>
OPLS_2005

> <r_lp_Energy>
14.9016

> <b_lp_Chiralities_Consistent>
1

> <s_lp_Variant>
AV-unprocessed.smi:1873-3

> <Gold.Version>
5.8.1

> <Gold.Id.Protein>
6NUR|6NUR_protein|mol2

> <Gold.PLP.Fitness>
51.1182

> <Gold.PLP.PLP>
-46.7052

> <Gold.PLP.part.hbond>
-0.9909

> <Gold.PLP.part.metal>
0.0000

> <Gold.PLP.part.buried>
-5.6731

> <Gold.PLP.part.nonpolar>
-40.5173

> <Gold.PLP.part.repulsive>
0.0717

> <Gold.PLP.ligand.clash>
0.0000

> <Gold.PLP.ligand.torsion>
0.8455

> <Gold.PLP.Chemscore.Hbond>
2.0000

> <Gold.PLP.Chemscore.CHOScore>
0.0000

> <Gold.PLP.Chemscore.Metal>
0.0000

> <Gold.Chemscore.Hbonds>
donor molecule, donor type, donor heavy atom, donor atom, acceptor molecule, acceptor atom, score
      L1  H     6    37       P1  8028  1.62

> <Gold.PLP.Chemscore.Internal.Correction>
0.1040

> <Gold.Rescore>
     Score         DG    S(hbond)    S(metal)    S(lipo)     H(rot)  DE(clash)    DE(int)     intcor
     14.39     -15.34       1.00        0.00     109.81       2.47       0.08       0.87       ----

> <Gold.Chemscore.Fitness>
14.3887

> <Gold.Chemscore.DG>
-15.3416

> <Gold.Chemscore.ZeroCoef>
-5.4800

> <Gold.Chemscore.Hbond>
0.9968

> <Gold.Chemscore.Metal>
0.0000

> <Gold.Chemscore.Lipo>
109.8058

> <Gold.Chemscore.Internal_Hbond>
0.0000

> <Gold.Chemscore.DEClash>
0.0801

> <Gold.Chemscore.DEInternal>
0.8728

> <Gold.Chemscore.Rot>
2.4668

> <Gold.Chemscore.Internal.Correction>
   9.000000E+99

> <Gold.Chemscore.Hbonds>
donor molecule, donor type, donor heavy atom, donor atom, acceptor molecule, acceptor atom, score
      L1  H     6    37       P1  8028  0.80

> <Gold.Chemscore.Hbond.Weighted>
-3.3294

> <Gold.Chemscore.Metal.Weighted>
-0.0000

> <Gold.Chemscore.Lipo.Weighted>
-12.8473

> <Gold.Chemscore.Internal_Hbond.Weighted>
0.0000

> <Gold.Chemscore.DEClash.Weighted>
0.0801

> <Gold.Chemscore.DEInternal.Weighted>
0.8728

> <Gold.Chemscore.Rot.Weighted>
6.3151

> <Gold.Chemscore.Internal.Correction.Weighted>
   9.000000E+99

> <Gold.Protein.RotatedTorsions>
[ 6907 6896 6895 6894 ] final -166.76 input  -60.11 | X-H torsion
[ 7974 7965 7964 7962 ] final  128.82 input  175.53 | X-H torsion
[ 8008 7997 7996 7995 ] final    9.70 input   59.86 | X-H torsion
[ 10167 10162 10161 10158 ] final  122.74 input  -65.29 | X-H torsion
[ 10718 10713 10712 10709 ] final -160.25 input   66.30 | X-H torsion
[ 10763 10752 10751 10750 ] final   93.16 input  -60.55 | X-H torsion
[ 11005 11000 10999 10996 ] final   92.03 input  -57.11 | X-H torsion

> <Gold.Protein.ActiveResidues>
 VAL166  LYS551  ARG553  GLY616  TRP617  ASP618  TYR619  PRO620  LYS621  CYS622 
 ASP623  PHE694  ASN695  SER759  ASP760  ASP761  ALA762  ILE779  LEU786  VAL792 
 PHE793  MET794  SER795  GLU796  ALA797  LYS798  CYS799  TRP800  GLU811  SER814 

> <Gold.Protein.RotatedAtoms>
  151.4488  133.3623  159.2792 H   0  0  0  0  0  0  0  0  0  0  0  0  # atno 6907 bound_to 6896
  150.9105  134.8524  159.7433 H   0  0  0  0  0  0  0  0  0  0  0  0  # atno 6908 bound_to 6896
  152.4930  134.4417  159.9597 H   0  0  0  0  0  0  0  0  0  0  0  0  # atno 6909 bound_to 6896
  145.0353  139.4010  143.5129 H   0  0  0  0  0  0  0  0  0  0  0  0  # atno 7974 bound_to 7965
  154.7836  140.2823  155.6045 H   0  0  0  0  0  0  0  0  0  0  0  0  # atno 8008 bound_to 7997
  156.2954  140.2618  156.2595 H   0  0  0  0  0  0  0  0  0  0  0  0  # atno 8009 bound_to 7997
  154.9755  140.0375  157.2243 H   0  0  0  0  0  0  0  0  0  0  0  0  # atno 8010 bound_to 7997
  139.5841  144.6999  151.3454 H   0  0  0  0  0  0  0  0  0  0  0  0  # atno 10167 bound_to 10162
  156.5794  130.8723  151.2860 H   0  0  0  0  0  0  0  0  0  0  0  0  # atno 10718 bound_to 10713
  153.2272  135.4335  155.0555 H   0  0  0  0  0  0  0  0  0  0  0  0  # atno 10763 bound_to 10752
  154.8279  135.3370  154.6841 H   0  0  0  0  0  0  0  0  0  0  0  0  # atno 10764 bound_to 10752
  153.7269  135.7013  153.5055 H   0  0  0  0  0  0  0  0  0  0  0  0  # atno 10765 bound_to 10752
  139.8829  134.8709  156.3513 H   0  0  0  0  0  0  0  0  0  0  0  0  # atno 11005 bound_to 11000
  146.3503  139.9925  142.8684 LP  0  0  0  0  0  0  0  0  0  0  0  0  # atno 17320 bound_to 7965
  145.1717  140.9724  143.4318 LP  0  0  0  0  0  0  0  0  0  0  0  0  # atno 17321 bound_to 7965
  140.7115  143.7378  150.7576 LP  0  0  0  0  0  0  0  0  0  0  0  0  # atno 17342 bound_to 10162
  140.0918  143.4871  152.2474 LP  0  0  0  0  0  0  0  0  0  0  0  0  # atno 17343 bound_to 10162
  157.7330  130.9723  150.1955 LP  0  0  0  0  0  0  0  0  0  0  0  0  # atno 17370 bound_to 10713
  156.2644  130.3714  149.8096 LP  0  0  0  0  0  0  0  0  0  0  0  0  # atno 17371 bound_to 10713
  140.9592  133.7400  156.0377 LP  0  0  0  0  0  0  0  0  0  0  0  0  # atno 17394 bound_to 11000
  140.8011  134.3508  157.5439 LP  0  0  0  0  0  0  0  0  0  0  0  0  # atno 17395 bound_to 11000

$$$$
