AV-unprocessed.smi:2317|AV-procd|sdf|9274|dock5
  -GOLD-   2272012493D 1   1.00000     0.00000
 Structure written by MMmdl.
 37 38  0  0  0  0  0  0  0  0  1 V2000
  144.4461  136.7104  152.2884 O   0  0  0  0  0  0  0  0  0  0  0  0
  145.6472  136.5168  152.1038 C   0  0  0  0  0  0  0  0  0  0  0  0
  146.5874  137.4491  152.3180 N   0  0  0  0  0  0  0  0  0  0  0  0
  146.3467  138.7987  152.8232 C   0  0  0  0  0  0  0  0  0  0  0  0
  147.6472  139.5108  153.2675 C   0  0  1  0  0  0  0  0  0  0  0  0
  147.3935  140.9916  153.6387 C   0  0  0  0  0  0  0  0  0  0  0  0
  148.6661  141.6986  154.1297 C   0  0  0  0  0  0  0  0  0  0  0  0
  149.2891  140.9557  155.3181 C   0  0  0  0  0  0  0  0  0  0  0  0
  149.5830  139.4960  154.9495 C   0  0  0  0  0  0  0  0  0  0  0  0
  148.3152  138.7739  154.4565 C   0  0  2  0  0  0  0  0  0  0  0  0
  148.6884  137.4634  154.0790 O   0  0  0  0  0  0  0  0  0  0  0  0
  146.1937  135.3756  151.6498 N   0  0  0  0  0  0  0  0  0  0  0  0
  145.5607  134.1473  151.3119 C   0  0  0  0  0  0  0  0  0  0  0  0
  144.2883  134.0437  150.6985 C   0  0  0  0  0  0  0  0  0  0  0  0
  143.7695  132.7607  150.4317 C   0  0  0  0  0  0  0  0  0  0  0  0
  144.4181  131.6170  150.7361 N   0  0  0  0  0  0  0  0  0  0  0  0
  145.6249  131.7188  151.3312 C   0  0  0  0  0  0  0  0  0  0  0  0
  146.2336  132.9515  151.6414 C   0  0  0  0  0  0  0  0  0  0  0  0
  147.4468  132.9816  152.2442 F   0  0  0  0  0  0  0  0  0  0  0  0
  147.5483  137.2035  152.1294 H   0  0  0  0  0  0  0  0  0  0  0  0
  145.8165  139.4056  152.0873 H   0  0  0  0  0  0  0  0  0  0  0  0
  145.6674  138.6966  153.6694 H   0  0  0  0  0  0  0  0  0  0  0  0
  148.3440  139.4954  152.4276 H   0  0  0  0  0  0  0  0  0  0  0  0
  147.0034  141.5384  152.7804 H   0  0  0  0  0  0  0  0  0  0  0  0
  146.6268  141.0485  154.4125 H   0  0  0  0  0  0  0  0  0  0  0  0
  149.3888  141.7598  153.3150 H   0  0  0  0  0  0  0  0  0  0  0  0
  148.4339  142.7251  154.4146 H   0  0  0  0  0  0  0  0  0  0  0  0
  150.2074  141.4539  155.6297 H   0  0  0  0  0  0  0  0  0  0  0  0
  148.6108  140.9909  156.1716 H   0  0  0  0  0  0  0  0  0  0  0  0
  150.3508  139.4692  154.1747 H   0  0  0  0  0  0  0  0  0  0  0  0
  149.9979  138.9763  155.8141 H   0  0  0  0  0  0  0  0  0  0  0  0
  147.6047  138.6978  155.2808 H   0  0  0  0  0  0  0  0  0  0  0  0
  148.7595  137.4310  153.1374 H   0  0  0  0  0  0  0  0  0  0  0  0
  147.1893  135.3995  151.4856 H   0  0  0  0  0  0  0  0  0  0  0  0
  143.6973  134.9076  150.4388 H   0  0  0  0  0  0  0  0  0  0  0  0
  142.8017  132.6510  149.9653 H   0  0  0  0  0  0  0  0  0  0  0  0
  146.1200  130.7893  151.5698 H   0  0  0  0  0  0  0  0  0  0  0  0
  1  2  2  0  0  0  0
  2  3  1  0  0  0  0
  2 12  1  0  0  0  0
  3  4  1  0  0  0  0
  3 20  1  0  0  0  0
  4  5  1  0  0  0  0
  4 21  1  0  0  0  0
  4 22  1  0  0  0  0
  5 10  1  0  0  0  0
  5  6  1  0  0  0  0
  5 23  1  0  0  0  0
  6  7  1  0  0  0  0
  6 24  1  0  0  0  0
  6 25  1  0  0  0  0
  7  8  1  0  0  0  0
  7 26  1  0  0  0  0
  7 27  1  0  0  0  0
  8  9  1  0  0  0  0
  8 28  1  0  0  0  0
  8 29  1  0  0  0  0
  9 10  1  0  0  0  0
  9 30  1  0  0  0  0
  9 31  1  0  0  0  0
 10 11  1  0  0  0  0
 10 32  1  0  0  0  0
 11 33  1  0  0  0  0
 12 13  1  0  0  0  0
 12 34  1  0  0  0  0
 13 18  1  0  0  0  0
 13 14  2  0  0  0  0
 14 15  1  0  0  0  0
 14 35  1  0  0  0  0
 15 16  2  0  0  0  0
 15 36  1  0  0  0  0
 16 17  1  0  0  0  0
 17 18  2  0  0  0  0
 17 37  1  0  0  0  0
 18 19  1  0  0  0  0
M  END
> <s_m_source_file>
AV-unprocessed.smi

> <i_m_source_file_index>
2317

> <i_lp_mmshare_version>
43012

> <i_f3d_flags>
0

> <s_epik_input>
RmMxW2NIXW5bY0hdW2NIXWMxW05IXUMoPU8pW05IXVtDSDJdW0NAQEhdMltDSDJdW0NIMl1bQ0gyXVtDSDJdW0NASF0yW09IXQ==

> <s_epik_cmdline>
J2VwaWtfcHl0aG9uJywgJy1waCcsICc3LjAnLCAnLXRuJywgJzgnLCAnLW1hJywgJzIwMCcsICctbWV0YWxfYmluZGluZycsICctaW1hZScsICc8aW5maWxlLm1hZT4nLCAnLW9tYWUnLCAnPG91dGZpbGUubWFlPic=

> <r_epik_Ionization_Penalty>
0.00317647

> <r_epik_Ionization_Penalty_Charging>
0

> <r_epik_Ionization_Penalty_Neutral>
0.00317647

> <r_epik_State_Penalty>
0.0022093

> <r_epik_Charging_Adjusted_Penalty>
0.0022093

> <i_epik_Tot_Q>
0

> <i_epik_Tot_abs_Q>
0

> <r_epik_Metal_State_Penalty>
-0

> <b_epik_Metal_Only>
0

> <s_lp_Force_Field>
OPLS_2005

> <r_lp_Energy>
17.8728

> <b_lp_Chiralities_Consistent>
1

> <s_lp_Variant>
AV-unprocessed.smi:2317-4

> <Gold.Version>
5.8.1

> <Gold.Id.Protein>
6NUR|6NUR_protein|mol2

> <Gold.PLP.Fitness>
43.6200

> <Gold.PLP.PLP>
-32.9002

> <Gold.PLP.part.hbond>
-3.0000

> <Gold.PLP.part.metal>
0.0000

> <Gold.PLP.part.buried>
-2.4220

> <Gold.PLP.part.nonpolar>
-29.4910

> <Gold.PLP.part.repulsive>
0.7766

> <Gold.PLP.ligand.clash>
0.0000

> <Gold.PLP.ligand.torsion>
0.3641

> <Gold.PLP.Chemscore.Hbond>
2.8320

> <Gold.PLP.Chemscore.CHOScore>
0.9827

> <Gold.PLP.Chemscore.Metal>
0.0000

> <Gold.Chemscore.Hbonds>
donor molecule, donor type, donor heavy atom, donor atom, acceptor molecule, acceptor atom, score
      L1  H     3    20       P1  7948  1.00
      L1  H    11    33       P1  7948  0.80
      L1  H    12    34       P1  7948  1.00
      L1  C    15    36       P1 10186  0.94

> <Gold.PLP.Chemscore.Internal.Correction>
0.0039

> <Gold.Rescore>
     Score         DG    S(hbond)    S(metal)    S(lipo)     H(rot)  DE(clash)    DE(int)     intcor
     16.92     -18.81       2.77        0.00      73.78       1.79       0.00       1.88       ----

> <Gold.Chemscore.Fitness>
16.9209

> <Gold.Chemscore.DG>
-18.8051

> <Gold.Chemscore.ZeroCoef>
-5.4800

> <Gold.Chemscore.Hbond>
2.7736

> <Gold.Chemscore.Metal>
0.0000

> <Gold.Chemscore.Lipo>
73.7762

> <Gold.Chemscore.Internal_Hbond>
0.0000

> <Gold.Chemscore.DEClash>
0.0021

> <Gold.Chemscore.DEInternal>
1.8820

> <Gold.Chemscore.Rot>
1.7853

> <Gold.Chemscore.Internal.Correction>
   9.000000E+99

> <Gold.Chemscore.Hbonds>
donor molecule, donor type, donor heavy atom, donor atom, acceptor molecule, acceptor atom, score
      L1  H     3    20       P1  7948  1.00
      L1  H    11    33       P1  7948  0.80
      L1  H    12    34       P1  7948  0.91

> <Gold.Chemscore.Hbond.Weighted>
-9.2637

> <Gold.Chemscore.Metal.Weighted>
-0.0000

> <Gold.Chemscore.Lipo.Weighted>
-8.6318

> <Gold.Chemscore.Internal_Hbond.Weighted>
0.0000

> <Gold.Chemscore.DEClash.Weighted>
0.0021

> <Gold.Chemscore.DEInternal.Weighted>
1.8820

> <Gold.Chemscore.Rot.Weighted>
4.5704

> <Gold.Chemscore.Internal.Correction.Weighted>
   9.000000E+99

> <Gold.Protein.RotatedTorsions>
[ 6907 6896 6895 6894 ] final   -9.66 input  -60.11 | X-H torsion
[ 7974 7965 7964 7962 ] final -168.11 input  175.53 | X-H torsion
[ 8008 7997 7996 7995 ] final  143.58 input   59.86 | X-H torsion
[ 10167 10162 10161 10158 ] final -119.51 input  -65.29 | X-H torsion
[ 10718 10713 10712 10709 ] final   11.95 input   66.30 | X-H torsion
[ 10763 10752 10751 10750 ] final -164.23 input  -60.55 | X-H torsion
[ 11005 11000 10999 10996 ] final   82.43 input  -57.11 | X-H torsion

> <Gold.Protein.ActiveResidues>
 VAL166  LYS551  ARG553  GLY616  TRP617  ASP618  TYR619  PRO620  LYS621  CYS622 
 ASP623  PHE694  ASN695  SER759  ASP760  ASP761  ALA762  ILE779  LEU786  VAL792 
 PHE793  MET794  SER795  GLU796  ALA797  LYS798  CYS799  TRP800  GLU811  SER814 

> <Gold.Protein.RotatedAtoms>
  151.4143  135.0989  159.9594 H   0  0  0  0  0  0  0  0  0  0  0  0  # atno 6907 bound_to 6896
  152.5010  133.8768  159.7336 H   0  0  0  0  0  0  0  0  0  0  0  0  # atno 6908 bound_to 6896
  150.9269  133.6755  159.2847 H   0  0  0  0  0  0  0  0  0  0  0  0  # atno 6909 bound_to 6896
  144.7209  140.2419  143.6290 H   0  0  0  0  0  0  0  0  0  0  0  0  # atno 7974 bound_to 7965
  156.2927  140.2258  156.4913 H   0  0  0  0  0  0  0  0  0  0  0  0  # atno 8008 bound_to 7997
  154.7768  140.0463  157.1117 H   0  0  0  0  0  0  0  0  0  0  0  0  # atno 8009 bound_to 7997
  154.9807  140.3078  155.4951 H   0  0  0  0  0  0  0  0  0  0  0  0  # atno 8010 bound_to 7997
  140.0458  143.5108  152.2107 H   0  0  0  0  0  0  0  0  0  0  0  0  # atno 10167 bound_to 10162
  157.0031  130.6087  149.5698 H   0  0  0  0  0  0  0  0  0  0  0  0  # atno 10718 bound_to 10713
  154.7048  135.2995  154.9287 H   0  0  0  0  0  0  0  0  0  0  0  0  # atno 10763 bound_to 10752
  154.0207  135.6683  153.4776 H   0  0  0  0  0  0  0  0  0  0  0  0  # atno 10764 bound_to 10752
  153.0709  135.5061  154.8213 H   0  0  0  0  0  0  0  0  0  0  0  0  # atno 10765 bound_to 10752
  139.9064  134.8071  156.2173 H   0  0  0  0  0  0  0  0  0  0  0  0  # atno 11005 bound_to 11000
  145.8311  139.2086  143.1882 LP  0  0  0  0  0  0  0  0  0  0  0  0  # atno 17320 bound_to 7965
  146.0430  140.8146  142.9819 LP  0  0  0  0  0  0  0  0  0  0  0  0  # atno 17321 bound_to 7965
  139.5984  144.7575  151.3230 LP  0  0  0  0  0  0  0  0  0  0  0  0  # atno 17342 bound_to 10162
  140.7239  143.7058  150.7808 LP  0  0  0  0  0  0  0  0  0  0  0  0  # atno 17343 bound_to 10162
  156.0164  130.5258  150.8146 LP  0  0  0  0  0  0  0  0  0  0  0  0  # atno 17370 bound_to 10713
  157.5376  131.0939  150.9871 LP  0  0  0  0  0  0  0  0  0  0  0  0  # atno 17371 bound_to 10713
  141.0427  133.6929  156.1628 LP  0  0  0  0  0  0  0  0  0  0  0  0  # atno 17394 bound_to 11000
  140.6930  134.4645  157.5588 LP  0  0  0  0  0  0  0  0  0  0  0  0  # atno 17395 bound_to 11000

$$$$
