AV-unprocessed.smi:2905|AV-procd|sdf|11161|dock10
  -GOLD-   2272016 43D 1   1.00000     0.00000
 Structure written by MMmdl.
 39 40  0  0  0  0  0  0  0  0  1 V2000
  148.6147  123.4193  154.6743 C   0  0  0  0  0  0  0  0  0  0  0  0
  149.0081  123.7985  153.2254 C   0  0  0  0  0  0  0  0  0  0  0  0
  150.5325  123.6012  153.0973 C   0  0  0  0  0  0  0  0  0  0  0  0
  148.2581  122.8363  152.2816 C   0  0  0  0  0  0  0  0  0  0  0  0
  148.6402  125.2545  152.8869 C   0  0  0  0  0  0  0  0  0  0  0  0
  147.9777  125.9718  153.8039 N   0  0  0  0  0  0  0  0  0  0  0  0
  147.6606  127.2473  153.4949 C   0  0  0  0  0  0  0  0  0  0  0  0
  148.0131  127.8185  152.2488 C   0  0  0  0  0  0  0  0  0  0  0  0
  147.6956  129.1388  151.8328 N   0  0  0  0  0  0  0  0  0  0  0  0
  146.5729  129.8467  152.0632 C   0  0  0  0  0  0  0  0  0  0  0  0
  145.6384  129.4673  152.7654 O   0  0  0  0  0  0  0  0  0  0  0  0
  146.5577  131.0589  151.4800 N   0  0  0  0  0  0  0  0  0  0  0  0
  145.5009  132.0710  151.5284 C   0  0  0  0  0  0  0  0  0  0  0  0
  144.1177  131.5205  151.0956 C   0  0  0  0  0  0  0  0  0  0  0  0
  143.5887  132.5798  150.1675 C   0  0  0  0  0  0  0  0  0  0  0  0
  144.4960  133.5156  149.8957 C   0  0  0  0  0  0  0  0  0  0  0  0
  145.8069  133.2626  150.5893 C   0  0  0  0  0  0  0  0  0  0  0  0
  148.6990  126.9697  151.3573 C   0  0  0  0  0  0  0  0  0  0  0  0
  149.0126  125.6970  151.6791 N   0  0  0  0  0  0  0  0  0  0  0  0
  148.8792  122.3855  154.8994 H   0  0  0  0  0  0  0  0  0  0  0  0
  147.5410  123.5184  154.8397 H   0  0  0  0  0  0  0  0  0  0  0  0
  149.1232  124.0469  155.4075 H   0  0  0  0  0  0  0  0  0  0  0  0
  151.0747  124.2744  153.7623 H   0  0  0  0  0  0  0  0  0  0  0  0
  150.8802  123.7931  152.0817 H   0  0  0  0  0  0  0  0  0  0  0  0
  150.8247  122.5814  153.3502 H   0  0  0  0  0  0  0  0  0  0  0  0
  148.4802  121.7946  152.5161 H   0  0  0  0  0  0  0  0  0  0  0  0
  148.5339  122.9968  151.2390 H   0  0  0  0  0  0  0  0  0  0  0  0
  147.1784  122.9690  152.3595 H   0  0  0  0  0  0  0  0  0  0  0  0
  147.1060  127.7832  154.2491 H   0  0  0  0  0  0  0  0  0  0  0  0
  148.4181  129.6152  151.3130 H   0  0  0  0  0  0  0  0  0  0  0  0
  147.3906  131.3222  150.9733 H   0  0  0  0  0  0  0  0  0  0  0  0
  145.4193  132.4682  152.5420 H   0  0  0  0  0  0  0  0  0  0  0  0
  144.1943  130.5763  150.5545 H   0  0  0  0  0  0  0  0  0  0  0  0
  143.4527  131.3799  151.9481 H   0  0  0  0  0  0  0  0  0  0  0  0
  142.5872  132.5471  149.7645 H   0  0  0  0  0  0  0  0  0  0  0  0
  144.3445  134.3592  149.2384 H   0  0  0  0  0  0  0  0  0  0  0  0
  146.1314  134.1433  151.1443 H   0  0  0  0  0  0  0  0  0  0  0  0
  146.5654  133.0232  149.8428 H   0  0  0  0  0  0  0  0  0  0  0  0
  149.0005  127.3120  150.3781 H   0  0  0  0  0  0  0  0  0  0  0  0
  1  2  1  0  0  0  0
  1 20  1  0  0  0  0
  1 21  1  0  0  0  0
  1 22  1  0  0  0  0
  2  3  1  0  0  0  0
  2  4  1  0  0  0  0
  2  5  1  0  0  0  0
  3 23  1  0  0  0  0
  3 24  1  0  0  0  0
  3 25  1  0  0  0  0
  4 26  1  0  0  0  0
  4 27  1  0  0  0  0
  4 28  1  0  0  0  0
  5 19  1  0  0  0  0
  5  6  2  0  0  0  0
  6  7  1  0  0  0  0
  7  8  2  0  0  0  0
  7 29  1  0  0  0  0
  8  9  1  0  0  0  0
  8 18  1  0  0  0  0
  9 10  1  0  0  0  0
  9 30  1  0  0  0  0
 10 11  2  0  0  0  0
 10 12  1  0  0  0  0
 12 13  1  0  0  0  0
 12 31  1  0  0  0  0
 13 17  1  0  0  0  0
 13 14  1  0  0  0  0
 13 32  1  0  0  0  0
 14 15  1  0  0  0  0
 14 33  1  0  0  0  0
 14 34  1  0  0  0  0
 15 16  2  0  0  0  0
 15 35  1  0  0  0  0
 16 17  1  0  0  0  0
 16 36  1  0  0  0  0
 17 37  1  0  0  0  0
 17 38  1  0  0  0  0
 18 19  2  0  0  0  0
 18 39  1  0  0  0  0
M  END
> <s_m_source_file>
AV-unprocessed.smi

> <i_m_source_file_index>
2905

> <i_lp_mmshare_version>
43012

> <i_f3d_flags>
0

> <s_epik_input>
W0NIM11DKFtDSDNdKShbQ0gzXSljMW5bY0hdYyhbY0hdbjEpW05IXUMoPU8pW05IXVtDSF0yW0NIMl1bQ0hdPVtDSF1bQ0gyXTI=

> <s_epik_cmdline>
J2VwaWtfcHl0aG9uJywgJy1waCcsICc3LjAnLCAnLXRuJywgJzgnLCAnLW1hJywgJzIwMCcsICctbWV0YWxfYmluZGluZycsICctaW1hZScsICc8aW5maWxlLm1hZT4nLCAnLW9tYWUnLCAnPG91dGZpbGUubWFlPic=

> <r_lp_tautomer_probability>
1

> <r_epik_Ionization_Penalty>
2.65275e-05

> <r_epik_Ionization_Penalty_Charging>
0

> <r_epik_Ionization_Penalty_Neutral>
2.65275e-05

> <r_epik_State_Penalty>
-0

> <r_epik_Charging_Adjusted_Penalty>
0

> <i_epik_Tot_Q>
0

> <i_epik_Tot_abs_Q>
0

> <r_epik_Metal_State_Penalty>
-0

> <b_epik_Metal_Only>
0

> <s_lp_Force_Field>
OPLS_2005

> <r_lp_Energy>
27.7511

> <b_lp_Chiralities_Consistent>
1

> <s_lp_Variant>
AV-unprocessed.smi:2905-1

> <Gold.Version>
5.8.1

> <Gold.Id.Protein>
6NUR|6NUR_protein|mol2

> <Gold.PLP.Fitness>
36.6376

> <Gold.PLP.PLP>
-31.5037

> <Gold.PLP.part.hbond>
-3.0000

> <Gold.PLP.part.metal>
0.0000

> <Gold.PLP.part.buried>
-2.6495

> <Gold.PLP.part.nonpolar>
-26.4163

> <Gold.PLP.part.repulsive>
0.3634

> <Gold.PLP.ligand.clash>
0.0000

> <Gold.PLP.ligand.torsion>
0.3759

> <Gold.PLP.Chemscore.Hbond>
1.9600

> <Gold.PLP.Chemscore.CHOScore>
0.0000

> <Gold.PLP.Chemscore.Metal>
0.0000

> <Gold.Chemscore.Hbonds>
donor molecule, donor type, donor heavy atom, donor atom, acceptor molecule, acceptor atom, score
      L1  H     9    30       P1 10747  1.00
      L1  H    12    31       P1 10747  0.98

> <Gold.PLP.Chemscore.Internal.Correction>
0.0056

> <Gold.Rescore>
     Score         DG    S(hbond)    S(metal)    S(lipo)     H(rot)  DE(clash)    DE(int)     intcor
     14.02     -15.63       1.36        0.00      73.41       1.17       0.10       1.51       ----

> <Gold.Chemscore.Fitness>
14.0182

> <Gold.Chemscore.DG>
-15.6258

> <Gold.Chemscore.ZeroCoef>
-5.4800

> <Gold.Chemscore.Hbond>
1.3628

> <Gold.Chemscore.Metal>
0.0000

> <Gold.Chemscore.Lipo>
73.4090

> <Gold.Chemscore.Internal_Hbond>
0.0000

> <Gold.Chemscore.DEClash>
0.0992

> <Gold.Chemscore.DEInternal>
1.5083

> <Gold.Chemscore.Rot>
1.1699

> <Gold.Chemscore.Internal.Correction>
   9.000000E+99

> <Gold.Chemscore.Hbonds>
donor molecule, donor type, donor heavy atom, donor atom, acceptor molecule, acceptor atom, score
      L1  H     9    30       P1 10747  0.29
      L1  H    12    31       P1 10747  0.93

> <Gold.Chemscore.Hbond.Weighted>
-4.5518

> <Gold.Chemscore.Metal.Weighted>
-0.0000

> <Gold.Chemscore.Lipo.Weighted>
-8.5889

> <Gold.Chemscore.Internal_Hbond.Weighted>
0.0000

> <Gold.Chemscore.DEClash.Weighted>
0.0992

> <Gold.Chemscore.DEInternal.Weighted>
1.5083

> <Gold.Chemscore.Rot.Weighted>
2.9949

> <Gold.Chemscore.Internal.Correction.Weighted>
   9.000000E+99

> <Gold.Protein.RotatedTorsions>
[ 6907 6896 6895 6894 ] final   50.36 input  -60.11 | X-H torsion
[ 7974 7965 7964 7962 ] final   32.07 input  175.53 | X-H torsion
[ 8008 7997 7996 7995 ] final  -98.24 input   59.86 | X-H torsion
[ 10167 10162 10161 10158 ] final  -82.09 input  -65.29 | X-H torsion
[ 10718 10713 10712 10709 ] final  -34.70 input   66.30 | X-H torsion
[ 10763 10752 10751 10750 ] final -174.91 input  -60.55 | X-H torsion
[ 11005 11000 10999 10996 ] final -172.31 input  -57.11 | X-H torsion

> <Gold.Protein.ActiveResidues>
 VAL166  LYS551  ARG553  GLY616  TRP617  ASP618  TYR619  PRO620  LYS621  CYS622 
 ASP623  PHE694  ASN695  SER759  ASP760  ASP761  ALA762  ILE779  LEU786  VAL792 
 PHE793  MET794  SER795  GLU796  ALA797  LYS798  CYS799  TRP800  GLU811  SER814 

> <Gold.Protein.RotatedAtoms>
  152.3009  134.7612  160.0357 H   0  0  0  0  0  0  0  0  0  0  0  0  # atno 6907 bound_to 6896
  151.8125  133.3378  159.3568 H   0  0  0  0  0  0  0  0  0  0  0  0  # atno 6908 bound_to 6896
  150.7273  134.5580  159.5872 H   0  0  0  0  0  0  0  0  0  0  0  0  # atno 6909 bound_to 6896
  146.1510  139.6574  142.9099 H   0  0  0  0  0  0  0  0  0  0  0  0  # atno 7974 bound_to 7965
  154.7985  140.0457  157.1255 H   0  0  0  0  0  0  0  0  0  0  0  0  # atno 8008 bound_to 7997
  154.9507  140.3064  155.5057 H   0  0  0  0  0  0  0  0  0  0  0  0  # atno 8009 bound_to 7997
  156.2959  140.2288  156.4584 H   0  0  0  0  0  0  0  0  0  0  0  0  # atno 8010 bound_to 7997
  140.4351  143.2534  151.8704 H   0  0  0  0  0  0  0  0  0  0  0  0  # atno 10167 bound_to 10162
  156.3474  130.4303  149.7734 H   0  0  0  0  0  0  0  0  0  0  0  0  # atno 10718 bound_to 10713
  154.5907  135.2845  155.0639 H   0  0  0  0  0  0  0  0  0  0  0  0  # atno 10763 bound_to 10752
  154.1940  135.6436  153.5072 H   0  0  0  0  0  0  0  0  0  0  0  0  # atno 10764 bound_to 10752
  153.0120  135.5453  154.6591 H   0  0  0  0  0  0  0  0  0  0  0  0  # atno 10765 bound_to 10752
  140.4984  134.5917  157.4979 H   0  0  0  0  0  0  0  0  0  0  0  0  # atno 11005 bound_to 11000
  145.4823  141.0438  143.2639 LP  0  0  0  0  0  0  0  0  0  0  0  0  # atno 17320 bound_to 7965
  144.7904  139.6340  143.7116 LP  0  0  0  0  0  0  0  0  0  0  0  0  # atno 17321 bound_to 7965
  139.4786  144.5291  151.8692 LP  0  0  0  0  0  0  0  0  0  0  0  0  # atno 17342 bound_to 10162
  140.4382  144.2022  150.5890 LP  0  0  0  0  0  0  0  0  0  0  0  0  # atno 17343 bound_to 10162
  156.4947  130.8101  151.3109 LP  0  0  0  0  0  0  0  0  0  0  0  0  # atno 17370 bound_to 10713
  157.7456  130.9964  150.2778 LP  0  0  0  0  0  0  0  0  0  0  0  0  # atno 17371 bound_to 10713
  139.9727  134.7265  156.0009 LP  0  0  0  0  0  0  0  0  0  0  0  0  # atno 17394 bound_to 11000
  141.1448  133.6558  156.3835 LP  0  0  0  0  0  0  0  0  0  0  0  0  # atno 17395 bound_to 11000

$$$$
