AV-unprocessed.smi:224|AV-procd|sdf|1716|dock8
  -GOLD-   2262020193D 1   1.00000     0.00000
 Structure written by MMmdl.
 56 59  0  0  0  0  0  0  0  0  2 V2000
  144.5783  132.3417  149.1168 C   0  0  0  0  0  0  0  0  0  0  0  0
  145.8174  132.1090  149.9911 C   0  0  1  0  0  0  0  0  0  0  0  0
  146.7919  131.4639  149.1961 O   0  0  0  0  0  0  0  0  0  0  0  0
  146.3912  133.4340  150.5320 C   0  0  0  0  0  0  0  0  0  0  0  0
  145.3653  134.2766  151.2011 N   0  3  2  0  0  0  0  0  0  0  0  0
  145.5556  135.7372  150.9887 C   0  0  0  0  0  0  0  0  0  0  0  0
  144.3833  136.5382  151.5835 C   0  0  0  0  0  0  0  0  0  0  0  0
  144.1581  136.1862  152.9842 N   0  0  0  0  0  0  0  0  0  0  0  0
  144.7782  136.9016  153.9615 C   0  0  0  0  0  0  0  0  0  0  0  0
  144.4864  136.6498  155.2661 N   0  0  0  0  0  0  0  0  0  0  0  0
  145.0639  137.3580  156.2403 C   0  0  0  0  0  0  0  0  0  0  0  0
  145.9536  138.3456  156.1365 N   0  0  0  0  0  0  0  0  0  0  0  0
  146.2697  138.5920  154.8335 C   0  0  0  0  0  0  0  0  0  0  0  0
  145.7339  137.9248  153.6950 C   0  0  0  0  0  0  0  0  0  0  0  0
  146.3019  138.4445  152.5371 N   0  0  0  0  0  0  0  0  0  0  0  0
  147.1154  139.3704  152.9654 C   0  0  0  0  0  0  0  0  0  0  0  0
  147.1630  139.5221  154.3324 N   0  0  0  0  0  0  0  0  0  0  0  0
  147.9797  140.4681  155.0770 C   0  0  0  0  0  0  0  0  0  0  0  0
  149.4946  140.3244  154.8009 C   0  0  1  0  0  0  0  0  0  0  0  0
  149.7821  140.8339  153.5102 O   0  0  0  0  0  0  0  0  0  0  0  0
  150.3835  141.0431  155.8128 C   0  0  0  0  0  0  0  0  0  0  0  0
  151.6167  140.1529  155.8753 C   0  0  0  0  0  0  0  0  0  0  0  0
  151.0581  138.8521  155.8142 O   0  0  0  0  0  0  0  0  0  0  0  0
  149.9909  138.8662  154.8716 C   0  0  0  0  0  0  0  0  0  0  0  0
  143.9713  134.7552  153.2199 C   0  0  0  0  0  0  0  0  0  0  0  0
  145.1299  133.9184  152.6318 C   0  0  2  0  0  0  0  0  0  0  0  0
  146.4052  133.9935  153.4998 C   0  0  0  0  0  0  0  0  0  0  0  0
  143.7820  132.8216  149.6865 H   0  0  0  0  0  0  0  0  0  0  0  0
  144.1849  131.3999  148.7324 H   0  0  0  0  0  0  0  0  0  0  0  0
  144.8068  132.9803  148.2628 H   0  0  0  0  0  0  0  0  0  0  0  0
  145.5392  131.4407  150.8051 H   0  0  0  0  0  0  0  0  0  0  0  0
  147.4649  131.1113  149.7575 H   0  0  0  0  0  0  0  0  0  0  0  0
  147.1943  133.2001  151.2328 H   0  0  0  0  0  0  0  0  0  0  0  0
  146.8492  134.0067  149.7239 H   0  0  0  0  0  0  0  0  0  0  0  0
  146.4990  136.0550  151.4337 H   0  0  0  0  0  0  0  0  0  0  0  0
  145.6281  135.9609  149.9255 H   0  0  0  0  0  0  0  0  0  0  0  0
  144.5459  137.6103  151.4644 H   0  0  0  0  0  0  0  0  0  0  0  0
  143.4709  136.3122  151.0302 H   0  0  0  0  0  0  0  0  0  0  0  0
  144.7713  137.0974  157.2467 H   0  0  0  0  0  0  0  0  0  0  0  0
  147.7110  139.9683  152.2911 H   0  0  0  0  0  0  0  0  0  0  0  0
  147.6472  141.4751  154.8212 H   0  0  0  0  0  0  0  0  0  0  0  0
  147.7745  140.3410  156.1408 H   0  0  0  0  0  0  0  0  0  0  0  0
  149.6265  140.1506  152.8762 H   0  0  0  0  0  0  0  0  0  0  0  0
  150.6099  142.0766  155.5467 H   0  0  0  0  0  0  0  0  0  0  0  0
  149.9092  141.0493  156.7948 H   0  0  0  0  0  0  0  0  0  0  0  0
  152.2660  140.3179  155.0144 H   0  0  0  0  0  0  0  0  0  0  0  0
  152.1996  140.3002  156.7846 H   0  0  0  0  0  0  0  0  0  0  0  0
  149.2131  138.1766  155.2012 H   0  0  0  0  0  0  0  0  0  0  0  0
  150.3537  138.5089  153.9063 H   0  0  0  0  0  0  0  0  0  0  0  0
  143.8479  134.5197  154.2756 H   0  0  0  0  0  0  0  0  0  0  0  0
  143.0362  134.4641  152.7403 H   0  0  0  0  0  0  0  0  0  0  0  0
  144.8011  132.8783  152.6483 H   0  0  0  0  0  0  0  0  0  0  0  0
  146.1786  133.7504  154.5382 H   0  0  0  0  0  0  0  0  0  0  0  0
  146.8555  134.9850  153.4906 H   0  0  0  0  0  0  0  0  0  0  0  0
  147.1638  133.2855  153.1671 H   0  0  0  0  0  0  0  0  0  0  0  0
  144.4962  134.0493  150.7400 H   0  0  0  0  0  0  0  0  0  0  0  0
  1  2  1  0  0  0  0
  1 28  1  0  0  0  0
  1 29  1  0  0  0  0
  1 30  1  0  0  0  0
  2  3  1  0  0  0  0
  2  4  1  0  0  0  0
  2 31  1  0  0  0  0
  3 32  1  0  0  0  0
  4  5  1  0  0  0  0
  4 33  1  0  0  0  0
  4 34  1  0  0  0  0
  5 26  1  0  0  0  0
  5  6  1  0  0  0  0
  5 56  1  0  0  0  0
  6  7  1  0  0  0  0
  6 35  1  0  0  0  0
  6 36  1  0  0  0  0
  7  8  1  0  0  0  0
  7 37  1  0  0  0  0
  7 38  1  0  0  0  0
  8  9  1  0  0  0  0
  8 25  1  0  0  0  0
  9 14  1  0  0  0  0
  9 10  2  0  0  0  0
 10 11  1  0  0  0  0
 11 12  2  0  0  0  0
 11 39  1  0  0  0  0
 12 13  1  0  0  0  0
 13 17  1  0  0  0  0
 13 14  2  0  0  0  0
 14 15  1  0  0  0  0
 15 16  2  0  0  0  0
 16 17  1  0  0  0  0
 16 40  1  0  0  0  0
 17 18  1  0  0  0  0
 18 19  1  0  0  0  0
 18 41  1  0  0  0  0
 18 42  1  0  0  0  0
 19 24  1  0  0  0  0
 19 20  1  0  0  0  0
 19 21  1  0  0  0  0
 20 43  1  0  0  0  0
 21 22  1  0  0  0  0
 21 44  1  0  0  0  0
 21 45  1  0  0  0  0
 22 23  1  0  0  0  0
 22 46  1  0  0  0  0
 22 47  1  0  0  0  0
 23 24  1  0  0  0  0
 24 48  1  0  0  0  0
 24 49  1  0  0  0  0
 25 26  1  0  0  0  0
 25 50  1  0  0  0  0
 25 51  1  0  0  0  0
 26 27  1  0  0  0  0
 26 52  1  0  0  0  0
 27 53  1  0  0  0  0
 27 54  1  0  0  0  0
 27 55  1  0  0  0  0
M  CHG  1   5   1
M  END
> <s_m_source_file>
AV-unprocessed.smi

> <i_m_source_file_index>
224

> <i_lp_mmshare_version>
43012

> <i_f3d_flags>
0

> <s_epik_input>
W0NIM11bQ0BIXShbT0hdKVtDSDJdTjFbQ0gyXVtDSDJdTihbQ0gyXVtDQEhdMVtDSDNdKWMobltjSF1uMiljKGMyMyluW2NIXW4zW0NIMl1bQ0BAXTQoW09IXSlbQ0gyXVtDSDJdT1tDSDJdNA==

> <s_epik_cmdline>
J2VwaWtfcHl0aG9uJywgJy1waCcsICc3LjAnLCAnLXRuJywgJzgnLCAnLW1hJywgJzIwMCcsICctbWV0YWxfYmluZGluZycsICctaW1hZScsICc8aW5maWxlLm1hZT4nLCAnLW9tYWUnLCAnPG91dGZpbGUubWFlPic=

> <r_lp_tautomer_probability>
1

> <r_epik_Ionization_Penalty>
0.00516958

> <r_epik_Ionization_Penalty_Charging>
0.00509693

> <r_epik_Ionization_Penalty_Neutral>
7.26542e-05

> <r_epik_State_Penalty>
-0

> <r_epik_Charging_Adjusted_Penalty>
0.00509693

> <i_epik_Tot_Q>
1

> <i_epik_Tot_abs_Q>
1

> <r_epik_Metal_State_Penalty>
-0

> <b_epik_Metal_Only>
0

> <s_lp_Force_Field>
OPLS_2005

> <r_lp_Energy>
50.5155

> <b_lp_Chiralities_Consistent>
1

> <s_lp_Variant>
AV-unprocessed.smi:224-10

> <Gold.Version>
5.8.1

> <Gold.Id.Protein>
6NUR|6NUR_protein|mol2

> <Gold.PLP.Fitness>
48.3488

> <Gold.PLP.PLP>
-37.5916

> <Gold.PLP.part.hbond>
-3.4092

> <Gold.PLP.part.metal>
0.0000

> <Gold.PLP.part.buried>
-2.2699

> <Gold.PLP.part.nonpolar>
-30.8353

> <Gold.PLP.part.repulsive>
0.3408

> <Gold.PLP.ligand.clash>
0.0000

> <Gold.PLP.ligand.torsion>
0.8715

> <Gold.PLP.Chemscore.Hbond>
3.0560

> <Gold.PLP.Chemscore.CHOScore>
1.0000

> <Gold.PLP.Chemscore.Metal>
0.0000

> <Gold.Chemscore.Hbonds>
donor molecule, donor type, donor heavy atom, donor atom, acceptor molecule, acceptor atom, score
      L1  H     3    32       P1 10747  1.00
      L1  H    20    43       P1  7957  0.70
      P1  H  7989  7998       L1    20  0.34
      P1  H  8011  8017       L1    20  1.00
      L1  C    16    40       P1  7957  1.00

> <Gold.PLP.Chemscore.Internal.Correction>
0.3321

> <Gold.Rescore>
     Score         DG    S(hbond)    S(metal)    S(lipo)     H(rot)  DE(clash)    DE(int)     intcor
     12.23     -15.47       2.27        0.00      86.66       3.02       1.14       2.10       ----

> <Gold.Chemscore.Fitness>
12.2252

> <Gold.Chemscore.DG>
-15.4668

> <Gold.Chemscore.ZeroCoef>
-5.4800

> <Gold.Chemscore.Hbond>
2.2715

> <Gold.Chemscore.Metal>
0.0000

> <Gold.Chemscore.Lipo>
86.6577

> <Gold.Chemscore.Internal_Hbond>
0.0000

> <Gold.Chemscore.DEClash>
1.1384

> <Gold.Chemscore.DEInternal>
2.1033

> <Gold.Chemscore.Rot>
3.0231

> <Gold.Chemscore.Internal.Correction>
   9.000000E+99

> <Gold.Chemscore.Hbonds>
donor molecule, donor type, donor heavy atom, donor atom, acceptor molecule, acceptor atom, score
      L1  H     3    32       P1 10747  0.96
      L1  H    20    43       P1  7957  0.72
      P1  H  7989  7998       L1    20  0.04
      P1  H  8011  8017       L1    20  0.25

> <Gold.Chemscore.Hbond.Weighted>
-7.5870

> <Gold.Chemscore.Metal.Weighted>
-0.0000

> <Gold.Chemscore.Lipo.Weighted>
-10.1390

> <Gold.Chemscore.Internal_Hbond.Weighted>
0.0000

> <Gold.Chemscore.DEClash.Weighted>
1.1384

> <Gold.Chemscore.DEInternal.Weighted>
2.1033

> <Gold.Chemscore.Rot.Weighted>
7.7391

> <Gold.Chemscore.Internal.Correction.Weighted>
   9.000000E+99

> <Gold.Protein.RotatedTorsions>
[ 6907 6896 6895 6894 ] final   89.16 input  -60.11 | X-H torsion
[ 7974 7965 7964 7962 ] final -161.24 input  175.53 | X-H torsion
[ 8008 7997 7996 7995 ] final  168.62 input   59.86 | X-H torsion
[ 10167 10162 10161 10158 ] final  -76.24 input  -65.29 | X-H torsion
[ 10718 10713 10712 10709 ] final   64.88 input   66.30 | X-H torsion
[ 10763 10752 10751 10750 ] final   19.68 input  -60.55 | X-H torsion
[ 11005 11000 10999 10996 ] final -102.96 input  -57.11 | X-H torsion

> <Gold.Protein.ActiveResidues>
 VAL166  LYS551  ARG553  GLY616  TRP617  ASP618  TYR619  PRO620  LYS621  CYS622 
 ASP623  PHE694  ASN695  SER759  ASP760  ASP761  ALA762  ILE779  LEU786  VAL792 
 PHE793  MET794  SER795  GLU796  ALA797  LYS798  CYS799  TRP800  GLU811  SER814 

> <Gold.Protein.RotatedAtoms>
  152.5433  134.2009  159.8711 H   0  0  0  0  0  0  0  0  0  0  0  0  # atno 6907 bound_to 6896
  151.1998  133.4611  159.2603 H   0  0  0  0  0  0  0  0  0  0  0  0  # atno 6908 bound_to 6896
  151.1001  134.9979  159.8500 H   0  0  0  0  0  0  0  0  0  0  0  0  # atno 6909 bound_to 6896
  144.7398  140.3426  143.6131 H   0  0  0  0  0  0  0  0  0  0  0  0  # atno 7974 bound_to 7965
  156.1530  140.1585  156.8738 H   0  0  0  0  0  0  0  0  0  0  0  0  # atno 8008 bound_to 7997
  154.5089  140.0806  156.7986 H   0  0  0  0  0  0  0  0  0  0  0  0  # atno 8009 bound_to 7997
  155.3858  140.3407  155.4251 H   0  0  0  0  0  0  0  0  0  0  0  0  # atno 8010 bound_to 7997
  140.4873  143.2388  151.7962 H   0  0  0  0  0  0  0  0  0  0  0  0  # atno 10167 bound_to 10162
  157.6069  130.9184  149.9904 H   0  0  0  0  0  0  0  0  0  0  0  0  # atno 10718 bound_to 10713
  153.1141  135.6704  153.9448 H   0  0  0  0  0  0  0  0  0  0  0  0  # atno 10763 bound_to 10752
  153.8983  135.3039  155.3449 H   0  0  0  0  0  0  0  0  0  0  0  0  # atno 10764 bound_to 10752
  154.7559  135.5012  153.9451 H   0  0  0  0  0  0  0  0  0  0  0  0  # atno 10765 bound_to 10752
  141.1166  133.8601  157.1426 H   0  0  0  0  0  0  0  0  0  0  0  0  # atno 11005 bound_to 11000
  145.7358  139.1749  143.2404 LP  0  0  0  0  0  0  0  0  0  0  0  0  # atno 17320 bound_to 7965
  146.1172  140.7355  142.9475 LP  0  0  0  0  0  0  0  0  0  0  0  0  # atno 17321 bound_to 7965
  139.4844  144.4695  151.9443 LP  0  0  0  0  0  0  0  0  0  0  0  0  # atno 17342 bound_to 10162
  140.3781  144.2771  150.5912 LP  0  0  0  0  0  0  0  0  0  0  0  0  # atno 17343 bound_to 10162
  156.1158  130.3648  149.9970 LP  0  0  0  0  0  0  0  0  0  0  0  0  # atno 17370 bound_to 10713
  156.8060  130.9307  151.3645 LP  0  0  0  0  0  0  0  0  0  0  0  0  # atno 17371 bound_to 10713
  140.0093  134.9995  157.0361 LP  0  0  0  0  0  0  0  0  0  0  0  0  # atno 17394 bound_to 11000
  140.4627  134.1467  155.7193 LP  0  0  0  0  0  0  0  0  0  0  0  0  # atno 17395 bound_to 11000

$$$$
