AV-unprocessed.smi:176|AV-procd|sdf|1435|dock5
  -GOLD-   2262019213D 1   1.00000     0.00000
 Structure written by MMmdl.
 57 61  0  0  0  0  0  0  0  0  1 V2000
  146.6856  134.6286  152.8981 O   0  0  0  0  0  0  0  0  0  0  0  0
  147.1192  133.3459  153.3050 C   0  0  0  0  0  0  0  0  0  0  0  0
  147.9881  133.3834  154.5764 C   0  0  0  0  0  0  0  0  0  0  0  0
  148.3002  131.9052  154.8915 C   0  0  0  0  0  0  0  0  0  0  0  0
  147.1458  131.1171  155.0991 O   0  0  0  0  0  0  0  0  0  0  0  0
  149.1943  134.3510  154.5577 C   0  0  0  0  0  0  0  0  0  0  0  0
  148.8414  134.8303  155.9714 C   0  0  0  0  0  0  0  0  0  0  0  0
  148.9974  136.2034  156.3551 N   0  0  0  0  0  0  0  0  0  0  0  0
  148.0126  137.0556  156.8020 C   0  0  0  0  0  0  0  0  0  0  0  0
  148.4020  138.2770  157.0466 N   0  0  0  0  0  0  0  0  0  0  0  0
  149.7519  138.2772  156.7148 C   0  0  0  0  0  0  0  0  0  0  0  0
  150.7765  139.2666  156.7260 C   0  0  0  0  0  0  0  0  0  0  0  0
  150.5684  140.5373  157.1586 N   0  0  0  0  0  0  0  0  0  0  0  0
  150.3935  141.5783  156.1458 C   0  0  0  0  0  0  0  0  0  0  0  0
  149.8089  142.8555  156.7703 C   0  0  0  0  0  0  0  0  0  0  0  0
  150.6291  143.3522  157.9816 C   0  0  2  0  0  0  0  0  0  0  0  0
  149.8484  144.3644  158.5927 O   0  0  0  0  0  0  0  0  0  0  0  0
  151.9770  143.9904  157.5641 C   0  0  0  0  0  0  0  0  0  0  0  0
  152.8301  144.4104  158.7746 C   0  0  0  0  0  0  0  0  0  0  0  0
  153.0510  143.2385  159.7422 C   0  0  0  0  0  0  0  0  0  0  0  0
  151.7147  142.6206  160.1877 C   0  0  0  0  0  0  0  0  0  0  0  0
  150.8321  142.1920  158.9947 C   0  0  2  0  0  0  0  0  0  0  0  0
  151.3903  140.9288  158.3023 C   0  0  0  0  0  0  0  0  0  0  0  0
  152.0070  138.8941  156.2809 N   0  0  0  0  0  0  0  0  0  0  0  0
  152.2262  137.6436  155.8645 C   0  0  0  0  0  0  0  0  0  0  0  0
  151.3724  136.6201  155.8124 N   0  0  0  0  0  0  0  0  0  0  0  0
  150.1348  136.9855  156.2534 C   0  0  0  0  0  0  0  0  0  0  0  0
  147.4476  134.2320  155.7495 C   0  0  0  0  0  0  0  0  0  0  0  0
  147.3771  135.0359  152.3988 H   0  0  0  0  0  0  0  0  0  0  0  0
  146.2325  132.7304  153.4608 H   0  0  0  0  0  0  0  0  0  0  0  0
  147.6672  132.9020  152.4733 H   0  0  0  0  0  0  0  0  0  0  0  0
  148.8674  131.4502  154.0788 H   0  0  0  0  0  0  0  0  0  0  0  0
  148.9184  131.8235  155.7861 H   0  0  0  0  0  0  0  0  0  0  0  0
  146.4153  131.6920  155.2693 H   0  0  0  0  0  0  0  0  0  0  0  0
  150.1679  133.8658  154.4827 H   0  0  0  0  0  0  0  0  0  0  0  0
  149.1034  135.1449  153.8154 H   0  0  0  0  0  0  0  0  0  0  0  0
  149.3891  134.2538  156.7176 H   0  0  0  0  0  0  0  0  0  0  0  0
  146.9893  136.7420  156.9481 H   0  0  0  0  0  0  0  0  0  0  0  0
  151.3528  141.7914  155.6730 H   0  0  0  0  0  0  0  0  0  0  0  0
  149.7225  141.2260  155.3612 H   0  0  0  0  0  0  0  0  0  0  0  0
  149.7324  143.6373  156.0137 H   0  0  0  0  0  0  0  0  0  0  0  0
  148.7871  142.6394  157.0866 H   0  0  0  0  0  0  0  0  0  0  0  0
  149.2872  144.7479  157.9365 H   0  0  0  0  0  0  0  0  0  0  0  0
  152.5539  143.2856  156.9650 H   0  0  0  0  0  0  0  0  0  0  0  0
  151.8024  144.8544  156.9215 H   0  0  0  0  0  0  0  0  0  0  0  0
  153.7918  144.7940  158.4330 H   0  0  0  0  0  0  0  0  0  0  0  0
  152.3448  145.2326  159.3020 H   0  0  0  0  0  0  0  0  0  0  0  0
  153.6732  142.4809  159.2655 H   0  0  0  0  0  0  0  0  0  0  0  0
  153.6068  143.5811  160.6153 H   0  0  0  0  0  0  0  0  0  0  0  0
  151.8995  141.7680  160.8422 H   0  0  0  0  0  0  0  0  0  0  0  0
  151.1734  143.3489  160.7930 H   0  0  0  0  0  0  0  0  0  0  0  0
  149.8548  141.9163  159.3950 H   0  0  0  0  0  0  0  0  0  0  0  0
  151.4590  140.1241  159.0331 H   0  0  0  0  0  0  0  0  0  0  0  0
  152.4053  141.1023  157.9443 H   0  0  0  0  0  0  0  0  0  0  0  0
  153.2304  137.4323  155.5279 H   0  0  0  0  0  0  0  0  0  0  0  0
  146.7211  134.9868  155.4454 H   0  0  0  0  0  0  0  0  0  0  0  0
  147.0702  133.6560  156.5951 H   0  0  0  0  0  0  0  0  0  0  0  0
  1  2  1  0  0  0  0
  1 29  1  0  0  0  0
  2  3  1  0  0  0  0
  2 30  1  0  0  0  0
  2 31  1  0  0  0  0
  3 28  1  0  0  0  0
  3  4  1  0  0  0  0
  3  6  1  0  0  0  0
  4  5  1  0  0  0  0
  4 32  1  0  0  0  0
  4 33  1  0  0  0  0
  5 34  1  0  0  0  0
  6  7  1  0  0  0  0
  6 35  1  0  0  0  0
  6 36  1  0  0  0  0
  7  8  1  0  0  0  0
  7 28  1  0  0  0  0
  7 37  1  0  0  0  0
  8 27  1  0  0  0  0
  8  9  1  0  0  0  0
  9 10  2  0  0  0  0
  9 38  1  0  0  0  0
 10 11  1  0  0  0  0
 11 27  2  0  0  0  0
 11 12  1  0  0  0  0
 12 13  1  0  0  0  0
 12 24  2  0  0  0  0
 13 23  1  0  0  0  0
 13 14  1  0  0  0  0
 14 15  1  0  0  0  0
 14 39  1  0  0  0  0
 14 40  1  0  0  0  0
 15 16  1  0  0  0  0
 15 41  1  0  0  0  0
 15 42  1  0  0  0  0
 16 22  1  0  0  0  0
 16 17  1  0  0  0  0
 16 18  1  0  0  0  0
 17 43  1  0  0  0  0
 18 19  1  0  0  0  0
 18 44  1  0  0  0  0
 18 45  1  0  0  0  0
 19 20  1  0  0  0  0
 19 46  1  0  0  0  0
 19 47  1  0  0  0  0
 20 21  1  0  0  0  0
 20 48  1  0  0  0  0
 20 49  1  0  0  0  0
 21 22  1  0  0  0  0
 21 50  1  0  0  0  0
 21 51  1  0  0  0  0
 22 23  1  0  0  0  0
 22 52  1  0  0  0  0
 23 53  1  0  0  0  0
 23 54  1  0  0  0  0
 24 25  1  0  0  0  0
 25 26  2  0  0  0  0
 25 55  1  0  0  0  0
 26 27  1  0  0  0  0
 28 56  1  0  0  0  0
 28 57  1  0  0  0  0
M  END
> <s_m_source_file>
AV-unprocessed.smi

> <i_m_source_file_index>
176

> <i_lp_mmshare_version>
43012

> <i_f3d_flags>
0

> <s_epik_input>
W09IXVtDSDJdQzEoW0NIMl1bT0hdKVtDSDJdW0NIXShbQ0gyXTEpbihbY0hdbjIpYyhjMjMpbltjSF1uYzNOKFtDSDJdW0NIMl00KVtDSDJdW0NAQEhdKFtDQF00NVtPSF0pW0NIMl1bQ0gyXVtDSDJdW0NIMl01

> <s_epik_cmdline>
J2VwaWtfcHl0aG9uJywgJy1waCcsICc3LjAnLCAnLXRuJywgJzgnLCAnLW1hJywgJzIwMCcsICctbWV0YWxfYmluZGluZycsICctaW1hZScsICc8aW5maWxlLm1hZT4nLCAnLW9tYWUnLCAnPG91dGZpbGUubWFlPic=

> <r_lp_tautomer_probability>
1

> <r_epik_Ionization_Penalty>
0.00642876

> <r_epik_Ionization_Penalty_Charging>
0

> <r_epik_Ionization_Penalty_Neutral>
0.00642876

> <r_epik_State_Penalty>
0.00467813

> <r_epik_Charging_Adjusted_Penalty>
0.00467813

> <i_epik_Tot_Q>
0

> <i_epik_Tot_abs_Q>
0

> <r_epik_Metal_State_Penalty>
-0

> <b_epik_Metal_Only>
0

> <s_lp_Force_Field>
OPLS_2005

> <r_lp_Energy>
56.0126

> <b_lp_Chiralities_Consistent>
1

> <s_lp_Variant>
AV-unprocessed.smi:176-3

> <Gold.Version>
5.8.1

> <Gold.Id.Protein>
6NUR|6NUR_protein|mol2

> <Gold.PLP.Fitness>
51.3370

> <Gold.PLP.PLP>
-40.2771

> <Gold.PLP.part.hbond>
-4.4135

> <Gold.PLP.part.metal>
0.0000

> <Gold.PLP.part.buried>
-1.0589

> <Gold.PLP.part.nonpolar>
-35.7094

> <Gold.PLP.part.repulsive>
0.0557

> <Gold.PLP.ligand.clash>
0.0000

> <Gold.PLP.ligand.torsion>
0.5791

> <Gold.PLP.Chemscore.Hbond>
3.8233

> <Gold.PLP.Chemscore.CHOScore>
0.0000

> <Gold.PLP.Chemscore.Metal>
0.0000

> <Gold.Chemscore.Hbonds>
donor molecule, donor type, donor heavy atom, donor atom, acceptor molecule, acceptor atom, score
      L1  H     1    29       P1  7948  1.00
      L1  H    17    43       P1  8029  0.70
      P1  H 10752 10763       L1    26  0.15

> <Gold.PLP.Chemscore.Internal.Correction>
0.7483

> <Gold.Rescore>
     Score         DG    S(hbond)    S(metal)    S(lipo)     H(rot)  DE(clash)    DE(int)     intcor
     14.82     -17.31       2.06        0.00     123.44       3.71       2.06       0.43       ----

> <Gold.Chemscore.Fitness>
14.8234

> <Gold.Chemscore.DG>
-17.3104

> <Gold.Chemscore.ZeroCoef>
-5.4800

> <Gold.Chemscore.Hbond>
2.0624

> <Gold.Chemscore.Metal>
0.0000

> <Gold.Chemscore.Lipo>
123.4364

> <Gold.Chemscore.Internal_Hbond>
0.0000

> <Gold.Chemscore.DEClash>
2.0608

> <Gold.Chemscore.DEInternal>
0.4262

> <Gold.Chemscore.Rot>
3.7109

> <Gold.Chemscore.Internal.Correction>
   9.000000E+99

> <Gold.Chemscore.Hbonds>
donor molecule, donor type, donor heavy atom, donor atom, acceptor molecule, acceptor atom, score
      L1  H     1    29       P1  7948  0.94
      L1  H    17    43       P1  8029  0.07

> <Gold.Chemscore.Hbond.Weighted>
-6.8884

> <Gold.Chemscore.Metal.Weighted>
-0.0000

> <Gold.Chemscore.Lipo.Weighted>
-14.4421

> <Gold.Chemscore.Internal_Hbond.Weighted>
0.0000

> <Gold.Chemscore.DEClash.Weighted>
2.0608

> <Gold.Chemscore.DEInternal.Weighted>
0.4262

> <Gold.Chemscore.Rot.Weighted>
9.5000

> <Gold.Chemscore.Internal.Correction.Weighted>
   9.000000E+99

> <Gold.Protein.RotatedTorsions>
[ 6907 6896 6895 6894 ] final   45.54 input  -60.11 | X-H torsion
[ 7974 7965 7964 7962 ] final    6.69 input  175.53 | X-H torsion
[ 8008 7997 7996 7995 ] final -161.56 input   59.86 | X-H torsion
[ 10167 10162 10161 10158 ] final -132.32 input  -65.29 | X-H torsion
[ 10718 10713 10712 10709 ] final -148.96 input   66.30 | X-H torsion
[ 10763 10752 10751 10750 ] final   58.26 input  -60.55 | X-H torsion
[ 11005 11000 10999 10996 ] final  -73.08 input  -57.11 | X-H torsion

> <Gold.Protein.ActiveResidues>
 VAL166  LYS551  ARG553  GLY616  TRP617  ASP618  TYR619  PRO620  LYS621  CYS622 
 ASP623  PHE694  ASN695  SER759  ASP760  ASP761  ALA762  ILE779  LEU786  VAL792 
 PHE793  MET794  SER795  GLU796  ALA797  LYS798  CYS799  TRP800  GLU811  SER814 

> <Gold.Protein.RotatedAtoms>
  152.2457  134.8183  160.0453 H   0  0  0  0  0  0  0  0  0  0  0  0  # atno 6907 bound_to 6896
  151.8881  133.3505  159.3797 H   0  0  0  0  0  0  0  0  0  0  0  0  # atno 6908 bound_to 6896
  150.7068  134.4877  159.5545 H   0  0  0  0  0  0  0  0  0  0  0  0  # atno 6909 bound_to 6896
  146.2433  140.0195  142.8399 H   0  0  0  0  0  0  0  0  0  0  0  0  # atno 7974 bound_to 7965
  155.7939  140.0882  157.1994 H   0  0  0  0  0  0  0  0  0  0  0  0  # atno 8008 bound_to 7997
  154.3984  140.1485  156.3254 H   0  0  0  0  0  0  0  0  0  0  0  0  # atno 8009 bound_to 7997
  155.8530  140.3433  155.5709 H   0  0  0  0  0  0  0  0  0  0  0  0  # atno 8010 bound_to 7997
  139.9098  143.6507  152.2578 H   0  0  0  0  0  0  0  0  0  0  0  0  # atno 10167 bound_to 10162
  156.4270  130.8057  151.2282 H   0  0  0  0  0  0  0  0  0  0  0  0  # atno 10718 bound_to 10713
  152.9867  135.5613  154.5523 H   0  0  0  0  0  0  0  0  0  0  0  0  # atno 10763 bound_to 10752
  154.4958  135.2795  155.1462 H   0  0  0  0  0  0  0  0  0  0  0  0  # atno 10764 bound_to 10752
  154.2913  135.6325  153.5439 H   0  0  0  0  0  0  0  0  0  0  0  0  # atno 10765 bound_to 10752
  141.1618  133.6867  156.7157 H   0  0  0  0  0  0  0  0  0  0  0  0  # atno 11005 bound_to 11000
  145.1254  140.9487  143.4576 LP  0  0  0  0  0  0  0  0  0  0  0  0  # atno 17320 bound_to 7965
  145.0440  139.3236  143.5962 LP  0  0  0  0  0  0  0  0  0  0  0  0  # atno 17321 bound_to 7965
  139.6952  144.7642  151.1368 LP  0  0  0  0  0  0  0  0  0  0  0  0  # atno 17342 bound_to 10162
  140.7688  143.5533  150.9180 LP  0  0  0  0  0  0  0  0  0  0  0  0  # atno 17343 bound_to 10162
  157.7508  131.0210  150.3732 LP  0  0  0  0  0  0  0  0  0  0  0  0  # atno 17370 bound_to 10713
  156.4062  130.3925  149.6924 LP  0  0  0  0  0  0  0  0  0  0  0  0  # atno 17371 bound_to 10713
  140.2854  134.8283  157.3970 LP  0  0  0  0  0  0  0  0  0  0  0  0  # atno 17394 bound_to 11000
  140.1395  134.4990  155.8042 LP  0  0  0  0  0  0  0  0  0  0  0  0  # atno 17395 bound_to 11000

$$$$
