AV-unprocessed.smi:1|AV-procd|sdf|19|dock7
  -GOLD-   2262015123D 1   1.00000     0.00000
 Structure written by MMmdl.
 56 61  0  0  0  0  0  0  0  0  2 V2000
  153.7054  141.0438  160.0689 O   0  0  0  0  0  0  0  0  0  0  0  0
  152.7239  141.5157  159.4908 C   0  0  0  0  0  0  0  0  0  0  0  0
  151.8245  140.8658  158.7095 N   0  5  0  0  0  0  0  0  0  0  0  0
  151.6610  139.5405  158.8387 C   0  0  0  0  0  0  0  0  0  0  0  0
  152.5576  138.8048  159.5450 N   0  0  0  0  0  0  0  0  0  0  0  0
  152.3940  137.4830  159.6784 C   0  0  0  0  0  0  0  0  0  0  0  0
  151.4185  136.7041  159.2001 N   0  0  0  0  0  0  0  0  0  0  0  0
  150.5070  137.4365  158.4967 C   0  0  0  0  0  0  0  0  0  0  0  0
  150.5560  138.8431  158.2779 C   0  0  0  0  0  0  0  0  0  0  0  0
  149.4664  139.2603  157.5268 N   0  0  0  0  0  0  0  0  0  0  0  0
  148.8205  138.1125  157.3274 C   0  0  0  0  0  0  0  0  0  0  0  0
  149.3601  136.9979  157.8624 N   0  0  0  0  0  0  0  0  0  0  0  0
  148.8665  135.5903  157.8114 C   0  0  2  0  0  0  0  0  0  0  0  0
  147.7913  135.5244  156.9288 O   0  0  0  0  0  0  0  0  0  0  0  0
  146.9836  134.4251  157.3186 C   0  0  2  0  0  0  0  0  0  0  0  0
  145.6078  134.4728  156.6410 C   0  0  0  0  0  0  0  0  0  0  0  0
  145.7595  134.1217  155.2748 O   0  0  0  0  0  0  0  0  0  0  0  0
  144.8539  134.5244  154.3629 C   0  0  0  0  0  0  0  0  0  0  0  0
  143.9574  135.3360  154.6014 O   0  0  0  0  0  0  0  0  0  0  0  0
  145.0442  133.8738  153.0344 C   0  0  0  0  0  0  0  0  0  0  0  0
  146.2874  133.2726  152.7286 C   0  0  0  0  0  0  0  0  0  0  0  0
  146.4993  132.6593  151.4784 C   0  0  0  0  0  0  0  0  0  0  0  0
  145.4696  132.6373  150.5198 C   0  0  0  0  0  0  0  0  0  0  0  0
  144.2273  133.2289  150.8130 C   0  0  0  0  0  0  0  0  0  0  0  0
  144.0139  133.8444  152.0620 C   0  0  0  0  0  0  0  0  0  0  0  0
  146.9658  134.5373  158.8458 C   0  0  2  0  0  0  0  0  0  0  0  0
  145.9763  135.4652  159.2592 O   0  0  0  0  0  0  0  0  0  0  0  0
  146.6554  136.5621  160.3179 S   0  0  0  0  0  0  0  0  0  0  0  0
  146.4725  137.9109  159.7610 O   0  0  0  0  0  0  0  0  0  0  0  0
  146.2318  136.2054  161.6806 O   0  0  0  0  0  0  0  0  0  0  0  0
  148.2586  136.1305  160.1425 O   0  0  0  0  0  0  0  0  0  0  0  0
  148.3607  135.0920  159.1802 C   0  0  2  0  0  0  0  0  0  0  0  0
  152.3936  142.9704  159.6919 C   0  0  0  0  0  0  0  0  0  0  0  0
  152.1642  143.4631  160.9971 C   0  0  0  0  0  0  0  0  0  0  0  0
  151.8757  144.8256  161.2080 C   0  0  0  0  0  0  0  0  0  0  0  0
  151.8235  145.7125  160.1164 C   0  0  0  0  0  0  0  0  0  0  0  0
  152.0647  145.2366  158.8140 C   0  0  0  0  0  0  0  0  0  0  0  0
  152.3529  143.8741  158.6021 C   0  0  0  0  0  0  0  0  0  0  0  0
  153.1552  136.9766  160.2528 H   0  0  0  0  0  0  0  0  0  0  0  0
  147.8986  138.0837  156.7653 H   0  0  0  0  0  0  0  0  0  0  0  0
  149.7064  135.0081  157.4289 H   0  0  0  0  0  0  0  0  0  0  0  0
  147.5028  133.5095  157.0281 H   0  0  0  0  0  0  0  0  0  0  0  0
  144.9181  133.7942  157.1453 H   0  0  0  0  0  0  0  0  0  0  0  0
  145.1854  135.4756  156.7099 H   0  0  0  0  0  0  0  0  0  0  0  0
  147.0940  133.2796  153.4476 H   0  0  0  0  0  0  0  0  0  0  0  0
  147.4540  132.2064  151.2548 H   0  0  0  0  0  0  0  0  0  0  0  0
  145.6325  132.1679  149.5608 H   0  0  0  0  0  0  0  0  0  0  0  0
  143.4358  133.2119  150.0783 H   0  0  0  0  0  0  0  0  0  0  0  0
  143.0487  134.2895  152.2539 H   0  0  0  0  0  0  0  0  0  0  0  0
  146.7741  133.5782  159.3276 H   0  0  0  0  0  0  0  0  0  0  0  0
  149.0314  134.3105  159.5385 H   0  0  0  0  0  0  0  0  0  0  0  0
  152.2016  142.7954  161.8459 H   0  0  0  0  0  0  0  0  0  0  0  0
  151.6956  145.1898  162.2085 H   0  0  0  0  0  0  0  0  0  0  0  0
  151.6029  146.7570  160.2780 H   0  0  0  0  0  0  0  0  0  0  0  0
  152.0308  145.9167  157.9758 H   0  0  0  0  0  0  0  0  0  0  0  0
  152.5445  143.5307  157.5957 H   0  0  0  0  0  0  0  0  0  0  0  0
  1  2  2  0  0  0  0
  2  3  1  0  0  0  0
  2 33  1  0  0  0  0
  3  4  1  0  0  0  0
  4  9  1  0  0  0  0
  4  5  2  0  0  0  0
  5  6  1  0  0  0  0
  6  7  2  0  0  0  0
  6 39  1  0  0  0  0
  7  8  1  0  0  0  0
  8 12  1  0  0  0  0
  8  9  2  0  0  0  0
  9 10  1  0  0  0  0
 10 11  2  0  0  0  0
 11 12  1  0  0  0  0
 11 40  1  0  0  0  0
 12 13  1  0  0  0  0
 13 32  1  0  0  0  0
 13 14  1  0  0  0  0
 13 41  1  0  0  0  0
 14 15  1  0  0  0  0
 15 16  1  0  0  0  0
 15 26  1  0  0  0  0
 15 42  1  0  0  0  0
 16 17  1  0  0  0  0
 16 43  1  0  0  0  0
 16 44  1  0  0  0  0
 17 18  1  0  0  0  0
 18 19  2  0  0  0  0
 18 20  1  0  0  0  0
 20 25  1  0  0  0  0
 20 21  2  0  0  0  0
 21 22  1  0  0  0  0
 21 45  1  0  0  0  0
 22 23  2  0  0  0  0
 22 46  1  0  0  0  0
 23 24  1  0  0  0  0
 23 47  1  0  0  0  0
 24 25  2  0  0  0  0
 24 48  1  0  0  0  0
 25 49  1  0  0  0  0
 26 32  1  0  0  0  0
 26 27  1  0  0  0  0
 26 50  1  0  0  0  0
 27 28  1  0  0  0  0
 28 29  2  0  0  0  0
 28 30  2  0  0  0  0
 28 31  1  0  0  0  0
 31 32  1  0  0  0  0
 32 51  1  0  0  0  0
 33 38  1  0  0  0  0
 33 34  2  0  0  0  0
 34 35  1  0  0  0  0
 34 52  1  0  0  0  0
 35 36  2  0  0  0  0
 35 53  1  0  0  0  0
 36 37  1  0  0  0  0
 36 54  1  0  0  0  0
 37 38  2  0  0  0  0
 37 55  1  0  0  0  0
 38 56  1  0  0  0  0
M  CHG  1   3  -1
M  END
> <s_m_source_file>
AV-unprocessed.smi

> <i_m_source_file_index>
1

> <i_lp_mmshare_version>
43012

> <i_f3d_flags>
0

> <s_epik_input>
W2NIXTFbY0hdW2NIXVtjSF1bY0hdYzFDKD1PKVtOSF1jKG5bY0hdbjIpYyhjMjMpbltjSF1uM1tDQEBIXShbQ0BIXShbQ0BIXTQ1KU9TKE81KSg9Tyk9TylPW0NASF00W0NIMl1PQyg9TyljNltjSF1bY0hdW2NIXVtjSF1bY0hdNg==

> <s_epik_cmdline>
J2VwaWtfcHl0aG9uJywgJy1waCcsICc3LjAnLCAnLXRuJywgJzgnLCAnLW1hJywgJzIwMCcsICctbWV0YWxfYmluZGluZycsICctaW1hZScsICc8aW5maWxlLm1hZT4nLCAnLW9tYWUnLCAnPG91dGZpbGUubWFlPic=

> <r_lp_tautomer_probability>
1

> <r_epik_Ionization_Penalty>
4.39121

> <r_epik_Ionization_Penalty_Charging>
3.39398

> <r_epik_Ionization_Penalty_Neutral>
0.997232

> <r_epik_State_Penalty>
3.39839

> <r_epik_Charging_Adjusted_Penalty>
6.79237

> <i_epik_Tot_Q>
-1

> <i_epik_Tot_abs_Q>
1

> <r_epik_Metal_State_Penalty>
0.497663

> <b_epik_Metal_Only>
1

> <s_epik_Chemistry_Notes>
This compound has an ester and may undergo hydrolysis at high or low pH. This compound contains an acetal/aminal-like group ( X-CH(R)-Y where X, Y are N, S, or O) that may be acid/base labile, releasing an aldehyde.

> <s_lp_Force_Field>
OPLS_2005

> <r_lp_Energy>
44.2661

> <b_lp_Chiralities_Consistent>
1

> <s_lp_Variant>
AV-unprocessed.smi:1-19

> <Gold.Version>
5.8.1

> <Gold.Id.Protein>
6NUR|6NUR_protein|mol2

> <Gold.PLP.Fitness>
55.8397

> <Gold.PLP.PLP>
-53.3638

> <Gold.PLP.part.hbond>
-2.0000

> <Gold.PLP.part.metal>
0.0000

> <Gold.PLP.part.buried>
-8.4313

> <Gold.PLP.part.nonpolar>
-43.2810

> <Gold.PLP.part.repulsive>
0.1144

> <Gold.PLP.ligand.clash>
0.0000

> <Gold.PLP.ligand.torsion>
1.8802

> <Gold.PLP.Chemscore.Hbond>
1.8960

> <Gold.PLP.Chemscore.CHOScore>
0.0000

> <Gold.PLP.Chemscore.Metal>
0.0000

> <Gold.Chemscore.Hbonds>
donor molecule, donor type, donor heavy atom, donor atom, acceptor molecule, acceptor atom, score
      P1  H  6896  6909       L1     7  1.00
      P1  H  6934  6947       L1    29  0.91

> <Gold.PLP.Chemscore.Internal.Correction>
0.5483

> <Gold.Rescore>
     Score         DG    S(hbond)    S(metal)    S(lipo)     H(rot)  DE(clash)    DE(int)     intcor
     15.49     -19.64       1.69        0.00     119.12       2.11       0.05       4.09       ----

> <Gold.Chemscore.Fitness>
15.4925

> <Gold.Chemscore.DG>
-19.6379

> <Gold.Chemscore.ZeroCoef>
-5.4800

> <Gold.Chemscore.Hbond>
1.6861

> <Gold.Chemscore.Metal>
0.0000

> <Gold.Chemscore.Lipo>
119.1212

> <Gold.Chemscore.Internal_Hbond>
0.0000

> <Gold.Chemscore.DEClash>
0.0523

> <Gold.Chemscore.DEInternal>
4.0932

> <Gold.Chemscore.Rot>
2.1136

> <Gold.Chemscore.Internal.Correction>
   9.000000E+99

> <Gold.Chemscore.Hbonds>
donor molecule, donor type, donor heavy atom, donor atom, acceptor molecule, acceptor atom, score
      P1  H  6896  6909       L1     7  0.87
      P1  H  6934  6947       L1    29  0.58

> <Gold.Chemscore.Hbond.Weighted>
-5.6315

> <Gold.Chemscore.Metal.Weighted>
-0.0000

> <Gold.Chemscore.Lipo.Weighted>
-13.9372

> <Gold.Chemscore.Internal_Hbond.Weighted>
0.0000

> <Gold.Chemscore.DEClash.Weighted>
0.0523

> <Gold.Chemscore.DEInternal.Weighted>
4.0932

> <Gold.Chemscore.Rot.Weighted>
5.4107

> <Gold.Chemscore.Internal.Correction.Weighted>
   9.000000E+99

> <Gold.Protein.RotatedTorsions>
[ 6907 6896 6895 6894 ] final  104.08 input  -60.11 | X-H torsion
[ 7974 7965 7964 7962 ] final  -87.41 input  175.53 | X-H torsion
[ 8008 7997 7996 7995 ] final   36.74 input   59.86 | X-H torsion
[ 10167 10162 10161 10158 ] final    4.80 input  -65.29 | X-H torsion
[ 10718 10713 10712 10709 ] final -125.34 input   66.30 | X-H torsion
[ 10763 10752 10751 10750 ] final  -50.61 input  -60.55 | X-H torsion
[ 11005 11000 10999 10996 ] final  -50.43 input  -57.11 | X-H torsion

> <Gold.Protein.ActiveResidues>
 VAL166  LYS551  ARG553  GLY616  TRP617  ASP618  TYR619  PRO620  LYS621  CYS622 
 ASP623  PHE694  ASN695  SER759  ASP760  ASP761  ALA762  ILE779  LEU786  VAL792 
 PHE793  MET794  SER795  GLU796  ALA797  LYS798  CYS799  TRP800  GLU811  SER814 

> <Gold.Protein.RotatedAtoms>
  152.5276  133.9730  159.7770 H   0  0  0  0  0  0  0  0  0  0  0  0  # atno 6907 bound_to 6896
  150.9998  133.6059  159.2703 H   0  0  0  0  0  0  0  0  0  0  0  0  # atno 6908 bound_to 6896
  151.3172  135.0815  159.9346 H   0  0  0  0  0  0  0  0  0  0  0  0  # atno 6909 bound_to 6896
  145.4669  140.9560  143.1938 H   0  0  0  0  0  0  0  0  0  0  0  0  # atno 7974 bound_to 7965
  155.1923  140.3309  155.4356 H   0  0  0  0  0  0  0  0  0  0  0  0  # atno 8008 bound_to 7997
  156.2437  140.1908  156.6965 H   0  0  0  0  0  0  0  0  0  0  0  0  # atno 8009 bound_to 7997
  154.6197  140.0597  156.9585 H   0  0  0  0  0  0  0  0  0  0  0  0  # atno 8010 bound_to 7997
  140.6516  143.7532  150.7584 H   0  0  0  0  0  0  0  0  0  0  0  0  # atno 10167 bound_to 10162
  156.1667  130.6639  151.0124 H   0  0  0  0  0  0  0  0  0  0  0  0  # atno 10718 bound_to 10713
  154.1131  135.6546  153.4889 H   0  0  0  0  0  0  0  0  0  0  0  0  # atno 10763 bound_to 10752
  153.0250  135.5252  154.7172 H   0  0  0  0  0  0  0  0  0  0  0  0  # atno 10764 bound_to 10752
  154.6358  135.2982  155.0132 H   0  0  0  0  0  0  0  0  0  0  0  0  # atno 10765 bound_to 10752
  141.0815  133.6652  156.3729 H   0  0  0  0  0  0  0  0  0  0  0  0  # atno 11005 bound_to 11000
  144.7968  139.6218  143.7089 LP  0  0  0  0  0  0  0  0  0  0  0  0  # atno 17320 bound_to 7965
  146.2419  139.6018  142.9486 LP  0  0  0  0  0  0  0  0  0  0  0  0  # atno 17321 bound_to 7965
  140.1183  143.4635  152.2328 LP  0  0  0  0  0  0  0  0  0  0  0  0  # atno 17342 bound_to 10162
  139.5731  144.7473  151.3836 LP  0  0  0  0  0  0  0  0  0  0  0  0  # atno 17343 bound_to 10162
  157.6773  131.0847  150.7462 LP  0  0  0  0  0  0  0  0  0  0  0  0  # atno 17370 bound_to 10713
  156.7522  130.4772  149.5454 LP  0  0  0  0  0  0  0  0  0  0  0  0  # atno 17371 bound_to 10713
  140.5458  134.6076  157.5393 LP  0  0  0  0  0  0  0  0  0  0  0  0  # atno 17394 bound_to 11000
  139.9629  134.7421  156.0198 LP  0  0  0  0  0  0  0  0  0  0  0  0  # atno 17395 bound_to 11000

$$$$
