AV-unprocessed.smi:1484|AV-procd|sdf|6000|dock6
  -GOLD-   22720 6 93D 1   1.00000     0.00000
 Structure written by MMmdl.
 38 39  0  0  0  0  0  0  0  0  1 V2000
  153.5320  141.8353  161.4676 C   0  0  0  0  0  0  0  0  0  0  0  0
  152.5426  142.6114  160.5875 C   0  0  1  0  0  0  0  0  0  0  0  0
  152.2381  144.0037  161.1728 C   0  0  0  0  0  0  0  0  0  0  0  0
  151.2528  144.7878  160.2908 C   0  0  0  0  0  0  0  0  0  0  0  0
  151.7562  144.8951  158.8398 C   0  0  0  0  0  0  0  0  0  0  0  0
  152.0721  143.5147  158.2320 C   0  0  2  0  0  0  0  0  0  0  0  0
  150.8344  142.7654  158.0288 N   0  0  0  0  0  0  0  0  0  0  0  0
  150.7201  141.6026  157.3702 C   0  0  0  0  0  0  0  0  0  0  0  0
  151.6519  141.0611  156.7761 O   0  0  0  0  0  0  0  0  0  0  0  0
  149.3376  140.9454  157.4038 C   0  0  0  0  0  0  0  0  0  0  0  0
  148.5939  141.2306  156.1702 N   0  0  0  0  0  0  0  0  0  0  0  0
  147.3632  141.8336  156.3874 N   0  0  0  0  0  0  0  0  0  0  0  0
  146.5878  142.0958  155.3907 C   0  0  0  0  0  0  0  0  0  0  0  0
  145.3762  142.6861  155.6536 O   0  0  0  0  0  0  0  0  0  0  0  0
  146.9789  141.7789  154.0351 C   0  0  0  0  0  0  0  0  0  0  0  0
  148.1806  141.1959  153.8324 C   0  0  0  0  0  0  0  0  0  0  0  0
  149.0826  140.8784  154.9412 C   0  0  0  0  0  0  0  0  0  0  0  0
  150.1771  140.3385  154.7841 O   0  0  0  0  0  0  0  0  0  0  0  0
  153.0564  142.7397  159.1380 C   0  0  0  0  0  0  0  0  0  0  0  0
  145.5213  143.2290  156.4131 H   0  0  0  0  0  0  0  0  0  0  0  0
  154.4913  142.3495  161.5362 H   0  0  0  0  0  0  0  0  0  0  0  0
  153.7157  140.8387  161.0651 H   0  0  0  0  0  0  0  0  0  0  0  0
  153.1449  141.7146  162.4798 H   0  0  0  0  0  0  0  0  0  0  0  0
  151.6124  142.0412  160.5709 H   0  0  0  0  0  0  0  0  0  0  0  0
  151.8274  143.9043  162.1782 H   0  0  0  0  0  0  0  0  0  0  0  0
  153.1642  144.5713  161.2732 H   0  0  0  0  0  0  0  0  0  0  0  0
  150.2779  144.2994  160.3098 H   0  0  0  0  0  0  0  0  0  0  0  0
  151.1023  145.7857  160.7038 H   0  0  0  0  0  0  0  0  0  0  0  0
  151.0219  145.4194  158.2268 H   0  0  0  0  0  0  0  0  0  0  0  0
  152.6582  145.5079  158.8216 H   0  0  0  0  0  0  0  0  0  0  0  0
  152.5363  143.6697  157.2562 H   0  0  0  0  0  0  0  0  0  0  0  0
  150.0076  143.1322  158.4773 H   0  0  0  0  0  0  0  0  0  0  0  0
  149.4442  139.8672  157.5391 H   0  0  0  0  0  0  0  0  0  0  0  0
  148.7939  141.2951  158.2831 H   0  0  0  0  0  0  0  0  0  0  0  0
  146.3193  142.0072  153.2108 H   0  0  0  0  0  0  0  0  0  0  0  0
  148.4854  140.9543  152.8248 H   0  0  0  0  0  0  0  0  0  0  0  0
  154.0165  143.2577  159.1411 H   0  0  0  0  0  0  0  0  0  0  0  0
  153.2555  141.7509  158.7234 H   0  0  0  0  0  0  0  0  0  0  0  0
  1  2  1  0  0  0  0
  1 21  1  0  0  0  0
  1 22  1  0  0  0  0
  1 23  1  0  0  0  0
  2 19  1  0  0  0  0
  2  3  1  0  0  0  0
  2 24  1  0  0  0  0
  3  4  1  0  0  0  0
  3 25  1  0  0  0  0
  3 26  1  0  0  0  0
  4  5  1  0  0  0  0
  4 27  1  0  0  0  0
  4 28  1  0  0  0  0
  5  6  1  0  0  0  0
  5 29  1  0  0  0  0
  5 30  1  0  0  0  0
  6  7  1  0  0  0  0
  6 19  1  0  0  0  0
  6 31  1  0  0  0  0
  7  8  1  0  0  0  0
  7 32  1  0  0  0  0
  8  9  2  0  0  0  0
  8 10  1  0  0  0  0
 10 33  1  0  0  0  0
 10 34  1  0  0  0  0
 10 11  1  0  0  0  0
 11 12  1  0  0  0  0
 11 17  1  0  0  0  0
 12 13  2  0  0  0  0
 13 14  1  0  0  0  0
 13 15  1  0  0  0  0
 14 20  1  0  0  0  0
 15 35  1  0  0  0  0
 15 16  2  0  0  0  0
 16 36  1  0  0  0  0
 16 17  1  0  0  0  0
 17 18  2  0  0  0  0
 19 37  1  0  0  0  0
 19 38  1  0  0  0  0
M  END
> <s_m_source_file>
AV-unprocessed.smi

> <i_m_source_file_index>
1484

> <i_lp_mmshare_version>
43012

> <i_f3d_flags>
0

> <s_epik_input>
W0NIM11bQ0BASF0xW0NIMl1bQ0gyXVtDSDJdW0NASF0oW0NIMl0xKVtOSF1DKD1PKVtDSDJdbjJbbkhdYyg9TylbY0hdW2NIXWMyPU8=

> <s_epik_cmdline>
J2VwaWtfcHl0aG9uJywgJy1waCcsICc3LjAnLCAnLXRuJywgJzgnLCAnLW1hJywgJzIwMCcsICctbWV0YWxfYmluZGluZycsICctaW1hZScsICc8aW5maWxlLm1hZT4nLCAnLW9tYWUnLCAnPG91dGZpbGUubWFlPic=

> <r_lp_tautomer_probability>
0.9996

> <r_epik_Ionization_Penalty>
2.10343

> <r_epik_Ionization_Penalty_Charging>
3.97871e-08

> <r_epik_Ionization_Penalty_Neutral>
2.10343

> <r_epik_State_Penalty>
1.67966

> <r_epik_Charging_Adjusted_Penalty>
1.67966

> <i_epik_Tot_Q>
0

> <i_epik_Tot_abs_Q>
0

> <r_epik_Metal_State_Penalty>
1.67966

> <b_epik_Metal_Only>
0

> <s_lp_Force_Field>
OPLS_2005

> <r_lp_Energy>
21.1153

> <b_lp_Chiralities_Consistent>
1

> <s_lp_Variant>
AV-unprocessed.smi:1484-8

> <Gold.Version>
5.8.1

> <Gold.Id.Protein>
6NUR|6NUR_protein|mol2

> <Gold.PLP.Fitness>
46.6830

> <Gold.PLP.PLP>
-44.6271

> <Gold.PLP.part.hbond>
-1.0000

> <Gold.PLP.part.metal>
0.0000

> <Gold.PLP.part.buried>
-5.7973

> <Gold.PLP.part.nonpolar>
-38.6498

> <Gold.PLP.part.repulsive>
0.3000

> <Gold.PLP.ligand.clash>
0.0000

> <Gold.PLP.ligand.torsion>
0.3680

> <Gold.PLP.Chemscore.Hbond>
0.9280

> <Gold.PLP.Chemscore.CHOScore>
0.0000

> <Gold.PLP.Chemscore.Metal>
0.0000

> <Gold.Chemscore.Hbonds>
donor molecule, donor type, donor heavy atom, donor atom, acceptor molecule, acceptor atom, score
      P1  H  7989  7998       L1    18  1.00

> <Gold.PLP.Chemscore.Internal.Correction>
0.0079

> <Gold.Rescore>
     Score         DG    S(hbond)    S(metal)    S(lipo)     H(rot)  DE(clash)    DE(int)     intcor
     11.59     -14.79       0.93        0.00     102.01       2.24       0.24       2.96       ----

> <Gold.Chemscore.Fitness>
11.5864

> <Gold.Chemscore.DG>
-14.7931

> <Gold.Chemscore.ZeroCoef>
-5.4800

> <Gold.Chemscore.Hbond>
0.9335

> <Gold.Chemscore.Metal>
0.0000

> <Gold.Chemscore.Lipo>
102.0090

> <Gold.Chemscore.Internal_Hbond>
0.0000

> <Gold.Chemscore.DEClash>
0.2434

> <Gold.Chemscore.DEInternal>
2.9633

> <Gold.Chemscore.Rot>
2.2421

> <Gold.Chemscore.Internal.Correction>
   9.000000E+99

> <Gold.Chemscore.Hbonds>
donor molecule, donor type, donor heavy atom, donor atom, acceptor molecule, acceptor atom, score
      P1  H  7989  7998       L1    18  0.91

> <Gold.Chemscore.Hbond.Weighted>
-3.1178

> <Gold.Chemscore.Metal.Weighted>
-0.0000

> <Gold.Chemscore.Lipo.Weighted>
-11.9351

> <Gold.Chemscore.Internal_Hbond.Weighted>
0.0000

> <Gold.Chemscore.DEClash.Weighted>
0.2434

> <Gold.Chemscore.DEInternal.Weighted>
2.9633

> <Gold.Chemscore.Rot.Weighted>
5.7398

> <Gold.Chemscore.Internal.Correction.Weighted>
   9.000000E+99

> <Gold.Protein.RotatedTorsions>
[ 6907 6896 6895 6894 ] final -111.86 input  -60.11 | X-H torsion
[ 7974 7965 7964 7962 ] final   70.25 input  175.53 | X-H torsion
[ 8008 7997 7996 7995 ] final  -90.92 input   59.86 | X-H torsion
[ 10167 10162 10161 10158 ] final  114.99 input  -65.29 | X-H torsion
[ 10718 10713 10712 10709 ] final  -40.48 input   66.30 | X-H torsion
[ 10763 10752 10751 10750 ] final -172.82 input  -60.55 | X-H torsion
[ 11005 11000 10999 10996 ] final    7.72 input  -57.11 | X-H torsion

> <Gold.Protein.ActiveResidues>
 VAL166  LYS551  ARG553  GLY616  TRP617  ASP618  TYR619  PRO620  LYS621  CYS622 
 ASP623  PHE694  ASN695  SER759  ASP760  ASP761  ALA762  ILE779  LEU786  VAL792 
 PHE793  MET794  SER795  GLU796  ALA797  LYS798  CYS799  TRP800  GLU811  SER814 

> <Gold.Protein.RotatedAtoms>
  150.7719  133.9173  159.3387 H   0  0  0  0  0  0  0  0  0  0  0  0  # atno 6907 bound_to 6896
  151.7057  135.0920  160.0268 H   0  0  0  0  0  0  0  0  0  0  0  0  # atno 6908 bound_to 6896
  152.3740  133.6419  159.6145 H   0  0  0  0  0  0  0  0  0  0  0  0  # atno 6909 bound_to 6896
  145.7805  139.2885  143.1268 H   0  0  0  0  0  0  0  0  0  0  0  0  # atno 7974 bound_to 7965
  154.7044  140.0525  157.0489 H   0  0  0  0  0  0  0  0  0  0  0  0  # atno 8008 bound_to 7997
  155.0640  140.3192  155.4632 H   0  0  0  0  0  0  0  0  0  0  0  0  # atno 8009 bound_to 7997
  156.2770  140.2093  156.5767 H   0  0  0  0  0  0  0  0  0  0  0  0  # atno 8010 bound_to 7997
  139.6349  144.7119  151.2355 H   0  0  0  0  0  0  0  0  0  0  0  0  # atno 10167 bound_to 10162
  156.2808  130.4217  149.8339 H   0  0  0  0  0  0  0  0  0  0  0  0  # atno 10718 bound_to 10713
  154.6149  135.2868  155.0391 H   0  0  0  0  0  0  0  0  0  0  0  0  # atno 10763 bound_to 10752
  154.1607  135.6488  153.4989 H   0  0  0  0  0  0  0  0  0  0  0  0  # atno 10764 bound_to 10752
  153.0211  135.5377  154.6917 H   0  0  0  0  0  0  0  0  0  0  0  0  # atno 10765 bound_to 10752
  140.5450  134.0338  155.7917 H   0  0  0  0  0  0  0  0  0  0  0  0  # atno 11005 bound_to 11000
  146.0079  140.8462  142.9986 LP  0  0  0  0  0  0  0  0  0  0  0  0  # atno 17320 bound_to 7965
  144.6797  140.2447  143.7339 LP  0  0  0  0  0  0  0  0  0  0  0  0  # atno 17321 bound_to 7965
  140.7460  143.6414  150.8332 LP  0  0  0  0  0  0  0  0  0  0  0  0  # atno 17342 bound_to 10162
  140.0043  143.5710  152.2863 LP  0  0  0  0  0  0  0  0  0  0  0  0  # atno 17343 bound_to 10162
  156.5787  130.8456  151.3377 LP  0  0  0  0  0  0  0  0  0  0  0  0  # atno 17370 bound_to 10713
  157.7314  130.9699  150.1877 LP  0  0  0  0  0  0  0  0  0  0  0  0  # atno 17371 bound_to 10713
  141.1205  133.9469  157.2739 LP  0  0  0  0  0  0  0  0  0  0  0  0  # atno 17394 bound_to 11000
  139.9484  135.0180  156.8922 LP  0  0  0  0  0  0  0  0  0  0  0  0  # atno 17395 bound_to 11000

$$$$
