AV-unprocessed.smi:1897|AV-procd|sdf|7691|dock9
  -GOLD-   22720 9433D 1   1.00000     0.00000
 Structure written by MMmdl.
 39 41  0  0  0  0  0  0  0  0  2 V2000
  155.8566  134.9777  163.2255 C   0  0  0  0  0  0  0  0  0  0  0  0
  155.0280  135.5936  162.1504 C   0  0  0  0  0  0  0  0  0  0  0  0
  154.8452  135.0143  160.9579 N   0  0  0  0  0  0  0  0  0  0  0  0
  154.0390  135.7741  160.1229 N   0  0  0  0  0  0  0  0  0  0  0  0
  153.6417  136.9146  160.7062 C   0  0  0  0  0  0  0  0  0  0  0  0
  152.7977  137.8871  160.0936 N   0  0  0  0  0  0  0  0  0  0  0  0
  153.0766  138.9558  159.3168 C   0  0  0  0  0  0  0  0  0  0  0  0
  154.2356  139.2348  159.0153 O   0  0  0  0  0  0  0  0  0  0  0  0
  152.0252  139.6790  158.8975 N   0  0  0  0  0  0  0  0  0  0  0  0
  152.0920  140.8726  158.0612 C   0  0  1  0  0  0  0  0  0  0  0  0
  151.1144  140.8369  156.8926 C   0  0  0  0  0  0  0  0  0  0  0  0
  151.0137  142.3147  156.5117 C   0  0  0  0  0  0  0  0  0  0  0  0
  151.1465  143.0714  157.7779 N   0  3  2  0  0  0  0  0  0  0  0  0
  151.8561  144.3678  157.6507 C   0  0  0  0  0  0  0  0  0  0  0  0
  151.9294  145.0842  159.0121 C   0  0  0  0  0  0  0  0  0  0  0  0
  152.4551  144.1784  160.1454 C   0  0  0  0  0  0  0  0  0  0  0  0
  152.8247  142.7718  159.6488 C   0  0  0  0  0  0  0  0  0  0  0  0
  151.6809  142.1468  158.8181 C   0  0  2  0  0  0  0  0  0  0  0  0
  154.2174  137.1425  162.3495 S   0  0  0  0  0  0  0  0  0  0  0  0
  155.7450  133.8930  163.2162 H   0  0  0  0  0  0  0  0  0  0  0  0
  155.5472  135.3503  164.2021 H   0  0  0  0  0  0  0  0  0  0  0  0
  156.9074  135.2244  163.0732 H   0  0  0  0  0  0  0  0  0  0  0  0
  151.8116  137.7339  160.2490 H   0  0  0  0  0  0  0  0  0  0  0  0
  151.1055  139.3778  159.1886 H   0  0  0  0  0  0  0  0  0  0  0  0
  153.0968  140.9930  157.6505 H   0  0  0  0  0  0  0  0  0  0  0  0
  151.4570  140.2096  156.0690 H   0  0  0  0  0  0  0  0  0  0  0  0
  150.1406  140.4678  157.2190 H   0  0  0  0  0  0  0  0  0  0  0  0
  151.8349  142.5682  155.8390 H   0  0  0  0  0  0  0  0  0  0  0  0
  150.0801  142.5522  156.0012 H   0  0  0  0  0  0  0  0  0  0  0  0
  152.8613  144.2011  157.2596 H   0  0  0  0  0  0  0  0  0  0  0  0
  151.3380  144.9960  156.9253 H   0  0  0  0  0  0  0  0  0  0  0  0
  152.5583  145.9706  158.9225 H   0  0  0  0  0  0  0  0  0  0  0  0
  150.9367  145.4478  159.2808 H   0  0  0  0  0  0  0  0  0  0  0  0
  153.3190  144.6395  160.6256 H   0  0  0  0  0  0  0  0  0  0  0  0
  151.6905  144.0938  160.9186 H   0  0  0  0  0  0  0  0  0  0  0  0
  153.7343  142.8306  159.0494 H   0  0  0  0  0  0  0  0  0  0  0  0
  153.0655  142.1319  160.4982 H   0  0  0  0  0  0  0  0  0  0  0  0
  150.8425  141.9216  159.4795 H   0  0  0  0  0  0  0  0  0  0  0  0
  150.2077  143.2935  158.0774 H   0  0  0  0  0  0  0  0  0  0  0  0
  1  2  1  0  0  0  0
  1 20  1  0  0  0  0
  1 21  1  0  0  0  0
  1 22  1  0  0  0  0
  2 19  1  0  0  0  0
  2  3  2  0  0  0  0
  3  4  1  0  0  0  0
  4  5  2  0  0  0  0
  5  6  1  0  0  0  0
  5 19  1  0  0  0  0
  6  7  1  0  0  0  0
  6 23  1  0  0  0  0
  7  8  2  0  0  0  0
  7  9  1  0  0  0  0
  9 10  1  0  0  0  0
  9 24  1  0  0  0  0
 10 18  1  0  0  0  0
 10 11  1  0  0  0  0
 10 25  1  0  0  0  0
 11 12  1  0  0  0  0
 11 26  1  0  0  0  0
 11 27  1  0  0  0  0
 12 13  1  0  0  0  0
 12 28  1  0  0  0  0
 12 29  1  0  0  0  0
 13 18  1  0  0  0  0
 13 14  1  0  0  0  0
 13 39  1  0  0  0  0
 14 15  1  0  0  0  0
 14 30  1  0  0  0  0
 14 31  1  0  0  0  0
 15 16  1  0  0  0  0
 15 32  1  0  0  0  0
 15 33  1  0  0  0  0
 16 17  1  0  0  0  0
 16 34  1  0  0  0  0
 16 35  1  0  0  0  0
 17 18  1  0  0  0  0
 17 36  1  0  0  0  0
 17 37  1  0  0  0  0
 18 38  1  0  0  0  0
M  CHG  1  13   1
M  END
> <s_m_source_file>
AV-unprocessed.smi

> <i_m_source_file_index>
1897

> <i_lp_mmshare_version>
43012

> <i_f3d_flags>
0

> <s_epik_input>
W0NIM11jMW5uYyhzMSlbTkhdQyg9TylbTkhdW0NASF0oW0NIMl1bQ0gyXTIpW0NAQEhdKE4yMylbQ0gyXVtDSDJdW0NIMl1bQ0gyXTM=

> <s_epik_cmdline>
J2VwaWtfcHl0aG9uJywgJy1waCcsICc3LjAnLCAnLXRuJywgJzgnLCAnLW1hJywgJzIwMCcsICctbWV0YWxfYmluZGluZycsICctaW1hZScsICc8aW5maWxlLm1hZT4nLCAnLW9tYWUnLCAnPG91dGZpbGUubWFlPic=

> <r_lp_tautomer_probability>
1

> <r_epik_Ionization_Penalty>
0.00228891

> <r_epik_Ionization_Penalty_Charging>
0.00107044

> <r_epik_Ionization_Penalty_Neutral>
0.00121847

> <r_epik_State_Penalty>
-0

> <r_epik_Charging_Adjusted_Penalty>
0.00107044

> <i_epik_Tot_Q>
1

> <i_epik_Tot_abs_Q>
1

> <r_epik_Metal_State_Penalty>
0.304057

> <b_epik_Metal_Only>
0

> <s_lp_Force_Field>
OPLS_2005

> <r_lp_Energy>
41.04

> <b_lp_Chiralities_Consistent>
1

> <s_lp_Variant>
AV-unprocessed.smi:1897-8

> <Gold.Version>
5.8.1

> <Gold.Id.Protein>
6NUR|6NUR_protein|mol2

> <Gold.PLP.Fitness>
41.3882

> <Gold.PLP.PLP>
-37.0771

> <Gold.PLP.part.hbond>
-2.0000

> <Gold.PLP.part.metal>
0.0000

> <Gold.PLP.part.buried>
-5.4494

> <Gold.PLP.part.nonpolar>
-29.1027

> <Gold.PLP.part.repulsive>
0.2433

> <Gold.PLP.ligand.clash>
0.0000

> <Gold.PLP.ligand.torsion>
0.8485

> <Gold.PLP.Chemscore.Hbond>
2.0000

> <Gold.PLP.Chemscore.CHOScore>
0.0000

> <Gold.PLP.Chemscore.Metal>
0.0000

> <Gold.Chemscore.Hbonds>
donor molecule, donor type, donor heavy atom, donor atom, acceptor molecule, acceptor atom, score
      P1  H  6896  6907       L1     4  1.00
      P1  H  7997  8009       L1     8  0.98

> <Gold.PLP.Chemscore.Internal.Correction>
0.0080

> <Gold.Rescore>
     Score         DG    S(hbond)    S(metal)    S(lipo)     H(rot)  DE(clash)    DE(int)     intcor
     18.65     -19.47       1.80        0.00      90.12       1.00       0.02       0.79       ----

> <Gold.Chemscore.Fitness>
18.6531

> <Gold.Chemscore.DG>
-19.4659

> <Gold.Chemscore.ZeroCoef>
-5.4800

> <Gold.Chemscore.Hbond>
1.7969

> <Gold.Chemscore.Metal>
0.0000

> <Gold.Chemscore.Lipo>
90.1215

> <Gold.Chemscore.Internal_Hbond>
0.0000

> <Gold.Chemscore.DEClash>
0.0234

> <Gold.Chemscore.DEInternal>
0.7894

> <Gold.Chemscore.Rot>
1.0000

> <Gold.Chemscore.Internal.Correction>
   9.000000E+99

> <Gold.Chemscore.Hbonds>
donor molecule, donor type, donor heavy atom, donor atom, acceptor molecule, acceptor atom, score
      P1  H  6896  6907       L1     4  0.13
      P1  H  7997  8009       L1     8  0.91

> <Gold.Chemscore.Hbond.Weighted>
-6.0017

> <Gold.Chemscore.Metal.Weighted>
-0.0000

> <Gold.Chemscore.Lipo.Weighted>
-10.5442

> <Gold.Chemscore.Internal_Hbond.Weighted>
0.0000

> <Gold.Chemscore.DEClash.Weighted>
0.0234

> <Gold.Chemscore.DEInternal.Weighted>
0.7894

> <Gold.Chemscore.Rot.Weighted>
2.5600

> <Gold.Chemscore.Internal.Correction.Weighted>
   9.000000E+99

> <Gold.Protein.RotatedTorsions>
[ 6907 6896 6895 6894 ] final   48.61 input  -60.11 | X-H torsion
[ 7974 7965 7964 7962 ] final -110.06 input  175.53 | X-H torsion
[ 8008 7997 7996 7995 ] final  137.55 input   59.86 | X-H torsion
[ 10167 10162 10161 10158 ] final   35.98 input  -65.29 | X-H torsion
[ 10718 10713 10712 10709 ] final -163.24 input   66.30 | X-H torsion
[ 10763 10752 10751 10750 ] final -137.23 input  -60.55 | X-H torsion
[ 11005 11000 10999 10996 ] final  -43.61 input  -57.11 | X-H torsion

> <Gold.Protein.ActiveResidues>
 VAL166  LYS551  ARG553  GLY616  TRP617  ASP618  TYR619  PRO620  LYS621  CYS622 
 ASP623  PHE694  ASN695  SER759  ASP760  ASP761  ALA762  ILE779  LEU786  VAL792 
 PHE793  MET794  SER795  GLU796  ALA797  LYS798  CYS799  TRP800  GLU811  SER814 

> <Gold.Protein.RotatedAtoms>
  152.2814  134.7824  160.0395 H   0  0  0  0  0  0  0  0  0  0  0  0  # atno 6907 bound_to 6896
  151.8401  133.3417  159.3648 H   0  0  0  0  0  0  0  0  0  0  0  0  # atno 6908 bound_to 6896
  150.7191  134.5327  159.5753 H   0  0  0  0  0  0  0  0  0  0  0  0  # atno 6909 bound_to 6896
  145.1729  140.8934  143.3524 H   0  0  0  0  0  0  0  0  0  0  0  0  # atno 7974 bound_to 7965
  156.3001  140.2416  156.3927 H   0  0  0  0  0  0  0  0  0  0  0  0  # atno 8008 bound_to 7997
  154.8599  140.0420  157.1678 H   0  0  0  0  0  0  0  0  0  0  0  0  # atno 8009 bound_to 7997
  154.8908  140.2963  155.5376 H   0  0  0  0  0  0  0  0  0  0  0  0  # atno 8010 bound_to 7997
  140.4171  144.1512  150.6144 H   0  0  0  0  0  0  0  0  0  0  0  0  # atno 10167 bound_to 10162
  156.6219  130.8894  151.2959 H   0  0  0  0  0  0  0  0  0  0  0  0  # atno 10718 bound_to 10713
  154.8666  135.3648  154.5190 H   0  0  0  0  0  0  0  0  0  0  0  0  # atno 10763 bound_to 10752
  153.5821  135.7018  153.5463 H   0  0  0  0  0  0  0  0  0  0  0  0  # atno 10764 bound_to 10752
  153.3448  135.4088  155.1562 H   0  0  0  0  0  0  0  0  0  0  0  0  # atno 10765 bound_to 10752
  141.0395  133.6786  156.2757 H   0  0  0  0  0  0  0  0  0  0  0  0  # atno 11005 bound_to 11000
  145.0214  139.3421  143.6070 LP  0  0  0  0  0  0  0  0  0  0  0  0  # atno 17320 bound_to 7965
  146.3465  139.9516  142.8728 LP  0  0  0  0  0  0  0  0  0  0  0  0  # atno 17321 bound_to 7965
  140.4575  143.2462  151.9265 LP  0  0  0  0  0  0  0  0  0  0  0  0  # atno 17342 bound_to 10162
  139.4782  144.5501  151.8399 LP  0  0  0  0  0  0  0  0  0  0  0  0  # atno 17343 bound_to 10162
  157.7225  130.9578  150.1497 LP  0  0  0  0  0  0  0  0  0  0  0  0  # atno 17370 bound_to 10713
  156.2305  130.3681  149.8451 LP  0  0  0  0  0  0  0  0  0  0  0  0  # atno 17371 bound_to 10713
  140.6260  134.5313  157.5554 LP  0  0  0  0  0  0  0  0  0  0  0  0  # atno 17394 bound_to 11000
  139.9265  134.8045  156.1053 LP  0  0  0  0  0  0  0  0  0  0  0  0  # atno 17395 bound_to 11000

$$$$
