AV-unprocessed.smi:372|AV-procd|sdf|2444|dock2
  -GOLD-   2262022383D 1   1.00000     0.00000
 Structure written by MMmdl.
 23 24  0  0  0  0  0  0  0  0  1 V2000
  145.5705  135.4730  154.1016 C   0  0  0  0  0  0  0  0  0  0  0  0
  145.1902  135.9348  152.6817 C   0  0  2  0  0  0  0  0  0  0  0  0
  144.6579  134.7724  151.8253 C   0  0  0  0  0  0  0  0  0  0  0  0
  143.5349  134.0046  152.2222 C   0  0  0  0  0  0  0  0  0  0  0  0
  143.0944  132.9598  151.3872 C   0  0  0  0  0  0  0  0  0  0  0  0
  143.7818  132.7139  150.1847 C   0  0  0  0  0  0  0  0  0  0  0  0
  144.8830  133.5312  149.8675 C   0  0  0  0  0  0  0  0  0  0  0  0
  145.3108  134.5359  150.6607 N   0  0  0  0  0  0  0  0  0  0  0  0
  146.3188  136.6274  152.0710 N   0  0  0  0  0  0  0  0  0  0  0  0
  146.0421  137.8929  151.7319 C   0  0  0  0  0  0  0  0  0  0  0  0
  146.8074  138.6753  151.1737 O   0  0  0  0  0  0  0  0  0  0  0  0
  144.7923  138.1563  152.1207 N   0  0  0  0  0  0  0  0  0  0  0  0
  144.2121  137.1112  152.7082 C   0  0  0  0  0  0  0  0  0  0  0  0
  143.0880  137.0891  153.2079 O   0  0  0  0  0  0  0  0  0  0  0  0
  144.7234  135.0160  154.6147 H   0  0  0  0  0  0  0  0  0  0  0  0
  145.9148  136.3050  154.7174 H   0  0  0  0  0  0  0  0  0  0  0  0
  146.3721  134.7344  154.0698 H   0  0  0  0  0  0  0  0  0  0  0  0
  143.0081  134.1989  153.1443 H   0  0  0  0  0  0  0  0  0  0  0  0
  142.2418  132.3576  151.6647 H   0  0  0  0  0  0  0  0  0  0  0  0
  143.4713  131.9206  149.5210 H   0  0  0  0  0  0  0  0  0  0  0  0
  145.4341  133.3756  148.9521 H   0  0  0  0  0  0  0  0  0  0  0  0
  147.2016  136.1723  151.8901 H   0  0  0  0  0  0  0  0  0  0  0  0
  144.3447  139.0534  152.0021 H   0  0  0  0  0  0  0  0  0  0  0  0
  1  2  1  0  0  0  0
  1 15  1  0  0  0  0
  1 16  1  0  0  0  0
  1 17  1  0  0  0  0
  2 13  1  0  0  0  0
  2  3  1  0  0  0  0
  2  9  1  0  0  0  0
  3  8  1  0  0  0  0
  3  4  2  0  0  0  0
  4  5  1  0  0  0  0
  4 18  1  0  0  0  0
  5  6  2  0  0  0  0
  5 19  1  0  0  0  0
  6  7  1  0  0  0  0
  6 20  1  0  0  0  0
  7  8  2  0  0  0  0
  7 21  1  0  0  0  0
  9 10  1  0  0  0  0
  9 22  1  0  0  0  0
 10 11  2  0  0  0  0
 10 12  1  0  0  0  0
 12 13  1  0  0  0  0
 12 23  1  0  0  0  0
 13 14  2  0  0  0  0
M  END
> <s_m_source_file>
AV-unprocessed.smi

> <i_m_source_file_index>
372

> <i_lp_mmshare_version>
43012

> <i_f3d_flags>
0

> <s_epik_input>
Tz1DMVtOSF1DKD1PKVtOSF1bQ0BAXTEoW0NIM10pYzJbY0hdW2NIXVtjSF1bY0hdbjI=

> <s_epik_cmdline>
J2VwaWtfcHl0aG9uJywgJy1waCcsICc3LjAnLCAnLXRuJywgJzgnLCAnLW1hJywgJzIwMCcsICctbWV0YWxfYmluZGluZycsICctaW1hZScsICc8aW5maWxlLm1hZT4nLCAnLW9tYWUnLCAnPG91dGZpbGUubWFlPic=

> <r_lp_tautomer_probability>
1

> <r_epik_Ionization_Penalty>
0.0293563

> <r_epik_Ionization_Penalty_Charging>
0

> <r_epik_Ionization_Penalty_Neutral>
0.0293563

> <r_epik_State_Penalty>
0.034944

> <r_epik_Charging_Adjusted_Penalty>
0.034944

> <i_epik_Tot_Q>
0

> <i_epik_Tot_abs_Q>
0

> <r_epik_Metal_State_Penalty>
0.534399

> <b_epik_Metal_Only>
0

> <s_lp_Force_Field>
OPLS_2005

> <r_lp_Energy>
17.2904

> <b_lp_Chiralities_Consistent>
1

> <s_lp_Variant>
AV-unprocessed.smi:372-2

> <Gold.Version>
5.8.1

> <Gold.Id.Protein>
6NUR|6NUR_protein|mol2

> <Gold.PLP.Fitness>
32.6764

> <Gold.PLP.PLP>
-20.8275

> <Gold.PLP.part.hbond>
-3.9410

> <Gold.PLP.part.metal>
0.0000

> <Gold.PLP.part.buried>
-0.5278

> <Gold.PLP.part.nonpolar>
-17.9968

> <Gold.PLP.part.repulsive>
1.1669

> <Gold.PLP.ligand.clash>
0.0000

> <Gold.PLP.ligand.torsion>
0.0877

> <Gold.PLP.Chemscore.Hbond>
3.0000

> <Gold.PLP.Chemscore.CHOScore>
0.9691

> <Gold.PLP.Chemscore.Metal>
0.0000

> <Gold.Chemscore.Hbonds>
donor molecule, donor type, donor heavy atom, donor atom, acceptor molecule, acceptor atom, score
      L1  H     9    22       P1  7948  1.00
      L1  H    12    23       P1 10175  1.00
      P1  H  7954  7966       L1    11  1.00
      L1  C     7    21       P1  7921  0.98

> <Gold.PLP.Chemscore.Internal.Correction>
0.1171

> <Gold.Rescore>
     Score         DG    S(hbond)    S(metal)    S(lipo)     H(rot)  DE(clash)    DE(int)     intcor
     16.60     -16.91       2.85        0.00      38.18       1.00       0.24       0.06       ----

> <Gold.Chemscore.Fitness>
16.6026

> <Gold.Chemscore.DG>
-16.9058

> <Gold.Chemscore.ZeroCoef>
-5.4800

> <Gold.Chemscore.Hbond>
2.8500

> <Gold.Chemscore.Metal>
0.0000

> <Gold.Chemscore.Lipo>
38.1785

> <Gold.Chemscore.Internal_Hbond>
0.0000

> <Gold.Chemscore.DEClash>
0.2447

> <Gold.Chemscore.DEInternal>
0.0585

> <Gold.Chemscore.Rot>
1.0000

> <Gold.Chemscore.Internal.Correction>
   9.000000E+99

> <Gold.Chemscore.Hbonds>
donor molecule, donor type, donor heavy atom, donor atom, acceptor molecule, acceptor atom, score
      L1  H     9    22       P1  7948  0.95
      L1  H    12    23       P1 10175  0.98
      P1  H  7954  7966       L1    11  0.83

> <Gold.Chemscore.Hbond.Weighted>
-9.5190

> <Gold.Chemscore.Metal.Weighted>
-0.0000

> <Gold.Chemscore.Lipo.Weighted>
-4.4669

> <Gold.Chemscore.Internal_Hbond.Weighted>
0.0000

> <Gold.Chemscore.DEClash.Weighted>
0.2447

> <Gold.Chemscore.DEInternal.Weighted>
0.0585

> <Gold.Chemscore.Rot.Weighted>
2.5600

> <Gold.Chemscore.Internal.Correction.Weighted>
   9.000000E+99

> <Gold.Protein.RotatedTorsions>
[ 6907 6896 6895 6894 ] final  -53.44 input  -60.11 | X-H torsion
[ 7974 7965 7964 7962 ] final  165.39 input  175.53 | X-H torsion
[ 8008 7997 7996 7995 ] final  -58.99 input   59.86 | X-H torsion
[ 10167 10162 10161 10158 ] final -174.37 input  -65.29 | X-H torsion
[ 10718 10713 10712 10709 ] final -121.40 input   66.30 | X-H torsion
[ 10763 10752 10751 10750 ] final   27.95 input  -60.55 | X-H torsion
[ 11005 11000 10999 10996 ] final -174.21 input  -57.11 | X-H torsion

> <Gold.Protein.ActiveResidues>
 VAL166  LYS551  ARG553  GLY616  TRP617  ASP618  TYR619  PRO620  LYS621  CYS622 
 ASP623  PHE694  ASN695  SER759  ASP760  ASP761  ALA762  ILE779  LEU786  VAL792 
 PHE793  MET794  SER795  GLU796  ALA797  LYS798  CYS799  TRP800  GLU811  SER814 

> <Gold.Protein.RotatedAtoms>
  150.8426  134.7724  159.6944 H   0  0  0  0  0  0  0  0  0  0  0  0  # atno 6907 bound_to 6896
  152.4510  134.5390  159.9843 H   0  0  0  0  0  0  0  0  0  0  0  0  # atno 6908 bound_to 6896
  151.5526  133.3377  159.2992 H   0  0  0  0  0  0  0  0  0  0  0  0  # atno 6909 bound_to 6896
  144.7505  139.8463  143.6368 H   0  0  0  0  0  0  0  0  0  0  0  0  # atno 7974 bound_to 7965
  154.4333  140.1071  156.6045 H   0  0  0  0  0  0  0  0  0  0  0  0  # atno 8008 bound_to 7997
  155.5875  140.3491  155.4538 H   0  0  0  0  0  0  0  0  0  0  0  0  # atno 8009 bound_to 7997
  156.0272  140.1252  157.0286 H   0  0  0  0  0  0  0  0  0  0  0  0  # atno 8010 bound_to 7997
  139.5637  144.1806  152.1280 H   0  0  0  0  0  0  0  0  0  0  0  0  # atno 10167 bound_to 10162
  156.1334  130.6413  150.9658 H   0  0  0  0  0  0  0  0  0  0  0  0  # atno 10718 bound_to 10713
  153.0523  135.6525  154.0663 H   0  0  0  0  0  0  0  0  0  0  0  0  # atno 10763 bound_to 10752
  154.0349  135.2908  155.3365 H   0  0  0  0  0  0  0  0  0  0  0  0  # atno 10764 bound_to 10752
  154.6818  135.5317  153.8340 H   0  0  0  0  0  0  0  0  0  0  0  0  # atno 10765 bound_to 10752
  140.4771  134.6110  157.4905 H   0  0  0  0  0  0  0  0  0  0  0  0  # atno 11005 bound_to 11000
  146.1447  139.4513  143.0086 LP  0  0  0  0  0  0  0  0  0  0  0  0  # atno 17320 bound_to 7965
  145.6963  141.0149  143.1528 LP  0  0  0  0  0  0  0  0  0  0  0  0  # atno 17321 bound_to 7965
  140.1325  144.5275  150.6794 LP  0  0  0  0  0  0  0  0  0  0  0  0  # atno 17342 bound_to 10162
  140.6919  143.2381  151.5106 LP  0  0  0  0  0  0  0  0  0  0  0  0  # atno 17343 bound_to 10162
  157.6510  131.0897  150.8051 LP  0  0  0  0  0  0  0  0  0  0  0  0  # atno 17370 bound_to 10713
  156.8133  130.4960  149.5353 LP  0  0  0  0  0  0  0  0  0  0  0  0  # atno 17371 bound_to 10713
  139.9849  134.7077  155.9792 LP  0  0  0  0  0  0  0  0  0  0  0  0  # atno 17394 bound_to 11000
  141.1549  133.6544  156.4130 LP  0  0  0  0  0  0  0  0  0  0  0  0  # atno 17395 bound_to 11000

$$$$
