AV-unprocessed.smi:1051|AV-procd|sdf|4614|dock8
  -GOLD-   22720 3113D 1   1.00000     0.00000
 Structure written by MMmdl.
 45 47  0  0  0  0  0  0  0  0  1 V2000
  144.7330  135.0031  153.0439 C   0  0  0  0  0  0  0  0  0  0  0  0
  145.8227  135.5909  153.9392 C   0  0  0  0  0  0  0  0  0  0  0  0
  146.1615  134.9662  154.9437 O   0  0  0  0  0  0  0  0  0  0  0  0
  146.4198  136.8980  153.5419 C   0  0  0  0  0  0  0  0  0  0  0  0
  146.0319  137.5625  152.3553 C   0  0  0  0  0  0  0  0  0  0  0  0
  146.6146  138.7954  152.0093 C   0  0  0  0  0  0  0  0  0  0  0  0
  147.5890  139.3789  152.8395 C   0  0  0  0  0  0  0  0  0  0  0  0
  147.9924  138.7296  154.0319 C   0  0  0  0  0  0  0  0  0  0  0  0
  148.9392  139.2260  154.9022 O   0  0  0  0  0  0  0  0  0  0  0  0
  149.3824  140.5667  154.7253 C   0  0  0  0  0  0  0  0  0  0  0  0
  150.5069  140.8895  155.7242 C   0  0  2  0  0  0  0  0  0  0  0  0
  151.6868  140.2602  155.2662 O   0  0  0  0  0  0  0  0  0  0  0  0
  150.1853  140.4449  157.1654 C   0  0  0  0  0  0  0  0  0  0  0  0
  151.1542  140.9770  158.1214 N   0  0  0  0  0  0  0  0  0  0  0  0
  152.1176  140.2774  158.7660 C   0  0  0  0  0  0  0  0  0  0  0  0
  152.3347  139.0715  158.6490 O   0  0  0  0  0  0  0  0  0  0  0  0
  152.8096  141.1393  159.5473 N   0  0  0  0  0  0  0  0  0  0  0  0
  153.9392  140.8254  160.4137 C   0  0  0  0  0  0  0  0  0  0  0  0
  152.2904  142.4292  159.3804 C   0  0  0  0  0  0  0  0  0  0  0  0
  152.6692  143.6570  159.9497 C   0  0  0  0  0  0  0  0  0  0  0  0
  151.9350  144.8023  159.5615 C   0  0  0  0  0  0  0  0  0  0  0  0
  150.8655  144.7005  158.6340 C   0  0  0  0  0  0  0  0  0  0  0  0
  150.5058  143.4511  158.0760 C   0  0  0  0  0  0  0  0  0  0  0  0
  151.2495  142.3291  158.4816 C   0  0  0  0  0  0  0  0  0  0  0  0
  147.3997  137.4952  154.3684 C   0  0  0  0  0  0  0  0  0  0  0  0
  143.8783  135.6774  152.9894 H   0  0  0  0  0  0  0  0  0  0  0  0
  144.3880  134.0476  153.4400 H   0  0  0  0  0  0  0  0  0  0  0  0
  145.1146  134.8360  152.0365 H   0  0  0  0  0  0  0  0  0  0  0  0
  145.2878  137.1451  151.6935 H   0  0  0  0  0  0  0  0  0  0  0  0
  146.3124  139.2963  151.1013 H   0  0  0  0  0  0  0  0  0  0  0  0
  148.0113  140.3253  152.5384 H   0  0  0  0  0  0  0  0  0  0  0  0
  149.7219  140.7389  153.7023 H   0  0  0  0  0  0  0  0  0  0  0  0
  148.5459  141.2418  154.9136 H   0  0  0  0  0  0  0  0  0  0  0  0
  150.6785  141.9666  155.6953 H   0  0  0  0  0  0  0  0  0  0  0  0
  152.1041  139.8321  155.9984 H   0  0  0  0  0  0  0  0  0  0  0  0
  149.2004  140.8140  157.4536 H   0  0  0  0  0  0  0  0  0  0  0  0
  150.1220  139.3575  157.2367 H   0  0  0  0  0  0  0  0  0  0  0  0
  153.7762  141.2344  161.4111 H   0  0  0  0  0  0  0  0  0  0  0  0
  154.8545  141.2599  160.0103 H   0  0  0  0  0  0  0  0  0  0  0  0
  154.0903  139.7498  160.5154 H   0  0  0  0  0  0  0  0  0  0  0  0
  153.4865  143.7265  160.6521 H   0  0  0  0  0  0  0  0  0  0  0  0
  152.1929  145.7662  159.9750 H   0  0  0  0  0  0  0  0  0  0  0  0
  150.3197  145.5883  158.3498 H   0  0  0  0  0  0  0  0  0  0  0  0
  149.6951  143.3684  157.3675 H   0  0  0  0  0  0  0  0  0  0  0  0
  147.7128  137.0062  155.2799 H   0  0  0  0  0  0  0  0  0  0  0  0
  1  2  1  0  0  0  0
  1 26  1  0  0  0  0
  1 27  1  0  0  0  0
  1 28  1  0  0  0  0
  2  3  2  0  0  0  0
  2  4  1  0  0  0  0
  4 25  1  0  0  0  0
  4  5  2  0  0  0  0
  5  6  1  0  0  0  0
  5 29  1  0  0  0  0
  6  7  2  0  0  0  0
  6 30  1  0  0  0  0
  7  8  1  0  0  0  0
  7 31  1  0  0  0  0
  8  9  1  0  0  0  0
  8 25  2  0  0  0  0
  9 10  1  0  0  0  0
 10 11  1  0  0  0  0
 10 32  1  0  0  0  0
 10 33  1  0  0  0  0
 11 12  1  0  0  0  0
 11 13  1  0  0  0  0
 11 34  1  0  0  0  0
 12 35  1  0  0  0  0
 13 14  1  0  0  0  0
 13 36  1  0  0  0  0
 13 37  1  0  0  0  0
 14 24  1  0  0  0  0
 14 15  1  0  0  0  0
 15 16  2  0  0  0  0
 15 17  1  0  0  0  0
 17 18  1  0  0  0  0
 17 19  1  0  0  0  0
 18 38  1  0  0  0  0
 18 39  1  0  0  0  0
 18 40  1  0  0  0  0
 19 24  2  0  0  0  0
 19 20  1  0  0  0  0
 20 21  2  0  0  0  0
 20 41  1  0  0  0  0
 21 22  1  0  0  0  0
 21 42  1  0  0  0  0
 22 23  2  0  0  0  0
 22 43  1  0  0  0  0
 23 24  1  0  0  0  0
 23 44  1  0  0  0  0
 25 45  1  0  0  0  0
M  END
> <s_m_source_file>
AV-unprocessed.smi

> <i_m_source_file_index>
1051

> <i_lp_mmshare_version>
43012

> <i_f3d_flags>
0

> <s_epik_input>
W0NIM11DKD1PKWMxW2NIXVtjSF1bY0hdYyhbY0hdMSlPW0NIMl1bQ0BIXShbT0hdKVtDSDJdbihjKD1PKW4yW0NIM10pYyhjMjMpW2NIXVtjSF1bY0hdW2NIXTM=

> <s_epik_cmdline>
J2VwaWtfcHl0aG9uJywgJy1waCcsICc3LjAnLCAnLXRuJywgJzgnLCAnLW1hJywgJzIwMCcsICctbWV0YWxfYmluZGluZycsICctaW1hZScsICc8aW5maWxlLm1hZT4nLCAnLW9tYWUnLCAnPG91dGZpbGUubWFlPic=

> <r_lp_tautomer_probability>
1

> <r_epik_Ionization_Penalty>
2.40143e-06

> <r_epik_Ionization_Penalty_Charging>
2.1343e-09

> <r_epik_Ionization_Penalty_Neutral>
2.3993e-06

> <r_epik_State_Penalty>
-0

> <r_epik_Charging_Adjusted_Penalty>
2.1343e-09

> <i_epik_Tot_Q>
0

> <i_epik_Tot_abs_Q>
0

> <r_epik_Metal_State_Penalty>
-0

> <b_epik_Metal_Only>
0

> <s_lp_Force_Field>
OPLS_2005

> <r_lp_Energy>
56.3875

> <b_lp_Chiralities_Consistent>
1

> <s_lp_Variant>
AV-unprocessed.smi:1051-1

> <Gold.Version>
5.8.1

> <Gold.Id.Protein>
6NUR|6NUR_protein|mol2

> <Gold.PLP.Fitness>
46.9889

> <Gold.PLP.PLP>
-45.3938

> <Gold.PLP.part.hbond>
-1.0000

> <Gold.PLP.part.metal>
0.0000

> <Gold.PLP.part.buried>
-2.2659

> <Gold.PLP.part.nonpolar>
-43.4430

> <Gold.PLP.part.repulsive>
0.1325

> <Gold.PLP.ligand.clash>
0.0000

> <Gold.PLP.ligand.torsion>
0.3818

> <Gold.PLP.Chemscore.Hbond>
0.7752

> <Gold.PLP.Chemscore.CHOScore>
0.0000

> <Gold.PLP.Chemscore.Metal>
0.0000

> <Gold.Chemscore.Hbonds>
donor molecule, donor type, donor heavy atom, donor atom, acceptor molecule, acceptor atom, score
      P1  H  7989  7998       L1    12  0.79

> <Gold.PLP.Chemscore.Internal.Correction>
0.0333

> <Gold.Rescore>
     Score         DG    S(hbond)    S(metal)    S(lipo)     H(rot)  DE(clash)    DE(int)     intcor
     13.97     -15.11       0.21        0.00     126.67       2.30       0.77       0.38       ----

> <Gold.Chemscore.Fitness>
13.9661

> <Gold.Chemscore.DG>
-15.1115

> <Gold.Chemscore.ZeroCoef>
-5.4800

> <Gold.Chemscore.Hbond>
0.2082

> <Gold.Chemscore.Metal>
0.0000

> <Gold.Chemscore.Lipo>
126.6663

> <Gold.Chemscore.Internal_Hbond>
0.0000

> <Gold.Chemscore.DEClash>
0.7680

> <Gold.Chemscore.DEInternal>
0.3774

> <Gold.Chemscore.Rot>
2.2984

> <Gold.Chemscore.Internal.Correction>
   9.000000E+99

> <Gold.Chemscore.Hbonds>
donor molecule, donor type, donor heavy atom, donor atom, acceptor molecule, acceptor atom, score
      P1  H  7989  7998       L1    12  0.15

> <Gold.Chemscore.Hbond.Weighted>
-0.6954

> <Gold.Chemscore.Metal.Weighted>
-0.0000

> <Gold.Chemscore.Lipo.Weighted>
-14.8200

> <Gold.Chemscore.Internal_Hbond.Weighted>
0.0000

> <Gold.Chemscore.DEClash.Weighted>
0.7680

> <Gold.Chemscore.DEInternal.Weighted>
0.3774

> <Gold.Chemscore.Rot.Weighted>
5.8839

> <Gold.Chemscore.Internal.Correction.Weighted>
   9.000000E+99

> <Gold.Protein.RotatedTorsions>
[ 6907 6896 6895 6894 ] final  -83.18 input  -60.11 | X-H torsion
[ 7974 7965 7964 7962 ] final  -37.63 input  175.53 | X-H torsion
[ 8008 7997 7996 7995 ] final  -16.01 input   59.86 | X-H torsion
[ 10167 10162 10161 10158 ] final  -21.57 input  -65.29 | X-H torsion
[ 10718 10713 10712 10709 ] final  107.64 input   66.30 | X-H torsion
[ 10763 10752 10751 10750 ] final   -7.80 input  -60.55 | X-H torsion
[ 11005 11000 10999 10996 ] final   84.57 input  -57.11 | X-H torsion

> <Gold.Protein.ActiveResidues>
 VAL166  LYS551  ARG553  GLY616  TRP617  ASP618  TYR619  PRO620  LYS621  CYS622 
 ASP623  PHE694  ASN695  SER759  ASP760  ASP761  ALA762  ILE779  LEU786  VAL792 
 PHE793  MET794  SER795  GLU796  ALA797  LYS798  CYS799  TRP800  GLU811  SER814 

> <Gold.Protein.RotatedAtoms>
  150.6888  134.3551  159.4925 H   0  0  0  0  0  0  0  0  0  0  0  0  # atno 6907 bound_to 6896
  152.1387  134.9077  160.0564 H   0  0  0  0  0  0  0  0  0  0  0  0  # atno 6908 bound_to 6896
  152.0219  133.3867  159.4298 H   0  0  0  0  0  0  0  0  0  0  0  0  # atno 6909 bound_to 6896
  146.0558  140.6418  142.9020 H   0  0  0  0  0  0  0  0  0  0  0  0  # atno 7974 bound_to 7965
  154.5086  140.2181  155.9202 H   0  0  0  0  0  0  0  0  0  0  0  0  # atno 8008 bound_to 7997
  156.1524  140.3159  155.8636 H   0  0  0  0  0  0  0  0  0  0  0  0  # atno 8009 bound_to 7997
  155.3912  140.0478  157.3031 H   0  0  0  0  0  0  0  0  0  0  0  0  # atno 8010 bound_to 7997
  140.7282  143.4616  151.0372 H   0  0  0  0  0  0  0  0  0  0  0  0  # atno 10167 bound_to 10162
  157.6620  131.0877  150.6187 H   0  0  0  0  0  0  0  0  0  0  0  0  # atno 10718 bound_to 10713
  153.4314  135.7012  153.6228 H   0  0  0  0  0  0  0  0  0  0  0  0  # atno 10763 bound_to 10752
  153.4641  135.3729  155.2355 H   0  0  0  0  0  0  0  0  0  0  0  0  # atno 10764 bound_to 10752
  154.8725  135.4027  154.3699 H   0  0  0  0  0  0  0  0  0  0  0  0  # atno 10765 bound_to 10752
  139.8996  134.8226  156.2463 H   0  0  0  0  0  0  0  0  0  0  0  0  # atno 11005 bound_to 11000
  144.7147  140.4167  143.7053 LP  0  0  0  0  0  0  0  0  0  0  0  0  # atno 17320 bound_to 7965
  145.6646  139.1587  143.2789 LP  0  0  0  0  0  0  0  0  0  0  0  0  # atno 17321 bound_to 7965
  139.8301  143.7703  152.3179 LP  0  0  0  0  0  0  0  0  0  0  0  0  # atno 17342 bound_to 10162
  139.7815  144.7442  151.0081 LP  0  0  0  0  0  0  0  0  0  0  0  0  # atno 17343 bound_to 10162
  156.6489  130.4479  149.5726 LP  0  0  0  0  0  0  0  0  0  0  0  0  # atno 17370 bound_to 10713
  156.2152  130.6703  151.1311 LP  0  0  0  0  0  0  0  0  0  0  0  0  # atno 17371 bound_to 10713
  141.0252  133.7019  156.1336 LP  0  0  0  0  0  0  0  0  0  0  0  0  # atno 17394 bound_to 11000
  140.7176  134.4393  157.5577 LP  0  0  0  0  0  0  0  0  0  0  0  0  # atno 17395 bound_to 11000

$$$$
