AV-unprocessed.smi:1753|AV-procd|sdf|7063|dock7
  -GOLD-   22720 8283D 1   1.00000     0.00000
 Structure written by MMmdl.
 37 38  0  0  0  0  0  0  0  0  1 V2000
  143.4480  132.3893  149.6225 C   0  0  0  0  0  0  0  0  0  0  0  0
  144.5235  133.1075  150.3829 C   0  0  0  0  0  0  0  0  0  0  0  0
  144.7391  134.5126  150.4822 C   0  0  0  0  0  0  0  0  0  0  0  0
  145.8401  134.5931  151.2909 C   0  0  0  0  0  0  0  0  0  0  0  0
  146.4977  135.7005  151.7270 N   0  0  0  0  0  0  0  0  0  0  0  0
  145.9913  136.8259  152.2608 C   0  0  0  0  0  0  0  0  0  0  0  0
  144.7973  137.0455  152.4650 O   0  0  0  0  0  0  0  0  0  0  0  0
  146.9649  137.6995  152.5560 N   0  0  0  0  0  0  0  0  0  0  0  0
  146.7706  139.0206  153.1466 C   0  0  0  0  0  0  0  0  0  0  0  0
  148.1094  139.6930  153.5062 C   0  0  1  0  0  0  0  0  0  0  0  0
  147.9139  141.0952  154.1146 C   0  0  0  0  0  0  0  0  0  0  0  0
  149.2561  141.5784  154.6727 C   0  0  0  0  0  0  0  0  0  0  0  0
  150.0949  140.0775  155.3013 S   0  0  0  0  0  0  0  0  0  0  0  0
  151.4335  139.9895  154.6987 O   0  0  0  0  0  0  0  0  0  0  0  0
  149.9118  139.9868  156.7577 O   0  0  0  0  0  0  0  0  0  0  0  0
  148.9738  138.8786  154.4848 C   0  0  0  0  0  0  0  0  0  0  0  0
  146.2340  133.3168  151.6332 N   0  0  0  0  0  0  0  0  0  0  0  0
  147.3350  132.8664  152.4629 C   0  0  0  0  0  0  0  0  0  0  0  0
  145.4146  132.4029  151.0706 N   0  0  0  0  0  0  0  0  0  0  0  0
  142.8995  133.0738  148.9751 H   0  0  0  0  0  0  0  0  0  0  0  0
  142.7305  131.9281  150.3014 H   0  0  0  0  0  0  0  0  0  0  0  0
  143.8668  131.6032  148.9936 H   0  0  0  0  0  0  0  0  0  0  0  0
  144.1692  135.3089  150.0279 H   0  0  0  0  0  0  0  0  0  0  0  0
  147.5019  135.6676  151.6318 H   0  0  0  0  0  0  0  0  0  0  0  0
  147.9173  137.4316  152.3545 H   0  0  0  0  0  0  0  0  0  0  0  0
  146.2409  139.6318  152.4152 H   0  0  0  0  0  0  0  0  0  0  0  0
  146.1214  138.9671  154.0224 H   0  0  0  0  0  0  0  0  0  0  0  0
  148.6868  139.8212  152.5892 H   0  0  0  0  0  0  0  0  0  0  0  0
  147.5099  141.7998  153.3870 H   0  0  0  0  0  0  0  0  0  0  0  0
  147.1943  141.0342  154.9324 H   0  0  0  0  0  0  0  0  0  0  0  0
  149.8736  142.0041  153.8815 H   0  0  0  0  0  0  0  0  0  0  0  0
  149.1496  142.3152  155.4689 H   0  0  0  0  0  0  0  0  0  0  0  0
  148.3605  138.4180  155.2601 H   0  0  0  0  0  0  0  0  0  0  0  0
  149.5535  138.0971  153.9934 H   0  0  0  0  0  0  0  0  0  0  0  0
  147.9466  133.7094  152.7844 H   0  0  0  0  0  0  0  0  0  0  0  0
  147.9613  132.1741  151.8992 H   0  0  0  0  0  0  0  0  0  0  0  0
  146.9450  132.3572  153.3446 H   0  0  0  0  0  0  0  0  0  0  0  0
  1  2  1  0  0  0  0
  1 20  1  0  0  0  0
  1 21  1  0  0  0  0
  1 22  1  0  0  0  0
  2 19  2  0  0  0  0
  2  3  1  0  0  0  0
  3  4  2  0  0  0  0
  3 23  1  0  0  0  0
  4  5  1  0  0  0  0
  4 17  1  0  0  0  0
  5  6  1  0  0  0  0
  5 24  1  0  0  0  0
  6  7  2  0  0  0  0
  6  8  1  0  0  0  0
  8  9  1  0  0  0  0
  8 25  1  0  0  0  0
  9 10  1  0  0  0  0
  9 26  1  0  0  0  0
  9 27  1  0  0  0  0
 10 16  1  0  0  0  0
 10 11  1  0  0  0  0
 10 28  1  0  0  0  0
 11 12  1  0  0  0  0
 11 29  1  0  0  0  0
 11 30  1  0  0  0  0
 12 13  1  0  0  0  0
 12 31  1  0  0  0  0
 12 32  1  0  0  0  0
 13 14  2  0  0  0  0
 13 15  2  0  0  0  0
 13 16  1  0  0  0  0
 16 33  1  0  0  0  0
 16 34  1  0  0  0  0
 17 18  1  0  0  0  0
 17 19  1  0  0  0  0
 18 35  1  0  0  0  0
 18 36  1  0  0  0  0
 18 37  1  0  0  0  0
M  END
> <s_m_source_file>
AV-unprocessed.smi

> <i_m_source_file_index>
1753

> <i_lp_mmshare_version>
43012

> <i_f3d_flags>
0

> <s_epik_input>
W0NIM11jMVtjSF1jKG4objEpW0NIM10pW05IXUMoPU8pW05IXVtDSDJdW0NAQEhdKFtDSDJdMilbQ0gyXVtDSDJdUzIoPU8pPU8=

> <s_epik_cmdline>
J2VwaWtfcHl0aG9uJywgJy1waCcsICc3LjAnLCAnLXRuJywgJzgnLCAnLW1hJywgJzIwMCcsICctbWV0YWxfYmluZGluZycsICctaW1hZScsICc8aW5maWxlLm1hZT4nLCAnLW9tYWUnLCAnPG91dGZpbGUubWFlPic=

> <r_lp_tautomer_probability>
1

> <r_epik_Ionization_Penalty>
9.06651e-05

> <r_epik_Ionization_Penalty_Charging>
0

> <r_epik_Ionization_Penalty_Neutral>
9.06651e-05

> <r_epik_State_Penalty>
-0

> <r_epik_Charging_Adjusted_Penalty>
0

> <i_epik_Tot_Q>
0

> <i_epik_Tot_abs_Q>
0

> <r_epik_Metal_State_Penalty>
-0

> <b_epik_Metal_Only>
0

> <s_lp_Force_Field>
OPLS_2005

> <r_lp_Energy>
6.63642

> <b_lp_Chiralities_Consistent>
1

> <s_lp_Variant>
AV-unprocessed.smi:1753-2

> <Gold.Version>
5.8.1

> <Gold.Id.Protein>
6NUR|6NUR_protein|mol2

> <Gold.PLP.Fitness>
39.9085

> <Gold.PLP.PLP>
-31.8808

> <Gold.PLP.part.hbond>
-2.7782

> <Gold.PLP.part.metal>
0.0000

> <Gold.PLP.part.buried>
-1.3192

> <Gold.PLP.part.nonpolar>
-29.6402

> <Gold.PLP.part.repulsive>
0.5165

> <Gold.PLP.ligand.clash>
0.0000

> <Gold.PLP.ligand.torsion>
0.4279

> <Gold.PLP.Chemscore.Hbond>
2.9600

> <Gold.PLP.Chemscore.CHOScore>
0.0000

> <Gold.PLP.Chemscore.Metal>
0.0000

> <Gold.Chemscore.Hbonds>
donor molecule, donor type, donor heavy atom, donor atom, acceptor molecule, acceptor atom, score
      L1  H     5    24       P1  7948  1.00
      L1  H     8    25       P1  7948  0.96
      P1  H  7989  7998       L1    14  0.91

> <Gold.PLP.Chemscore.Internal.Correction>
0.0035

> <Gold.Rescore>
     Score         DG    S(hbond)    S(metal)    S(lipo)     H(rot)  DE(clash)    DE(int)     intcor
     18.80     -19.23       2.95        0.00      62.09       1.31       0.04       0.39       ----

> <Gold.Chemscore.Fitness>
18.8048

> <Gold.Chemscore.DG>
-19.2334

> <Gold.Chemscore.ZeroCoef>
-5.4800

> <Gold.Chemscore.Hbond>
2.9452

> <Gold.Chemscore.Metal>
0.0000

> <Gold.Chemscore.Lipo>
62.0937

> <Gold.Chemscore.Internal_Hbond>
0.0000

> <Gold.Chemscore.DEClash>
0.0379

> <Gold.Chemscore.DEInternal>
0.3907

> <Gold.Chemscore.Rot>
1.3080

> <Gold.Chemscore.Internal.Correction>
   9.000000E+99

> <Gold.Chemscore.Hbonds>
donor molecule, donor type, donor heavy atom, donor atom, acceptor molecule, acceptor atom, score
      L1  H     5    24       P1  7948  0.91
      L1  H     8    25       P1  7948  0.92
      P1  H  7989  7998       L1    14  0.80

> <Gold.Chemscore.Hbond.Weighted>
-9.8369

> <Gold.Chemscore.Metal.Weighted>
-0.0000

> <Gold.Chemscore.Lipo.Weighted>
-7.2650

> <Gold.Chemscore.Internal_Hbond.Weighted>
0.0000

> <Gold.Chemscore.DEClash.Weighted>
0.0379

> <Gold.Chemscore.DEInternal.Weighted>
0.3907

> <Gold.Chemscore.Rot.Weighted>
3.3485

> <Gold.Chemscore.Internal.Correction.Weighted>
   9.000000E+99

> <Gold.Protein.RotatedTorsions>
[ 6907 6896 6895 6894 ] final  156.31 input  -60.11 | X-H torsion
[ 7974 7965 7964 7962 ] final  145.63 input  175.53 | X-H torsion
[ 8008 7997 7996 7995 ] final   44.99 input   59.86 | X-H torsion
[ 10167 10162 10161 10158 ] final    8.43 input  -65.29 | X-H torsion
[ 10718 10713 10712 10709 ] final -102.97 input   66.30 | X-H torsion
[ 10763 10752 10751 10750 ] final  153.64 input  -60.55 | X-H torsion
[ 11005 11000 10999 10996 ] final    4.14 input  -57.11 | X-H torsion

> <Gold.Protein.ActiveResidues>
 VAL166  LYS551  ARG553  GLY616  TRP617  ASP618  TYR619  PRO620  LYS621  CYS622 
 ASP623  PHE694  ASN695  SER759  ASP760  ASP761  ALA762  ILE779  LEU786  VAL792 
 PHE793  MET794  SER795  GLU796  ALA797  LYS798  CYS799  TRP800  GLU811  SER814 

> <Gold.Protein.RotatedAtoms>
  152.0316  133.3939  159.4299 H   0  0  0  0  0  0  0  0  0  0  0  0  # atno 6907 bound_to 6896
  150.6882  134.3515  159.4920 H   0  0  0  0  0  0  0  0  0  0  0  0  # atno 6908 bound_to 6896
  152.1302  134.9140  160.0610 H   0  0  0  0  0  0  0  0  0  0  0  0  # atno 6909 bound_to 6896
  144.8737  139.5806  143.5875 H   0  0  0  0  0  0  0  0  0  0  0  0  # atno 7974 bound_to 7965
  155.3284  140.3401  155.4240 H   0  0  0  0  0  0  0  0  0  0  0  0  # atno 8008 bound_to 7997
  156.1874  140.1685  156.8196 H   0  0  0  0  0  0  0  0  0  0  0  0  # atno 8009 bound_to 7997
  154.5402  140.0726  156.8480 H   0  0  0  0  0  0  0  0  0  0  0  0  # atno 8010 bound_to 7997
  140.6315  143.7984  150.7301 H   0  0  0  0  0  0  0  0  0  0  0  0  # atno 10167 bound_to 10162
  156.0248  130.5445  150.7186 H   0  0  0  0  0  0  0  0  0  0  0  0  # atno 10718 bound_to 10713
  154.1394  135.2821  155.3164 H   0  0  0  0  0  0  0  0  0  0  0  0  # atno 10763 bound_to 10752
  154.6298  135.5439  153.7671 H   0  0  0  0  0  0  0  0  0  0  0  0  # atno 10764 bound_to 10752
  153.0255  135.6459  154.1542 H   0  0  0  0  0  0  0  0  0  0  0  0  # atno 10765 bound_to 10752
  140.5853  133.9975  155.8065 H   0  0  0  0  0  0  0  0  0  0  0  0  # atno 11005 bound_to 11000
  146.2948  139.7244  142.9135 LP  0  0  0  0  0  0  0  0  0  0  0  0  # atno 17320 bound_to 7965
  145.4083  141.0393  143.3031 LP  0  0  0  0  0  0  0  0  0  0  0  0  # atno 17321 bound_to 7965
  140.1596  143.4287  152.2076 LP  0  0  0  0  0  0  0  0  0  0  0  0  # atno 17342 bound_to 10162
  139.5528  144.7351  151.4383 LP  0  0  0  0  0  0  0  0  0  0  0  0  # atno 17343 bound_to 10162
  157.4807  131.0902  151.0540 LP  0  0  0  0  0  0  0  0  0  0  0  0  # atno 17370 bound_to 10713
  157.0974  130.5967  149.5452 LP  0  0  0  0  0  0  0  0  0  0  0  0  # atno 17371 bound_to 10713
  141.0970  133.9828  157.3143 LP  0  0  0  0  0  0  0  0  0  0  0  0  # atno 17394 bound_to 11000
  139.9298  135.0200  156.8363 LP  0  0  0  0  0  0  0  0  0  0  0  0  # atno 17395 bound_to 11000

$$$$
