AV-unprocessed.smi:2226|AV-procd|sdf|9017|dock6
  -GOLD-   2272012223D 1   1.00000     0.00000
 Structure written by MMmdl.
 39 41  0  0  0  0  0  0  0  0  3 V2000
  147.0405  135.2626  154.7051 C   0  0  0  0  0  0  0  0  0  0  0  0
  148.2909  136.0516  154.5976 N   0  3  2  0  0  0  0  0  0  0  0  0
  149.4786  135.4261  155.2263 C   0  0  2  0  0  0  0  0  0  0  0  0
  149.3682  135.4284  156.7720 C   0  0  0  0  0  0  0  0  0  0  0  0
  149.0376  136.8039  157.3795 C   0  0  0  0  0  0  0  0  0  0  0  0
  147.9909  137.5799  156.5603 C   0  0  0  0  0  0  0  0  0  0  0  0
  148.1736  137.4654  155.0262 C   0  0  1  0  0  0  0  0  0  0  0  0
  149.3574  138.2688  154.4410 C   0  0  0  0  0  0  0  0  0  0  0  0
  150.7628  137.6313  154.6248 C   0  0  1  0  0  0  0  0  0  0  0  0
  151.4968  138.1822  155.7613 N   0  0  0  0  0  0  0  0  0  0  0  0
  151.8100  139.4704  155.9636 C   0  0  0  0  0  0  0  0  0  0  0  0
  151.4840  140.3213  155.1328 O   0  0  0  0  0  0  0  0  0  0  0  0
  152.4731  139.6903  157.1203 N   0  5  0  0  0  0  0  0  0  0  0  0
  152.1374  140.7359  157.8930 C   0  0  0  0  0  0  0  0  0  0  0  0
  151.1107  141.5657  157.6997 N   0  0  0  0  0  0  0  0  0  0  0  0
  151.1643  142.4826  158.7382 C   0  0  0  0  0  0  0  0  0  0  0  0
  152.2409  142.1675  159.5212 C   0  0  0  0  0  0  0  0  0  0  0  0
  152.8645  141.0694  158.9967 O   0  0  0  0  0  0  0  0  0  0  0  0
  150.7564  136.0816  154.6519 C   0  0  0  0  0  0  0  0  0  0  0  0
  146.7106  135.1481  155.7373 H   0  0  0  0  0  0  0  0  0  0  0  0
  147.1835  134.2673  154.2838 H   0  0  0  0  0  0  0  0  0  0  0  0
  146.2379  135.7443  154.1460 H   0  0  0  0  0  0  0  0  0  0  0  0
  149.5074  134.3815  154.9129 H   0  0  0  0  0  0  0  0  0  0  0  0
  148.5865  134.7284  157.0674 H   0  0  0  0  0  0  0  0  0  0  0  0
  150.2856  135.0403  157.2157 H   0  0  0  0  0  0  0  0  0  0  0  0
  148.6749  136.6723  158.3993 H   0  0  0  0  0  0  0  0  0  0  0  0
  149.9400  137.3950  157.4921 H   0  0  0  0  0  0  0  0  0  0  0  0
  147.0024  137.2031  156.8238 H   0  0  0  0  0  0  0  0  0  0  0  0
  147.9899  138.6279  156.8617 H   0  0  0  0  0  0  0  0  0  0  0  0
  147.2726  137.8765  154.5686 H   0  0  0  0  0  0  0  0  0  0  0  0
  149.1846  138.3510  153.3670 H   0  0  0  0  0  0  0  0  0  0  0  0
  149.3339  139.2960  154.8064 H   0  0  0  0  0  0  0  0  0  0  0  0
  151.3557  137.9120  153.7520 H   0  0  0  0  0  0  0  0  0  0  0  0
  151.7932  137.5266  156.4696 H   0  0  0  0  0  0  0  0  0  0  0  0
  150.4411  143.2786  158.8362 H   0  0  0  0  0  0  0  0  0  0  0  0
  152.6696  142.5894  160.4176 H   0  0  0  0  0  0  0  0  0  0  0  0
  151.6446  135.6970  155.1554 H   0  0  0  0  0  0  0  0  0  0  0  0
  150.8497  135.7433  153.6188 H   0  0  0  0  0  0  0  0  0  0  0  0
  148.4905  136.0828  153.6080 H   0  0  0  0  0  0  0  0  0  0  0  0
  1  2  1  0  0  0  0
  1 20  1  0  0  0  0
  1 21  1  0  0  0  0
  1 22  1  0  0  0  0
  2  7  1  0  0  0  0
  2  3  1  0  0  0  0
  2 39  1  0  0  0  0
  3 19  1  0  0  0  0
  3  4  1  0  0  0  0
  3 23  1  0  0  0  0
  4  5  1  0  0  0  0
  4 24  1  0  0  0  0
  4 25  1  0  0  0  0
  5  6  1  0  0  0  0
  5 26  1  0  0  0  0
  5 27  1  0  0  0  0
  6  7  1  0  0  0  0
  6 28  1  0  0  0  0
  6 29  1  0  0  0  0
  7  8  1  0  0  0  0
  7 30  1  0  0  0  0
  8  9  1  0  0  0  0
  8 31  1  0  0  0  0
  8 32  1  0  0  0  0
  9 10  1  0  0  0  0
  9 19  1  0  0  0  0
  9 33  1  0  0  0  0
 10 34  1  0  0  0  0
 10 11  1  0  0  0  0
 11 13  1  0  0  0  0
 11 12  2  0  0  0  0
 13 14  1  0  0  0  0
 14 18  1  0  0  0  0
 14 15  2  0  0  0  0
 15 16  1  0  0  0  0
 16 35  1  0  0  0  0
 16 17  2  0  0  0  0
 17 36  1  0  0  0  0
 17 18  1  0  0  0  0
 19 37  1  0  0  0  0
 19 38  1  0  0  0  0
M  CHG  1   2   1
M  CHG  1  13  -1
M  END
> <s_m_source_file>
AV-unprocessed.smi

> <i_m_source_file_index>
2226

> <i_lp_mmshare_version>
43012

> <i_f3d_flags>
0

> <s_epik_input>
W0NIMl0xW0NIMl1bQ0gyXVtDQEhdKE4oW0NIM10pW0NIXTEyKVtDSDJdW0NASF0oW0NIMl0yKVtOSF1DKD1PKVtOSF1jM25bY0hdW2NIXW8z

> <s_epik_cmdline>
J2VwaWtfcHl0aG9uJywgJy1waCcsICc3LjAnLCAnLXRuJywgJzgnLCAnLW1hJywgJzIwMCcsICctbWV0YWxfYmluZGluZycsICctaW1hZScsICc8aW5maWxlLm1hZT4nLCAnLW9tYWUnLCAnPG91dGZpbGUubWFlPic=

> <r_lp_tautomer_probability>
0.107061

> <r_epik_Ionization_Penalty>
10.5612

> <r_epik_Ionization_Penalty_Charging>
7.48913

> <r_epik_Ionization_Penalty_Neutral>
3.07202

> <r_epik_State_Penalty>
5.6431

> <r_epik_Charging_Adjusted_Penalty>
13.1322

> <i_epik_Tot_Q>
0

> <i_epik_Tot_abs_Q>
2

> <r_epik_Metal_State_Penalty>
1.58163

> <b_epik_Metal_Only>
1

> <s_lp_Force_Field>
OPLS_2005

> <r_lp_Energy>
26.2411

> <b_lp_Chiralities_Consistent>
1

> <s_lp_Variant>
AV-unprocessed.smi:2226-17

> <Gold.Version>
5.8.1

> <Gold.Id.Protein>
6NUR|6NUR_protein|mol2

> <Gold.PLP.Fitness>
36.1518

> <Gold.PLP.PLP>
-22.0478

> <Gold.PLP.part.hbond>
-3.0000

> <Gold.PLP.part.metal>
0.0000

> <Gold.PLP.part.buried>
-2.9178

> <Gold.PLP.part.nonpolar>
-15.7978

> <Gold.PLP.part.repulsive>
0.1795

> <Gold.PLP.ligand.clash>
0.0000

> <Gold.PLP.ligand.torsion>
0.3907

> <Gold.PLP.Chemscore.Hbond>
4.9440

> <Gold.PLP.Chemscore.CHOScore>
0.0000

> <Gold.PLP.Chemscore.Metal>
0.0000

> <Gold.Chemscore.Hbonds>
donor molecule, donor type, donor heavy atom, donor atom, acceptor molecule, acceptor atom, score
      L1  H     2    39       P1  7948  2.00
      P1  H  7989  7998       L1    12  0.96
      P1  H  7997  8010       L1    13  2.00

> <Gold.PLP.Chemscore.Internal.Correction>
0.0533

> <Gold.Rescore>
     Score         DG    S(hbond)    S(metal)    S(lipo)     H(rot)  DE(clash)    DE(int)     intcor
     15.43     -17.62       2.78        0.00      46.17       1.00       0.19       1.99       ----

> <Gold.Chemscore.Fitness>
15.4349

> <Gold.Chemscore.DG>
-17.6206

> <Gold.Chemscore.ZeroCoef>
-5.4800

> <Gold.Chemscore.Hbond>
2.7840

> <Gold.Chemscore.Metal>
0.0000

> <Gold.Chemscore.Lipo>
46.1713

> <Gold.Chemscore.Internal_Hbond>
0.0000

> <Gold.Chemscore.DEClash>
0.1916

> <Gold.Chemscore.DEInternal>
1.9942

> <Gold.Chemscore.Rot>
1.0000

> <Gold.Chemscore.Internal.Correction>
   9.000000E+99

> <Gold.Chemscore.Hbonds>
donor molecule, donor type, donor heavy atom, donor atom, acceptor molecule, acceptor atom, score
      L1  H     2    39       P1  7948  1.00
      P1  H  7989  7998       L1    12  0.92
      P1  H  7997  8010       L1    13  0.19

> <Gold.Chemscore.Hbond.Weighted>
-9.2986

> <Gold.Chemscore.Metal.Weighted>
-0.0000

> <Gold.Chemscore.Lipo.Weighted>
-5.4020

> <Gold.Chemscore.Internal_Hbond.Weighted>
0.0000

> <Gold.Chemscore.DEClash.Weighted>
0.1916

> <Gold.Chemscore.DEInternal.Weighted>
1.9942

> <Gold.Chemscore.Rot.Weighted>
2.5600

> <Gold.Chemscore.Internal.Correction.Weighted>
   9.000000E+99

> <Gold.Protein.RotatedTorsions>
[ 6907 6896 6895 6894 ] final  -33.99 input  -60.11 | X-H torsion
[ 7974 7965 7964 7962 ] final   30.53 input  175.53 | X-H torsion
[ 8008 7997 7996 7995 ] final   65.88 input   59.86 | X-H torsion
[ 10167 10162 10161 10158 ] final   59.03 input  -65.29 | X-H torsion
[ 10718 10713 10712 10709 ] final  -93.94 input   66.30 | X-H torsion
[ 10763 10752 10751 10750 ] final  145.27 input  -60.55 | X-H torsion
[ 11005 11000 10999 10996 ] final  -18.09 input  -57.11 | X-H torsion

> <Gold.Protein.ActiveResidues>
 VAL166  LYS551  ARG553  GLY616  TRP617  ASP618  TYR619  PRO620  LYS621  CYS622 
 ASP623  PHE694  ASN695  SER759  ASP760  ASP761  ALA762  ILE779  LEU786  VAL792 
 PHE793  MET794  SER795  GLU796  ALA797  LYS798  CYS799  TRP800  GLU811  SER814 

> <Gold.Protein.RotatedAtoms>
  151.0585  134.9720  159.8247 H   0  0  0  0  0  0  0  0  0  0  0  0  # atno 6907 bound_to 6896
  152.5392  134.2448  159.8886 H   0  0  0  0  0  0  0  0  0  0  0  0  # atno 6908 bound_to 6896
  151.2467  133.4328  159.2643 H   0  0  0  0  0  0  0  0  0  0  0  0  # atno 6909 bound_to 6896
  146.1606  139.6776  142.9036 H   0  0  0  0  0  0  0  0  0  0  0  0  # atno 7974 bound_to 7965
  155.6686  140.3497  155.4810 H   0  0  0  0  0  0  0  0  0  0  0  0  # atno 8008 bound_to 7997
  155.9707  140.1155  157.0837 H   0  0  0  0  0  0  0  0  0  0  0  0  # atno 8009 bound_to 7997
  154.4166  140.1157  156.5289 H   0  0  0  0  0  0  0  0  0  0  0  0  # atno 8010 bound_to 7997
  140.1808  144.4184  150.6616 H   0  0  0  0  0  0  0  0  0  0  0  0  # atno 10167 bound_to 10162
  156.0020  130.5047  150.5851 H   0  0  0  0  0  0  0  0  0  0  0  0  # atno 10718 bound_to 10713
  154.0026  135.2922  155.3401 H   0  0  0  0  0  0  0  0  0  0  0  0  # atno 10763 bound_to 10752
  154.7150  135.5133  153.8727 H   0  0  0  0  0  0  0  0  0  0  0  0  # atno 10764 bound_to 10752
  153.0759  135.6663  154.0266 H   0  0  0  0  0  0  0  0  0  0  0  0  # atno 10765 bound_to 10752
  140.8233  133.8051  155.9682 H   0  0  0  0  0  0  0  0  0  0  0  0  # atno 11005 bound_to 11000
  145.4598  141.0432  143.2758 LP  0  0  0  0  0  0  0  0  0  0  0  0  # atno 17320 bound_to 7965
  144.8022  139.6120  143.7067 LP  0  0  0  0  0  0  0  0  0  0  0  0  # atno 17321 bound_to 7965
  140.6521  143.2227  151.6053 LP  0  0  0  0  0  0  0  0  0  0  0  0  # atno 17342 bound_to 10162
  139.5297  144.2953  152.1119 LP  0  0  0  0  0  0  0  0  0  0  0  0  # atno 17343 bound_to 10162
  157.3725  131.0768  151.1545 LP  0  0  0  0  0  0  0  0  0  0  0  0  # atno 17370 bound_to 10713
  157.2294  130.6518  149.5843 LP  0  0  0  0  0  0  0  0  0  0  0  0  # atno 17371 bound_to 10713
  140.9075  134.2301  157.5005 LP  0  0  0  0  0  0  0  0  0  0  0  0  # atno 17394 bound_to 11000
  139.8707  134.9735  156.4812 LP  0  0  0  0  0  0  0  0  0  0  0  0  # atno 17395 bound_to 11000

$$$$
