AV-unprocessed.smi:3109|AV-procd|sdf|11827|dock7
  -GOLD-   2272017203D 1   1.00000     0.00000
 Structure written by MMmdl.
 37 38  0  0  0  0  0  0  0  0  2 V2000
  151.2579  137.4907  154.7099 C   0  0  0  0  0  0  0  0  0  0  0  0
  150.5190  138.4274  153.9350 C   0  0  0  0  0  0  0  0  0  0  0  0
  150.5995  139.6588  154.4126 N   0  0  0  0  0  0  0  0  0  0  0  0
  151.3808  139.5491  155.5096 N   0  0  0  0  0  0  0  0  0  0  0  0
  151.7115  140.7303  156.2901 C   0  0  0  0  0  0  0  0  0  0  0  0
  150.4883  141.6106  156.6016 C   0  0  0  0  0  0  0  0  0  0  0  0
  150.8911  142.9936  156.9381 N   0  3  0  0  0  0  0  0  0  0  0  0
  151.2193  143.2337  158.3620 C   0  0  0  0  0  0  0  0  0  0  0  0
  151.6479  144.7045  158.5484 C   0  0  0  0  0  0  0  0  0  0  0  0
  151.3138  145.2619  159.9444 C   0  0  0  0  0  0  0  0  0  0  0  0
  152.2140  144.7584  161.0816 C   0  0  0  0  0  0  0  0  0  0  0  0
  152.2577  143.2298  161.2381 C   0  0  0  0  0  0  0  0  0  0  0  0
  153.0598  142.5467  160.1203 C   0  0  0  0  0  0  0  0  0  0  0  0
  152.2653  142.2012  158.8481 C   0  0  0  0  0  0  0  0  0  0  0  0
  151.8042  138.2509  155.7040 C   0  0  0  0  0  0  0  0  0  0  0  0
  151.3746  136.4282  154.5552 H   0  0  0  0  0  0  0  0  0  0  0  0
  149.9332  138.2510  153.0448 H   0  0  0  0  0  0  0  0  0  0  0  0
  152.1921  140.4135  157.2168 H   0  0  0  0  0  0  0  0  0  0  0  0
  152.4523  141.3061  155.7340 H   0  0  0  0  0  0  0  0  0  0  0  0
  149.8293  141.6346  155.7332 H   0  0  0  0  0  0  0  0  0  0  0  0
  149.9139  141.1744  157.4187 H   0  0  0  0  0  0  0  0  0  0  0  0
  151.6910  143.2473  156.3756 H   0  0  0  0  0  0  0  0  0  0  0  0
  150.2961  143.0875  158.9251 H   0  0  0  0  0  0  0  0  0  0  0  0
  152.7045  144.8395  158.3125 H   0  0  0  0  0  0  0  0  0  0  0  0
  151.1060  145.3214  157.8299 H   0  0  0  0  0  0  0  0  0  0  0  0
  151.3939  146.3490  159.9103 H   0  0  0  0  0  0  0  0  0  0  0  0
  150.2702  145.0549  160.1840 H   0  0  0  0  0  0  0  0  0  0  0  0
  153.2254  145.1435  160.9461 H   0  0  0  0  0  0  0  0  0  0  0  0
  151.8577  145.1943  162.0157 H   0  0  0  0  0  0  0  0  0  0  0  0
  152.7488  143.0098  162.1868 H   0  0  0  0  0  0  0  0  0  0  0  0
  151.2543  142.8096  161.3174 H   0  0  0  0  0  0  0  0  0  0  0  0
  153.9188  143.1660  159.8591 H   0  0  0  0  0  0  0  0  0  0  0  0
  153.4859  141.6207  160.5084 H   0  0  0  0  0  0  0  0  0  0  0  0
  151.7574  141.2507  159.0146 H   0  0  0  0  0  0  0  0  0  0  0  0
  152.9876  142.0094  158.0529 H   0  0  0  0  0  0  0  0  0  0  0  0
  152.4511  137.9768  156.5247 H   0  0  0  0  0  0  0  0  0  0  0  0
  150.1222  143.6005  156.6922 H   0  0  0  0  0  0  0  0  0  0  0  0
  1 15  2  0  0  0  0
  1  2  1  0  0  0  0
  1 16  1  0  0  0  0
  2  3  2  0  0  0  0
  2 17  1  0  0  0  0
  3  4  1  0  0  0  0
  4  5  1  0  0  0  0
  4 15  1  0  0  0  0
  5  6  1  0  0  0  0
  5 18  1  0  0  0  0
  5 19  1  0  0  0  0
  6  7  1  0  0  0  0
  6 20  1  0  0  0  0
  6 21  1  0  0  0  0
  7  8  1  0  0  0  0
  7 22  1  0  0  0  0
  7 37  1  0  0  0  0
  8 14  1  0  0  0  0
  8  9  1  0  0  0  0
  8 23  1  0  0  0  0
  9 10  1  0  0  0  0
  9 24  1  0  0  0  0
  9 25  1  0  0  0  0
 10 11  1  0  0  0  0
 10 26  1  0  0  0  0
 10 27  1  0  0  0  0
 11 12  1  0  0  0  0
 11 28  1  0  0  0  0
 11 29  1  0  0  0  0
 12 13  1  0  0  0  0
 12 30  1  0  0  0  0
 12 31  1  0  0  0  0
 13 14  1  0  0  0  0
 13 32  1  0  0  0  0
 13 33  1  0  0  0  0
 14 34  1  0  0  0  0
 14 35  1  0  0  0  0
 15 36  1  0  0  0  0
M  CHG  1   7   1
M  END
> <s_m_source_file>
AV-unprocessed.smi

> <i_m_source_file_index>
3109

> <i_lp_mmshare_version>
43012

> <i_f3d_flags>
0

> <s_epik_input>
W2NIXTFbY0hdW2NIXW5uMVtDSDJdW0NIMl1bTkhdW0NIXTJbQ0gyXVtDSDJdW0NIMl1bQ0gyXVtDSDJdW0NIMl0y

> <s_epik_cmdline>
J2VwaWtfcHl0aG9uJywgJy1waCcsICc3LjAnLCAnLXRuJywgJzgnLCAnLW1hJywgJzIwMCcsICctbWV0YWxfYmluZGluZycsICctaW1hZScsICc8aW5maWxlLm1hZT4nLCAnLW9tYWUnLCAnPG91dGZpbGUubWFlPic=

> <r_lp_tautomer_probability>
1

> <r_epik_Ionization_Penalty>
0.00143219

> <r_epik_Ionization_Penalty_Charging>
0.00142912

> <r_epik_Ionization_Penalty_Neutral>
3.07097e-06

> <r_epik_State_Penalty>
-0

> <r_epik_Charging_Adjusted_Penalty>
0.00142912

> <i_epik_Tot_Q>
1

> <i_epik_Tot_abs_Q>
1

> <r_epik_Metal_State_Penalty>
-0

> <b_epik_Metal_Only>
0

> <s_lp_Force_Field>
OPLS_2005

> <r_lp_Energy>
18.9936

> <b_lp_Chiralities_Consistent>
1

> <s_lp_Variant>
AV-unprocessed.smi:3109-1

> <Gold.Version>
5.8.1

> <Gold.Id.Protein>
6NUR|6NUR_protein|mol2

> <Gold.PLP.Fitness>
54.6242

> <Gold.PLP.PLP>
-40.7449

> <Gold.PLP.part.hbond>
-2.0000

> <Gold.PLP.part.metal>
0.0000

> <Gold.PLP.part.buried>
-6.0478

> <Gold.PLP.part.nonpolar>
-33.2988

> <Gold.PLP.part.repulsive>
0.1573

> <Gold.PLP.ligand.clash>
0.0000

> <Gold.PLP.ligand.torsion>
0.4343

> <Gold.PLP.Chemscore.Hbond>
3.0000

> <Gold.PLP.Chemscore.CHOScore>
1.9081

> <Gold.PLP.Chemscore.Metal>
0.0000

> <Gold.Chemscore.Hbonds>
donor molecule, donor type, donor heavy atom, donor atom, acceptor molecule, acceptor atom, score
      L1  H     7    37       P1  8028  2.00
      P1  H  7989  7998       L1     3  0.90
      L1  C     2    17       P1  7948  1.00
      L1  C     2    17       P1  7957  0.73

> <Gold.PLP.Chemscore.Internal.Correction>
0.0234

> <Gold.Rescore>
     Score         DG    S(hbond)    S(metal)    S(lipo)     H(rot)  DE(clash)    DE(int)     intcor
     18.07     -18.78       1.00        0.00     116.91       1.46       0.12       0.59       ----

> <Gold.Chemscore.Fitness>
18.0745

> <Gold.Chemscore.DG>
-18.7833

> <Gold.Chemscore.ZeroCoef>
-5.4800

> <Gold.Chemscore.Hbond>
1.0043

> <Gold.Chemscore.Metal>
0.0000

> <Gold.Chemscore.Lipo>
116.9075

> <Gold.Chemscore.Internal_Hbond>
0.0000

> <Gold.Chemscore.DEClash>
0.1211

> <Gold.Chemscore.DEInternal>
0.5878

> <Gold.Chemscore.Rot>
1.4568

> <Gold.Chemscore.Internal.Correction>
   9.000000E+99

> <Gold.Chemscore.Hbonds>
donor molecule, donor type, donor heavy atom, donor atom, acceptor molecule, acceptor atom, score
      L1  H     7    37       P1  8028  0.99
      P1  H  7989  7998       L1     3  0.17

> <Gold.Chemscore.Hbond.Weighted>
-3.3545

> <Gold.Chemscore.Metal.Weighted>
-0.0000

> <Gold.Chemscore.Lipo.Weighted>
-13.6782

> <Gold.Chemscore.Internal_Hbond.Weighted>
0.0000

> <Gold.Chemscore.DEClash.Weighted>
0.1211

> <Gold.Chemscore.DEInternal.Weighted>
0.5878

> <Gold.Chemscore.Rot.Weighted>
3.7293

> <Gold.Chemscore.Internal.Correction.Weighted>
   9.000000E+99

> <Gold.Protein.RotatedTorsions>
[ 6907 6896 6895 6894 ] final  -30.81 input  -60.11 | X-H torsion
[ 7974 7965 7964 7962 ] final   75.78 input  175.53 | X-H torsion
[ 8008 7997 7996 7995 ] final  -15.97 input   59.86 | X-H torsion
[ 10167 10162 10161 10158 ] final   50.67 input  -65.29 | X-H torsion
[ 10718 10713 10712 10709 ] final  -60.03 input   66.30 | X-H torsion
[ 10763 10752 10751 10750 ] final  -99.46 input  -60.55 | X-H torsion
[ 11005 11000 10999 10996 ] final   43.35 input  -57.11 | X-H torsion

> <Gold.Protein.ActiveResidues>
 VAL166  LYS551  ARG553  GLY616  TRP617  ASP618  TYR619  PRO620  LYS621  CYS622 
 ASP623  PHE694  ASN695  SER759  ASP760  ASP761  ALA762  ILE779  LEU786  VAL792 
 PHE793  MET794  SER795  GLU796  ALA797  LYS798  CYS799  TRP800  GLU811  SER814 

> <Gold.Protein.RotatedAtoms>
  151.1005  134.9969  159.8445 H   0  0  0  0  0  0  0  0  0  0  0  0  # atno 6907 bound_to 6896
  152.5436  134.1956  159.8701 H   0  0  0  0  0  0  0  0  0  0  0  0  # atno 6908 bound_to 6896
  151.1999  133.4573  159.2629 H   0  0  0  0  0  0  0  0  0  0  0  0  # atno 6909 bound_to 6896
  145.7113  139.2615  143.1649 H   0  0  0  0  0  0  0  0  0  0  0  0  # atno 7974 bound_to 7965
  154.5088  140.2182  155.9196 H   0  0  0  0  0  0  0  0  0  0  0  0  # atno 8008 bound_to 7997
  156.1527  140.3158  155.8641 H   0  0  0  0  0  0  0  0  0  0  0  0  # atno 8009 bound_to 7997
  155.3907  140.0478  157.3031 H   0  0  0  0  0  0  0  0  0  0  0  0  # atno 8010 bound_to 7997
  140.2700  144.3276  150.6293 H   0  0  0  0  0  0  0  0  0  0  0  0  # atno 10167 bound_to 10162
  156.1019  130.4185  150.0797 H   0  0  0  0  0  0  0  0  0  0  0  0  # atno 10718 bound_to 10713
  154.7500  135.4971  153.9271 H   0  0  0  0  0  0  0  0  0  0  0  0  # atno 10763 bound_to 10752
  153.1133  135.6714  153.9471 H   0  0  0  0  0  0  0  0  0  0  0  0  # atno 10764 bound_to 10752
  153.9224  135.3087  155.3426 H   0  0  0  0  0  0  0  0  0  0  0  0  # atno 10765 bound_to 10752
  140.1653  134.4290  155.8291 H   0  0  0  0  0  0  0  0  0  0  0  0  # atno 11005 bound_to 11000
  146.0710  140.7869  142.9688 LP  0  0  0  0  0  0  0  0  0  0  0  0  # atno 17320 bound_to 7965
  144.6941  140.3342  143.7210 LP  0  0  0  0  0  0  0  0  0  0  0  0  # atno 17321 bound_to 7965
  140.5897  143.2168  151.7275 LP  0  0  0  0  0  0  0  0  0  0  0  0  # atno 17342 bound_to 10162
  139.4991  144.3957  152.0233 LP  0  0  0  0  0  0  0  0  0  0  0  0  # atno 17343 bound_to 10162
  156.8783  130.9547  151.3602 LP  0  0  0  0  0  0  0  0  0  0  0  0  # atno 17370 bound_to 10713
  157.6191  130.8641  149.9077 LP  0  0  0  0  0  0  0  0  0  0  0  0  # atno 17371 bound_to 10713
  141.2213  133.6931  156.7667 LP  0  0  0  0  0  0  0  0  0  0  0  0  # atno 17394 bound_to 11000
  140.2441  134.8591  157.3602 LP  0  0  0  0  0  0  0  0  0  0  0  0  # atno 17395 bound_to 11000

$$$$
