AV-unprocessed.smi:2652|AV-procd|sdf|10294|dock8
  -GOLD-   2272014303D 1   1.00000     0.00000
 Structure written by MMmdl.
 37 38  0  0  0  0  0  0  0  0  2 V2000
  151.8814  144.0748  160.9530 C   0  0  0  0  0  0  0  0  0  0  0  0
  152.7454  142.8252  160.9348 C   0  0  0  0  0  0  0  0  0  0  0  0
  153.4353  142.3430  161.9738 C   0  0  0  0  0  0  0  0  0  0  0  0
  154.2860  140.8660  161.5932 S   0  0  0  0  0  0  0  0  0  0  0  0
  153.6481  140.9216  159.9105 C   0  0  0  0  0  0  0  0  0  0  0  0
  153.9179  140.0674  159.0677 O   0  0  0  0  0  0  0  0  0  0  0  0
  152.8474  142.0549  159.7674 N   0  0  0  0  0  0  0  0  0  0  0  0
  152.1840  142.4049  158.5041 C   0  0  0  0  0  0  0  0  0  0  0  0
  151.2861  141.2883  157.9534 C   0  0  0  0  0  0  0  0  0  0  0  0
  151.1807  140.2202  158.5565 O   0  0  0  0  0  0  0  0  0  0  0  0
  150.6548  141.5899  156.8033 N   0  0  0  0  0  0  0  0  0  0  0  0
  149.7142  140.8309  155.9617 C   0  0  0  0  0  0  0  0  0  0  0  0
  150.5217  139.6067  155.4577 C   0  0  0  0  0  0  0  0  0  0  0  0
  150.6941  139.4842  154.2242 O   0  0  0  0  0  0  0  0  0  0  0  0
  150.9205  138.7793  156.3081 O   0  5  0  0  0  0  0  0  0  0  0  0
  148.4013  140.3843  156.6829 C   0  0  0  0  0  0  0  0  0  0  0  0
  147.3695  139.7467  155.7319 C   0  0  0  0  0  0  0  0  0  0  0  0
  147.0205  140.6953  154.5764 C   0  0  0  0  0  0  0  0  0  0  0  0
  148.2831  141.1377  153.8233 C   0  0  0  0  0  0  0  0  0  0  0  0
  149.3145  141.7643  154.7823 C   0  0  0  0  0  0  0  0  0  0  0  0
  151.6235  144.3402  161.9787 H   0  0  0  0  0  0  0  0  0  0  0  0
  150.9468  143.9314  160.4107 H   0  0  0  0  0  0  0  0  0  0  0  0
  152.4194  144.9136  160.5110 H   0  0  0  0  0  0  0  0  0  0  0  0
  153.4864  142.7722  162.9637 H   0  0  0  0  0  0  0  0  0  0  0  0
  151.5990  143.3178  158.6174 H   0  0  0  0  0  0  0  0  0  0  0  0
  152.9379  142.6391  157.7506 H   0  0  0  0  0  0  0  0  0  0  0  0
  150.8700  142.5031  156.4307 H   0  0  0  0  0  0  0  0  0  0  0  0
  148.6123  139.6937  157.5008 H   0  0  0  0  0  0  0  0  0  0  0  0
  147.9246  141.2533  157.1381 H   0  0  0  0  0  0  0  0  0  0  0  0
  147.7514  138.8060  155.3347 H   0  0  0  0  0  0  0  0  0  0  0  0
  146.4650  139.4964  156.2868 H   0  0  0  0  0  0  0  0  0  0  0  0
  146.3277  140.2083  153.8899 H   0  0  0  0  0  0  0  0  0  0  0  0
  146.5039  141.5723  154.9685 H   0  0  0  0  0  0  0  0  0  0  0  0
  148.7201  140.2833  153.3053 H   0  0  0  0  0  0  0  0  0  0  0  0
  148.0164  141.8572  153.0490 H   0  0  0  0  0  0  0  0  0  0  0  0
  148.8920  142.6850  155.1875 H   0  0  0  0  0  0  0  0  0  0  0  0
  150.1919  142.0791  154.2153 H   0  0  0  0  0  0  0  0  0  0  0  0
  1  2  1  0  0  0  0
  1 21  1  0  0  0  0
  1 22  1  0  0  0  0
  1 23  1  0  0  0  0
  2  7  1  0  0  0  0
  2  3  2  0  0  0  0
  3  4  1  0  0  0  0
  3 24  1  0  0  0  0
  4  5  1  0  0  0  0
  5  6  2  0  0  0  0
  5  7  1  0  0  0  0
  7  8  1  0  0  0  0
  8  9  1  0  0  0  0
  8 25  1  0  0  0  0
  8 26  1  0  0  0  0
  9 10  2  0  0  0  0
  9 11  1  0  0  0  0
 11 12  1  0  0  0  0
 11 27  1  0  0  0  0
 12 20  1  0  0  0  0
 12 13  1  0  0  0  0
 12 16  1  0  0  0  0
 13 14  2  0  0  0  0
 13 15  1  0  0  0  0
 16 17  1  0  0  0  0
 16 28  1  0  0  0  0
 16 29  1  0  0  0  0
 17 18  1  0  0  0  0
 17 30  1  0  0  0  0
 17 31  1  0  0  0  0
 18 19  1  0  0  0  0
 18 32  1  0  0  0  0
 18 33  1  0  0  0  0
 19 20  1  0  0  0  0
 19 34  1  0  0  0  0
 19 35  1  0  0  0  0
 20 36  1  0  0  0  0
 20 37  1  0  0  0  0
M  CHG  1  15  -1
M  END
> <s_m_source_file>
AV-unprocessed.smi

> <i_m_source_file_index>
2652

> <i_lp_mmshare_version>
43012

> <i_f3d_flags>
0

> <s_epik_input>
W0NIM11jMVtjSF1zYyg9TyluMVtDSDJdQyg9TylbTkhdQzIoQyg9TylbT0hdKVtDSDJdW0NIMl1bQ0gyXVtDSDJdW0NIMl0y

> <s_epik_cmdline>
J2VwaWtfcHl0aG9uJywgJy1waCcsICc3LjAnLCAnLXRuJywgJzgnLCAnLW1hJywgJzIwMCcsICctbWV0YWxfYmluZGluZycsICctaW1hZScsICc8aW5maWxlLm1hZT4nLCAnLW9tYWUnLCAnPG91dGZpbGUubWFlPic=

> <r_epik_Ionization_Penalty>
0.000325241

> <r_epik_Ionization_Penalty_Charging>
0.000325125

> <r_epik_Ionization_Penalty_Neutral>
1.16183e-07

> <r_epik_State_Penalty>
0.000195685

> <r_epik_Charging_Adjusted_Penalty>
0.00052081

> <i_epik_Tot_Q>
-1

> <i_epik_Tot_abs_Q>
1

> <r_epik_Metal_State_Penalty>
-0

> <b_epik_Metal_Only>
0

> <s_lp_Force_Field>
OPLS_2005

> <r_lp_Energy>
9.07631

> <b_lp_Chiralities_Consistent>
1

> <s_lp_Variant>
AV-unprocessed.smi:2652-1

> <Gold.Version>
5.8.1

> <Gold.Id.Protein>
6NUR|6NUR_protein|mol2

> <Gold.PLP.Fitness>
44.0940

> <Gold.PLP.PLP>
-38.1640

> <Gold.PLP.part.hbond>
-2.0000

> <Gold.PLP.part.metal>
0.0000

> <Gold.PLP.part.buried>
-2.3585

> <Gold.PLP.part.nonpolar>
-33.3858

> <Gold.PLP.part.repulsive>
0.2203

> <Gold.PLP.ligand.clash>
0.0000

> <Gold.PLP.ligand.torsion>
0.0489

> <Gold.PLP.Chemscore.Hbond>
1.9920

> <Gold.PLP.Chemscore.CHOScore>
0.0000

> <Gold.PLP.Chemscore.Metal>
0.0000

> <Gold.Chemscore.Hbonds>
donor molecule, donor type, donor heavy atom, donor atom, acceptor molecule, acceptor atom, score
      P1  H  7989  7998       L1    14  1.00
      P1  H  7997  8010       L1     6  0.94

> <Gold.PLP.Chemscore.Internal.Correction>
0.0518

> <Gold.Rescore>
     Score         DG    S(hbond)    S(metal)    S(lipo)     H(rot)  DE(clash)    DE(int)     intcor
     15.32     -16.69       1.95        0.00      85.17       2.05       0.36       1.01       ----

> <Gold.Chemscore.Fitness>
15.3152

> <Gold.Chemscore.DG>
-16.6878

> <Gold.Chemscore.ZeroCoef>
-5.4800

> <Gold.Chemscore.Hbond>
1.9473

> <Gold.Chemscore.Metal>
0.0000

> <Gold.Chemscore.Lipo>
85.1672

> <Gold.Chemscore.Internal_Hbond>
0.0000

> <Gold.Chemscore.DEClash>
0.3615

> <Gold.Chemscore.DEInternal>
1.0111

> <Gold.Chemscore.Rot>
2.0550

> <Gold.Chemscore.Internal.Correction>
   9.000000E+99

> <Gold.Chemscore.Hbonds>
donor molecule, donor type, donor heavy atom, donor atom, acceptor molecule, acceptor atom, score
      P1  H  7989  7998       L1    14  0.88
      P1  H  7997  8010       L1     6  0.85

> <Gold.Chemscore.Hbond.Weighted>
-6.5040

> <Gold.Chemscore.Metal.Weighted>
-0.0000

> <Gold.Chemscore.Lipo.Weighted>
-9.9646

> <Gold.Chemscore.Internal_Hbond.Weighted>
0.0000

> <Gold.Chemscore.DEClash.Weighted>
0.3615

> <Gold.Chemscore.DEInternal.Weighted>
1.0111

> <Gold.Chemscore.Rot.Weighted>
5.2607

> <Gold.Chemscore.Internal.Correction.Weighted>
   9.000000E+99

> <Gold.Protein.RotatedTorsions>
[ 6907 6896 6895 6894 ] final  -67.88 input  -60.11 | X-H torsion
[ 7974 7965 7964 7962 ] final  -32.26 input  175.53 | X-H torsion
[ 8008 7997 7996 7995 ] final   13.65 input   59.86 | X-H torsion
[ 10167 10162 10161 10158 ] final   47.46 input  -65.29 | X-H torsion
[ 10718 10713 10712 10709 ] final   72.94 input   66.30 | X-H torsion
[ 10763 10752 10751 10750 ] final  178.20 input  -60.55 | X-H torsion
[ 11005 11000 10999 10996 ] final   69.85 input  -57.11 | X-H torsion

> <Gold.Protein.ActiveResidues>
 VAL166  LYS551  ARG553  GLY616  TRP617  ASP618  TYR619  PRO620  LYS621  CYS622 
 ASP623  PHE694  ASN695  SER759  ASP760  ASP761  ALA762  ILE779  LEU786  VAL792 
 PHE793  MET794  SER795  GLU796  ALA797  LYS798  CYS799  TRP800  GLU811  SER814 

> <Gold.Protein.RotatedAtoms>
  150.7385  134.5818  159.5942 H   0  0  0  0  0  0  0  0  0  0  0  0  # atno 6907 bound_to 6896
  152.3230  134.7354  160.0318 H   0  0  0  0  0  0  0  0  0  0  0  0  # atno 6908 bound_to 6896
  151.7863  133.3319  159.3522 H   0  0  0  0  0  0  0  0  0  0  0  0  # atno 6909 bound_to 6896
  146.1004  140.5770  142.8823 H   0  0  0  0  0  0  0  0  0  0  0  0  # atno 7974 bound_to 7965
  154.8374  140.2909  155.5682 H   0  0  0  0  0  0  0  0  0  0  0  0  # atno 8008 bound_to 7997
  156.3009  140.2520  156.3241 H   0  0  0  0  0  0  0  0  0  0  0  0  # atno 8009 bound_to 7997
  154.9163  140.0387  157.1963 H   0  0  0  0  0  0  0  0  0  0  0  0  # atno 8010 bound_to 7997
  140.3034  144.2907  150.6214 H   0  0  0  0  0  0  0  0  0  0  0  0  # atno 10167 bound_to 10162
  157.6525  130.9604  150.0999 H   0  0  0  0  0  0  0  0  0  0  0  0  # atno 10718 bound_to 10713
  154.5046  135.2785  155.1393 H   0  0  0  0  0  0  0  0  0  0  0  0  # atno 10763 bound_to 10752
  154.3013  135.6247  153.5429 H   0  0  0  0  0  0  0  0  0  0  0  0  # atno 10764 bound_to 10752
  152.9908  135.5697  154.5497 H   0  0  0  0  0  0  0  0  0  0  0  0  # atno 10765 bound_to 10752
  139.9630  134.7028  156.0604 H   0  0  0  0  0  0  0  0  0  0  0  0  # atno 11005 bound_to 11000
  144.7428  140.4988  143.6857 LP  0  0  0  0  0  0  0  0  0  0  0  0  # atno 17320 bound_to 7965
  145.5865  139.1492  143.3206 LP  0  0  0  0  0  0  0  0  0  0  0  0  # atno 17321 bound_to 7965
  140.5631  143.2189  151.7730 LP  0  0  0  0  0  0  0  0  0  0  0  0  # atno 17342 bound_to 10162
  139.4910  144.4321  151.9860 LP  0  0  0  0  0  0  0  0  0  0  0  0  # atno 17343 bound_to 10162
  156.1925  130.3655  149.8892 LP  0  0  0  0  0  0  0  0  0  0  0  0  # atno 17370 bound_to 10713
  156.6816  130.8860  151.3576 LP  0  0  0  0  0  0  0  0  0  0  0  0  # atno 17371 bound_to 10713
  141.1309  133.6587  156.3461 LP  0  0  0  0  0  0  0  0  0  0  0  0  # atno 17394 bound_to 11000
  140.5457  134.6077  157.5393 LP  0  0  0  0  0  0  0  0  0  0  0  0  # atno 17395 bound_to 11000

$$$$
