AV-unprocessed.smi:3303|AV-procd|sdf|12660|dock10
  -GOLD-   2272018593D 1   1.00000     0.00000
 Structure written by MMmdl.
 45 46  0  0  0  0  0  0  0  0  3 V2000
  151.3312  138.3442  155.1409 C   0  0  0  0  0  0  0  0  0  0  0  0
  150.3677  139.3477  154.4849 C   0  0  1  0  0  0  0  0  0  0  0  0
  149.0241  138.6977  154.0974 C   0  0  0  0  0  0  0  0  0  0  0  0
  148.1555  139.6580  153.3702 N   0  3  1  0  0  0  0  0  0  0  0  0
  146.9571  139.0180  152.7811 C   0  0  0  0  0  0  0  0  0  0  0  0
  147.8693  140.9028  154.1402 C   0  0  1  0  0  0  0  0  0  0  0  0
  146.8627  140.7001  155.2940 C   0  0  0  0  0  0  0  0  0  0  0  0
  149.1875  141.5752  154.5903 C   0  0  0  0  0  0  0  0  0  0  0  0
  150.1605  140.6261  155.3287 C   0  0  1  0  0  0  0  0  0  0  0  0
  149.7168  140.3067  156.7080 N   0  3  0  0  0  0  0  0  0  0  0  0
  149.8658  141.3970  157.6940 C   0  0  0  0  0  0  0  0  0  0  0  0
  151.2863  141.4198  158.2733 C   0  0  0  0  0  0  0  0  0  0  0  0
  151.5252  142.6348  159.1488 C   0  0  0  0  0  0  0  0  0  0  0  0
  151.6510  143.9209  158.5819 C   0  0  0  0  0  0  0  0  0  0  0  0
  151.8650  145.0147  159.4433 C   0  0  0  0  0  0  0  0  0  0  0  0
  151.9428  144.7810  160.8298 C   0  0  0  0  0  0  0  0  0  0  0  0
  151.8031  143.4586  161.2961 C   0  0  0  0  0  0  0  0  0  0  0  0
  151.5968  142.4028  160.4789 N   0  0  0  0  0  0  0  0  0  0  0  0
  150.9172  137.9225  156.0572 H   0  0  0  0  0  0  0  0  0  0  0  0
  152.2820  138.8168  155.3896 H   0  0  0  0  0  0  0  0  0  0  0  0
  151.5461  137.5136  154.4677 H   0  0  0  0  0  0  0  0  0  0  0  0
  150.8447  139.6602  153.5542 H   0  0  0  0  0  0  0  0  0  0  0  0
  149.2153  137.8394  153.4515 H   0  0  0  0  0  0  0  0  0  0  0  0
  148.5087  138.3120  154.9777 H   0  0  0  0  0  0  0  0  0  0  0  0
  146.3287  138.5615  153.5466 H   0  0  0  0  0  0  0  0  0  0  0  0
  147.2514  138.2360  152.0806 H   0  0  0  0  0  0  0  0  0  0  0  0
  146.3596  139.7458  152.2311 H   0  0  0  0  0  0  0  0  0  0  0  0
  147.3962  141.5954  153.4424 H   0  0  0  0  0  0  0  0  0  0  0  0
  146.7410  141.6199  155.8669 H   0  0  0  0  0  0  0  0  0  0  0  0
  147.1684  139.9198  155.9892 H   0  0  0  0  0  0  0  0  0  0  0  0
  145.8748  140.4322  154.9190 H   0  0  0  0  0  0  0  0  0  0  0  0
  149.6963  141.9393  153.6966 H   0  0  0  0  0  0  0  0  0  0  0  0
  148.9782  142.4701  155.1756 H   0  0  0  0  0  0  0  0  0  0  0  0
  151.1271  141.1250  155.4149 H   0  0  0  0  0  0  0  0  0  0  0  0
  148.7503  140.0148  156.6849 H   0  0  0  0  0  0  0  0  0  0  0  0
  149.6462  142.3517  157.2143 H   0  0  0  0  0  0  0  0  0  0  0  0
  149.1460  141.2671  158.5018 H   0  0  0  0  0  0  0  0  0  0  0  0
  151.4644  140.5202  158.8648 H   0  0  0  0  0  0  0  0  0  0  0  0
  152.0207  141.4075  157.4667 H   0  0  0  0  0  0  0  0  0  0  0  0
  151.5861  144.0701  157.5138 H   0  0  0  0  0  0  0  0  0  0  0  0
  151.9667  146.0146  159.0472 H   0  0  0  0  0  0  0  0  0  0  0  0
  152.1064  145.5957  161.5200 H   0  0  0  0  0  0  0  0  0  0  0  0
  151.8574  143.2426  162.3528 H   0  0  0  0  0  0  0  0  0  0  0  0
  150.2763  139.5322  157.0369 H   0  0  0  0  0  0  0  0  0  0  0  0
  148.7035  139.9615  152.5774 H   0  0  0  0  0  0  0  0  0  0  0  0
  1  2  1  0  0  0  0
  1 19  1  0  0  0  0
  1 20  1  0  0  0  0
  1 21  1  0  0  0  0
  2  9  1  0  0  0  0
  2  3  1  0  0  0  0
  2 22  1  0  0  0  0
  3  4  1  0  0  0  0
  3 23  1  0  0  0  0
  3 24  1  0  0  0  0
  4  5  1  0  0  0  0
  4  6  1  0  0  0  0
  4 45  1  0  0  0  0
  5 25  1  0  0  0  0
  5 26  1  0  0  0  0
  5 27  1  0  0  0  0
  6  7  1  0  0  0  0
  6  8  1  0  0  0  0
  6 28  1  0  0  0  0
  7 29  1  0  0  0  0
  7 30  1  0  0  0  0
  7 31  1  0  0  0  0
  8  9  1  0  0  0  0
  8 32  1  0  0  0  0
  8 33  1  0  0  0  0
  9 10  1  0  0  0  0
  9 34  1  0  0  0  0
 10 11  1  0  0  0  0
 10 35  1  0  0  0  0
 10 44  1  0  0  0  0
 11 12  1  0  0  0  0
 11 36  1  0  0  0  0
 11 37  1  0  0  0  0
 12 13  1  0  0  0  0
 12 38  1  0  0  0  0
 12 39  1  0  0  0  0
 13 18  1  0  0  0  0
 13 14  2  0  0  0  0
 14 15  1  0  0  0  0
 14 40  1  0  0  0  0
 15 16  2  0  0  0  0
 15 41  1  0  0  0  0
 16 17  1  0  0  0  0
 16 42  1  0  0  0  0
 17 18  2  0  0  0  0
 17 43  1  0  0  0  0
M  CHG  1   4   1
M  CHG  1  10   1
M  END
> <s_m_source_file>
AV-unprocessed.smi

> <i_m_source_file_index>
3303

> <i_lp_mmshare_version>
43012

> <i_f3d_flags>
0

> <s_epik_input>
W0NIM11bQ0BASF0xW0NIMl1OKFtDSDNdKVtDQEBIXShbQ0gzXSlbQ0gyXVtDQEhdMVtOSF1bQ0gyXVtDSDJdYzJbY0hdW2NIXVtjSF1bY0hdbjI=

> <s_epik_cmdline>
J2VwaWtfcHl0aG9uJywgJy1waCcsICc3LjAnLCAnLXRuJywgJzgnLCAnLW1hJywgJzIwMCcsICctbWV0YWxfYmluZGluZycsICctaW1hZScsICc8aW5maWxlLm1hZT4nLCAnLW9tYWUnLCAnPG91dGZpbGUubWFlPic=

> <r_epik_Ionization_Penalty>
0.0769462

> <r_epik_Ionization_Penalty_Charging>
0.0759813

> <r_epik_Ionization_Penalty_Neutral>
0.000964829

> <r_epik_State_Penalty>
0.0654373

> <r_epik_Charging_Adjusted_Penalty>
0.141419

> <i_epik_Tot_Q>
2

> <i_epik_Tot_abs_Q>
2

> <r_epik_Metal_State_Penalty>
0.0656439

> <b_epik_Metal_Only>
0

> <s_lp_Force_Field>
OPLS_2005

> <r_lp_Energy>
33.2065

> <b_lp_Chiralities_Consistent>
1

> <s_lp_Variant>
AV-unprocessed.smi:3303-4

> <Gold.Version>
5.8.1

> <Gold.Id.Protein>
6NUR|6NUR_protein|mol2

> <Gold.PLP.Fitness>
44.9127

> <Gold.PLP.PLP>
-42.6851

> <Gold.PLP.part.hbond>
-1.4837

> <Gold.PLP.part.metal>
0.0000

> <Gold.PLP.part.buried>
-2.3147

> <Gold.PLP.part.nonpolar>
-38.3112

> <Gold.PLP.part.repulsive>
0.1313

> <Gold.PLP.ligand.clash>
0.0000

> <Gold.PLP.ligand.torsion>
0.3926

> <Gold.PLP.Chemscore.Hbond>
1.0000

> <Gold.PLP.Chemscore.CHOScore>
0.0000

> <Gold.PLP.Chemscore.Metal>
0.0000

> <Gold.Chemscore.Hbonds>
donor molecule, donor type, donor heavy atom, donor atom, acceptor molecule, acceptor atom, score
      L1  H     4    45       P1  7957  1.00

> <Gold.PLP.Chemscore.Internal.Correction>
0.0129

> <Gold.Rescore>
     Score         DG    S(hbond)    S(metal)    S(lipo)     H(rot)  DE(clash)    DE(int)     intcor
     19.51     -19.81       1.00        0.00     123.98       1.37       0.01       0.28       ----

> <Gold.Chemscore.Fitness>
19.5125

> <Gold.Chemscore.DG>
-19.8068

> <Gold.Chemscore.ZeroCoef>
-5.4800

> <Gold.Chemscore.Hbond>
1.0000

> <Gold.Chemscore.Metal>
0.0000

> <Gold.Chemscore.Lipo>
123.9763

> <Gold.Chemscore.Internal_Hbond>
0.0000

> <Gold.Chemscore.DEClash>
0.0111

> <Gold.Chemscore.DEInternal>
0.2832

> <Gold.Chemscore.Rot>
1.3744

> <Gold.Chemscore.Internal.Correction>
   9.000000E+99

> <Gold.Chemscore.Hbonds>
donor molecule, donor type, donor heavy atom, donor atom, acceptor molecule, acceptor atom, score
      L1  H     4    45       P1  7957  1.00

> <Gold.Chemscore.Hbond.Weighted>
-3.3400

> <Gold.Chemscore.Metal.Weighted>
-0.0000

> <Gold.Chemscore.Lipo.Weighted>
-14.5052

> <Gold.Chemscore.Internal_Hbond.Weighted>
0.0000

> <Gold.Chemscore.DEClash.Weighted>
0.0111

> <Gold.Chemscore.DEInternal.Weighted>
0.2832

> <Gold.Chemscore.Rot.Weighted>
3.5185

> <Gold.Chemscore.Internal.Correction.Weighted>
   9.000000E+99

> <Gold.Protein.RotatedTorsions>
[ 6907 6896 6895 6894 ] final   63.71 input  -60.11 | X-H torsion
[ 7974 7965 7964 7962 ] final   65.82 input  175.53 | X-H torsion
[ 8008 7997 7996 7995 ] final   -0.07 input   59.86 | X-H torsion
[ 10167 10162 10161 10158 ] final  101.50 input  -65.29 | X-H torsion
[ 10718 10713 10712 10709 ] final -102.53 input   66.30 | X-H torsion
[ 10763 10752 10751 10750 ] final   90.71 input  -60.55 | X-H torsion
[ 11005 11000 10999 10996 ] final  -30.65 input  -57.11 | X-H torsion

> <Gold.Protein.ActiveResidues>
 VAL166  LYS551  ARG553  GLY616  TRP617  ASP618  TYR619  PRO620  LYS621  CYS622 
 ASP623  PHE694  ASN695  SER759  ASP760  ASP761  ALA762  ILE779  LEU786  VAL792 
 PHE793  MET794  SER795  GLU796  ALA797  LYS798  CYS799  TRP800  GLU811  SER814 

> <Gold.Protein.RotatedAtoms>
  152.4274  134.5842  159.9956 H   0  0  0  0  0  0  0  0  0  0  0  0  # atno 6907 bound_to 6896
  151.5974  133.3354  159.3048 H   0  0  0  0  0  0  0  0  0  0  0  0  # atno 6908 bound_to 6896
  150.8165  134.7386  159.6799 H   0  0  0  0  0  0  0  0  0  0  0  0  # atno 6909 bound_to 6896
  145.8339  139.3155  143.0971 H   0  0  0  0  0  0  0  0  0  0  0  0  # atno 7974 bound_to 7965
  154.6622  140.2593  155.7096 H   0  0  0  0  0  0  0  0  0  0  0  0  # atno 8008 bound_to 7997
  156.2623  140.2846  156.1020 H   0  0  0  0  0  0  0  0  0  0  0  0  # atno 8009 bound_to 7997
  155.1291  140.0378  157.2760 H   0  0  0  0  0  0  0  0  0  0  0  0  # atno 8010 bound_to 7997
  139.7432  144.7005  151.0543 H   0  0  0  0  0  0  0  0  0  0  0  0  # atno 10167 bound_to 10162
  156.0232  130.5424  150.7121 H   0  0  0  0  0  0  0  0  0  0  0  0  # atno 10718 bound_to 10713
  153.2005  135.4424  155.0260 H   0  0  0  0  0  0  0  0  0  0  0  0  # atno 10763 bound_to 10752
  154.8144  135.3308  154.7220 H   0  0  0  0  0  0  0  0  0  0  0  0  # atno 10764 bound_to 10752
  153.7666  135.6987  153.4970 H   0  0  0  0  0  0  0  0  0  0  0  0  # atno 10765 bound_to 10752
  140.9401  133.7284  156.1063 H   0  0  0  0  0  0  0  0  0  0  0  0  # atno 11005 bound_to 11000
  145.9540  140.8887  143.0244 LP  0  0  0  0  0  0  0  0  0  0  0  0  # atno 17320 bound_to 7965
  144.6738  140.1719  143.7413 LP  0  0  0  0  0  0  0  0  0  0  0  0  # atno 17321 bound_to 7965
  140.7789  143.4898  150.9908 LP  0  0  0  0  0  0  0  0  0  0  0  0  # atno 17342 bound_to 10162
  139.8587  143.7343  152.3174 LP  0  0  0  0  0  0  0  0  0  0  0  0  # atno 17343 bound_to 10162
  157.4757  131.0897  151.0593 LP  0  0  0  0  0  0  0  0  0  0  0  0  # atno 17370 bound_to 10713
  157.1040  130.5994  149.5467 LP  0  0  0  0  0  0  0  0  0  0  0  0  # atno 17371 bound_to 10713
  140.7745  134.3795  157.5500 LP  0  0  0  0  0  0  0  0  0  0  0  0  # atno 17394 bound_to 11000
  139.8818  134.9043  156.2874 LP  0  0  0  0  0  0  0  0  0  0  0  0  # atno 17395 bound_to 11000

$$$$
