AV-unprocessed.smi:2760|AV-procd|sdf|10630|dock6
  -GOLD-   2272015 83D 1   1.00000     0.00000
 Structure written by MMmdl.
 31 32  0  0  0  0  0  0  0  0  2 V2000
  154.3548  140.1457  160.9082 O   0  0  0  0  0  0  0  0  0  0  0  0
  153.4843  140.5014  160.1165 C   0  0  0  0  0  0  0  0  0  0  0  0
  153.3414  141.9202  159.7915 C   0  0  0  0  0  0  0  0  0  0  0  0
  152.3760  142.3039  158.9190 C   0  0  0  0  0  0  0  0  0  0  0  0
  152.1869  143.7366  158.5461 C   0  0  0  0  0  0  0  0  0  0  0  0
  152.1719  144.8235  159.5974 C   0  0  0  0  0  0  0  0  0  0  0  0
  150.9089  144.4951  158.8396 C   0  0  0  0  0  0  0  0  0  0  0  0
  151.5294  141.3442  158.3314 N   0  0  0  0  0  0  0  0  0  0  0  0
  151.6735  140.1075  158.6281 C   0  0  0  0  0  0  0  0  0  0  0  0
  150.5585  138.9352  157.8320 S   0  0  0  0  0  0  0  0  0  0  0  0
  150.1121  137.7680  159.1513 C   0  0  0  0  0  0  0  0  0  0  0  0
  148.6619  137.2983  159.0085 C   0  0  0  0  0  0  0  0  0  0  0  0
  148.0511  137.2794  160.2877 O   0  0  0  0  0  0  0  0  0  0  0  0
  147.8401  135.9631  160.7736 C   0  0  0  0  0  0  0  0  0  0  0  0
  146.9404  136.0091  162.0144 C   0  0  0  0  0  0  0  0  0  0  0  0
  146.6862  134.7649  162.4181 F   0  0  0  0  0  0  0  0  0  0  0  0
  147.5492  136.6627  163.0036 F   0  0  0  0  0  0  0  0  0  0  0  0
  145.7857  136.6085  161.7253 F   0  0  0  0  0  0  0  0  0  0  0  0
  152.6241  139.6340  159.5095 N   0  5  0  0  0  0  0  0  0  0  0  0
  153.9990  142.6473  160.2452 H   0  0  0  0  0  0  0  0  0  0  0  0
  152.6773  143.9857  157.6066 H   0  0  0  0  0  0  0  0  0  0  0  0
  152.2226  144.5229  160.6421 H   0  0  0  0  0  0  0  0  0  0  0  0
  152.6742  145.7581  159.3577 H   0  0  0  0  0  0  0  0  0  0  0  0
  150.5716  145.2125  158.0947 H   0  0  0  0  0  0  0  0  0  0  0  0
  150.1156  143.9879  159.3851 H   0  0  0  0  0  0  0  0  0  0  0  0
  150.2552  138.2516  160.1183 H   0  0  0  0  0  0  0  0  0  0  0  0
  150.7832  136.9094  159.1124 H   0  0  0  0  0  0  0  0  0  0  0  0
  148.1145  137.9686  158.3441 H   0  0  0  0  0  0  0  0  0  0  0  0
  148.6365  136.3010  158.5666 H   0  0  0  0  0  0  0  0  0  0  0  0
  147.3746  135.3493  160.0009 H   0  0  0  0  0  0  0  0  0  0  0  0
  148.7962  135.5020  161.0253 H   0  0  0  0  0  0  0  0  0  0  0  0
  1  2  2  0  0  0  0
  2 19  1  0  0  0  0
  2  3  1  0  0  0  0
  3 20  1  0  0  0  0
  3  4  2  0  0  0  0
  4  5  1  0  0  0  0
  4  8  1  0  0  0  0
  5  7  1  0  0  0  0
  5  6  1  0  0  0  0
  5 21  1  0  0  0  0
  6  7  1  0  0  0  0
  6 22  1  0  0  0  0
  6 23  1  0  0  0  0
  7 24  1  0  0  0  0
  7 25  1  0  0  0  0
  8  9  2  0  0  0  0
  9 10  1  0  0  0  0
  9 19  1  0  0  0  0
 10 11  1  0  0  0  0
 11 12  1  0  0  0  0
 11 26  1  0  0  0  0
 11 27  1  0  0  0  0
 12 13  1  0  0  0  0
 12 28  1  0  0  0  0
 12 29  1  0  0  0  0
 13 14  1  0  0  0  0
 14 15  1  0  0  0  0
 14 30  1  0  0  0  0
 14 31  1  0  0  0  0
 15 16  1  0  0  0  0
 15 17  1  0  0  0  0
 15 18  1  0  0  0  0
M  CHG  1  19  -1
M  END
> <s_m_source_file>
AV-unprocessed.smi

> <i_m_source_file_index>
2760

> <i_lp_mmshare_version>
43012

> <i_f3d_flags>
0

> <s_epik_input>
W09IXWMxW2NIXWMoW0NIXTJbQ0gyXVtDSDJdMiluYyhuMSlTW0NIMl1bQ0gyXU9bQ0gyXUMoRikoRilG

> <s_epik_cmdline>
J2VwaWtfcHl0aG9uJywgJy1waCcsICc3LjAnLCAnLXRuJywgJzgnLCAnLW1hJywgJzIwMCcsICctbWV0YWxfYmluZGluZycsICctaW1hZScsICc8aW5maWxlLm1hZT4nLCAnLW9tYWUnLCAnPG91dGZpbGUubWFlPic=

> <r_lp_tautomer_probability>
1

> <r_epik_Ionization_Penalty>
4.02042

> <r_epik_Ionization_Penalty_Charging>
0.00362968

> <r_epik_Ionization_Penalty_Neutral>
4.01679

> <r_epik_State_Penalty>
2.30798

> <r_epik_Charging_Adjusted_Penalty>
2.31161

> <i_epik_Tot_Q>
-1

> <i_epik_Tot_abs_Q>
1

> <r_epik_Metal_State_Penalty>
0.234281

> <b_epik_Metal_Only>
0

> <s_lp_Force_Field>
OPLS_2005

> <r_lp_Energy>
16.4735

> <b_lp_Chiralities_Consistent>
1

> <s_lp_Variant>
AV-unprocessed.smi:2760-3

> <Gold.Version>
5.8.1

> <Gold.Id.Protein>
6NUR|6NUR_protein|mol2

> <Gold.PLP.Fitness>
47.2427

> <Gold.PLP.PLP>
-46.2204

> <Gold.PLP.part.hbond>
-2.0000

> <Gold.PLP.part.metal>
0.0000

> <Gold.PLP.part.buried>
-5.6991

> <Gold.PLP.part.nonpolar>
-38.9497

> <Gold.PLP.part.repulsive>
0.0000

> <Gold.PLP.ligand.clash>
0.0000

> <Gold.PLP.ligand.torsion>
1.3556

> <Gold.PLP.Chemscore.Hbond>
1.1730

> <Gold.PLP.Chemscore.CHOScore>
0.0000

> <Gold.PLP.Chemscore.Metal>
0.0000

> <Gold.Chemscore.Hbonds>
donor molecule, donor type, donor heavy atom, donor atom, acceptor molecule, acceptor atom, score
      P1  H  6931  6943       L1    13  0.51
      P1  H  6934  6947       L1    13  0.69

> <Gold.PLP.Chemscore.Internal.Correction>
0.2144

> <Gold.Rescore>
     Score         DG    S(hbond)    S(metal)    S(lipo)     H(rot)  DE(clash)    DE(int)     intcor
     11.65     -13.20       1.20        0.00      86.15       2.48       0.13       1.43       ----

> <Gold.Chemscore.Fitness>
11.6457

> <Gold.Chemscore.DG>
-13.2039

> <Gold.Chemscore.ZeroCoef>
-5.4800

> <Gold.Chemscore.Hbond>
1.1979

> <Gold.Chemscore.Metal>
0.0000

> <Gold.Chemscore.Lipo>
86.1544

> <Gold.Chemscore.Internal_Hbond>
0.0000

> <Gold.Chemscore.DEClash>
0.1318

> <Gold.Chemscore.DEInternal>
1.4264

> <Gold.Chemscore.Rot>
2.4833

> <Gold.Chemscore.Internal.Correction>
   9.000000E+99

> <Gold.Chemscore.Hbonds>
donor molecule, donor type, donor heavy atom, donor atom, acceptor molecule, acceptor atom, score
      P1  H  6931  6943       L1    13  0.22
      P1  H  6934  6947       L1    13  0.59

> <Gold.Chemscore.Hbond.Weighted>
-4.0011

> <Gold.Chemscore.Metal.Weighted>
-0.0000

> <Gold.Chemscore.Lipo.Weighted>
-10.0801

> <Gold.Chemscore.Internal_Hbond.Weighted>
0.0000

> <Gold.Chemscore.DEClash.Weighted>
0.1318

> <Gold.Chemscore.DEInternal.Weighted>
1.4264

> <Gold.Chemscore.Rot.Weighted>
6.3572

> <Gold.Chemscore.Internal.Correction.Weighted>
   9.000000E+99

> <Gold.Protein.RotatedTorsions>
[ 6907 6896 6895 6894 ] final -138.30 input  -60.11 | X-H torsion
[ 7974 7965 7964 7962 ] final  -82.77 input  175.53 | X-H torsion
[ 8008 7997 7996 7995 ] final  112.54 input   59.86 | X-H torsion
[ 10167 10162 10161 10158 ] final  -62.44 input  -65.29 | X-H torsion
[ 10718 10713 10712 10709 ] final  -25.85 input   66.30 | X-H torsion
[ 10763 10752 10751 10750 ] final   18.89 input  -60.55 | X-H torsion
[ 11005 11000 10999 10996 ] final  118.51 input  -57.11 | X-H torsion

> <Gold.Protein.ActiveResidues>
 VAL166  LYS551  ARG553  GLY616  TRP617  ASP618  TYR619  PRO620  LYS621  CYS622 
 ASP623  PHE694  ASN695  SER759  ASP760  ASP761  ALA762  ILE779  LEU786  VAL792 
 PHE793  MET794  SER795  GLU796  ALA797  LYS798  CYS799  TRP800  GLU811  SER814 

> <Gold.Protein.RotatedAtoms>
  151.0333  133.5770  159.2658 H   0  0  0  0  0  0  0  0  0  0  0  0  # atno 6907 bound_to 6896
  151.2844  135.0722  159.9191 H   0  0  0  0  0  0  0  0  0  0  0  0  # atno 6908 bound_to 6896
  152.5349  134.0042  159.7963 H   0  0  0  0  0  0  0  0  0  0  0  0  # atno 6909 bound_to 6896
  145.5289  140.9523  143.1614 H   0  0  0  0  0  0  0  0  0  0  0  0  # atno 7974 bound_to 7965
  156.2199  140.2997  155.9927 H   0  0  0  0  0  0  0  0  0  0  0  0  # atno 8008 bound_to 7997
  155.2509  140.0426  157.3003 H   0  0  0  0  0  0  0  0  0  0  0  0  # atno 8009 bound_to 7997
  154.5824  140.2379  155.8042 H   0  0  0  0  0  0  0  0  0  0  0  0  # atno 8010 bound_to 7997
  140.5939  143.2347  151.6079 H   0  0  0  0  0  0  0  0  0  0  0  0  # atno 10167 bound_to 10162
  156.4589  130.4499  149.6941 H   0  0  0  0  0  0  0  0  0  0  0  0  # atno 10718 bound_to 10713
  153.1209  135.6719  153.9337 H   0  0  0  0  0  0  0  0  0  0  0  0  # atno 10763 bound_to 10752
  153.8853  135.3053  155.3447 H   0  0  0  0  0  0  0  0  0  0  0  0  # atno 10764 bound_to 10752
  154.7621  135.4983  153.9563 H   0  0  0  0  0  0  0  0  0  0  0  0  # atno 10765 bound_to 10752
  139.9112  134.9621  156.7514 H   0  0  0  0  0  0  0  0  0  0  0  0  # atno 11005 bound_to 11000
  144.7636  139.6898  143.7224 LP  0  0  0  0  0  0  0  0  0  0  0  0  # atno 17320 bound_to 7965
  146.2057  139.5380  142.9714 LP  0  0  0  0  0  0  0  0  0  0  0  0  # atno 17321 bound_to 7965
  139.5245  144.3101  152.1000 LP  0  0  0  0  0  0  0  0  0  0  0  0  # atno 17342 bound_to 10162
  140.2270  144.4407  150.6316 LP  0  0  0  0  0  0  0  0  0  0  0  0  # atno 17343 bound_to 10162
  156.3737  130.7544  151.2530 LP  0  0  0  0  0  0  0  0  0  0  0  0  # atno 17370 bound_to 10713
  157.7499  131.0315  150.4187 LP  0  0  0  0  0  0  0  0  0  0  0  0  # atno 17371 bound_to 10713
  140.6770  133.9508  155.7889 LP  0  0  0  0  0  0  0  0  0  0  0  0  # atno 17394 bound_to 11000
  141.0537  134.0447  157.3750 LP  0  0  0  0  0  0  0  0  0  0  0  0  # atno 17395 bound_to 11000

$$$$
