AV-unprocessed.smi:282|AV-procd|sdf|2123|dock4
  -GOLD-   2262021423D 1   1.00000     0.00000
 Structure written by MMmdl.
 65 69  0  0  0  0  0  0  0  0  2 V2000
  149.3633  128.5555  153.5453 C   0  0  0  0  0  0  0  0  0  0  0  0
  148.3114  129.0255  154.5636 C   0  0  0  0  0  0  0  0  0  0  0  0
  147.4754  130.2583  154.1290 C   0  0  2  0  0  0  0  0  0  0  0  0
  146.8919  130.0646  152.7122 C   0  0  0  0  0  0  0  0  0  0  0  0
  146.1053  131.2415  152.2704 N   0  3  2  0  0  0  0  0  0  0  0  0
  145.4879  131.0236  150.9366 C   0  0  0  0  0  0  0  0  0  0  0  0
  144.6025  132.2108  150.5281 C   0  0  0  0  0  0  0  0  0  0  0  0
  145.4066  133.5155  150.5439 C   0  0  0  0  0  0  0  0  0  0  0  0
  146.0448  133.7151  151.9240 C   0  0  0  0  0  0  0  0  0  0  0  0
  146.9010  132.4998  152.3345 C   0  0  1  0  0  0  0  0  0  0  0  0
  147.4781  132.7000  153.7473 C   0  0  0  0  0  0  0  0  0  0  0  0
  148.2123  131.5269  154.2122 N   0  0  0  0  0  0  0  0  0  0  0  0
  148.8298  131.8071  155.3841 C   0  0  0  0  0  0  0  0  0  0  0  0
  150.1838  131.9146  155.4372 N   0  0  0  0  0  0  0  0  0  0  0  0
  150.7865  132.1751  156.6013 C   0  0  0  0  0  0  0  0  0  0  0  0
  150.2365  132.3543  157.8045 N   0  0  0  0  0  0  0  0  0  0  0  0
  148.8782  132.2379  157.7532 C   0  0  0  0  0  0  0  0  0  0  0  0
  148.1031  131.9592  156.5937 C   0  0  0  0  0  0  0  0  0  0  0  0
  146.7554  131.8984  156.9208 N   0  0  0  0  0  0  0  0  0  0  0  0
  146.7337  132.1301  158.2053 C   0  0  0  0  0  0  0  0  0  0  0  0
  147.9622  132.3638  158.7838 N   0  0  0  0  0  0  0  0  0  0  0  0
  148.2245  132.6500  160.1875 C   0  0  0  0  0  0  0  0  0  0  0  0
  147.5477  133.9446  160.7297 C   0  0  0  0  0  0  0  0  0  0  0  0
  146.0008  133.8645  160.5831 C   0  0  0  0  0  0  0  0  0  0  0  0
  145.4433  132.8146  161.3480 O   0  0  0  0  0  0  0  0  0  0  0  0
  147.9642  134.1301  162.2106 C   0  0  0  0  0  0  0  0  0  0  0  0
  147.5983  135.5169  162.7697 C   0  0  0  0  0  0  0  0  0  0  0  0
  148.1827  136.5334  161.9659 O   0  0  0  0  0  0  0  0  0  0  0  0
  147.7119  136.5145  160.6248 C   0  0  0  0  0  0  0  0  0  0  0  0
  148.0773  135.1773  159.9544 C   0  0  0  0  0  0  0  0  0  0  0  0
  149.9343  127.7180  153.9463 H   0  0  0  0  0  0  0  0  0  0  0  0
  150.0730  129.3471  153.3051 H   0  0  0  0  0  0  0  0  0  0  0  0
  148.9067  128.2182  152.6155 H   0  0  0  0  0  0  0  0  0  0  0  0
  147.6350  128.1966  154.7747 H   0  0  0  0  0  0  0  0  0  0  0  0
  148.8121  129.2274  155.5104 H   0  0  0  0  0  0  0  0  0  0  0  0
  146.6279  130.3345  154.8122 H   0  0  0  0  0  0  0  0  0  0  0  0
  147.6908  129.8971  151.9889 H   0  0  0  0  0  0  0  0  0  0  0  0
  146.2574  129.1775  152.6946 H   0  0  0  0  0  0  0  0  0  0  0  0
  146.2710  130.8696  150.1924 H   0  0  0  0  0  0  0  0  0  0  0  0
  144.8871  130.1135  150.9567 H   0  0  0  0  0  0  0  0  0  0  0  0
  144.1861  132.0419  149.5347 H   0  0  0  0  0  0  0  0  0  0  0  0
  143.7550  132.2909  151.2102 H   0  0  0  0  0  0  0  0  0  0  0  0
  146.1824  133.4831  149.7779 H   0  0  0  0  0  0  0  0  0  0  0  0
  144.7610  134.3599  150.3010 H   0  0  0  0  0  0  0  0  0  0  0  0
  146.6564  134.6182  151.9177 H   0  0  0  0  0  0  0  0  0  0  0  0
  145.2597  133.8803  152.6633 H   0  0  0  0  0  0  0  0  0  0  0  0
  147.7322  132.4066  151.6328 H   0  0  0  0  0  0  0  0  0  0  0  0
  148.1339  133.5723  153.7498 H   0  0  0  0  0  0  0  0  0  0  0  0
  146.6702  132.9111  154.4503 H   0  0  0  0  0  0  0  0  0  0  0  0
  151.8633  132.2504  156.5641 H   0  0  0  0  0  0  0  0  0  0  0  0
  145.8126  132.1453  158.7698 H   0  0  0  0  0  0  0  0  0  0  0  0
  147.9063  131.7847  160.7705 H   0  0  0  0  0  0  0  0  0  0  0  0
  149.3060  132.7071  160.3192 H   0  0  0  0  0  0  0  0  0  0  0  0
  145.5178  134.7883  160.8965 H   0  0  0  0  0  0  0  0  0  0  0  0
  145.7162  133.7212  159.5406 H   0  0  0  0  0  0  0  0  0  0  0  0
  145.8404  132.8243  162.2056 H   0  0  0  0  0  0  0  0  0  0  0  0
  147.5266  133.3518  162.8362 H   0  0  0  0  0  0  0  0  0  0  0  0
  149.0447  134.0085  162.3003 H   0  0  0  0  0  0  0  0  0  0  0  0
  146.5185  135.6547  162.8299 H   0  0  0  0  0  0  0  0  0  0  0  0
  147.9804  135.6174  163.7858 H   0  0  0  0  0  0  0  0  0  0  0  0
  146.6373  136.6976  160.5993 H   0  0  0  0  0  0  0  0  0  0  0  0
  148.1779  137.3375  160.0826 H   0  0  0  0  0  0  0  0  0  0  0  0
  149.1646  135.1230  159.8876 H   0  0  0  0  0  0  0  0  0  0  0  0
  147.7097  135.1746  158.9279 H   0  0  0  0  0  0  0  0  0  0  0  0
  145.3467  131.3466  152.9289 H   0  0  0  0  0  0  0  0  0  0  0  0
  1  2  1  0  0  0  0
  1 31  1  0  0  0  0
  1 32  1  0  0  0  0
  1 33  1  0  0  0  0
  2  3  1  0  0  0  0
  2 34  1  0  0  0  0
  2 35  1  0  0  0  0
  3 12  1  0  0  0  0
  3  4  1  0  0  0  0
  3 36  1  0  0  0  0
  4  5  1  0  0  0  0
  4 37  1  0  0  0  0
  4 38  1  0  0  0  0
  5 10  1  0  0  0  0
  5  6  1  0  0  0  0
  5 65  1  0  0  0  0
  6  7  1  0  0  0  0
  6 39  1  0  0  0  0
  6 40  1  0  0  0  0
  7  8  1  0  0  0  0
  7 41  1  0  0  0  0
  7 42  1  0  0  0  0
  8  9  1  0  0  0  0
  8 43  1  0  0  0  0
  8 44  1  0  0  0  0
  9 10  1  0  0  0  0
  9 45  1  0  0  0  0
  9 46  1  0  0  0  0
 10 11  1  0  0  0  0
 10 47  1  0  0  0  0
 11 12  1  0  0  0  0
 11 48  1  0  0  0  0
 11 49  1  0  0  0  0
 12 13  1  0  0  0  0
 13 18  1  0  0  0  0
 13 14  2  0  0  0  0
 14 15  1  0  0  0  0
 15 16  2  0  0  0  0
 15 50  1  0  0  0  0
 16 17  1  0  0  0  0
 17 21  1  0  0  0  0
 17 18  2  0  0  0  0
 18 19  1  0  0  0  0
 19 20  2  0  0  0  0
 20 21  1  0  0  0  0
 20 51  1  0  0  0  0
 21 22  1  0  0  0  0
 22 23  1  0  0  0  0
 22 52  1  0  0  0  0
 22 53  1  0  0  0  0
 23 30  1  0  0  0  0
 23 24  1  0  0  0  0
 23 26  1  0  0  0  0
 24 25  1  0  0  0  0
 24 54  1  0  0  0  0
 24 55  1  0  0  0  0
 25 56  1  0  0  0  0
 26 27  1  0  0  0  0
 26 57  1  0  0  0  0
 26 58  1  0  0  0  0
 27 28  1  0  0  0  0
 27 59  1  0  0  0  0
 27 60  1  0  0  0  0
 28 29  1  0  0  0  0
 29 30  1  0  0  0  0
 29 61  1  0  0  0  0
 29 62  1  0  0  0  0
 30 63  1  0  0  0  0
 30 64  1  0  0  0  0
M  CHG  1   5   1
M  END
> <s_m_source_file>
AV-unprocessed.smi

> <i_m_source_file_index>
282

> <i_lp_mmshare_version>
43012

> <i_f3d_flags>
0

> <s_epik_input>
W0NIMl0xW0NIMl1bQ0gyXVtDSDJdW0NAQEhdKE4xMilbQ0gyXU4oW0NAQEhdKFtDSDJdMilbQ0gyXVtDSDNdKWMobltjSF1uMyljKGMzNCluW2NIXW40W0NIMl1DNShbQ0gyXVtPSF0pW0NIMl1bQ0gyXU9bQ0gyXVtDSDJdNQ==

> <s_epik_cmdline>
J2VwaWtfcHl0aG9uJywgJy1waCcsICc3LjAnLCAnLXRuJywgJzgnLCAnLW1hJywgJzIwMCcsICctbWV0YWxfYmluZGluZycsICctaW1hZScsICc8aW5maWxlLm1hZT4nLCAnLW9tYWUnLCAnPG91dGZpbGUubWFlPic=

> <r_lp_tautomer_probability>
1

> <r_epik_Ionization_Penalty>
0.00308583

> <r_epik_Ionization_Penalty_Charging>
0.00300384

> <r_epik_Ionization_Penalty_Neutral>
8.19894e-05

> <r_epik_State_Penalty>
-0

> <r_epik_Charging_Adjusted_Penalty>
0.00300384

> <i_epik_Tot_Q>
1

> <i_epik_Tot_abs_Q>
1

> <r_epik_Metal_State_Penalty>
-0

> <b_epik_Metal_Only>
0

> <s_lp_Force_Field>
OPLS_2005

> <r_lp_Energy>
57.4125

> <b_lp_Chiralities_Consistent>
1

> <s_lp_Variant>
AV-unprocessed.smi:282-7

> <Gold.Version>
5.8.1

> <Gold.Id.Protein>
6NUR|6NUR_protein|mol2

> <Gold.PLP.Fitness>
45.4595

> <Gold.PLP.PLP>
-39.6713

> <Gold.PLP.part.hbond>
-2.0000

> <Gold.PLP.part.metal>
0.0000

> <Gold.PLP.part.buried>
-5.9895

> <Gold.PLP.part.nonpolar>
-31.2025

> <Gold.PLP.part.repulsive>
0.0877

> <Gold.PLP.ligand.clash>
0.0000

> <Gold.PLP.ligand.torsion>
0.2085

> <Gold.PLP.Chemscore.Hbond>
2.0000

> <Gold.PLP.Chemscore.CHOScore>
0.0000

> <Gold.PLP.Chemscore.Metal>
0.0000

> <Gold.Chemscore.Hbonds>
donor molecule, donor type, donor heavy atom, donor atom, acceptor molecule, acceptor atom, score
      P1  H  6896  6908       L1    16  1.00
      P1  H  6931  6943       L1    28  0.90

> <Gold.PLP.Chemscore.Internal.Correction>
0.2052

> <Gold.Rescore>
     Score         DG    S(hbond)    S(metal)    S(lipo)     H(rot)  DE(clash)    DE(int)     intcor
     17.82     -18.15       1.97        0.00     106.00       2.46       0.04       0.30       ----

> <Gold.Chemscore.Fitness>
17.8239

> <Gold.Chemscore.DG>
-18.1550

> <Gold.Chemscore.ZeroCoef>
-5.4800

> <Gold.Chemscore.Hbond>
1.9654

> <Gold.Chemscore.Metal>
0.0000

> <Gold.Chemscore.Lipo>
106.0002

> <Gold.Chemscore.Internal_Hbond>
0.0000

> <Gold.Chemscore.DEClash>
0.0360

> <Gold.Chemscore.DEInternal>
0.2950

> <Gold.Chemscore.Rot>
2.4576

> <Gold.Chemscore.Internal.Correction>
   9.000000E+99

> <Gold.Chemscore.Hbonds>
donor molecule, donor type, donor heavy atom, donor atom, acceptor molecule, acceptor atom, score
      P1  H  6896  6908       L1    16  0.94
      P1  H  6931  6943       L1    28  0.18

> <Gold.Chemscore.Hbond.Weighted>
-6.5645

> <Gold.Chemscore.Metal.Weighted>
-0.0000

> <Gold.Chemscore.Lipo.Weighted>
-12.4020

> <Gold.Chemscore.Internal_Hbond.Weighted>
0.0000

> <Gold.Chemscore.DEClash.Weighted>
0.0360

> <Gold.Chemscore.DEInternal.Weighted>
0.2950

> <Gold.Chemscore.Rot.Weighted>
6.2915

> <Gold.Chemscore.Internal.Correction.Weighted>
   9.000000E+99

> <Gold.Protein.RotatedTorsions>
[ 6907 6896 6895 6894 ] final   90.80 input  -60.11 | X-H torsion
[ 7974 7965 7964 7962 ] final -159.53 input  175.53 | X-H torsion
[ 8008 7997 7996 7995 ] final   19.18 input   59.86 | X-H torsion
[ 10167 10162 10161 10158 ] final  135.63 input  -65.29 | X-H torsion
[ 10718 10713 10712 10709 ] final   86.86 input   66.30 | X-H torsion
[ 10763 10752 10751 10750 ] final  145.95 input  -60.55 | X-H torsion
[ 11005 11000 10999 10996 ] final  -35.36 input  -57.11 | X-H torsion

> <Gold.Protein.ActiveResidues>
 VAL166  LYS551  ARG553  GLY616  TRP617  ASP618  TYR619  PRO620  LYS621  CYS622 
 ASP623  PHE694  ASN695  SER759  ASP760  ASP761  ALA762  ILE779  LEU786  VAL792 
 PHE793  MET794  SER795  GLU796  ALA797  LYS798  CYS799  TRP800  GLU811  SER814 

> <Gold.Protein.RotatedAtoms>
  152.5447  134.1756  159.8614 H   0  0  0  0  0  0  0  0  0  0  0  0  # atno 6907 bound_to 6896
  151.1762  133.4746  159.2601 H   0  0  0  0  0  0  0  0  0  0  0  0  # atno 6908 bound_to 6896
  151.1224  135.0098  159.8600 H   0  0  0  0  0  0  0  0  0  0  0  0  # atno 6909 bound_to 6896
  144.7462  140.3672  143.6084 H   0  0  0  0  0  0  0  0  0  0  0  0  # atno 7974 bound_to 7965
  154.9170  140.3022  155.5236 H   0  0  0  0  0  0  0  0  0  0  0  0  # atno 8008 bound_to 7997
  156.3012  140.2378  156.4151 H   0  0  0  0  0  0  0  0  0  0  0  0  # atno 8009 bound_to 7997
  154.8369  140.0415  157.1503 H   0  0  0  0  0  0  0  0  0  0  0  0  # atno 8010 bound_to 7997
  139.5210  144.6507  151.5311 H   0  0  0  0  0  0  0  0  0  0  0  0  # atno 10167 bound_to 10162
  157.6934  131.0232  150.3037 H   0  0  0  0  0  0  0  0  0  0  0  0  # atno 10718 bound_to 10713
  154.0139  135.2912  155.3389 H   0  0  0  0  0  0  0  0  0  0  0  0  # atno 10763 bound_to 10752
  154.7087  135.5158  153.8637 H   0  0  0  0  0  0  0  0  0  0  0  0  # atno 10764 bound_to 10752
  153.0711  135.6648  154.0367 H   0  0  0  0  0  0  0  0  0  0  0  0  # atno 10765 bound_to 10752
  140.9790  133.7067  156.1651 H   0  0  0  0  0  0  0  0  0  0  0  0  # atno 11005 bound_to 11000
  145.7116  139.1686  143.2535 LP  0  0  0  0  0  0  0  0  0  0  0  0  # atno 17320 bound_to 7965
  146.1343  140.7144  142.9397 LP  0  0  0  0  0  0  0  0  0  0  0  0  # atno 17321 bound_to 7965
  140.6310  143.9075  150.6606 LP  0  0  0  0  0  0  0  0  0  0  0  0  # atno 17342 bound_to 10162
  140.2380  143.3685  152.1511 LP  0  0  0  0  0  0  0  0  0  0  0  0  # atno 17343 bound_to 10162
  156.3549  130.3837  149.7299 LP  0  0  0  0  0  0  0  0  0  0  0  0  # atno 17370 bound_to 10713
  156.4764  130.8021  151.3037 LP  0  0  0  0  0  0  0  0  0  0  0  0  # atno 17371 bound_to 10713
  140.7215  134.4353  157.5574 LP  0  0  0  0  0  0  0  0  0  0  0  0  # atno 17394 bound_to 11000
  139.8942  134.8712  156.2187 LP  0  0  0  0  0  0  0  0  0  0  0  0  # atno 17395 bound_to 11000

$$$$
