AV-unprocessed.smi:2520|AV-procd|sdf|9911|dock5
  -GOLD-   2272013543D 1   1.00000     0.00000
 Structure written by MMmdl.
 41 44  0  0  0  0  0  0  0  0  1 V2000
  149.2058  136.4813  157.9918 O   0  0  0  0  0  0  0  0  0  0  0  0
  149.2985  137.3478  158.8594 C   0  0  0  0  0  0  0  0  0  0  0  0
  148.8835  137.1158  160.1226 N   0  0  0  0  0  0  0  0  0  0  0  0
  148.2988  135.9630  160.7232 C   0  0  0  0  0  0  0  0  0  0  0  0
  147.9385  136.1202  162.0787 C   0  0  0  0  0  0  0  0  0  0  0  0
  147.3642  135.0275  162.7502 C   0  0  0  0  0  0  0  0  0  0  0  0
  147.1902  133.8413  162.0175 C   0  0  0  0  0  0  0  0  0  0  0  0
  147.5535  133.7311  160.7215 N   0  0  0  0  0  0  0  0  0  0  0  0
  148.0999  134.7757  160.0907 N   0  0  0  0  0  0  0  0  0  0  0  0
  149.8132  138.5636  158.6175 N   0  0  0  0  0  0  0  0  0  0  0  0
  150.2869  139.0229  157.3179 C   0  0  2  0  0  0  0  0  0  0  0  0
  151.5972  138.3380  156.8966 C   0  0  1  0  0  0  0  0  0  0  0  0
  151.6112  137.4220  155.7037 C   0  0  0  0  0  0  0  0  0  0  0  0
  152.0603  138.3476  154.5692 C   0  0  0  0  0  0  0  0  0  0  0  0
  151.7525  139.6611  155.0320 O   0  0  0  0  0  0  0  0  0  0  0  0
  152.0609  139.7076  156.4233 C   0  0  1  0  0  0  0  0  0  0  0  0
  151.0249  140.3819  157.3483 C   0  0  0  0  0  0  0  0  0  0  0  0
  151.5811  140.9143  158.6722 C   0  0  0  0  0  0  0  0  0  0  0  0
  151.9947  142.3641  158.4166 C   0  0  0  0  0  0  0  0  0  0  0  0
  151.1004  142.8449  157.2694 C   0  0  0  0  0  0  0  0  0  0  0  0
  150.3038  141.6167  156.8149 C   0  0  0  0  0  0  0  0  0  0  0  0
  149.0535  137.8773  160.7632 H   0  0  0  0  0  0  0  0  0  0  0  0
  148.0963  137.0561  162.5949 H   0  0  0  0  0  0  0  0  0  0  0  0
  147.0684  135.0961  163.7866 H   0  0  0  0  0  0  0  0  0  0  0  0
  146.7541  132.9665  162.4767 H   0  0  0  0  0  0  0  0  0  0  0  0
  149.8587  139.2219  159.3825 H   0  0  0  0  0  0  0  0  0  0  0  0
  149.5337  138.9820  156.5277 H   0  0  0  0  0  0  0  0  0  0  0  0
  152.1839  137.9893  157.7487 H   0  0  0  0  0  0  0  0  0  0  0  0
  152.2927  136.5801  155.8284 H   0  0  0  0  0  0  0  0  0  0  0  0
  150.6159  137.0220  155.5088 H   0  0  0  0  0  0  0  0  0  0  0  0
  153.1375  138.2694  154.4151 H   0  0  0  0  0  0  0  0  0  0  0  0
  151.5634  138.1273  153.6243 H   0  0  0  0  0  0  0  0  0  0  0  0
  153.1098  139.9223  156.6329 H   0  0  0  0  0  0  0  0  0  0  0  0
  150.8116  140.9037  159.4450 H   0  0  0  0  0  0  0  0  0  0  0  0
  152.4150  140.3205  159.0477 H   0  0  0  0  0  0  0  0  0  0  0  0
  151.8918  142.9804  159.3102 H   0  0  0  0  0  0  0  0  0  0  0  0
  153.0401  142.4027  158.1077 H   0  0  0  0  0  0  0  0  0  0  0  0
  150.4339  143.6482  157.5853 H   0  0  0  0  0  0  0  0  0  0  0  0
  151.7131  143.2289  156.4530 H   0  0  0  0  0  0  0  0  0  0  0  0
  150.1848  141.5998  155.7315 H   0  0  0  0  0  0  0  0  0  0  0  0
  149.2984  141.6642  157.2354 H   0  0  0  0  0  0  0  0  0  0  0  0
  1  2  2  0  0  0  0
  2  3  1  0  0  0  0
  2 10  1  0  0  0  0
  3  4  1  0  0  0  0
  3 22  1  0  0  0  0
  4  9  1  0  0  0  0
  4  5  2  0  0  0  0
  5  6  1  0  0  0  0
  5 23  1  0  0  0  0
  6  7  2  0  0  0  0
  6 24  1  0  0  0  0
  7  8  1  0  0  0  0
  7 25  1  0  0  0  0
  8  9  2  0  0  0  0
 10 11  1  0  0  0  0
 10 26  1  0  0  0  0
 11 17  1  0  0  0  0
 11 12  1  0  0  0  0
 11 27  1  0  0  0  0
 12 16  1  0  0  0  0
 12 13  1  0  0  0  0
 12 28  1  0  0  0  0
 13 14  1  0  0  0  0
 13 29  1  0  0  0  0
 13 30  1  0  0  0  0
 14 15  1  0  0  0  0
 14 31  1  0  0  0  0
 14 32  1  0  0  0  0
 15 16  1  0  0  0  0
 16 17  1  0  0  0  0
 16 33  1  0  0  0  0
 17 21  1  0  0  0  0
 17 18  1  0  0  0  0
 18 19  1  0  0  0  0
 18 34  1  0  0  0  0
 18 35  1  0  0  0  0
 19 20  1  0  0  0  0
 19 36  1  0  0  0  0
 19 37  1  0  0  0  0
 20 21  1  0  0  0  0
 20 38  1  0  0  0  0
 20 39  1  0  0  0  0
 21 40  1  0  0  0  0
 21 41  1  0  0  0  0
M  END
> <s_m_source_file>
AV-unprocessed.smi

> <i_m_source_file_index>
2520

> <i_lp_mmshare_version>
43012

> <i_f3d_flags>
0

> <s_epik_input>
bjFuW2NIXVtjSF1bY0hdYzFbTkhdQyg9TylbTkhdW0NAQEhdMltDQEBIXShbQ0gyXVtDSDJdTzMpW0NASF0zQzI0W0NIMl1bQ0gyXVtDSDJdW0NIMl00

> <s_epik_cmdline>
J2VwaWtfcHl0aG9uJywgJy1waCcsICc3LjAnLCAnLXRuJywgJzgnLCAnLW1hJywgJzIwMCcsICctbWV0YWxfYmluZGluZycsICctaW1hZScsICc8aW5maWxlLm1hZT4nLCAnLW9tYWUnLCAnPG91dGZpbGUubWFlPic=

> <r_lp_tautomer_probability>
1

> <r_epik_Ionization_Penalty>
0.00552561

> <r_epik_Ionization_Penalty_Charging>
0

> <r_epik_Ionization_Penalty_Neutral>
0.00552561

> <r_epik_State_Penalty>
-0

> <r_epik_Charging_Adjusted_Penalty>
0

> <i_epik_Tot_Q>
0

> <i_epik_Tot_abs_Q>
0

> <r_epik_Metal_State_Penalty>
-0

> <b_epik_Metal_Only>
0

> <s_lp_Force_Field>
OPLS_2005

> <r_lp_Energy>
61.2745

> <b_lp_Chiralities_Consistent>
1

> <s_lp_Variant>
AV-unprocessed.smi:2520-5

> <Gold.Version>
5.8.1

> <Gold.Id.Protein>
6NUR|6NUR_protein|mol2

> <Gold.PLP.Fitness>
38.0917

> <Gold.PLP.PLP>
-35.0976

> <Gold.PLP.part.hbond>
-1.0000

> <Gold.PLP.part.metal>
0.0000

> <Gold.PLP.part.buried>
-7.2848

> <Gold.PLP.part.nonpolar>
-29.4445

> <Gold.PLP.part.repulsive>
2.2039

> <Gold.PLP.ligand.clash>
0.0000

> <Gold.PLP.ligand.torsion>
0.0957

> <Gold.PLP.Chemscore.Hbond>
1.0000

> <Gold.PLP.Chemscore.CHOScore>
0.0000

> <Gold.PLP.Chemscore.Metal>
0.0000

> <Gold.Chemscore.Hbonds>
donor molecule, donor type, donor heavy atom, donor atom, acceptor molecule, acceptor atom, score
      P1  H  7989  7998       L1    15  1.00

> <Gold.PLP.Chemscore.Internal.Correction>
0.1855

> <Gold.Rescore>
     Score         DG    S(hbond)    S(metal)    S(lipo)     H(rot)  DE(clash)    DE(int)     intcor
     15.42     -16.82       0.94        0.00      91.80       1.00       0.08       1.32       ----

> <Gold.Chemscore.Fitness>
15.4175

> <Gold.Chemscore.DG>
-16.8162

> <Gold.Chemscore.ZeroCoef>
-5.4800

> <Gold.Chemscore.Hbond>
0.9448

> <Gold.Chemscore.Metal>
0.0000

> <Gold.Chemscore.Lipo>
91.8003

> <Gold.Chemscore.Internal_Hbond>
0.0000

> <Gold.Chemscore.DEClash>
0.0779

> <Gold.Chemscore.DEInternal>
1.3208

> <Gold.Chemscore.Rot>
1.0000

> <Gold.Chemscore.Internal.Correction>
   9.000000E+99

> <Gold.Chemscore.Hbonds>
donor molecule, donor type, donor heavy atom, donor atom, acceptor molecule, acceptor atom, score
      P1  H  7989  7998       L1    15  0.67

> <Gold.Chemscore.Hbond.Weighted>
-3.1556

> <Gold.Chemscore.Metal.Weighted>
-0.0000

> <Gold.Chemscore.Lipo.Weighted>
-10.7406

> <Gold.Chemscore.Internal_Hbond.Weighted>
0.0000

> <Gold.Chemscore.DEClash.Weighted>
0.0779

> <Gold.Chemscore.DEInternal.Weighted>
1.3208

> <Gold.Chemscore.Rot.Weighted>
2.5600

> <Gold.Chemscore.Internal.Correction.Weighted>
   9.000000E+99

> <Gold.Protein.RotatedTorsions>
[ 6907 6896 6895 6894 ] final  -44.84 input  -60.11 | X-H torsion
[ 7974 7965 7964 7962 ] final  -54.11 input  175.53 | X-H torsion
[ 8008 7997 7996 7995 ] final   31.87 input   59.86 | X-H torsion
[ 10167 10162 10161 10158 ] final  -20.00 input  -65.29 | X-H torsion
[ 10718 10713 10712 10709 ] final   39.87 input   66.30 | X-H torsion
[ 10763 10752 10751 10750 ] final   97.31 input  -60.55 | X-H torsion
[ 11005 11000 10999 10996 ] final  -54.48 input  -57.11 | X-H torsion

> <Gold.Protein.ActiveResidues>
 VAL166  LYS551  ARG553  GLY616  TRP617  ASP618  TYR619  PRO620  LYS621  CYS622 
 ASP623  PHE694  ASN695  SER759  ASP760  ASP761  ALA762  ILE779  LEU786  VAL792 
 PHE793  MET794  SER795  GLU796  ALA797  LYS798  CYS799  TRP800  GLU811  SER814 

> <Gold.Protein.RotatedAtoms>
  150.9284  134.8700  159.7534 H   0  0  0  0  0  0  0  0  0  0  0  0  # atno 6907 bound_to 6896
  152.5026  134.4115  159.9460 H   0  0  0  0  0  0  0  0  0  0  0  0  # atno 6908 bound_to 6896
  151.4144  133.3677  159.2783 H   0  0  0  0  0  0  0  0  0  0  0  0  # atno 6909 bound_to 6896
  145.8892  140.8084  142.9800 H   0  0  0  0  0  0  0  0  0  0  0  0  # atno 7974 bound_to 7965
  155.1134  140.3241  155.4516 H   0  0  0  0  0  0  0  0  0  0  0  0  # atno 8008 bound_to 7997
  156.2684  140.2040  156.6206 H   0  0  0  0  0  0  0  0  0  0  0  0  # atno 8009 bound_to 7997
  154.6738  140.0533  157.0181 H   0  0  0  0  0  0  0  0  0  0  0  0  # atno 8010 bound_to 7997
  140.7273  143.4764  151.0177 H   0  0  0  0  0  0  0  0  0  0  0  0  # atno 10167 bound_to 10162
  157.3755  130.7725  149.7152 H   0  0  0  0  0  0  0  0  0  0  0  0  # atno 10718 bound_to 10713
  153.2754  135.4187  155.1028 H   0  0  0  0  0  0  0  0  0  0  0  0  # atno 10763 bound_to 10752
  154.8471  135.3482  154.6186 H   0  0  0  0  0  0  0  0  0  0  0  0  # atno 10764 bound_to 10752
  153.6606  135.7048  153.5236 H   0  0  0  0  0  0  0  0  0  0  0  0  # atno 10765 bound_to 10752
  141.1027  133.6616  156.4326 H   0  0  0  0  0  0  0  0  0  0  0  0  # atno 11005 bound_to 11000
  144.6730  140.1503  143.7430 LP  0  0  0  0  0  0  0  0  0  0  0  0  # atno 17320 bound_to 7965
  145.8929  139.2386  143.1539 LP  0  0  0  0  0  0  0  0  0  0  0  0  # atno 17321 bound_to 7965
  139.8460  143.7501  152.3179 LP  0  0  0  0  0  0  0  0  0  0  0  0  # atno 17342 bound_to 10162
  139.7667  144.7490  151.0285 LP  0  0  0  0  0  0  0  0  0  0  0  0  # atno 17343 bound_to 10162
  155.9764  130.4075  150.3779 LP  0  0  0  0  0  0  0  0  0  0  0  0  # atno 17370 bound_to 10713
  157.1876  131.0407  151.2717 LP  0  0  0  0  0  0  0  0  0  0  0  0  # atno 17371 bound_to 10713
  140.4980  134.6512  157.5237 LP  0  0  0  0  0  0  0  0  0  0  0  0  # atno 17394 bound_to 11000
  139.9885  134.7023  155.9731 LP  0  0  0  0  0  0  0  0  0  0  0  0  # atno 17395 bound_to 11000

$$$$
