AV-unprocessed.smi:2380|AV-procd|sdf|9456|dock3
  -GOLD-   2272013 83D 1   1.00000     0.00000
 Structure written by MMmdl.
 42 43  0  0  0  0  0  0  0  0  2 V2000
  150.3480  130.5715  154.8596 C   0  0  0  0  0  0  0  0  0  0  0  0
  149.0985  130.8736  154.0594 C   0  0  0  0  0  0  0  0  0  0  0  0
  148.2248  129.8402  153.6713 C   0  0  0  0  0  0  0  0  0  0  0  0
  147.0797  130.1826  152.9258 C   0  0  0  0  0  0  0  0  0  0  0  0
  146.0974  129.1222  152.4751 C   0  0  0  0  0  0  0  0  0  0  0  0
  146.7863  131.4507  152.5667 N   0  0  0  0  0  0  0  0  0  0  0  0
  147.6212  132.4539  152.9340 C   0  0  0  0  0  0  0  0  0  0  0  0
  147.4049  133.8183  152.6046 N   0  0  0  0  0  0  0  0  0  0  0  0
  146.2354  134.4420  152.3775 C   0  0  0  0  0  0  0  0  0  0  0  0
  145.1230  133.9182  152.4407 O   0  0  0  0  0  0  0  0  0  0  0  0
  146.4257  135.7327  152.0660 N   0  0  0  0  0  0  0  0  0  0  0  0
  145.3650  136.6974  151.7760 C   0  0  2  0  0  0  0  0  0  0  0  0
  145.8726  137.8729  150.9155 C   0  0  0  0  0  0  0  0  0  0  0  0
  146.8131  138.8005  151.7044 C   0  0  0  0  0  0  0  0  0  0  0  0
  146.1584  139.2956  152.9407 N   0  3  2  0  0  0  0  0  0  0  0  0
  146.9877  140.2875  153.6581 C   0  0  0  0  0  0  0  0  0  0  0  0
  145.7184  138.1851  153.8214 C   0  0  0  0  0  0  0  0  0  0  0  0
  144.7562  137.2363  153.0830 C   0  0  0  0  0  0  0  0  0  0  0  0
  148.7912  132.1968  153.6833 C   0  0  0  0  0  0  0  0  0  0  0  0
  150.2524  129.6252  155.3926 H   0  0  0  0  0  0  0  0  0  0  0  0
  150.5338  131.3558  155.5937 H   0  0  0  0  0  0  0  0  0  0  0  0
  151.2115  130.5076  154.1976 H   0  0  0  0  0  0  0  0  0  0  0  0
  148.4275  128.8130  153.9374 H   0  0  0  0  0  0  0  0  0  0  0  0
  146.3315  128.1532  152.9168 H   0  0  0  0  0  0  0  0  0  0  0  0
  146.1257  129.0188  151.3902 H   0  0  0  0  0  0  0  0  0  0  0  0
  145.0827  129.3924  152.7689 H   0  0  0  0  0  0  0  0  0  0  0  0
  148.2383  134.3821  152.5294 H   0  0  0  0  0  0  0  0  0  0  0  0
  147.3742  136.0776  152.0443 H   0  0  0  0  0  0  0  0  0  0  0  0
  144.5794  136.1735  151.2282 H   0  0  0  0  0  0  0  0  0  0  0  0
  146.3733  137.5081  150.0180 H   0  0  0  0  0  0  0  0  0  0  0  0
  145.0170  138.4517  150.5650 H   0  0  0  0  0  0  0  0  0  0  0  0
  147.7355  138.2765  151.9606 H   0  0  0  0  0  0  0  0  0  0  0  0
  147.0953  139.6471  151.0773 H   0  0  0  0  0  0  0  0  0  0  0  0
  147.9187  139.8396  154.0077 H   0  0  0  0  0  0  0  0  0  0  0  0
  146.4529  140.6844  154.5215 H   0  0  0  0  0  0  0  0  0  0  0  0
  147.2348  141.1267  153.0071 H   0  0  0  0  0  0  0  0  0  0  0  0
  146.5903  137.6365  154.1814 H   0  0  0  0  0  0  0  0  0  0  0  0
  145.2189  138.5944  154.7002 H   0  0  0  0  0  0  0  0  0  0  0  0
  143.8354  137.7739  152.8524 H   0  0  0  0  0  0  0  0  0  0  0  0
  144.4681  136.4110  153.7355 H   0  0  0  0  0  0  0  0  0  0  0  0
  149.4490  133.0052  153.9687 H   0  0  0  0  0  0  0  0  0  0  0  0
  145.3215  139.7801  152.6487 H   0  0  0  0  0  0  0  0  0  0  0  0
  1  2  1  0  0  0  0
  1 20  1  0  0  0  0
  1 21  1  0  0  0  0
  1 22  1  0  0  0  0
  2 19  1  0  0  0  0
  2  3  2  0  0  0  0
  3  4  1  0  0  0  0
  3 23  1  0  0  0  0
  4  5  1  0  0  0  0
  4  6  2  0  0  0  0
  5 24  1  0  0  0  0
  5 25  1  0  0  0  0
  5 26  1  0  0  0  0
  6  7  1  0  0  0  0
  7  8  1  0  0  0  0
  7 19  2  0  0  0  0
  8  9  1  0  0  0  0
  8 27  1  0  0  0  0
  9 10  2  0  0  0  0
  9 11  1  0  0  0  0
 11 12  1  0  0  0  0
 11 28  1  0  0  0  0
 12 18  1  0  0  0  0
 12 13  1  0  0  0  0
 12 29  1  0  0  0  0
 13 14  1  0  0  0  0
 13 30  1  0  0  0  0
 13 31  1  0  0  0  0
 14 15  1  0  0  0  0
 14 32  1  0  0  0  0
 14 33  1  0  0  0  0
 15 16  1  0  0  0  0
 15 17  1  0  0  0  0
 15 42  1  0  0  0  0
 16 34  1  0  0  0  0
 16 35  1  0  0  0  0
 16 36  1  0  0  0  0
 17 18  1  0  0  0  0
 17 37  1  0  0  0  0
 17 38  1  0  0  0  0
 18 39  1  0  0  0  0
 18 40  1  0  0  0  0
 19 41  1  0  0  0  0
M  CHG  1  15   1
M  END
> <s_m_source_file>
AV-unprocessed.smi

> <i_m_source_file_index>
2380

> <i_lp_mmshare_version>
43012

> <i_f3d_flags>
0

> <s_epik_input>
W0NIM11jMVtjSF1jKFtDSDNdKW5jKFtjSF0xKVtOSF1DKD1PKVtOSF1bQ0hdMltDSDJdW0NIMl1OKFtDSDNdKVtDSDJdW0NIMl0y

> <s_epik_cmdline>
J2VwaWtfcHl0aG9uJywgJy1waCcsICc3LjAnLCAnLXRuJywgJzgnLCAnLW1hJywgJzIwMCcsICctbWV0YWxfYmluZGluZycsICctaW1hZScsICc8aW5maWxlLm1hZT4nLCAnLW9tYWUnLCAnPG91dGZpbGUubWFlPic=

> <r_epik_Ionization_Penalty>
0.00385557

> <r_epik_Ionization_Penalty_Charging>
0.00366825

> <r_epik_Ionization_Penalty_Neutral>
0.000187322

> <r_epik_State_Penalty>
0.00261101

> <r_epik_Charging_Adjusted_Penalty>
0.00627926

> <i_epik_Tot_Q>
1

> <i_epik_Tot_abs_Q>
1

> <r_epik_Metal_State_Penalty>
-0

> <b_epik_Metal_Only>
0

> <s_lp_Force_Field>
OPLS_2005

> <r_lp_Energy>
16.4741

> <b_lp_Chiralities_Consistent>
1

> <s_lp_Variant>
AV-unprocessed.smi:2380-2

> <Gold.Version>
5.8.1

> <Gold.Id.Protein>
6NUR|6NUR_protein|mol2

> <Gold.PLP.Fitness>
41.0785

> <Gold.PLP.PLP>
-30.6757

> <Gold.PLP.part.hbond>
-3.0000

> <Gold.PLP.part.metal>
0.0000

> <Gold.PLP.part.buried>
3.2700

> <Gold.PLP.part.nonpolar>
-31.9870

> <Gold.PLP.part.repulsive>
0.2613

> <Gold.PLP.ligand.clash>
0.0000

> <Gold.PLP.ligand.torsion>
0.4780

> <Gold.PLP.Chemscore.Hbond>
3.7851

> <Gold.PLP.Chemscore.CHOScore>
0.0000

> <Gold.PLP.Chemscore.Metal>
0.0000

> <Gold.Chemscore.Hbonds>
donor molecule, donor type, donor heavy atom, donor atom, acceptor molecule, acceptor atom, score
      L1  H     8    27       P1  7948  0.77
      L1  H    11    28       P1  7948  1.00
      L1  H    15    42       P1 10175  2.00

> <Gold.PLP.Chemscore.Internal.Correction>
0.0036

> <Gold.Rescore>
     Score         DG    S(hbond)    S(metal)    S(lipo)     H(rot)  DE(clash)    DE(int)     intcor
     15.53     -19.19       2.06        0.00      80.37       1.00       2.06       1.60       ----

> <Gold.Chemscore.Fitness>
15.5286

> <Gold.Chemscore.DG>
-19.1929

> <Gold.Chemscore.ZeroCoef>
-5.4800

> <Gold.Chemscore.Hbond>
2.0568

> <Gold.Chemscore.Metal>
0.0000

> <Gold.Chemscore.Lipo>
80.3679

> <Gold.Chemscore.Internal_Hbond>
0.0000

> <Gold.Chemscore.DEClash>
2.0594

> <Gold.Chemscore.DEInternal>
1.6048

> <Gold.Chemscore.Rot>
1.0000

> <Gold.Chemscore.Internal.Correction>
   9.000000E+99

> <Gold.Chemscore.Hbonds>
donor molecule, donor type, donor heavy atom, donor atom, acceptor molecule, acceptor atom, score
      L1  H     8    27       P1  7948  0.14
      L1  H    11    28       P1  7948  0.97
      L1  H    15    42       P1 10175  1.00

> <Gold.Chemscore.Hbond.Weighted>
-6.8698

> <Gold.Chemscore.Metal.Weighted>
-0.0000

> <Gold.Chemscore.Lipo.Weighted>
-9.4030

> <Gold.Chemscore.Internal_Hbond.Weighted>
0.0000

> <Gold.Chemscore.DEClash.Weighted>
2.0594

> <Gold.Chemscore.DEInternal.Weighted>
1.6048

> <Gold.Chemscore.Rot.Weighted>
2.5600

> <Gold.Chemscore.Internal.Correction.Weighted>
   9.000000E+99

> <Gold.Protein.RotatedTorsions>
[ 6907 6896 6895 6894 ] final -163.49 input  -60.11 | X-H torsion
[ 7974 7965 7964 7962 ] final -142.38 input  175.53 | X-H torsion
[ 8008 7997 7996 7995 ] final  -28.70 input   59.86 | X-H torsion
[ 10167 10162 10161 10158 ] final -121.25 input  -65.29 | X-H torsion
[ 10718 10713 10712 10709 ] final -166.30 input   66.30 | X-H torsion
[ 10763 10752 10751 10750 ] final  -25.99 input  -60.55 | X-H torsion
[ 11005 11000 10999 10996 ] final -154.70 input  -57.11 | X-H torsion

> <Gold.Protein.ActiveResidues>
 VAL166  LYS551  ARG553  GLY616  TRP617  ASP618  TYR619  PRO620  LYS621  CYS622 
 ASP623  PHE694  ASN695  SER759  ASP760  ASP761  ALA762  ILE779  LEU786  VAL792 
 PHE793  MET794  SER795  GLU796  ALA797  LYS798  CYS799  TRP800  GLU811  SER814 

> <Gold.Protein.RotatedAtoms>
  151.3969  133.3770  159.2727 H   0  0  0  0  0  0  0  0  0  0  0  0  # atno 6907 bound_to 6896
  150.9463  134.8868  159.7654 H   0  0  0  0  0  0  0  0  0  0  0  0  # atno 6908 bound_to 6896
  152.5093  134.3922  159.9440 H   0  0  0  0  0  0  0  0  0  0  0  0  # atno 6909 bound_to 6896
  144.8448  140.5965  143.5429 H   0  0  0  0  0  0  0  0  0  0  0  0  # atno 7974 bound_to 7965
  154.4321  140.1838  156.1131 H   0  0  0  0  0  0  0  0  0  0  0  0  # atno 8008 bound_to 7997
  156.0202  140.3341  155.7005 H   0  0  0  0  0  0  0  0  0  0  0  0  # atno 8009 bound_to 7997
  155.5987  140.0638  157.2729 H   0  0  0  0  0  0  0  0  0  0  0  0  # atno 8010 bound_to 7997
  140.0271  143.5286  152.2194 H   0  0  0  0  0  0  0  0  0  0  0  0  # atno 10167 bound_to 10162
  156.6658  130.9064  151.3036 H   0  0  0  0  0  0  0  0  0  0  0  0  # atno 10718 bound_to 10713
  153.7087  135.6952  153.5043 H   0  0  0  0  0  0  0  0  0  0  0  0  # atno 10763 bound_to 10752
  153.2288  135.4344  155.0571 H   0  0  0  0  0  0  0  0  0  0  0  0  # atno 10764 bound_to 10752
  154.8321  135.3479  154.6625 H   0  0  0  0  0  0  0  0  0  0  0  0  # atno 10765 bound_to 10752
  140.6945  134.4005  157.5216 H   0  0  0  0  0  0  0  0  0  0  0  0  # atno 11005 bound_to 11000
  145.4620  139.1512  143.3861 LP  0  0  0  0  0  0  0  0  0  0  0  0  # atno 17320 bound_to 7965
  146.2734  140.4751  142.8805 LP  0  0  0  0  0  0  0  0  0  0  0  0  # atno 17321 bound_to 7965
  139.6101  144.7606  151.2972 LP  0  0  0  0  0  0  0  0  0  0  0  0  # atno 17342 bound_to 10162
  140.7318  143.6841  150.7976 LP  0  0  0  0  0  0  0  0  0  0  0  0  # atno 17343 bound_to 10162
  157.7094  130.9422  150.1038 LP  0  0  0  0  0  0  0  0  0  0  0  0  # atno 17370 bound_to 10713
  156.1976  130.3658  149.8829 LP  0  0  0  0  0  0  0  0  0  0  0  0  # atno 17371 bound_to 10713
  139.8914  134.8780  156.2321 LP  0  0  0  0  0  0  0  0  0  0  0  0  # atno 17394 bound_to 11000
  141.0215  133.7039  156.1275 LP  0  0  0  0  0  0  0  0  0  0  0  0  # atno 17395 bound_to 11000

$$$$
