AV-unprocessed.smi:1626|AV-procd|sdf|6507|dock6
  -GOLD-   22720 7173D 1   1.00000     0.00000
 Structure written by MMmdl.
 48 50  0  0  0  0  0  0  0  0  2 V2000
  152.8259  142.8278  160.5628 C   0  0  0  0  0  0  0  0  0  0  0  0
  152.1792  142.4222  159.2499 C   0  0  0  0  0  0  0  0  0  0  0  0
  152.7141  141.3306  158.5295 C   0  0  0  0  0  0  0  0  0  0  0  0
  152.1413  140.9201  157.3062 C   0  0  0  0  0  0  0  0  0  0  0  0
  152.4960  139.8946  156.4466 N   0  0  0  0  0  0  0  0  0  0  0  0
  151.5833  140.0200  155.4878 C   0  0  0  0  0  0  0  0  0  0  0  0
  150.6817  141.0121  155.6209 N   0  0  0  0  0  0  0  0  0  0  0  0
  149.5994  141.3417  154.7110 C   0  0  0  0  0  0  0  0  0  0  0  0
  148.5474  140.2202  154.6123 C   0  0  1  0  0  0  0  0  0  0  0  0
  148.3599  139.6402  155.8891 O   0  0  0  0  0  0  0  0  0  0  0  0
  147.1922  140.7559  154.1102 C   0  0  0  0  0  0  0  0  0  0  0  0
  146.4220  139.7396  153.3479 N   0  3  2  0  0  0  0  0  0  0  0  0
  146.1281  138.5120  154.1359 C   0  0  0  0  0  0  0  0  0  0  0  0
  145.2250  137.5475  153.3487 C   0  0  0  0  0  0  0  0  0  0  0  0
  145.8582  137.1866  151.9973 C   0  0  1  0  0  0  0  0  0  0  0  0
  144.9708  136.3810  151.2518 O   0  0  0  0  0  0  0  0  0  0  0  0
  146.1737  138.4684  151.2135 C   0  0  0  0  0  0  0  0  0  0  0  0
  147.0568  139.4146  152.0438 C   0  0  0  0  0  0  0  0  0  0  0  0
  151.0095  141.6373  156.8189 C   0  0  0  0  0  0  0  0  0  0  0  0
  150.4676  142.7245  157.5268 C   0  0  0  0  0  0  0  0  0  0  0  0
  151.0524  143.1217  158.7475 C   0  0  0  0  0  0  0  0  0  0  0  0
  150.4609  144.2971  159.5052 C   0  0  0  0  0  0  0  0  0  0  0  0
  153.7022  142.2165  160.7805 H   0  0  0  0  0  0  0  0  0  0  0  0
  152.1218  142.7098  161.3867 H   0  0  0  0  0  0  0  0  0  0  0  0
  153.1468  143.8691  160.5272 H   0  0  0  0  0  0  0  0  0  0  0  0
  153.5713  140.7967  158.9126 H   0  0  0  0  0  0  0  0  0  0  0  0
  151.5719  139.3543  154.6368 H   0  0  0  0  0  0  0  0  0  0  0  0
  149.1366  142.2730  155.0410 H   0  0  0  0  0  0  0  0  0  0  0  0
  150.0323  141.5394  153.7295 H   0  0  0  0  0  0  0  0  0  0  0  0
  148.9249  139.4485  153.9422 H   0  0  0  0  0  0  0  0  0  0  0  0
  148.6629  140.2514  156.5442 H   0  0  0  0  0  0  0  0  0  0  0  0
  146.6141  141.0881  154.9741 H   0  0  0  0  0  0  0  0  0  0  0  0
  147.3355  141.6395  153.4862 H   0  0  0  0  0  0  0  0  0  0  0  0
  147.0636  138.0153  154.3989 H   0  0  0  0  0  0  0  0  0  0  0  0
  145.6360  138.7688  155.0730 H   0  0  0  0  0  0  0  0  0  0  0  0
  145.0481  136.6445  153.9342 H   0  0  0  0  0  0  0  0  0  0  0  0
  144.2500  138.0116  153.1918 H   0  0  0  0  0  0  0  0  0  0  0  0
  146.7770  136.6218  152.1604 H   0  0  0  0  0  0  0  0  0  0  0  0
  144.4653  136.9359  150.6772 H   0  0  0  0  0  0  0  0  0  0  0  0
  146.6736  138.2222  150.2760 H   0  0  0  0  0  0  0  0  0  0  0  0
  145.2474  138.9791  150.9461 H   0  0  0  0  0  0  0  0  0  0  0  0
  147.2246  140.3311  151.4770 H   0  0  0  0  0  0  0  0  0  0  0  0
  148.0353  138.9635  152.2163 H   0  0  0  0  0  0  0  0  0  0  0  0
  149.6084  143.2478  157.1340 H   0  0  0  0  0  0  0  0  0  0  0  0
  149.5879  144.7028  158.9933 H   0  0  0  0  0  0  0  0  0  0  0  0
  151.1948  145.0977  159.6004 H   0  0  0  0  0  0  0  0  0  0  0  0
  150.1503  143.9907  160.5042 H   0  0  0  0  0  0  0  0  0  0  0  0
  145.5350  140.1706  153.1267 H   0  0  0  0  0  0  0  0  0  0  0  0
  1  2  1  0  0  0  0
  1 23  1  0  0  0  0
  1 24  1  0  0  0  0
  1 25  1  0  0  0  0
  2 21  1  0  0  0  0
  2  3  2  0  0  0  0
  3  4  1  0  0  0  0
  3 26  1  0  0  0  0
  4 19  2  0  0  0  0
  4  5  1  0  0  0  0
  5  6  2  0  0  0  0
  6  7  1  0  0  0  0
  6 27  1  0  0  0  0
  7  8  1  0  0  0  0
  7 19  1  0  0  0  0
  8  9  1  0  0  0  0
  8 28  1  0  0  0  0
  8 29  1  0  0  0  0
  9 10  1  0  0  0  0
  9 11  1  0  0  0  0
  9 30  1  0  0  0  0
 10 31  1  0  0  0  0
 11 12  1  0  0  0  0
 11 32  1  0  0  0  0
 11 33  1  0  0  0  0
 12 18  1  0  0  0  0
 12 13  1  0  0  0  0
 12 48  1  0  0  0  0
 13 14  1  0  0  0  0
 13 34  1  0  0  0  0
 13 35  1  0  0  0  0
 14 15  1  0  0  0  0
 14 36  1  0  0  0  0
 14 37  1  0  0  0  0
 15 16  1  0  0  0  0
 15 17  1  0  0  0  0
 15 38  1  0  0  0  0
 16 39  1  0  0  0  0
 17 18  1  0  0  0  0
 17 40  1  0  0  0  0
 17 41  1  0  0  0  0
 18 42  1  0  0  0  0
 18 43  1  0  0  0  0
 19 20  1  0  0  0  0
 20 21  2  0  0  0  0
 20 44  1  0  0  0  0
 21 22  1  0  0  0  0
 22 45  1  0  0  0  0
 22 46  1  0  0  0  0
 22 47  1  0  0  0  0
M  CHG  1  12   1
M  END
> <s_m_source_file>
AV-unprocessed.smi

> <i_m_source_file_index>
1626

> <i_lp_mmshare_version>
43012

> <i_f3d_flags>
0

> <s_epik_input>
W0NIM11jKFtjSF0xKWMoW0NIM10pW2NIXWMoYzEyKW4oW2NIXW4yKVtDSDJdW0NASF0oW09IXSlbQ0gyXU4zW0NIMl1bQ0gyXVtDSF0oW09IXSlbQ0gyXVtDSDJdMw==

> <s_epik_cmdline>
J2VwaWtfcHl0aG9uJywgJy1waCcsICc3LjAnLCAnLXRuJywgJzgnLCAnLW1hJywgJzIwMCcsICctbWV0YWxfYmluZGluZycsICctaW1hZScsICc8aW5maWxlLm1hZT4nLCAnLW9tYWUnLCAnPG91dGZpbGUubWFlPic=

> <r_epik_Ionization_Penalty>
0.106584

> <r_epik_Ionization_Penalty_Charging>
0.0185694

> <r_epik_Ionization_Penalty_Neutral>
0.0880147

> <r_epik_State_Penalty>
0.0908428

> <r_epik_Charging_Adjusted_Penalty>
0.109412

> <i_epik_Tot_Q>
1

> <i_epik_Tot_abs_Q>
1

> <r_epik_Metal_State_Penalty>
0.0153739

> <b_epik_Metal_Only>
0

> <s_lp_Force_Field>
OPLS_2005

> <r_lp_Energy>
20.8081

> <b_lp_Chiralities_Consistent>
1

> <s_lp_Variant>
AV-unprocessed.smi:1626-2

> <Gold.Version>
5.8.1

> <Gold.Id.Protein>
6NUR|6NUR_protein|mol2

> <Gold.PLP.Fitness>
50.7839

> <Gold.PLP.PLP>
-40.0091

> <Gold.PLP.part.hbond>
-3.0000

> <Gold.PLP.part.metal>
0.0000

> <Gold.PLP.part.buried>
4.1945

> <Gold.PLP.part.nonpolar>
-40.0406

> <Gold.PLP.part.repulsive>
0.0000

> <Gold.PLP.ligand.clash>
0.0000

> <Gold.PLP.ligand.torsion>
0.6331

> <Gold.PLP.Chemscore.Hbond>
4.0000

> <Gold.PLP.Chemscore.CHOScore>
0.0000

> <Gold.PLP.Chemscore.Metal>
0.0000

> <Gold.Chemscore.Hbonds>
donor molecule, donor type, donor heavy atom, donor atom, acceptor molecule, acceptor atom, score
      L1  H    12    48       P1 10175  2.00
      L1  H    16    39       P1 10171  1.00
      P1  H  7997  8010       L1     5  1.00

> <Gold.PLP.Chemscore.Internal.Correction>
0.0409

> <Gold.Rescore>
     Score         DG    S(hbond)    S(metal)    S(lipo)     H(rot)  DE(clash)    DE(int)     intcor
     16.68     -19.84       2.04        0.00     123.03       2.67       2.38       0.78       ----

> <Gold.Chemscore.Fitness>
16.6795

> <Gold.Chemscore.DG>
-19.8365

> <Gold.Chemscore.ZeroCoef>
-5.4800

> <Gold.Chemscore.Hbond>
2.0359

> <Gold.Chemscore.Metal>
0.0000

> <Gold.Chemscore.Lipo>
123.0345

> <Gold.Chemscore.Internal_Hbond>
0.0000

> <Gold.Chemscore.DEClash>
2.3765

> <Gold.Chemscore.DEInternal>
0.7805

> <Gold.Chemscore.Rot>
2.6712

> <Gold.Chemscore.Internal.Correction>
   9.000000E+99

> <Gold.Chemscore.Hbonds>
donor molecule, donor type, donor heavy atom, donor atom, acceptor molecule, acceptor atom, score
      L1  H    12    48       P1 10175  0.96
      L1  H    16    39       P1 10171  0.98
      P1  H  7997  8010       L1     5  0.35

> <Gold.Chemscore.Hbond.Weighted>
-6.7998

> <Gold.Chemscore.Metal.Weighted>
-0.0000

> <Gold.Chemscore.Lipo.Weighted>
-14.3950

> <Gold.Chemscore.Internal_Hbond.Weighted>
0.0000

> <Gold.Chemscore.DEClash.Weighted>
2.3765

> <Gold.Chemscore.DEInternal.Weighted>
0.7805

> <Gold.Chemscore.Rot.Weighted>
6.8383

> <Gold.Chemscore.Internal.Correction.Weighted>
   9.000000E+99

> <Gold.Protein.RotatedTorsions>
[ 6907 6896 6895 6894 ] final -159.20 input  -60.11 | X-H torsion
[ 7974 7965 7964 7962 ] final  -33.32 input  175.53 | X-H torsion
[ 8008 7997 7996 7995 ] final   80.03 input   59.86 | X-H torsion
[ 10167 10162 10161 10158 ] final -129.41 input  -65.29 | X-H torsion
[ 10718 10713 10712 10709 ] final   10.06 input   66.30 | X-H torsion
[ 10763 10752 10751 10750 ] final  147.27 input  -60.55 | X-H torsion
[ 11005 11000 10999 10996 ] final -176.84 input  -57.11 | X-H torsion

> <Gold.Protein.ActiveResidues>
 VAL166  LYS551  ARG553  GLY616  TRP617  ASP618  TYR619  PRO620  LYS621  CYS622 
 ASP623  PHE694  ASN695  SER759  ASP760  ASP761  ALA762  ILE779  LEU786  VAL792 
 PHE793  MET794  SER795  GLU796  ALA797  LYS798  CYS799  TRP800  GLU811  SER814 

> <Gold.Protein.RotatedAtoms>
  151.3299  133.4005  159.2661 H   0  0  0  0  0  0  0  0  0  0  0  0  # atno 6907 bound_to 6896
  150.9964  134.9288  159.7939 H   0  0  0  0  0  0  0  0  0  0  0  0  # atno 6908 bound_to 6896
  152.5262  134.3264  159.9219 H   0  0  0  0  0  0  0  0  0  0  0  0  # atno 6909 bound_to 6896
  146.0920  140.5902  142.8860 H   0  0  0  0  0  0  0  0  0  0  0  0  # atno 7974 bound_to 7965
  155.8778  140.3445  155.5866 H   0  0  0  0  0  0  0  0  0  0  0  0  # atno 8008 bound_to 7997
  155.7754  140.0851  157.2106 H   0  0  0  0  0  0  0  0  0  0  0  0  # atno 8009 bound_to 7997
  154.4022  140.1510  156.2977 H   0  0  0  0  0  0  0  0  0  0  0  0  # atno 8010 bound_to 7997
  139.9401  143.6173  152.2506 H   0  0  0  0  0  0  0  0  0  0  0  0  # atno 10167 bound_to 10162
  156.9754  130.5985  149.5672 H   0  0  0  0  0  0  0  0  0  0  0  0  # atno 10718 bound_to 10713
  154.0356  135.2894  155.3362 H   0  0  0  0  0  0  0  0  0  0  0  0  # atno 10763 bound_to 10752
  154.6961  135.5207  153.8463 H   0  0  0  0  0  0  0  0  0  0  0  0  # atno 10764 bound_to 10752
  153.0621  135.6617  154.0565 H   0  0  0  0  0  0  0  0  0  0  0  0  # atno 10765 bound_to 10752
  140.4476  134.6373  157.4786 H   0  0  0  0  0  0  0  0  0  0  0  0  # atno 11005 bound_to 11000
  144.7367  140.4828  143.6899 LP  0  0  0  0  0  0  0  0  0  0  0  0  # atno 17320 bound_to 7965
  145.6021  139.1505  143.3123 LP  0  0  0  0  0  0  0  0  0  0  0  0  # atno 17321 bound_to 7965
  139.6711  144.7661  151.1780 LP  0  0  0  0  0  0  0  0  0  0  0  0  # atno 17342 bound_to 10162
  140.7613  143.5863  150.8842 LP  0  0  0  0  0  0  0  0  0  0  0  0  # atno 17343 bound_to 10162
  156.0266  130.5359  150.8422 LP  0  0  0  0  0  0  0  0  0  0  0  0  # atno 17370 bound_to 10713
  157.5563  131.0945  150.9623 LP  0  0  0  0  0  0  0  0  0  0  0  0  # atno 17371 bound_to 10713
  140.0028  134.6810  155.9503 LP  0  0  0  0  0  0  0  0  0  0  0  0  # atno 17394 bound_to 11000
  141.1678  133.6537  156.4542 LP  0  0  0  0  0  0  0  0  0  0  0  0  # atno 17395 bound_to 11000

$$$$
