AV-unprocessed.smi:1818|AV-procd|sdf|7380|dock9
  -GOLD-   22720 9 43D 1   1.00000     0.00000
 Structure written by MMmdl.
 36 37  0  0  0  0  0  0  0  0  1 V2000
  151.0421  139.6821  154.5414 N   0  0  0  0  0  0  0  0  0  0  0  0
  150.2695  140.3615  155.0710 C   0  0  0  0  0  0  0  0  0  0  0  0
  149.2839  141.2293  155.7459 C   0  0  0  0  0  0  0  0  0  0  0  0
  149.9437  142.4225  156.2856 N   0  0  0  0  0  0  0  0  0  0  0  0
  150.9994  142.4626  157.1162 C   0  0  0  0  0  0  0  0  0  0  0  0
  151.5518  141.4612  157.5696 O   0  0  0  0  0  0  0  0  0  0  0  0
  151.5200  143.8511  157.4852 C   0  0  0  0  0  0  0  0  0  0  0  0
  151.8194  143.9288  158.9024 N   0  0  0  0  0  0  0  0  0  0  0  0
  152.4819  142.9827  159.6744 C   0  0  0  0  0  0  0  0  0  0  0  0
  152.5255  143.4825  160.9564 C   0  0  0  0  0  0  0  0  0  0  0  0
  151.8989  144.7258  160.9964 N   0  0  0  0  0  0  0  0  0  0  0  0
  151.5048  144.9227  159.7450 C   0  0  0  0  0  0  0  0  0  0  0  0
  148.2802  141.7053  154.6664 C   0  0  0  0  0  0  0  0  0  0  0  0
  146.9102  142.1847  155.1790 C   0  0  0  0  0  0  0  0  0  0  0  0
  145.8889  141.0382  155.2902 C   0  0  0  0  0  0  0  0  0  0  0  0
  146.1302  140.0652  156.4548 C   0  0  0  0  0  0  0  0  0  0  0  0
  147.5340  139.4362  156.4938 C   0  0  0  0  0  0  0  0  0  0  0  0
  148.6156  140.4482  156.9077 C   0  0  0  0  0  0  0  0  0  0  0  0
  149.5687  143.3079  155.9785 H   0  0  0  0  0  0  0  0  0  0  0  0
  152.4201  144.0891  156.9167 H   0  0  0  0  0  0  0  0  0  0  0  0
  150.7720  144.6054  157.2368 H   0  0  0  0  0  0  0  0  0  0  0  0
  152.8552  142.0573  159.2609 H   0  0  0  0  0  0  0  0  0  0  0  0
  152.9543  143.0458  161.8464 H   0  0  0  0  0  0  0  0  0  0  0  0
  150.9726  145.8101  159.4340 H   0  0  0  0  0  0  0  0  0  0  0  0
  148.7406  142.5091  154.0893 H   0  0  0  0  0  0  0  0  0  0  0  0
  148.1193  140.9092  153.9376 H   0  0  0  0  0  0  0  0  0  0  0  0
  147.0054  142.7251  156.1214 H   0  0  0  0  0  0  0  0  0  0  0  0
  146.5166  142.9061  154.4622 H   0  0  0  0  0  0  0  0  0  0  0  0
  144.8936  141.4677  155.4073 H   0  0  0  0  0  0  0  0  0  0  0  0
  145.8581  140.4826  154.3521 H   0  0  0  0  0  0  0  0  0  0  0  0
  145.9308  140.5725  157.3996 H   0  0  0  0  0  0  0  0  0  0  0  0
  145.3908  139.2661  156.3911 H   0  0  0  0  0  0  0  0  0  0  0  0
  147.5167  138.6374  157.2359 H   0  0  0  0  0  0  0  0  0  0  0  0
  147.7814  138.9569  155.5461 H   0  0  0  0  0  0  0  0  0  0  0  0
  149.3924  139.9063  157.4488 H   0  0  0  0  0  0  0  0  0  0  0  0
  148.1961  141.1398  157.6401 H   0  0  0  0  0  0  0  0  0  0  0  0
  1  2  3  0  0  0  0
  2  3  1  0  0  0  0
  3 18  1  0  0  0  0
  3  4  1  0  0  0  0
  3 13  1  0  0  0  0
  4  5  1  0  0  0  0
  4 19  1  0  0  0  0
  5  6  2  0  0  0  0
  5  7  1  0  0  0  0
  7  8  1  0  0  0  0
  7 20  1  0  0  0  0
  7 21  1  0  0  0  0
  8 12  1  0  0  0  0
  8  9  1  0  0  0  0
  9 10  2  0  0  0  0
  9 22  1  0  0  0  0
 10 11  1  0  0  0  0
 10 23  1  0  0  0  0
 11 12  2  0  0  0  0
 12 24  1  0  0  0  0
 13 14  1  0  0  0  0
 13 25  1  0  0  0  0
 13 26  1  0  0  0  0
 14 15  1  0  0  0  0
 14 27  1  0  0  0  0
 14 28  1  0  0  0  0
 15 16  1  0  0  0  0
 15 29  1  0  0  0  0
 15 30  1  0  0  0  0
 16 17  1  0  0  0  0
 16 31  1  0  0  0  0
 16 32  1  0  0  0  0
 17 18  1  0  0  0  0
 17 33  1  0  0  0  0
 17 34  1  0  0  0  0
 18 35  1  0  0  0  0
 18 36  1  0  0  0  0
M  END
> <s_m_source_file>
AV-unprocessed.smi

> <i_m_source_file_index>
1818

> <i_lp_mmshare_version>
43012

> <i_f3d_flags>
0

> <s_epik_input>
W0NIMl0xW0NIMl1bQ0gyXVtDSDJdW0NIMl1bQ0gyXUMxKEMjTilbTkhdQyg9TylbQ0gyXW4yW2NIXVtjSF1uW2NIXTI=

> <s_epik_cmdline>
J2VwaWtfcHl0aG9uJywgJy1waCcsICc3LjAnLCAnLXRuJywgJzgnLCAnLW1hJywgJzIwMCcsICctbWV0YWxfYmluZGluZycsICctaW1hZScsICc8aW5maWxlLm1hZT4nLCAnLW9tYWUnLCAnPG91dGZpbGUubWFlPic=

> <r_lp_tautomer_probability>
1

> <r_epik_Ionization_Penalty>
0.21493

> <r_epik_Ionization_Penalty_Charging>
0.214927

> <r_epik_Ionization_Penalty_Neutral>
2.56273e-06

> <r_epik_State_Penalty>
0.205117

> <r_epik_Charging_Adjusted_Penalty>
0.420044

> <i_epik_Tot_Q>
0

> <i_epik_Tot_abs_Q>
0

> <r_epik_Metal_State_Penalty>
0.148888

> <b_epik_Metal_Only>
0

> <s_lp_Force_Field>
OPLS_2005

> <r_lp_Energy>
17.7076

> <b_lp_Chiralities_Consistent>
1

> <s_lp_Variant>
AV-unprocessed.smi:1818-1

> <Gold.Version>
5.8.1

> <Gold.Id.Protein>
6NUR|6NUR_protein|mol2

> <Gold.PLP.Fitness>
40.7860

> <Gold.PLP.PLP>
-36.2028

> <Gold.PLP.part.hbond>
-2.0000

> <Gold.PLP.part.metal>
0.0000

> <Gold.PLP.part.buried>
-4.3443

> <Gold.PLP.part.nonpolar>
-30.6733

> <Gold.PLP.part.repulsive>
0.3968

> <Gold.PLP.ligand.clash>
0.0000

> <Gold.PLP.ligand.torsion>
0.4893

> <Gold.PLP.Chemscore.Hbond>
1.8500

> <Gold.PLP.Chemscore.CHOScore>
0.0000

> <Gold.PLP.Chemscore.Metal>
0.0000

> <Gold.Chemscore.Hbonds>
donor molecule, donor type, donor heavy atom, donor atom, acceptor molecule, acceptor atom, score
      L1  H     4    19       P1  8028  1.00
      P1  H  7989  7998       L1     1  0.85

> <Gold.PLP.Chemscore.Internal.Correction>
0.0118

> <Gold.Rescore>
     Score         DG    S(hbond)    S(metal)    S(lipo)     H(rot)  DE(clash)    DE(int)     intcor
     10.40     -12.82       1.46        0.00      57.10       1.65       0.26       2.17       ----

> <Gold.Chemscore.Fitness>
10.3954

> <Gold.Chemscore.DG>
-12.8182

> <Gold.Chemscore.ZeroCoef>
-5.4800

> <Gold.Chemscore.Hbond>
1.4606

> <Gold.Chemscore.Metal>
0.0000

> <Gold.Chemscore.Lipo>
57.1009

> <Gold.Chemscore.Internal_Hbond>
0.0000

> <Gold.Chemscore.DEClash>
0.2564

> <Gold.Chemscore.DEInternal>
2.1664

> <Gold.Chemscore.Rot>
1.6488

> <Gold.Chemscore.Internal.Correction>
   9.000000E+99

> <Gold.Chemscore.Hbonds>
donor molecule, donor type, donor heavy atom, donor atom, acceptor molecule, acceptor atom, score
      L1  H     4    19       P1  8028  0.99
      P1  H  7989  7998       L1     1  0.15

> <Gold.Chemscore.Hbond.Weighted>
-4.8784

> <Gold.Chemscore.Metal.Weighted>
-0.0000

> <Gold.Chemscore.Lipo.Weighted>
-6.6808

> <Gold.Chemscore.Internal_Hbond.Weighted>
0.0000

> <Gold.Chemscore.DEClash.Weighted>
0.2564

> <Gold.Chemscore.DEInternal.Weighted>
2.1664

> <Gold.Chemscore.Rot.Weighted>
4.2210

> <Gold.Chemscore.Internal.Correction.Weighted>
   9.000000E+99

> <Gold.Protein.RotatedTorsions>
[ 6907 6896 6895 6894 ] final -152.62 input  -60.11 | X-H torsion
[ 7974 7965 7964 7962 ] final  128.46 input  175.53 | X-H torsion
[ 8008 7997 7996 7995 ] final  160.58 input   59.86 | X-H torsion
[ 10167 10162 10161 10158 ] final  -38.41 input  -65.29 | X-H torsion
[ 10718 10713 10712 10709 ] final   -8.15 input   66.30 | X-H torsion
[ 10763 10752 10751 10750 ] final  170.42 input  -60.55 | X-H torsion
[ 11005 11000 10999 10996 ] final -106.49 input  -57.11 | X-H torsion

> <Gold.Protein.ActiveResidues>
 VAL166  LYS551  ARG553  GLY616  TRP617  ASP618  TYR619  PRO620  LYS621  CYS622 
 ASP623  PHE694  ASN695  SER759  ASP760  ASP761  ALA762  ILE779  LEU786  VAL792 
 PHE793  MET794  SER795  GLU796  ALA797  LYS798  CYS799  TRP800  GLU811  SER814 

> <Gold.Protein.RotatedAtoms>
  151.2304  133.4453  159.2603 H   0  0  0  0  0  0  0  0  0  0  0  0  # atno 6907 bound_to 6896
  151.0800  134.9852  159.8361 H   0  0  0  0  0  0  0  0  0  0  0  0  # atno 6908 bound_to 6896
  152.5423  134.2244  159.8853 H   0  0  0  0  0  0  0  0  0  0  0  0  # atno 6909 bound_to 6896
  145.0393  139.3977  143.5110 H   0  0  0  0  0  0  0  0  0  0  0  0  # atno 7974 bound_to 7965
  156.2162  140.1800  156.7583 H   0  0  0  0  0  0  0  0  0  0  0  0  # atno 8008 bound_to 7997
  154.5795  140.0668  156.9113 H   0  0  0  0  0  0  0  0  0  0  0  0  # atno 8009 bound_to 7997
  155.2527  140.3330  155.4283 H   0  0  0  0  0  0  0  0  0  0  0  0  # atno 8010 bound_to 7997
  140.7093  143.3279  151.2638 H   0  0  0  0  0  0  0  0  0  0  0  0  # atno 10167 bound_to 10162
  156.7068  130.5110  149.5902 H   0  0  0  0  0  0  0  0  0  0  0  0  # atno 10718 bound_to 10713
  154.3973  135.2754  155.2118 H   0  0  0  0  0  0  0  0  0  0  0  0  # atno 10763 bound_to 10752
  154.4159  135.6011  153.5984 H   0  0  0  0  0  0  0  0  0  0  0  0  # atno 10764 bound_to 10752
  152.9831  135.5961  154.4236 H   0  0  0  0  0  0  0  0  0  0  0  0  # atno 10765 bound_to 10752
  141.1002  133.8898  157.1862 H   0  0  0  0  0  0  0  0  0  0  0  0  # atno 11005 bound_to 11000
  146.3507  139.9985  142.8678 LP  0  0  0  0  0  0  0  0  0  0  0  0  # atno 17320 bound_to 7965
  145.1669  140.9701  143.4344 LP  0  0  0  0  0  0  0  0  0  0  0  0  # atno 17321 bound_to 7965
  139.6752  143.9950  152.2777 LP  0  0  0  0  0  0  0  0  0  0  0  0  # atno 17342 bound_to 10162
  139.9562  144.6588  150.8124 LP  0  0  0  0  0  0  0  0  0  0  0  0  # atno 17343 bound_to 10162
  156.1689  130.6424  151.0813 LP  0  0  0  0  0  0  0  0  0  0  0  0  # atno 17370 bound_to 10713
  157.6951  131.0796  150.6992 LP  0  0  0  0  0  0  0  0  0  0  0  0  # atno 17371 bound_to 10713
  139.9851  135.0085  156.9843 LP  0  0  0  0  0  0  0  0  0  0  0  0  # atno 17394 bound_to 11000
  140.5041  134.1068  155.7256 LP  0  0  0  0  0  0  0  0  0  0  0  0  # atno 17395 bound_to 11000

$$$$
