AV-unprocessed.smi:35|AV-procd|sdf|265|dock5
  -GOLD-   2262016 33D 1   1.00000     0.00000
 Structure written by MMmdl.
 28 29  0  0  0  0  0  0  0  0  2 V2000
  150.9201  134.6525  156.1667 O   0  0  0  0  0  0  0  0  0  0  0  0
  150.9155  135.8436  155.8606 C   0  0  0  0  0  0  0  0  0  0  0  0
  152.0247  136.6341  155.9417 N   0  5  0  0  0  0  0  0  0  0  0  0
  152.0145  137.9577  155.6042 C   0  0  0  0  0  0  0  0  0  0  0  0
  153.0169  138.6702  155.6511 O   0  0  0  0  0  0  0  0  0  0  0  0
  150.7953  138.5459  155.1682 N   0  0  0  0  0  0  0  0  0  0  0  0
  150.7654  140.0096  154.7858 C   0  0  2  0  0  0  0  0  0  0  0  0
  151.1240  140.7756  155.9008 O   0  0  0  0  0  0  0  0  0  0  0  0
  150.1253  141.7524  156.1772 C   0  0  2  0  0  0  0  0  0  0  0  0
  150.0952  142.0347  157.6876 C   0  0  0  0  0  0  0  0  0  0  0  0
  149.6616  143.3549  157.9385 O   0  0  0  0  0  0  0  0  0  0  0  0
  148.8450  141.1355  155.6103 C   0  0  1  0  0  0  0  0  0  0  0  0
  147.8370  142.0901  155.3358 O   0  0  0  0  0  0  0  0  0  0  0  0
  149.3459  140.4182  154.3625 C   0  0  1  0  0  0  0  0  0  0  0  0
  149.3826  141.2586  153.2236 O   0  0  0  0  0  0  0  0  0  0  0  0
  149.6582  137.7636  155.0572 C   0  0  0  0  0  0  0  0  0  0  0  0
  149.6783  136.4560  155.3841 C   0  0  0  0  0  0  0  0  0  0  0  0
  147.9781  135.4605  155.1733 Br  0  0  0  0  0  0  0  0  0  0  0  0
  151.5199  140.1396  154.0084 H   0  0  0  0  0  0  0  0  0  0  0  0
  150.3899  142.6544  155.6222 H   0  0  0  0  0  0  0  0  0  0  0  0
  149.4466  141.3290  158.2073 H   0  0  0  0  0  0  0  0  0  0  0  0
  151.0951  141.9204  158.1067 H   0  0  0  0  0  0  0  0  0  0  0  0
  149.1378  143.6433  157.2066 H   0  0  0  0  0  0  0  0  0  0  0  0
  148.4522  140.3973  156.3110 H   0  0  0  0  0  0  0  0  0  0  0  0
  148.1754  142.9480  155.5431 H   0  0  0  0  0  0  0  0  0  0  0  0
  148.7382  139.5446  154.1223 H   0  0  0  0  0  0  0  0  0  0  0  0
  149.3229  140.7168  152.4520 H   0  0  0  0  0  0  0  0  0  0  0  0
  148.7365  138.1961  154.6992 H   0  0  0  0  0  0  0  0  0  0  0  0
  1  2  2  0  0  0  0
  2 17  1  0  0  0  0
  2  3  1  0  0  0  0
  3  4  1  0  0  0  0
  4  5  2  0  0  0  0
  4  6  1  0  0  0  0
  6  7  1  0  0  0  0
  6 16  1  0  0  0  0
  7 14  1  0  0  0  0
  7  8  1  0  0  0  0
  7 19  1  0  0  0  0
  8  9  1  0  0  0  0
  9 10  1  0  0  0  0
  9 12  1  0  0  0  0
  9 20  1  0  0  0  0
 10 11  1  0  0  0  0
 10 21  1  0  0  0  0
 10 22  1  0  0  0  0
 11 23  1  0  0  0  0
 12 13  1  0  0  0  0
 12 14  1  0  0  0  0
 12 24  1  0  0  0  0
 13 25  1  0  0  0  0
 14 15  1  0  0  0  0
 14 26  1  0  0  0  0
 15 27  1  0  0  0  0
 16 17  2  0  0  0  0
 16 28  1  0  0  0  0
 17 18  1  0  0  0  0
M  CHG  1   3  -1
M  END
> <s_m_source_file>
AV-unprocessed.smi

> <i_m_source_file_index>
35

> <i_lp_mmshare_version>
43012

> <i_f3d_flags>
0

> <s_epik_input>
Tz1jMVtuSF1jKD1PKW4oW2NIXWMxQnIpW0NAQEhdMk9bQ0BASF0oW0NIMl1bT0hdKVtDQEBIXShbT0hdKVtDQEhdMltPSF0=

> <s_epik_cmdline>
J2VwaWtfcHl0aG9uJywgJy1waCcsICc3LjAnLCAnLXRuJywgJzgnLCAnLW1hJywgJzIwMCcsICctbWV0YWxfYmluZGluZycsICctaW1hZScsICc8aW5maWxlLm1hZT4nLCAnLW9tYWUnLCAnPG91dGZpbGUubWFlPic=

> <r_epik_Ionization_Penalty>
1.06112

> <r_epik_Ionization_Penalty_Charging>
2.1796e-09

> <r_epik_Ionization_Penalty_Neutral>
1.06112

> <r_epik_State_Penalty>
1.11484

> <r_epik_Charging_Adjusted_Penalty>
1.11484

> <i_epik_Tot_Q>
-1

> <i_epik_Tot_abs_Q>
1

> <r_epik_Metal_State_Penalty>
0.0032876

> <b_epik_Metal_Only>
0

> <s_epik_Chemistry_Notes>
This compound contains an acetal/aminal-like group ( X-CH(R)-Y where X, Y are N, S, or O) that may be acid/base labile, releasing an aldehyde.

> <s_lp_Force_Field>
OPLS_2005

> <r_lp_Energy>
41.5323

> <b_lp_Chiralities_Consistent>
1

> <s_lp_Variant>
AV-unprocessed.smi:35-19

> <Gold.Version>
5.8.1

> <Gold.Id.Protein>
6NUR|6NUR_protein|mol2

> <Gold.PLP.Fitness>
44.6239

> <Gold.PLP.PLP>
-26.5090

> <Gold.PLP.part.hbond>
-7.3756

> <Gold.PLP.part.metal>
0.0000

> <Gold.PLP.part.buried>
-2.9652

> <Gold.PLP.part.nonpolar>
-17.8539

> <Gold.PLP.part.repulsive>
0.0517

> <Gold.PLP.ligand.clash>
0.0000

> <Gold.PLP.ligand.torsion>
0.3927

> <Gold.PLP.Chemscore.Hbond>
6.2965

> <Gold.PLP.Chemscore.CHOScore>
0.0000

> <Gold.PLP.Chemscore.Metal>
0.0000

> <Gold.Chemscore.Hbonds>
donor molecule, donor type, donor heavy atom, donor atom, acceptor molecule, acceptor atom, score
      L1  H    11    23       P1  8028  1.00
      L1  H    13    25       P1  8028  1.00
      L1  H    15    27       P1  7957  0.88
      P1  H  7997  8009       L1     5  0.93
      P1  H  8011  8017       L1    15  0.38
      P1  H 10752 10765       L1     3  1.80

> <Gold.PLP.Chemscore.Internal.Correction>
0.0109

> <Gold.Rescore>
     Score         DG    S(hbond)    S(metal)    S(lipo)     H(rot)  DE(clash)    DE(int)     intcor
      9.81     -12.98       3.83        0.00      34.18       3.63       1.34       1.82       ----

> <Gold.Chemscore.Fitness>
9.8076

> <Gold.Chemscore.DG>
-12.9762

> <Gold.Chemscore.ZeroCoef>
-5.4800

> <Gold.Chemscore.Hbond>
3.8263

> <Gold.Chemscore.Metal>
0.0000

> <Gold.Chemscore.Lipo>
34.1808

> <Gold.Chemscore.Internal_Hbond>
0.0000

> <Gold.Chemscore.DEClash>
1.3445

> <Gold.Chemscore.DEInternal>
1.8241

> <Gold.Chemscore.Rot>
3.6261

> <Gold.Chemscore.Internal.Correction>
   9.000000E+99

> <Gold.Chemscore.Hbonds>
donor molecule, donor type, donor heavy atom, donor atom, acceptor molecule, acceptor atom, score
      L1  H    11    23       P1  8028  0.48
      L1  H    13    25       P1  8028  0.93
      L1  H    15    27       P1  7957  0.84
      P1  H  7997  8009       L1     5  0.86
      P1  H  8011  8017       L1    15  0.01
      P1  H 10752 10765       L1     3  0.17

> <Gold.Chemscore.Hbond.Weighted>
-12.7798

> <Gold.Chemscore.Metal.Weighted>
-0.0000

> <Gold.Chemscore.Lipo.Weighted>
-3.9992

> <Gold.Chemscore.Internal_Hbond.Weighted>
0.0000

> <Gold.Chemscore.DEClash.Weighted>
1.3445

> <Gold.Chemscore.DEInternal.Weighted>
1.8241

> <Gold.Chemscore.Rot.Weighted>
9.2828

> <Gold.Chemscore.Internal.Correction.Weighted>
   9.000000E+99

> <Gold.Protein.RotatedTorsions>
[ 6907 6896 6895 6894 ] final -162.95 input  -60.11 | X-H torsion
[ 7974 7965 7964 7962 ] final -105.48 input  175.53 | X-H torsion
[ 8008 7997 7996 7995 ] final -144.71 input   59.86 | X-H torsion
[ 10167 10162 10161 10158 ] final  -88.31 input  -65.29 | X-H torsion
[ 10718 10713 10712 10709 ] final  145.28 input   66.30 | X-H torsion
[ 10763 10752 10751 10750 ] final -144.04 input  -60.55 | X-H torsion
[ 11005 11000 10999 10996 ] final -147.50 input  -57.11 | X-H torsion

> <Gold.Protein.ActiveResidues>
 VAL166  LYS551  ARG553  GLY616  TRP617  ASP618  TYR619  PRO620  LYS621  CYS622 
 ASP623  PHE694  ASN695  SER759  ASP760  ASP761  ALA762  ILE779  LEU786  VAL792 
 PHE793  MET794  SER795  GLU796  ALA797  LYS798  CYS799  TRP800  GLU811  SER814 

> <Gold.Protein.RotatedAtoms>
  151.3884  133.3797  159.2717 H   0  0  0  0  0  0  0  0  0  0  0  0  # atno 6907 bound_to 6896
  150.9524  134.8923  159.7691 H   0  0  0  0  0  0  0  0  0  0  0  0  # atno 6908 bound_to 6896
  152.5117  134.3839  159.9413 H   0  0  0  0  0  0  0  0  0  0  0  0  # atno 6909 bound_to 6896
  145.2299  140.9166  143.3210 H   0  0  0  0  0  0  0  0  0  0  0  0  # atno 7974 bound_to 7965
  155.5314  140.0600  157.2888 H   0  0  0  0  0  0  0  0  0  0  0  0  # atno 8008 bound_to 7997
  154.4483  140.1935  156.0543 H   0  0  0  0  0  0  0  0  0  0  0  0  # atno 8009 bound_to 7997
  156.0649  140.3267  155.7510 H   0  0  0  0  0  0  0  0  0  0  0  0  # atno 8010 bound_to 7997
  140.3759  143.2772  151.9443 H   0  0  0  0  0  0  0  0  0  0  0  0  # atno 10167 bound_to 10162
  157.3472  131.0945  151.1031 H   0  0  0  0  0  0  0  0  0  0  0  0  # atno 10718 bound_to 10713
  154.8445  135.3451  154.6282 H   0  0  0  0  0  0  0  0  0  0  0  0  # atno 10763 bound_to 10752
  153.6892  135.6976  153.5099 H   0  0  0  0  0  0  0  0  0  0  0  0  # atno 10764 bound_to 10752
  153.2608  135.4323  155.0847 H   0  0  0  0  0  0  0  0  0  0  0  0  # atno 10765 bound_to 10752
  140.7710  134.3189  157.5075 H   0  0  0  0  0  0  0  0  0  0  0  0  # atno 11005 bound_to 11000
  144.9686  139.3904  143.6320 LP  0  0  0  0  0  0  0  0  0  0  0  0  # atno 17320 bound_to 7965
  146.3355  139.8773  142.8830 LP  0  0  0  0  0  0  0  0  0  0  0  0  # atno 17321 bound_to 7965
  139.4799  144.5864  151.7847 LP  0  0  0  0  0  0  0  0  0  0  0  0  # atno 17342 bound_to 10162
  140.4986  144.1202  150.5966 LP  0  0  0  0  0  0  0  0  0  0  0  0  # atno 17343 bound_to 10162
  157.2221  130.6486  149.5815 LP  0  0  0  0  0  0  0  0  0  0  0  0  # atno 17370 bound_to 10713
  155.9716  130.4626  150.6151 LP  0  0  0  0  0  0  0  0  0  0  0  0  # atno 17371 bound_to 10713
  139.8756  134.9260  156.3390 LP  0  0  0  0  0  0  0  0  0  0  0  0  # atno 17394 bound_to 11000
  140.9574  133.7411  156.0354 LP  0  0  0  0  0  0  0  0  0  0  0  0  # atno 17395 bound_to 11000

$$$$
