AV-unprocessed.smi:1667|AV-procd|sdf|6678|dock4
  -GOLD-   22720 7393D 1   1.00000     0.00000
 Structure written by MMmdl.
 46 48  0  0  0  0  0  0  0  0  2 V2000
  152.0647  137.1127  158.8265 C   0  0  0  0  0  0  0  0  0  0  0  0
  152.1819  137.0049  157.3102 C   0  0  0  0  0  0  0  0  0  0  0  0
  153.0280  136.2656  156.8086 O   0  0  0  0  0  0  0  0  0  0  0  0
  151.3248  137.7546  156.5970 N   0  0  0  0  0  0  0  0  0  0  0  0
  151.2390  137.8485  155.1397 C   0  0  2  0  0  0  0  0  0  0  0  0
  152.6008  138.2092  154.5153 C   0  0  0  0  0  0  0  0  0  0  0  0
  150.1312  138.7552  154.6751 C   0  0  0  0  0  0  0  0  0  0  0  0
  149.1067  138.4099  153.8423 N   0  3  0  0  0  0  0  0  0  0  0  0
  148.2808  139.5104  153.6194 C   0  0  0  0  0  0  0  0  0  0  0  0
  147.1235  139.6417  152.8581 C   0  0  0  0  0  0  0  0  0  0  0  0
  146.5149  140.9139  152.8473 C   0  0  0  0  0  0  0  0  0  0  0  0
  147.0578  141.9936  153.5739 C   0  0  0  0  0  0  0  0  0  0  0  0
  148.2331  141.8479  154.3403 C   0  0  0  0  0  0  0  0  0  0  0  0
  148.8299  140.5873  154.3433 C   0  0  0  0  0  0  0  0  0  0  0  0
  149.9785  140.0826  154.9640 N   0  0  0  0  0  0  0  0  0  0  0  0
  150.7932  140.9880  155.7918 C   0  0  0  0  0  0  0  0  0  0  0  0
  150.3071  141.0908  157.2534 C   0  0  2  0  0  0  0  0  0  0  0  0
  148.9605  141.5186  157.2909 O   0  0  0  0  0  0  0  0  0  0  0  0
  151.2159  141.9929  158.0724 C   0  0  0  0  0  0  0  0  0  0  0  0
  151.4473  143.3288  157.6760 C   0  0  0  0  0  0  0  0  0  0  0  0
  152.2959  144.1577  158.4352 C   0  0  0  0  0  0  0  0  0  0  0  0
  152.9189  143.6556  159.5939 C   0  0  0  0  0  0  0  0  0  0  0  0
  152.6948  142.3236  159.9916 C   0  0  0  0  0  0  0  0  0  0  0  0
  153.2960  141.8389  161.1036 F   0  0  0  0  0  0  0  0  0  0  0  0
  151.8463  141.4944  159.2327 C   0  0  0  0  0  0  0  0  0  0  0  0
  150.9982  136.8438  154.7932 H   0  0  0  0  0  0  0  0  0  0  0  0
  152.0429  138.1579  159.1365 H   0  0  0  0  0  0  0  0  0  0  0  0
  152.9117  136.6307  159.3158 H   0  0  0  0  0  0  0  0  0  0  0  0
  151.1498  136.6304  159.1708 H   0  0  0  0  0  0  0  0  0  0  0  0
  150.6762  138.3289  157.1162 H   0  0  0  0  0  0  0  0  0  0  0  0
  152.5535  138.1685  153.4268 H   0  0  0  0  0  0  0  0  0  0  0  0
  153.3730  137.5089  154.8346 H   0  0  0  0  0  0  0  0  0  0  0  0
  152.9298  139.2105  154.7944 H   0  0  0  0  0  0  0  0  0  0  0  0
  146.7061  138.8153  152.3018 H   0  0  0  0  0  0  0  0  0  0  0  0
  145.6132  141.0643  152.2713 H   0  0  0  0  0  0  0  0  0  0  0  0
  146.5631  142.9535  153.5424 H   0  0  0  0  0  0  0  0  0  0  0  0
  148.6402  142.6812  154.8933 H   0  0  0  0  0  0  0  0  0  0  0  0
  151.8275  140.6437  155.7524 H   0  0  0  0  0  0  0  0  0  0  0  0
  150.7830  141.9718  155.3234 H   0  0  0  0  0  0  0  0  0  0  0  0
  150.3207  140.0985  157.7046 H   0  0  0  0  0  0  0  0  0  0  0  0
  148.7112  141.6429  158.1941 H   0  0  0  0  0  0  0  0  0  0  0  0
  150.9763  143.7212  156.7864 H   0  0  0  0  0  0  0  0  0  0  0  0
  152.4695  145.1786  158.1284 H   0  0  0  0  0  0  0  0  0  0  0  0
  153.5697  144.2913  160.1761 H   0  0  0  0  0  0  0  0  0  0  0  0
  151.6827  140.4736  159.5459 H   0  0  0  0  0  0  0  0  0  0  0  0
  148.9890  137.4834  153.4531 H   0  0  0  0  0  0  0  0  0  0  0  0
  1  2  1  0  0  0  0
  1 27  1  0  0  0  0
  1 28  1  0  0  0  0
  1 29  1  0  0  0  0
  2  3  2  0  0  0  0
  2  4  1  0  0  0  0
  4  5  1  0  0  0  0
  4 30  1  0  0  0  0
  5 26  1  0  0  0  0
  5  6  1  0  0  0  0
  5  7  1  0  0  0  0
  6 31  1  0  0  0  0
  6 32  1  0  0  0  0
  6 33  1  0  0  0  0
  7 15  1  0  0  0  0
  7  8  2  0  0  0  0
  8  9  1  0  0  0  0
  8 46  1  0  0  0  0
  9 14  2  0  0  0  0
  9 10  1  0  0  0  0
 10 11  2  0  0  0  0
 10 34  1  0  0  0  0
 11 12  1  0  0  0  0
 11 35  1  0  0  0  0
 12 13  2  0  0  0  0
 12 36  1  0  0  0  0
 13 14  1  0  0  0  0
 13 37  1  0  0  0  0
 14 15  1  0  0  0  0
 15 16  1  0  0  0  0
 16 17  1  0  0  0  0
 16 38  1  0  0  0  0
 16 39  1  0  0  0  0
 17 18  1  0  0  0  0
 17 19  1  0  0  0  0
 17 40  1  0  0  0  0
 18 41  1  0  0  0  0
 19 25  1  0  0  0  0
 19 20  2  0  0  0  0
 20 21  1  0  0  0  0
 20 42  1  0  0  0  0
 21 22  2  0  0  0  0
 21 43  1  0  0  0  0
 22 23  1  0  0  0  0
 22 44  1  0  0  0  0
 23 24  1  0  0  0  0
 23 25  2  0  0  0  0
 25 45  1  0  0  0  0
M  CHG  1   8   1
M  END
> <s_m_source_file>
AV-unprocessed.smi

> <i_m_source_file_index>
1667

> <i_lp_mmshare_version>
43012

> <i_f3d_flags>
0

> <s_epik_input>
W0NIM11DKD1PKVtOSF1bQ0BASF0oW0NIM10pYyhuMSluKGMoYzEyKVtjSF1bY0hdW2NIXVtjSF0yKVtDSDJdW0NASF0oW09IXSljM1tjSF1bY0hdW2NIXWMoRilbY0hdMw==

> <s_epik_cmdline>
J2VwaWtfcHl0aG9uJywgJy1waCcsICc3LjAnLCAnLXRuJywgJzgnLCAnLW1hJywgJzIwMCcsICctbWV0YWxfYmluZGluZycsICctaW1hZScsICc8aW5maWxlLm1hZT4nLCAnLW9tYWUnLCAnPG91dGZpbGUubWFlPic=

> <r_epik_Ionization_Penalty>
0.950383

> <r_epik_Ionization_Penalty_Charging>
0.950379

> <r_epik_Ionization_Penalty_Neutral>
3.60962e-06

> <r_epik_State_Penalty>
0.994584

> <r_epik_Charging_Adjusted_Penalty>
1.94496

> <i_epik_Tot_Q>
1

> <i_epik_Tot_abs_Q>
1

> <r_epik_Metal_State_Penalty>
1.10485

> <b_epik_Metal_Only>
0

> <s_lp_Force_Field>
OPLS_2005

> <r_lp_Energy>
9.34024

> <b_lp_Chiralities_Consistent>
1

> <s_lp_Variant>
AV-unprocessed.smi:1667-6

> <Gold.Version>
5.8.1

> <Gold.Id.Protein>
6NUR|6NUR_protein|mol2

> <Gold.PLP.Fitness>
62.0109

> <Gold.PLP.PLP>
-54.2312

> <Gold.PLP.part.hbond>
-2.7010

> <Gold.PLP.part.metal>
0.0000

> <Gold.PLP.part.buried>
0.6091

> <Gold.PLP.part.nonpolar>
-52.4545

> <Gold.PLP.part.repulsive>
0.1387

> <Gold.PLP.ligand.clash>
0.0000

> <Gold.PLP.ligand.torsion>
0.5248

> <Gold.PLP.Chemscore.Hbond>
2.8960

> <Gold.PLP.Chemscore.CHOScore>
0.0000

> <Gold.PLP.Chemscore.Metal>
0.0000

> <Gold.Chemscore.Hbonds>
donor molecule, donor type, donor heavy atom, donor atom, acceptor molecule, acceptor atom, score
      L1  H     8    46       P1  7948  1.98
      P1  H 10752 10763       L1     3  1.00

> <Gold.PLP.Chemscore.Internal.Correction>
0.1413

> <Gold.Rescore>
     Score         DG    S(hbond)    S(metal)    S(lipo)     H(rot)  DE(clash)    DE(int)     intcor
     19.45     -21.61       1.75        0.00     143.48       2.53       1.63       0.54       ----

> <Gold.Chemscore.Fitness>
19.4471

> <Gold.Chemscore.DG>
-21.6115

> <Gold.Chemscore.ZeroCoef>
-5.4800

> <Gold.Chemscore.Hbond>
1.7455

> <Gold.Chemscore.Metal>
0.0000

> <Gold.Chemscore.Lipo>
143.4787

> <Gold.Chemscore.Internal_Hbond>
0.0000

> <Gold.Chemscore.DEClash>
1.6272

> <Gold.Chemscore.DEInternal>
0.5372

> <Gold.Chemscore.Rot>
2.5335

> <Gold.Chemscore.Internal.Correction>
   9.000000E+99

> <Gold.Chemscore.Hbonds>
donor molecule, donor type, donor heavy atom, donor atom, acceptor molecule, acceptor atom, score
      L1  H     8    46       P1  7948  0.90
      P1  H 10752 10763       L1     3  0.96

> <Gold.Chemscore.Hbond.Weighted>
-5.8301

> <Gold.Chemscore.Metal.Weighted>
-0.0000

> <Gold.Chemscore.Lipo.Weighted>
-16.7870

> <Gold.Chemscore.Internal_Hbond.Weighted>
0.0000

> <Gold.Chemscore.DEClash.Weighted>
1.6272

> <Gold.Chemscore.DEInternal.Weighted>
0.5372

> <Gold.Chemscore.Rot.Weighted>
6.4856

> <Gold.Chemscore.Internal.Correction.Weighted>
   9.000000E+99

> <Gold.Protein.RotatedTorsions>
[ 6907 6896 6895 6894 ] final  -32.69 input  -60.11 | X-H torsion
[ 7974 7965 7964 7962 ] final   34.16 input  175.53 | X-H torsion
[ 8008 7997 7996 7995 ] final  -82.18 input   59.86 | X-H torsion
[ 10167 10162 10161 10158 ] final   43.82 input  -65.29 | X-H torsion
[ 10718 10713 10712 10709 ] final -100.78 input   66.30 | X-H torsion
[ 10763 10752 10751 10750 ] final  131.37 input  -60.55 | X-H torsion
[ 11005 11000 10999 10996 ] final   16.06 input  -57.11 | X-H torsion

> <Gold.Protein.ActiveResidues>
 VAL166  LYS551  ARG553  GLY616  TRP617  ASP618  TYR619  PRO620  LYS621  CYS622 
 ASP623  PHE694  ASN695  SER759  ASP760  ASP761  ALA762  ILE779  LEU786  VAL792 
 PHE793  MET794  SER795  GLU796  ALA797  LYS798  CYS799  TRP800  GLU811  SER814 

> <Gold.Protein.RotatedAtoms>
  151.0754  134.9825  159.8329 H   0  0  0  0  0  0  0  0  0  0  0  0  # atno 6907 bound_to 6896
  152.5413  134.2247  159.8811 H   0  0  0  0  0  0  0  0  0  0  0  0  # atno 6908 bound_to 6896
  151.2274  133.4425  159.2636 H   0  0  0  0  0  0  0  0  0  0  0  0  # atno 6909 bound_to 6896
  146.1372  139.6304  142.9187 H   0  0  0  0  0  0  0  0  0  0  0  0  # atno 7974 bound_to 7965
  154.6059  140.0637  156.9430 H   0  0  0  0  0  0  0  0  0  0  0  0  # atno 8008 bound_to 7997
  155.2054  140.3318  155.4318 H   0  0  0  0  0  0  0  0  0  0  0  0  # atno 8009 bound_to 7997
  156.2347  140.1857  156.7134 H   0  0  0  0  0  0  0  0  0  0  0  0  # atno 8010 bound_to 7997
  140.3405  144.2475  150.6156 H   0  0  0  0  0  0  0  0  0  0  0  0  # atno 10167 bound_to 10162
  156.0173  130.5343  150.6867 H   0  0  0  0  0  0  0  0  0  0  0  0  # atno 10718 bound_to 10713
  153.7732  135.3179  155.3355 H   0  0  0  0  0  0  0  0  0  0  0  0  # atno 10763 bound_to 10752
  154.8189  135.4617  154.0724 H   0  0  0  0  0  0  0  0  0  0  0  0  # atno 10764 bound_to 10752
  153.1990  135.6919  153.8340 H   0  0  0  0  0  0  0  0  0  0  0  0  # atno 10765 bound_to 10752
  140.4514  134.1221  155.7703 H   0  0  0  0  0  0  0  0  0  0  0  0  # atno 11005 bound_to 11000
  145.5130  141.0435  143.2477 LP  0  0  0  0  0  0  0  0  0  0  0  0  # atno 17320 bound_to 7965
  144.7752  139.6645  143.7178 LP  0  0  0  0  0  0  0  0  0  0  0  0  # atno 17321 bound_to 7965
  140.5313  143.2243  151.8234 LP  0  0  0  0  0  0  0  0  0  0  0  0  # atno 17342 bound_to 10162
  139.4841  144.4717  151.9417 LP  0  0  0  0  0  0  0  0  0  0  0  0  # atno 17343 bound_to 10162
  157.4557  131.0877  151.0799 LP  0  0  0  0  0  0  0  0  0  0  0  0  # atno 17370 bound_to 10713
  157.1301  130.6098  149.5527 LP  0  0  0  0  0  0  0  0  0  0  0  0  # atno 17371 bound_to 10713
  141.1662  133.8697  157.1706 LP  0  0  0  0  0  0  0  0  0  0  0  0  # atno 17394 bound_to 11000
  140.0005  135.0030  157.0178 LP  0  0  0  0  0  0  0  0  0  0  0  0  # atno 17395 bound_to 11000

$$$$
