AV-unprocessed.smi:2021|AV-procd|sdf|8178|dock6
  -GOLD-   2272010433D 1   1.00000     0.00000
 Structure written by MMmdl.
 42 43  0  0  0  0  0  0  0  0  2 V2000
  146.0010  134.3010  151.0233 C   0  0  0  0  0  0  0  0  0  0  0  0
  146.1828  132.8124  150.6820 C   0  0  0  0  0  0  0  0  0  0  0  0
  145.0803  132.3440  149.7203 C   0  0  0  0  0  0  0  0  0  0  0  0
  146.2046  131.9312  151.9492 C   0  0  0  0  0  0  0  0  0  0  0  0
  147.5526  131.8239  152.5638 N   0  3  2  0  0  0  0  0  0  0  0  0
  147.7919  130.5315  153.2524 C   0  0  0  0  0  0  0  0  0  0  0  0
  149.2139  130.4901  153.8342 C   0  0  0  0  0  0  0  0  0  0  0  0
  149.3997  131.5954  154.7077 O   0  0  0  0  0  0  0  0  0  0  0  0
  149.2806  132.8452  154.0356 C   0  0  2  0  0  0  0  0  0  0  0  0
  149.5919  133.9806  155.0271 C   0  0  0  0  0  0  0  0  0  0  0  0
  149.3925  135.2958  154.4267 N   0  0  0  0  0  0  0  0  0  0  0  0
  149.7062  136.4625  155.0088 C   0  0  0  0  0  0  0  0  0  0  0  0
  150.2053  136.5465  156.1312 O   0  0  0  0  0  0  0  0  0  0  0  0
  149.4077  137.5021  154.2102 N   0  0  0  0  0  0  0  0  0  0  0  0
  149.5873  138.8876  154.4662 C   0  0  0  0  0  0  0  0  0  0  0  0
  150.6749  139.3998  155.0632 N   0  0  0  0  0  0  0  0  0  0  0  0
  150.5947  140.7803  155.1929 N   0  0  0  0  0  0  0  0  0  0  0  0
  149.4519  141.2544  154.6889 C   0  0  0  0  0  0  0  0  0  0  0  0
  148.3624  140.0608  154.0041 S   0  0  0  0  0  0  0  0  0  0  0  0
  147.8504  132.9571  153.4720 C   0  0  0  0  0  0  0  0  0  0  0  0
  145.0701  134.4721  151.5649 H   0  0  0  0  0  0  0  0  0  0  0  0
  145.9757  134.9110  150.1199 H   0  0  0  0  0  0  0  0  0  0  0  0
  146.8190  134.6723  151.6410 H   0  0  0  0  0  0  0  0  0  0  0  0
  147.1286  132.7027  150.1520 H   0  0  0  0  0  0  0  0  0  0  0  0
  144.0932  132.4274  150.1764 H   0  0  0  0  0  0  0  0  0  0  0  0
  145.2262  131.3027  149.4317 H   0  0  0  0  0  0  0  0  0  0  0  0
  145.0753  132.9386  148.8063 H   0  0  0  0  0  0  0  0  0  0  0  0
  145.5105  132.3606  152.6735 H   0  0  0  0  0  0  0  0  0  0  0  0
  145.8302  130.9301  151.7290 H   0  0  0  0  0  0  0  0  0  0  0  0
  147.0609  130.4005  154.0517 H   0  0  0  0  0  0  0  0  0  0  0  0
  147.6633  129.6989  152.5618 H   0  0  0  0  0  0  0  0  0  0  0  0
  149.3643  129.5679  154.3956 H   0  0  0  0  0  0  0  0  0  0  0  0
  149.9628  130.5060  153.0408 H   0  0  0  0  0  0  0  0  0  0  0  0
  149.9995  132.8869  153.2150 H   0  0  0  0  0  0  0  0  0  0  0  0
  148.9226  133.9103  155.8848 H   0  0  0  0  0  0  0  0  0  0  0  0
  150.6051  133.8821  155.4212 H   0  0  0  0  0  0  0  0  0  0  0  0
  148.9851  135.3185  153.5032 H   0  0  0  0  0  0  0  0  0  0  0  0
  148.9999  137.2782  153.3146 H   0  0  0  0  0  0  0  0  0  0  0  0
  149.2494  142.3146  154.7202 H   0  0  0  0  0  0  0  0  0  0  0  0
  147.7437  133.8979  152.9301 H   0  0  0  0  0  0  0  0  0  0  0  0
  147.1233  132.9714  154.2861 H   0  0  0  0  0  0  0  0  0  0  0  0
  148.2196  131.8855  151.8077 H   0  0  0  0  0  0  0  0  0  0  0  0
  1  2  1  0  0  0  0
  1 21  1  0  0  0  0
  1 22  1  0  0  0  0
  1 23  1  0  0  0  0
  2  3  1  0  0  0  0
  2  4  1  0  0  0  0
  2 24  1  0  0  0  0
  3 25  1  0  0  0  0
  3 26  1  0  0  0  0
  3 27  1  0  0  0  0
  4  5  1  0  0  0  0
  4 28  1  0  0  0  0
  4 29  1  0  0  0  0
  5 20  1  0  0  0  0
  5  6  1  0  0  0  0
  5 42  1  0  0  0  0
  6  7  1  0  0  0  0
  6 30  1  0  0  0  0
  6 31  1  0  0  0  0
  7  8  1  0  0  0  0
  7 32  1  0  0  0  0
  7 33  1  0  0  0  0
  8  9  1  0  0  0  0
  9 10  1  0  0  0  0
  9 20  1  0  0  0  0
  9 34  1  0  0  0  0
 10 11  1  0  0  0  0
 10 35  1  0  0  0  0
 10 36  1  0  0  0  0
 11 12  1  0  0  0  0
 11 37  1  0  0  0  0
 12 13  2  0  0  0  0
 12 14  1  0  0  0  0
 14 15  1  0  0  0  0
 14 38  1  0  0  0  0
 15 19  1  0  0  0  0
 15 16  2  0  0  0  0
 16 17  1  0  0  0  0
 17 18  2  0  0  0  0
 18 19  1  0  0  0  0
 18 39  1  0  0  0  0
 20 40  1  0  0  0  0
 20 41  1  0  0  0  0
M  CHG  1   5   1
M  END
> <s_m_source_file>
AV-unprocessed.smi

> <i_m_source_file_index>
2021

> <i_lp_mmshare_version>
43012

> <i_f3d_flags>
0

> <s_epik_input>
W0NIM11bQ0hdKFtDSDNdKVtDSDJdTjFbQ0gyXVtDSDJdT1tDQEhdKFtDSDJdMSlbQ0gyXVtOSF1DKD1PKVtOSF1jMm5uW2NIXXMy

> <s_epik_cmdline>
J2VwaWtfcHl0aG9uJywgJy1waCcsICc3LjAnLCAnLXRuJywgJzgnLCAnLW1hJywgJzIwMCcsICctbWV0YWxfYmluZGluZycsICctaW1hZScsICc8aW5maWxlLm1hZT4nLCAnLW9tYWUnLCAnPG91dGZpbGUubWFlPic=

> <r_lp_tautomer_probability>
1

> <r_epik_Ionization_Penalty>
0.102019

> <r_epik_Ionization_Penalty_Charging>
0.098413

> <r_epik_Ionization_Penalty_Neutral>
0.00360555

> <r_epik_State_Penalty>
0.0884988

> <r_epik_Charging_Adjusted_Penalty>
0.186912

> <i_epik_Tot_Q>
1

> <i_epik_Tot_abs_Q>
1

> <r_epik_Metal_State_Penalty>
0.454709

> <b_epik_Metal_Only>
0

> <s_lp_Force_Field>
OPLS_2005

> <r_lp_Energy>
16.3226

> <b_lp_Chiralities_Consistent>
1

> <s_lp_Variant>
AV-unprocessed.smi:2021-4

> <Gold.Version>
5.8.1

> <Gold.Id.Protein>
6NUR|6NUR_protein|mol2

> <Gold.PLP.Fitness>
45.7092

> <Gold.PLP.PLP>
-35.9521

> <Gold.PLP.part.hbond>
-4.0010

> <Gold.PLP.part.metal>
0.0000

> <Gold.PLP.part.buried>
-3.5389

> <Gold.PLP.part.nonpolar>
-27.2194

> <Gold.PLP.part.repulsive>
0.2133

> <Gold.PLP.ligand.clash>
0.0000

> <Gold.PLP.ligand.torsion>
1.0120

> <Gold.PLP.Chemscore.Hbond>
2.9197

> <Gold.PLP.Chemscore.CHOScore>
0.9811

> <Gold.PLP.Chemscore.Metal>
0.0000

> <Gold.Chemscore.Hbonds>
donor molecule, donor type, donor heavy atom, donor atom, acceptor molecule, acceptor atom, score
      L1  H     5    42       P1 10747  0.86
      L1  H    11    37       P1  7948  0.90
      L1  H    14    38       P1  7948  0.98
      P1  H  7989  7998       L1    17  0.24
      L1  C    18    39       P1  8028  0.84

> <Gold.PLP.Chemscore.Internal.Correction>
0.0788

> <Gold.Rescore>
     Score         DG    S(hbond)    S(metal)    S(lipo)     H(rot)  DE(clash)    DE(int)     intcor
     16.46     -17.56       2.40        0.00      75.90       1.88       0.07       1.02       ----

> <Gold.Chemscore.Fitness>
16.4632

> <Gold.Chemscore.DG>
-17.5565

> <Gold.Chemscore.ZeroCoef>
-5.4800

> <Gold.Chemscore.Hbond>
2.3988

> <Gold.Chemscore.Metal>
0.0000

> <Gold.Chemscore.Lipo>
75.8995

> <Gold.Chemscore.Internal_Hbond>
0.0000

> <Gold.Chemscore.DEClash>
0.0684

> <Gold.Chemscore.DEInternal>
1.0249

> <Gold.Chemscore.Rot>
1.8812

> <Gold.Chemscore.Internal.Correction>
   9.000000E+99

> <Gold.Chemscore.Hbonds>
donor molecule, donor type, donor heavy atom, donor atom, acceptor molecule, acceptor atom, score
      L1  H     5    42       P1 10747  0.83
      L1  H    11    37       P1  7948  0.53
      L1  H    14    38       P1  7948  0.93

> <Gold.Chemscore.Hbond.Weighted>
-8.0121

> <Gold.Chemscore.Metal.Weighted>
-0.0000

> <Gold.Chemscore.Lipo.Weighted>
-8.8802

> <Gold.Chemscore.Internal_Hbond.Weighted>
0.0000

> <Gold.Chemscore.DEClash.Weighted>
0.0684

> <Gold.Chemscore.DEInternal.Weighted>
1.0249

> <Gold.Chemscore.Rot.Weighted>
4.8159

> <Gold.Chemscore.Internal.Correction.Weighted>
   9.000000E+99

> <Gold.Protein.RotatedTorsions>
[ 6907 6896 6895 6894 ] final  153.13 input  -60.11 | X-H torsion
[ 7974 7965 7964 7962 ] final -158.08 input  175.53 | X-H torsion
[ 8008 7997 7996 7995 ] final -162.66 input   59.86 | X-H torsion
[ 10167 10162 10161 10158 ] final -159.76 input  -65.29 | X-H torsion
[ 10718 10713 10712 10709 ] final  -79.04 input   66.30 | X-H torsion
[ 10763 10752 10751 10750 ] final  152.26 input  -60.55 | X-H torsion
[ 11005 11000 10999 10996 ] final  -48.50 input  -57.11 | X-H torsion

> <Gold.Protein.ActiveResidues>
 VAL166  LYS551  ARG553  GLY616  TRP617  ASP618  TYR619  PRO620  LYS621  CYS622 
 ASP623  PHE694  ASN695  SER759  ASP760  ASP761  ALA762  ILE779  LEU786  VAL792 
 PHE793  MET794  SER795  GLU796  ALA797  LYS798  CYS799  TRP800  GLU811  SER814 

> <Gold.Protein.RotatedAtoms>
  152.0770  133.4134  159.4483 H   0  0  0  0  0  0  0  0  0  0  0  0  # atno 6907 bound_to 6896
  150.6862  134.3026  159.4722 H   0  0  0  0  0  0  0  0  0  0  0  0  # atno 6908 bound_to 6896
  152.0864  134.9436  160.0623 H   0  0  0  0  0  0  0  0  0  0  0  0  # atno 6909 bound_to 6896
  144.7520  140.3877  143.6040 H   0  0  0  0  0  0  0  0  0  0  0  0  # atno 7974 bound_to 7965
  155.8101  140.0904  157.1909 H   0  0  0  0  0  0  0  0  0  0  0  0  # atno 8008 bound_to 7997
  154.3980  140.1456  156.3436 H   0  0  0  0  0  0  0  0  0  0  0  0  # atno 8009 bound_to 7997
  155.8374  140.3440  155.5613 H   0  0  0  0  0  0  0  0  0  0  0  0  # atno 8010 bound_to 7997
  139.6590  143.9946  152.2213 H   0  0  0  0  0  0  0  0  0  0  0  0  # atno 10167 bound_to 10162
  156.0102  130.4534  150.3587 H   0  0  0  0  0  0  0  0  0  0  0  0  # atno 10718 bound_to 10713
  154.1171  135.2835  155.3217 H   0  0  0  0  0  0  0  0  0  0  0  0  # atno 10763 bound_to 10752
  154.6449  135.5389  153.7836 H   0  0  0  0  0  0  0  0  0  0  0  0  # atno 10764 bound_to 10752
  153.0325  135.6495  154.1327 H   0  0  0  0  0  0  0  0  0  0  0  0  # atno 10765 bound_to 10752
  141.0704  133.6681  156.3450 H   0  0  0  0  0  0  0  0  0  0  0  0  # atno 11005 bound_to 11000
  145.6909  139.1639  143.2647 LP  0  0  0  0  0  0  0  0  0  0  0  0  # atno 17320 bound_to 7965
  146.1483  140.6961  142.9334 LP  0  0  0  0  0  0  0  0  0  0  0  0  # atno 17321 bound_to 7965
  139.9680  144.6513  150.8016 LP  0  0  0  0  0  0  0  0  0  0  0  0  # atno 17342 bound_to 10162
  140.7572  143.3081  151.2912 LP  0  0  0  0  0  0  0  0  0  0  0  0  # atno 17343 bound_to 10162
  157.1677  131.0361  151.2811 LP  0  0  0  0  0  0  0  0  0  0  0  0  # atno 17370 bound_to 10713
  157.4256  130.7462  149.6948 LP  0  0  0  0  0  0  0  0  0  0  0  0  # atno 17371 bound_to 10713
  140.5684  134.5864  157.5451 LP  0  0  0  0  0  0  0  0  0  0  0  0  # atno 17394 bound_to 11000
  139.9518  134.7603  156.0431 LP  0  0  0  0  0  0  0  0  0  0  0  0  # atno 17395 bound_to 11000

$$$$
