AV-unprocessed.smi:903|AV-procd|sdf|4096|dock10
  -GOLD-   22720 1583D 1   1.00000     0.00000
 Structure written by MMmdl.
 28 29  0  0  0  0  0  0  0  0  2 V2000
  153.6104  138.4749  155.9709 O   0  0  0  0  0  0  0  0  0  0  0  0
  152.4903  138.4608  155.4162 C   0  0  0  0  0  0  0  0  0  0  0  0
  152.1839  137.5554  154.6065 O   0  5  0  0  0  0  0  0  0  0  0  0
  151.4705  139.5412  155.7096 C   0  0  0  0  0  0  0  0  0  0  0  0
  151.8242  140.4135  156.6869 N   0  0  0  0  0  0  0  0  0  0  0  0
  150.9887  141.4207  157.0319 C   0  0  0  0  0  0  0  0  0  0  0  0
  151.3723  142.2953  158.0277 O   0  0  0  0  0  0  0  0  0  0  0  0
  152.6515  142.1180  158.6291 C   0  0  0  0  0  0  0  0  0  0  0  0
  152.4806  142.0804  160.1523 C   0  0  1  0  0  0  0  0  0  0  0  0
  153.7971  141.9318  160.9113 C   0  0  0  0  0  0  0  0  0  0  0  0
  153.4297  142.4893  162.2674 C   0  0  0  0  0  0  0  0  0  0  0  0
  152.5006  143.6425  161.8961 C   0  0  0  0  0  0  0  0  0  0  0  0
  151.9410  143.3110  160.6269 O   0  0  0  0  0  0  0  0  0  0  0  0
  149.7419  141.6086  156.4118 C   0  0  0  0  0  0  0  0  0  0  0  0
  149.3588  140.7153  155.3971 C   0  0  0  0  0  0  0  0  0  0  0  0
  150.2215  139.6633  155.0290 C   0  0  0  0  0  0  0  0  0  0  0  0
  149.6791  138.6036  153.7706 Cl  0  0  0  0  0  0  0  0  0  0  0  0
  153.0810  141.1736  158.2903 H   0  0  0  0  0  0  0  0  0  0  0  0
  153.3363  142.9196  158.3468 H   0  0  0  0  0  0  0  0  0  0  0  0
  151.8091  141.2701  160.4412 H   0  0  0  0  0  0  0  0  0  0  0  0
  154.1505  140.9013  160.9530 H   0  0  0  0  0  0  0  0  0  0  0  0
  154.5764  142.5436  160.4543 H   0  0  0  0  0  0  0  0  0  0  0  0
  152.8854  141.7394  162.8433 H   0  0  0  0  0  0  0  0  0  0  0  0
  154.2939  142.8076  162.8509 H   0  0  0  0  0  0  0  0  0  0  0  0
  151.7222  143.7992  162.6430 H   0  0  0  0  0  0  0  0  0  0  0  0
  153.0628  144.5711  161.7935 H   0  0  0  0  0  0  0  0  0  0  0  0
  149.0939  142.4206  156.7065 H   0  0  0  0  0  0  0  0  0  0  0  0
  148.4064  140.8375  154.9026 H   0  0  0  0  0  0  0  0  0  0  0  0
  1  2  2  0  0  0  0
  2  3  1  0  0  0  0
  2  4  1  0  0  0  0
  4 16  1  0  0  0  0
  4  5  2  0  0  0  0
  5  6  1  0  0  0  0
  6  7  1  0  0  0  0
  6 14  2  0  0  0  0
  7  8  1  0  0  0  0
  8  9  1  0  0  0  0
  8 18  1  0  0  0  0
  8 19  1  0  0  0  0
  9 13  1  0  0  0  0
  9 10  1  0  0  0  0
  9 20  1  0  0  0  0
 10 11  1  0  0  0  0
 10 21  1  0  0  0  0
 10 22  1  0  0  0  0
 11 12  1  0  0  0  0
 11 23  1  0  0  0  0
 11 24  1  0  0  0  0
 12 13  1  0  0  0  0
 12 25  1  0  0  0  0
 12 26  1  0  0  0  0
 14 15  1  0  0  0  0
 14 27  1  0  0  0  0
 15 16  2  0  0  0  0
 15 28  1  0  0  0  0
 16 17  1  0  0  0  0
M  CHG  1   3  -1
M  END
> <s_m_source_file>
AV-unprocessed.smi

> <i_m_source_file_index>
903

> <i_lp_mmshare_version>
43012

> <i_f3d_flags>
0

> <s_epik_input>
Tz1DKFtPSF0pYzFuYyhbY0hdW2NIXWMxQ2wpT1tDSDJdW0NAQEhdMltDSDJdW0NIMl1bQ0gyXU8y

> <s_epik_cmdline>
J2VwaWtfcHl0aG9uJywgJy1waCcsICc3LjAnLCAnLXRuJywgJzgnLCAnLW1hJywgJzIwMCcsICctbWV0YWxfYmluZGluZycsICctaW1hZScsICc8aW5maWxlLm1hZT4nLCAnLW9tYWUnLCAnPG91dGZpbGUubWFlPic=

> <r_lp_tautomer_probability>
1

> <r_epik_Ionization_Penalty>
1.22588e-05

> <r_epik_Ionization_Penalty_Charging>
1.01343e-05

> <r_epik_Ionization_Penalty_Neutral>
2.12445e-06

> <r_epik_State_Penalty>
-0

> <r_epik_Charging_Adjusted_Penalty>
1.01343e-05

> <i_epik_Tot_Q>
-1

> <i_epik_Tot_abs_Q>
1

> <r_epik_Metal_State_Penalty>
-0

> <b_epik_Metal_Only>
0

> <s_lp_Force_Field>
OPLS_2005

> <r_lp_Energy>
26.0246

> <b_lp_Chiralities_Consistent>
1

> <s_lp_Variant>
AV-unprocessed.smi:903-2

> <Gold.Version>
5.8.1

> <Gold.Id.Protein>
6NUR|6NUR_protein|mol2

> <Gold.PLP.Fitness>
43.8046

> <Gold.PLP.PLP>
-35.5437

> <Gold.PLP.part.hbond>
-2.0000

> <Gold.PLP.part.metal>
0.0000

> <Gold.PLP.part.buried>
-3.1791

> <Gold.PLP.part.nonpolar>
-29.9869

> <Gold.PLP.part.repulsive>
0.2141

> <Gold.PLP.ligand.clash>
0.0000

> <Gold.PLP.ligand.torsion>
0.3764

> <Gold.PLP.Chemscore.Hbond>
3.0016

> <Gold.PLP.Chemscore.CHOScore>
0.0000

> <Gold.PLP.Chemscore.Metal>
0.0000

> <Gold.Chemscore.Hbonds>
donor molecule, donor type, donor heavy atom, donor atom, acceptor molecule, acceptor atom, score
      P1  H  7997  8009       L1     1  1.47
      P1  H 10752 10765       L1     3  1.45

> <Gold.PLP.Chemscore.Internal.Correction>
0.0089

> <Gold.Rescore>
     Score         DG    S(hbond)    S(metal)    S(lipo)     H(rot)  DE(clash)    DE(int)     intcor
     14.46     -17.09       1.57        0.00      87.45       1.51       0.90       1.73       ----

> <Gold.Chemscore.Fitness>
14.4622

> <Gold.Chemscore.DG>
-17.0911

> <Gold.Chemscore.ZeroCoef>
-5.4800

> <Gold.Chemscore.Hbond>
1.5699

> <Gold.Chemscore.Metal>
0.0000

> <Gold.Chemscore.Lipo>
87.4500

> <Gold.Chemscore.Internal_Hbond>
0.0000

> <Gold.Chemscore.DEClash>
0.8960

> <Gold.Chemscore.DEInternal>
1.7328

> <Gold.Chemscore.Rot>
1.5094

> <Gold.Chemscore.Internal.Correction>
   9.000000E+99

> <Gold.Chemscore.Hbonds>
donor molecule, donor type, donor heavy atom, donor atom, acceptor molecule, acceptor atom, score
      P1  H  7997  8009       L1     1  0.71
      P1  H 10752 10765       L1     3  0.68

> <Gold.Chemscore.Hbond.Weighted>
-5.2435

> <Gold.Chemscore.Metal.Weighted>
-0.0000

> <Gold.Chemscore.Lipo.Weighted>
-10.2317

> <Gold.Chemscore.Internal_Hbond.Weighted>
0.0000

> <Gold.Chemscore.DEClash.Weighted>
0.8960

> <Gold.Chemscore.DEInternal.Weighted>
1.7328

> <Gold.Chemscore.Rot.Weighted>
3.8641

> <Gold.Chemscore.Internal.Correction.Weighted>
   9.000000E+99

> <Gold.Protein.RotatedTorsions>
[ 6907 6896 6895 6894 ] final  -21.92 input  -60.11 | X-H torsion
[ 7974 7965 7964 7962 ] final  120.64 input  175.53 | X-H torsion
[ 8008 7997 7996 7995 ] final -163.17 input   59.86 | X-H torsion
[ 10167 10162 10161 10158 ] final   79.36 input  -65.29 | X-H torsion
[ 10718 10713 10712 10709 ] final  121.17 input   66.30 | X-H torsion
[ 10763 10752 10751 10750 ] final  161.37 input  -60.55 | X-H torsion
[ 11005 11000 10999 10996 ] final  142.05 input  -57.11 | X-H torsion

> <Gold.Protein.ActiveResidues>
 VAL166  LYS551  ARG553  GLY616  TRP617  ASP618  TYR619  PRO620  LYS621  CYS622 
 ASP623  PHE694  ASN695  SER759  ASP760  ASP761  ALA762  ILE779  LEU786  VAL792 
 PHE793  MET794  SER795  GLU796  ALA797  LYS798  CYS799  TRP800  GLU811  SER814 

> <Gold.Protein.RotatedAtoms>
  151.2261  135.0537  159.8968 H   0  0  0  0  0  0  0  0  0  0  0  0  # atno 6907 bound_to 6896
  152.5410  134.0587  159.8152 H   0  0  0  0  0  0  0  0  0  0  0  0  # atno 6908 bound_to 6896
  151.0760  133.5379  159.2655 H   0  0  0  0  0  0  0  0  0  0  0  0  # atno 6909 bound_to 6896
  145.1287  139.3341  143.4676 H   0  0  0  0  0  0  0  0  0  0  0  0  # atno 7974 bound_to 7965
  155.8175  140.0914  157.1868 H   0  0  0  0  0  0  0  0  0  0  0  0  # atno 8008 bound_to 7997
  154.3979  140.1443  156.3520 H   0  0  0  0  0  0  0  0  0  0  0  0  # atno 8009 bound_to 7997
  155.8301  140.3443  155.5569 H   0  0  0  0  0  0  0  0  0  0  0  0  # atno 8010 bound_to 7997
  139.9612  144.5960  150.8070 H   0  0  0  0  0  0  0  0  0  0  0  0  # atno 10167 bound_to 10162
  157.5837  131.1072  150.8137 H   0  0  0  0  0  0  0  0  0  0  0  0  # atno 10718 bound_to 10713
  154.2619  135.2768  155.2774 H   0  0  0  0  0  0  0  0  0  0  0  0  # atno 10763 bound_to 10752
  154.5377  135.5711  153.6816 H   0  0  0  0  0  0  0  0  0  0  0  0  # atno 10764 bound_to 10752
  152.9961  135.6243  154.2769 H   0  0  0  0  0  0  0  0  0  0  0  0  # atno 10765 bound_to 10752
  140.0448  134.9286  157.0909 H   0  0  0  0  0  0  0  0  0  0  0  0  # atno 11005 bound_to 11000
  146.3515  140.1277  142.8598 LP  0  0  0  0  0  0  0  0  0  0  0  0  # atno 17320 bound_to 7965
  145.0659  140.9121  143.4911 LP  0  0  0  0  0  0  0  0  0  0  0  0  # atno 17321 bound_to 7965
  140.7552  143.3043  151.3002 LP  0  0  0  0  0  0  0  0  0  0  0  0  # atno 17342 bound_to 10162
  139.6553  144.0288  152.2655 LP  0  0  0  0  0  0  0  0  0  0  0  0  # atno 17343 bound_to 10162
  156.8577  130.5102  149.5306 LP  0  0  0  0  0  0  0  0  0  0  0  0  # atno 17370 bound_to 10713
  156.0884  130.5877  150.9690 LP  0  0  0  0  0  0  0  0  0  0  0  0  # atno 17371 bound_to 10713
  140.4012  134.2081  155.7163 LP  0  0  0  0  0  0  0  0  0  0  0  0  # atno 17394 bound_to 11000
  141.1901  133.8224  157.0931 LP  0  0  0  0  0  0  0  0  0  0  0  0  # atno 17395 bound_to 11000

$$$$
