AV-unprocessed.smi:99|AV-procd|sdf|888|dock7
  -GOLD-   2262017373D 1   1.00000     0.00000
 Structure written by MMmdl.
 52 55  0  0  0  0  0  0  0  0  2 V2000
  145.7890  133.7324  158.5709 O   0  0  0  0  0  0  0  0  0  0  0  0
  146.1849  134.8365  158.9498 C   0  0  0  0  0  0  0  0  0  0  0  0
  146.2469  135.9230  158.1540 O   0  0  0  0  0  0  0  0  0  0  0  0
  145.7247  135.8717  156.8351 C   0  0  0  0  0  0  0  0  0  0  0  0
  146.0424  137.1831  156.0897 C   0  0  1  0  0  0  0  0  0  0  0  0
  147.4240  137.4692  156.2726 O   0  0  0  0  0  0  0  0  0  0  0  0
  148.1278  137.0064  155.1629 C   0  0  2  0  0  0  0  0  0  0  0  0
  149.5460  137.5588  155.1816 N   0  0  0  0  0  0  0  0  0  0  0  0
  149.8019  138.9116  155.3550 C   0  0  0  0  0  0  0  0  0  0  0  0
  151.0568  139.4057  155.3298 C   0  0  0  0  0  0  0  0  0  0  0  0
  152.1769  138.5020  155.0922 C   0  0  0  0  0  0  0  0  0  0  0  0
  153.3215  138.9501  155.1203 O   0  0  0  0  0  0  0  0  0  0  0  0
  151.8982  137.1919  154.8383 N   0  5  0  0  0  0  0  0  0  0  0  0
  150.6268  136.6947  154.8411 C   0  0  0  0  0  0  0  0  0  0  0  0
  150.3712  135.5264  154.5484 O   0  0  0  0  0  0  0  0  0  0  0  0
  147.2310  137.4411  153.9904 C   0  0  2  0  0  0  0  0  0  0  0  0
  147.3262  138.8163  153.6629 O   0  0  0  0  0  0  0  0  0  0  0  0
  145.8391  137.1770  154.5546 C   0  0  1  0  0  0  0  0  0  0  0  0
  145.3663  135.9231  154.0662 O   0  0  0  0  0  0  0  0  0  0  0  0
  144.6631  135.8354  152.9135 C   0  0  0  0  0  0  0  0  0  0  0  0
  143.9457  136.7353  152.4729 O   0  0  0  0  0  0  0  0  0  0  0  0
  144.8089  134.5078  152.2506 C   0  0  0  0  0  0  0  0  0  0  0  0
  145.9515  133.7199  152.5233 C   0  0  0  0  0  0  0  0  0  0  0  0
  146.1381  132.4806  151.8813 C   0  0  0  0  0  0  0  0  0  0  0  0
  145.1832  132.0128  150.9600 C   0  0  0  0  0  0  0  0  0  0  0  0
  144.0397  132.7850  150.6836 C   0  0  0  0  0  0  0  0  0  0  0  0
  143.8510  134.0243  151.3252 C   0  0  0  0  0  0  0  0  0  0  0  0
  146.5987  135.1244  160.3529 C   0  0  0  0  0  0  0  0  0  0  0  0
  146.7351  134.0543  161.2676 C   0  0  0  0  0  0  0  0  0  0  0  0
  147.0870  134.2982  162.6091 C   0  0  0  0  0  0  0  0  0  0  0  0
  147.3091  135.6153  163.0516 C   0  0  0  0  0  0  0  0  0  0  0  0
  147.1807  136.6881  162.1504 C   0  0  0  0  0  0  0  0  0  0  0  0
  146.8286  136.4461  160.8085 C   0  0  0  0  0  0  0  0  0  0  0  0
  146.1691  135.0245  156.3120 H   0  0  0  0  0  0  0  0  0  0  0  0
  144.6456  135.7101  156.8516 H   0  0  0  0  0  0  0  0  0  0  0  0
  145.4706  137.9961  156.5382 H   0  0  0  0  0  0  0  0  0  0  0  0
  148.2528  135.9228  155.2136 H   0  0  0  0  0  0  0  0  0  0  0  0
  148.9922  139.6107  155.4921 H   0  0  0  0  0  0  0  0  0  0  0  0
  151.2300  140.4636  155.4626 H   0  0  0  0  0  0  0  0  0  0  0  0
  147.4529  136.8455  153.1036 H   0  0  0  0  0  0  0  0  0  0  0  0
  146.5239  139.0751  153.2355 H   0  0  0  0  0  0  0  0  0  0  0  0
  145.1673  137.9886  154.2712 H   0  0  0  0  0  0  0  0  0  0  0  0
  146.7041  134.0630  153.2183 H   0  0  0  0  0  0  0  0  0  0  0  0
  147.0177  131.8907  152.0932 H   0  0  0  0  0  0  0  0  0  0  0  0
  145.3283  131.0639  150.4650 H   0  0  0  0  0  0  0  0  0  0  0  0
  143.3072  132.4285  149.9745 H   0  0  0  0  0  0  0  0  0  0  0  0
  142.9673  134.5961  151.0826 H   0  0  0  0  0  0  0  0  0  0  0  0
  146.5597  133.0357  160.9530 H   0  0  0  0  0  0  0  0  0  0  0  0
  147.1829  133.4737  163.2999 H   0  0  0  0  0  0  0  0  0  0  0  0
  147.5767  135.8024  164.0811 H   0  0  0  0  0  0  0  0  0  0  0  0
  147.3490  137.6996  162.4891 H   0  0  0  0  0  0  0  0  0  0  0  0
  146.7300  137.2926  160.1450 H   0  0  0  0  0  0  0  0  0  0  0  0
  1  2  2  0  0  0  0
  2  3  1  0  0  0  0
  2 28  1  0  0  0  0
  3  4  1  0  0  0  0
  4  5  1  0  0  0  0
  4 34  1  0  0  0  0
  4 35  1  0  0  0  0
  5 18  1  0  0  0  0
  5  6  1  0  0  0  0
  5 36  1  0  0  0  0
  6  7  1  0  0  0  0
  7  8  1  0  0  0  0
  7 16  1  0  0  0  0
  7 37  1  0  0  0  0
  8 14  1  0  0  0  0
  8  9  1  0  0  0  0
  9 10  2  0  0  0  0
  9 38  1  0  0  0  0
 10 11  1  0  0  0  0
 10 39  1  0  0  0  0
 11 12  2  0  0  0  0
 11 13  1  0  0  0  0
 13 14  1  0  0  0  0
 14 15  2  0  0  0  0
 16 17  1  0  0  0  0
 16 18  1  0  0  0  0
 16 40  1  0  0  0  0
 17 41  1  0  0  0  0
 18 19  1  0  0  0  0
 18 42  1  0  0  0  0
 19 20  1  0  0  0  0
 20 21  2  0  0  0  0
 20 22  1  0  0  0  0
 22 27  1  0  0  0  0
 22 23  2  0  0  0  0
 23 24  1  0  0  0  0
 23 43  1  0  0  0  0
 24 25  2  0  0  0  0
 24 44  1  0  0  0  0
 25 26  1  0  0  0  0
 25 45  1  0  0  0  0
 26 27  2  0  0  0  0
 26 46  1  0  0  0  0
 27 47  1  0  0  0  0
 28 33  1  0  0  0  0
 28 29  2  0  0  0  0
 29 30  1  0  0  0  0
 29 48  1  0  0  0  0
 30 31  2  0  0  0  0
 30 49  1  0  0  0  0
 31 32  1  0  0  0  0
 31 50  1  0  0  0  0
 32 33  2  0  0  0  0
 32 51  1  0  0  0  0
 33 52  1  0  0  0  0
M  CHG  1  13  -1
M  END
> <s_m_source_file>
AV-unprocessed.smi

> <i_m_source_file_index>
99

> <i_lp_mmshare_version>
43012

> <i_f3d_flags>
0

> <s_epik_input>
W2NIXTFbY0hdW2NIXVtjSF1bY0hdYzFDKD1PKU9bQ0gyXVtDQEBIXTJPW0NAQEhdKG4zW2NIXVtjSF1jKD1PKVtuSF1jMz1PKVtDQEBIXShbT0hdKVtDQEhdMk9DKD1PKWM0W2NIXVtjSF1bY0hdW2NIXVtjSF00

> <s_epik_cmdline>
J2VwaWtfcHl0aG9uJywgJy1waCcsICc3LjAnLCAnLXRuJywgJzgnLCAnLW1hJywgJzIwMCcsICctbWV0YWxfYmluZGluZycsICctaW1hZScsICc8aW5maWxlLm1hZT4nLCAnLW9tYWUnLCAnPG91dGZpbGUubWFlPic=

> <r_lp_tautomer_probability>
1

> <r_epik_Ionization_Penalty>
2.89159

> <r_epik_Ionization_Penalty_Charging>
2.1077e-08

> <r_epik_Ionization_Penalty_Neutral>
2.89159

> <r_epik_State_Penalty>
2.88671

> <r_epik_Charging_Adjusted_Penalty>
2.88671

> <i_epik_Tot_Q>
-1

> <i_epik_Tot_abs_Q>
1

> <r_epik_Metal_State_Penalty>
0.0727308

> <b_epik_Metal_Only>
1

> <s_epik_Chemistry_Notes>
This compound has an ester and may undergo hydrolysis at high or low pH. This compound contains an acetal/aminal-like group ( X-CH(R)-Y where X, Y are N, S, or O) that may be acid/base labile, releasing an aldehyde.

> <s_lp_Force_Field>
OPLS_2005

> <r_lp_Energy>
52.0393

> <b_lp_Chiralities_Consistent>
1

> <s_lp_Variant>
AV-unprocessed.smi:99-24

> <Gold.Version>
5.8.1

> <Gold.Id.Protein>
6NUR|6NUR_protein|mol2

> <Gold.PLP.Fitness>
49.0027

> <Gold.PLP.PLP>
-42.4288

> <Gold.PLP.part.hbond>
-2.0000

> <Gold.PLP.part.metal>
0.0000

> <Gold.PLP.part.buried>
-6.1735

> <Gold.PLP.part.nonpolar>
-36.1098

> <Gold.PLP.part.repulsive>
2.1097

> <Gold.PLP.ligand.clash>
0.0000

> <Gold.PLP.ligand.torsion>
1.3505

> <Gold.PLP.Chemscore.Hbond>
2.9520

> <Gold.PLP.Chemscore.CHOScore>
0.0000

> <Gold.PLP.Chemscore.Metal>
0.0000

> <Gold.Chemscore.Hbonds>
donor molecule, donor type, donor heavy atom, donor atom, acceptor molecule, acceptor atom, score
      P1  H  7997  8009       L1    12  1.00
      P1  H 10752 10763       L1    13  1.89

> <Gold.PLP.Chemscore.Internal.Correction>
0.4189

> <Gold.Rescore>
     Score         DG    S(hbond)    S(metal)    S(lipo)     H(rot)  DE(clash)    DE(int)     intcor
     11.25     -13.68       1.59        0.00      93.41       3.13       0.05       2.38       ----

> <Gold.Chemscore.Fitness>
11.2540

> <Gold.Chemscore.DG>
-13.6830

> <Gold.Chemscore.ZeroCoef>
-5.4800

> <Gold.Chemscore.Hbond>
1.5866

> <Gold.Chemscore.Metal>
0.0000

> <Gold.Chemscore.Lipo>
93.4054

> <Gold.Chemscore.Internal_Hbond>
0.0000

> <Gold.Chemscore.DEClash>
0.0456

> <Gold.Chemscore.DEInternal>
2.3834

> <Gold.Chemscore.Rot>
3.1346

> <Gold.Chemscore.Internal.Correction>
   9.000000E+99

> <Gold.Chemscore.Hbonds>
donor molecule, donor type, donor heavy atom, donor atom, acceptor molecule, acceptor atom, score
      P1  H  7997  8009       L1    12  0.99
      P1  H 10752 10763       L1    13  0.36

> <Gold.Chemscore.Hbond.Weighted>
-5.2992

> <Gold.Chemscore.Metal.Weighted>
-0.0000

> <Gold.Chemscore.Lipo.Weighted>
-10.9284

> <Gold.Chemscore.Internal_Hbond.Weighted>
0.0000

> <Gold.Chemscore.DEClash.Weighted>
0.0456

> <Gold.Chemscore.DEInternal.Weighted>
2.3834

> <Gold.Chemscore.Rot.Weighted>
8.0246

> <Gold.Chemscore.Internal.Correction.Weighted>
   9.000000E+99

> <Gold.Protein.RotatedTorsions>
[ 6907 6896 6895 6894 ] final  149.41 input  -60.11 | X-H torsion
[ 7974 7965 7964 7962 ] final   16.88 input  175.53 | X-H torsion
[ 8008 7997 7996 7995 ] final -141.23 input   59.86 | X-H torsion
[ 10167 10162 10161 10158 ] final   20.84 input  -65.29 | X-H torsion
[ 10718 10713 10712 10709 ] final   29.28 input   66.30 | X-H torsion
[ 10763 10752 10751 10750 ] final   46.60 input  -60.55 | X-H torsion
[ 11005 11000 10999 10996 ] final  159.61 input  -57.11 | X-H torsion

> <Gold.Protein.ActiveResidues>
 VAL166  LYS551  ARG553  GLY616  TRP617  ASP618  TYR619  PRO620  LYS621  CYS622 
 ASP623  PHE694  ASN695  SER759  ASP760  ASP761  ALA762  ILE779  LEU786  VAL792 
 PHE793  MET794  SER795  GLU796  ALA797  LYS798  CYS799  TRP800  GLU811  SER814 

> <Gold.Protein.RotatedAtoms>
  152.1283  133.4393  159.4708 H   0  0  0  0  0  0  0  0  0  0  0  0  # atno 6907 bound_to 6896
  150.6876  134.2451  159.4497 H   0  0  0  0  0  0  0  0  0  0  0  0  # atno 6908 bound_to 6896
  152.0333  134.9754  160.0623 H   0  0  0  0  0  0  0  0  0  0  0  0  # atno 6909 bound_to 6896
  146.2236  139.8683  142.8592 H   0  0  0  0  0  0  0  0  0  0  0  0  # atno 7974 bound_to 7965
  155.4744  140.0555  157.2975 H   0  0  0  0  0  0  0  0  0  0  0  0  # atno 8008 bound_to 7997
  154.4685  140.2029  156.0008 H   0  0  0  0  0  0  0  0  0  0  0  0  # atno 8009 bound_to 7997
  156.1016  140.3218  155.7954 H   0  0  0  0  0  0  0  0  0  0  0  0  # atno 8010 bound_to 7997
  140.5473  143.9572  150.6555 H   0  0  0  0  0  0  0  0  0  0  0  0  # atno 10167 bound_to 10162
  157.2445  130.7085  149.6375 H   0  0  0  0  0  0  0  0  0  0  0  0  # atno 10718 bound_to 10713
  152.9809  135.6003  154.3626 H   0  0  0  0  0  0  0  0  0  0  0  0  # atno 10763 bound_to 10752
  154.3307  135.2768  155.2475 H   0  0  0  0  0  0  0  0  0  0  0  0  # atno 10764 bound_to 10752
  154.4601  135.5968  153.6305 H   0  0  0  0  0  0  0  0  0  0  0  0  # atno 10765 bound_to 10752
  140.1979  134.8360  157.2985 H   0  0  0  0  0  0  0  0  0  0  0  0  # atno 11005 bound_to 11000
  145.2634  141.0084  143.3813 LP  0  0  0  0  0  0  0  0  0  0  0  0  # atno 17320 bound_to 7965
  144.9281  139.4331  143.6508 LP  0  0  0  0  0  0  0  0  0  0  0  0  # atno 17321 bound_to 7965
  140.2988  143.3274  152.0991 LP  0  0  0  0  0  0  0  0  0  0  0  0  # atno 17342 bound_to 10162
  139.5012  144.6709  151.6244 LP  0  0  0  0  0  0  0  0  0  0  0  0  # atno 17343 bound_to 10162
  155.9668  130.4447  150.5473 LP  0  0  0  0  0  0  0  0  0  0  0  0  # atno 17370 bound_to 10713
  157.3343  131.0705  151.1837 LP  0  0  0  0  0  0  0  0  0  0  0  0  # atno 17371 bound_to 10713
  140.2087  134.4165  155.7624 LP  0  0  0  0  0  0  0  0  0  0  0  0  # atno 17394 bound_to 11000
  141.2227  133.7107  156.8303 LP  0  0  0  0  0  0  0  0  0  0  0  0  # atno 17395 bound_to 11000

$$$$
