AV-unprocessed.smi:2298|AV-procd|sdf|9225|dock6
  -GOLD-   2272012443D 1   1.00000     0.00000
 Structure written by MMmdl.
 37 38  0  0  0  0  0  0  0  0  1 V2000
  146.0313  130.1945  151.7110 C   0  0  0  0  0  0  0  0  0  0  0  0
  145.4577  131.5667  151.4106 C   0  0  0  0  0  0  0  0  0  0  0  0
  144.2690  131.5753  150.7692 N   0  0  0  0  0  0  0  0  0  0  0  0
  143.7181  132.7695  150.4711 C   0  0  0  0  0  0  0  0  0  0  0  0
  144.3149  134.0019  150.7983 C   0  0  0  0  0  0  0  0  0  0  0  0
  145.5541  133.9981  151.4838 C   0  0  0  0  0  0  0  0  0  0  0  0
  146.2575  135.1797  151.8534 N   0  0  0  0  0  0  0  0  0  0  0  0
  145.7788  136.3428  152.3277 C   0  0  0  0  0  0  0  0  0  0  0  0
  144.5920  136.6028  152.5233 O   0  0  0  0  0  0  0  0  0  0  0  0
  146.7748  137.2039  152.5819 N   0  0  0  0  0  0  0  0  0  0  0  0
  146.6106  138.5534  153.1143 C   0  0  1  0  0  0  0  0  0  0  0  0
  147.4732  138.7169  154.3788 C   0  0  0  0  0  0  0  0  0  0  0  0
  147.3761  140.1428  154.9492 C   0  0  0  0  0  0  0  0  0  0  0  0
  147.7213  141.2160  153.8998 C   0  0  1  0  0  0  0  0  0  0  0  0
  149.1032  141.1758  153.6026 O   0  0  0  0  0  0  0  0  0  0  0  0
  146.8965  141.0339  152.6115 C   0  0  0  0  0  0  0  0  0  0  0  0
  146.9936  139.6035  152.0524 C   0  0  0  0  0  0  0  0  0  0  0  0
  146.1423  132.7466  151.7855 C   0  0  0  0  0  0  0  0  0  0  0  0
  147.6680  132.6584  152.6015 Cl  0  0  0  0  0  0  0  0  0  0  0  0
  145.5666  138.7025  153.3973 H   0  0  0  0  0  0  0  0  0  0  0  0
  147.5158  142.2019  154.3182 H   0  0  0  0  0  0  0  0  0  0  0  0
  146.1972  130.0789  152.7825 H   0  0  0  0  0  0  0  0  0  0  0  0
  146.9841  130.0617  151.1977 H   0  0  0  0  0  0  0  0  0  0  0  0
  145.3590  129.3985  151.3873 H   0  0  0  0  0  0  0  0  0  0  0  0
  142.7731  132.7429  149.9492 H   0  0  0  0  0  0  0  0  0  0  0  0
  143.8167  134.9129  150.5071 H   0  0  0  0  0  0  0  0  0  0  0  0
  147.2634  135.1056  151.8104 H   0  0  0  0  0  0  0  0  0  0  0  0
  147.7204  136.9046  152.3945 H   0  0  0  0  0  0  0  0  0  0  0  0
  147.1615  137.9989  155.1382 H   0  0  0  0  0  0  0  0  0  0  0  0
  148.5148  138.4875  154.1491 H   0  0  0  0  0  0  0  0  0  0  0  0
  146.3594  140.3104  155.3069 H   0  0  0  0  0  0  0  0  0  0  0  0
  148.0242  140.2430  155.8207 H   0  0  0  0  0  0  0  0  0  0  0  0
  149.2083  140.9533  152.6902 H   0  0  0  0  0  0  0  0  0  0  0  0
  145.8505  141.2566  152.8262 H   0  0  0  0  0  0  0  0  0  0  0  0
  147.2100  141.7545  151.8552 H   0  0  0  0  0  0  0  0  0  0  0  0
  148.0091  139.4191  151.6992 H   0  0  0  0  0  0  0  0  0  0  0  0
  146.3447  139.5102  151.1809 H   0  0  0  0  0  0  0  0  0  0  0  0
  1  2  1  0  0  0  0
  1 22  1  0  0  0  0
  1 23  1  0  0  0  0
  1 24  1  0  0  0  0
  2 18  1  0  0  0  0
  2  3  2  0  0  0  0
  3  4  1  0  0  0  0
  4  5  2  0  0  0  0
  4 25  1  0  0  0  0
  5  6  1  0  0  0  0
  5 26  1  0  0  0  0
  6  7  1  0  0  0  0
  6 18  2  0  0  0  0
  7  8  1  0  0  0  0
  7 27  1  0  0  0  0
  8  9  2  0  0  0  0
  8 10  1  0  0  0  0
 10 11  1  0  0  0  0
 10 28  1  0  0  0  0
 11 20  1  0  0  0  0
 11 17  1  0  0  0  0
 11 12  1  0  0  0  0
 12 13  1  0  0  0  0
 12 29  1  0  0  0  0
 12 30  1  0  0  0  0
 13 14  1  0  0  0  0
 13 31  1  0  0  0  0
 13 32  1  0  0  0  0
 14 21  1  0  0  0  0
 14 15  1  0  0  0  0
 14 16  1  0  0  0  0
 15 33  1  0  0  0  0
 16 17  1  0  0  0  0
 16 34  1  0  0  0  0
 16 35  1  0  0  0  0
 17 36  1  0  0  0  0
 17 37  1  0  0  0  0
 18 19  1  0  0  0  0
M  END
> <s_m_source_file>
AV-unprocessed.smi

> <i_m_source_file_index>
2298

> <i_lp_mmshare_version>
43012

> <i_f3d_flags>
0

> <s_epik_input>
W0NIM11jMW5bY0hdW2NIXWMoYzFDbClbTkhdQyg9TylbTkhdW0NASF0yW0NIMl1bQ0gyXVtDQEhdKFtPSF0pW0NIMl1bQ0gyXTI=

> <s_epik_cmdline>
J2VwaWtfcHl0aG9uJywgJy1waCcsICc3LjAnLCAnLXRuJywgJzgnLCAnLW1hJywgJzIwMCcsICctbWV0YWxfYmluZGluZycsICctaW1hZScsICc8aW5maWxlLm1hZT4nLCAnLW9tYWUnLCAnPG91dGZpbGUubWFlPic=

> <r_epik_Ionization_Penalty>
0.00999805

> <r_epik_Ionization_Penalty_Charging>
0

> <r_epik_Ionization_Penalty_Neutral>
0.00999805

> <r_epik_State_Penalty>
0.00759022

> <r_epik_Charging_Adjusted_Penalty>
0.00759022

> <i_epik_Tot_Q>
0

> <i_epik_Tot_abs_Q>
0

> <r_epik_Metal_State_Penalty>
0.00746447

> <b_epik_Metal_Only>
0

> <s_lp_Force_Field>
OPLS_2005

> <r_lp_Energy>
16.8241

> <b_lp_Chiralities_Consistent>
1

> <s_lp_Variant>
AV-unprocessed.smi:2298-2

> <Gold.Version>
5.8.1

> <Gold.Id.Protein>
6NUR|6NUR_protein|mol2

> <Gold.PLP.Fitness>
43.2371

> <Gold.PLP.PLP>
-32.2235

> <Gold.PLP.part.hbond>
-4.7773

> <Gold.PLP.part.metal>
0.0000

> <Gold.PLP.part.buried>
-2.8250

> <Gold.PLP.part.nonpolar>
-26.4015

> <Gold.PLP.part.repulsive>
0.4121

> <Gold.PLP.ligand.clash>
0.0000

> <Gold.PLP.ligand.torsion>
0.3387

> <Gold.PLP.Chemscore.Hbond>
2.8960

> <Gold.PLP.Chemscore.CHOScore>
1.0000

> <Gold.PLP.Chemscore.Metal>
0.0000

> <Gold.Chemscore.Hbonds>
donor molecule, donor type, donor heavy atom, donor atom, acceptor molecule, acceptor atom, score
      L1  H     7    27       P1  7948  0.86
      L1  H    10    28       P1  7948  0.91
      L1  H    15    33       P1  7957  1.00
      L1  C     4    25       P1 10186  1.00

> <Gold.PLP.Chemscore.Internal.Correction>
0.0031

> <Gold.Rescore>
     Score         DG    S(hbond)    S(metal)    S(lipo)     H(rot)  DE(clash)    DE(int)     intcor
     19.82     -21.64       2.82        0.00      88.77       1.42       1.48       0.34       ----

> <Gold.Chemscore.Fitness>
19.8246

> <Gold.Chemscore.DG>
-21.6447

> <Gold.Chemscore.ZeroCoef>
-5.4800

> <Gold.Chemscore.Hbond>
2.8183

> <Gold.Chemscore.Metal>
0.0000

> <Gold.Chemscore.Lipo>
88.7723

> <Gold.Chemscore.Internal_Hbond>
0.0000

> <Gold.Chemscore.DEClash>
1.4788

> <Gold.Chemscore.DEInternal>
0.3413

> <Gold.Chemscore.Rot>
1.4199

> <Gold.Chemscore.Internal.Correction>
   9.000000E+99

> <Gold.Chemscore.Hbonds>
donor molecule, donor type, donor heavy atom, donor atom, acceptor molecule, acceptor atom, score
      L1  H     7    27       P1  7948  0.78
      L1  H    10    28       P1  7948  0.87
      L1  H    15    33       P1  7957  1.00

> <Gold.Chemscore.Hbond.Weighted>
-9.4133

> <Gold.Chemscore.Metal.Weighted>
-0.0000

> <Gold.Chemscore.Lipo.Weighted>
-10.3864

> <Gold.Chemscore.Internal_Hbond.Weighted>
0.0000

> <Gold.Chemscore.DEClash.Weighted>
1.4788

> <Gold.Chemscore.DEInternal.Weighted>
0.3413

> <Gold.Chemscore.Rot.Weighted>
3.6349

> <Gold.Chemscore.Internal.Correction.Weighted>
   9.000000E+99

> <Gold.Protein.RotatedTorsions>
[ 6907 6896 6895 6894 ] final -167.39 input  -60.11 | X-H torsion
[ 7974 7965 7964 7962 ] final -166.00 input  175.53 | X-H torsion
[ 8008 7997 7996 7995 ] final   18.69 input   59.86 | X-H torsion
[ 10167 10162 10161 10158 ] final   90.28 input  -65.29 | X-H torsion
[ 10718 10713 10712 10709 ] final -104.01 input   66.30 | X-H torsion
[ 10763 10752 10751 10750 ] final   33.16 input  -60.55 | X-H torsion
[ 11005 11000 10999 10996 ] final   -3.34 input  -57.11 | X-H torsion

> <Gold.Protein.ActiveResidues>
 VAL166  LYS551  ARG553  GLY616  TRP617  ASP618  TYR619  PRO620  LYS621  CYS622 
 ASP623  PHE694  ASN695  SER759  ASP760  ASP761  ALA762  ILE779  LEU786  VAL792 
 PHE793  MET794  SER795  GLU796  ALA797  LYS798  CYS799  TRP800  GLU811  SER814 

> <Gold.Protein.RotatedAtoms>
  151.4588  133.3598  159.2805 H   0  0  0  0  0  0  0  0  0  0  0  0  # atno 6907 bound_to 6896
  150.9040  134.8455  159.7390 H   0  0  0  0  0  0  0  0  0  0  0  0  # atno 6908 bound_to 6896
  152.4895  134.4511  159.9627 H   0  0  0  0  0  0  0  0  0  0  0  0  # atno 6909 bound_to 6896
  144.7256  140.2731  143.6247 H   0  0  0  0  0  0  0  0  0  0  0  0  # atno 7974 bound_to 7965
  154.9097  140.3012  155.5273 H   0  0  0  0  0  0  0  0  0  0  0  0  # atno 8008 bound_to 7997
  156.3015  140.2391  156.4071 H   0  0  0  0  0  0  0  0  0  0  0  0  # atno 8009 bound_to 7997
  154.8437  140.0412  157.1547 H   0  0  0  0  0  0  0  0  0  0  0  0  # atno 8010 bound_to 7997
  139.8489  144.6603  150.9193 H   0  0  0  0  0  0  0  0  0  0  0  0  # atno 10167 bound_to 10162
  156.0287  130.5494  150.7335 H   0  0  0  0  0  0  0  0  0  0  0  0  # atno 10718 bound_to 10713
  153.0226  135.6394  154.1467 H   0  0  0  0  0  0  0  0  0  0  0  0  # atno 10763 bound_to 10752
  154.1200  135.2847  155.3212 H   0  0  0  0  0  0  0  0  0  0  0  0  # atno 10764 bound_to 10752
  154.6270  135.5505  153.7700 H   0  0  0  0  0  0  0  0  0  0  0  0  # atno 10765 bound_to 10752
  140.6682  133.9260  155.8478 H   0  0  0  0  0  0  0  0  0  0  0  0  # atno 11005 bound_to 11000
  145.8023  139.1969  143.2041 LP  0  0  0  0  0  0  0  0  0  0  0  0  # atno 17320 bound_to 7965
  146.0666  140.7914  142.9708 LP  0  0  0  0  0  0  0  0  0  0  0  0  # atno 17321 bound_to 7965
  140.7790  143.3845  151.1418 LP  0  0  0  0  0  0  0  0  0  0  0  0  # atno 17342 bound_to 10162
  139.7485  143.8815  152.3070 LP  0  0  0  0  0  0  0  0  0  0  0  0  # atno 17343 bound_to 10162
  157.4921  131.0912  151.0414 LP  0  0  0  0  0  0  0  0  0  0  0  0  # atno 17370 bound_to 10713
  157.0818  130.5906  149.5422 LP  0  0  0  0  0  0  0  0  0  0  0  0  # atno 17371 bound_to 10713
  141.0412  134.0618  157.3899 LP  0  0  0  0  0  0  0  0  0  0  0  0  # atno 17394 bound_to 11000
  139.8990  135.0157  156.7175 LP  0  0  0  0  0  0  0  0  0  0  0  0  # atno 17395 bound_to 11000

$$$$
