AV-unprocessed.smi:509|AV-procd|sdf|2760|dock4
  -GOLD-   2262023223D 1   1.00000     0.00000
 Structure written by MMmdl.
 46 48  0  0  0  0  0  0  0  0  2 V2000
  150.7972  136.2389  155.6904 C   0  0  0  0  0  0  0  0  0  0  0  0
  152.0120  136.5838  156.3313 O   0  0  0  0  0  0  0  0  0  0  0  0
  151.8983  137.7603  157.1152 C   0  0  0  0  0  0  0  0  0  0  0  0
  152.0941  138.9922  156.2213 C   0  0  0  0  0  0  0  0  0  0  0  0
  151.5134  140.1955  156.8161 N   0  0  0  0  0  0  0  0  0  0  0  0
  150.4777  140.9612  156.3713 C   0  0  0  0  0  0  0  0  0  0  0  0
  149.7556  140.6608  155.2142 N   0  0  0  0  0  0  0  0  0  0  0  0
  148.9662  141.5947  154.4120 C   0  0  0  0  0  0  0  0  0  0  0  0
  147.5715  141.0254  154.0929 C   0  0  0  0  0  0  0  0  0  0  0  0
  147.6928  139.7221  153.4073 N   0  3  0  0  0  0  0  0  0  0  0  0
  148.5540  138.7718  154.1411 C   0  0  0  0  0  0  0  0  0  0  0  0
  149.9150  139.4118  154.4715 C   0  0  0  0  0  0  0  0  0  0  0  0
  150.2434  142.0524  157.1042 N   0  0  0  0  0  0  0  0  0  0  0  0
  151.1887  141.9651  158.1136 C   0  0  0  0  0  0  0  0  0  0  0  0
  151.9647  140.8679  157.9560 C   0  0  0  0  0  0  0  0  0  0  0  0
  153.0804  140.5533  158.8582 C   0  0  0  0  0  0  0  0  0  0  0  0
  153.7978  139.5685  158.6770 O   0  0  0  0  0  0  0  0  0  0  0  0
  153.2429  141.4479  159.8824 N   0  0  0  0  0  0  0  0  0  0  0  0
  154.3477  141.1705  160.8200 C   0  0  0  0  0  0  0  0  0  0  0  0
  152.4805  142.5878  160.0733 C   0  0  0  0  0  0  0  0  0  0  0  0
  152.7133  143.3726  160.9965 O   0  0  0  0  0  0  0  0  0  0  0  0
  151.4513  142.8375  159.2009 N   0  0  0  0  0  0  0  0  0  0  0  0
  150.6168  144.0301  159.3743 C   0  0  0  0  0  0  0  0  0  0  0  0
  150.9398  135.3354  155.0977 H   0  0  0  0  0  0  0  0  0  0  0  0
  150.4652  137.0327  155.0202 H   0  0  0  0  0  0  0  0  0  0  0  0
  150.0096  136.0425  156.4192 H   0  0  0  0  0  0  0  0  0  0  0  0
  150.9154  137.7992  157.5865 H   0  0  0  0  0  0  0  0  0  0  0  0
  152.6425  137.7528  157.9131 H   0  0  0  0  0  0  0  0  0  0  0  0
  153.1519  139.1318  156.0278 H   0  0  0  0  0  0  0  0  0  0  0  0
  151.6520  138.8277  155.2398 H   0  0  0  0  0  0  0  0  0  0  0  0
  148.8897  142.5613  154.9083 H   0  0  0  0  0  0  0  0  0  0  0  0
  149.5024  141.7897  153.4822 H   0  0  0  0  0  0  0  0  0  0  0  0
  146.9942  140.8923  155.0087 H   0  0  0  0  0  0  0  0  0  0  0  0
  147.0128  141.7141  153.4590 H   0  0  0  0  0  0  0  0  0  0  0  0
  146.7750  139.3192  153.2844 H   0  0  0  0  0  0  0  0  0  0  0  0
  148.0479  138.4700  155.0586 H   0  0  0  0  0  0  0  0  0  0  0  0
  148.6902  137.8716  153.5416 H   0  0  0  0  0  0  0  0  0  0  0  0
  150.4750  139.6075  153.5560 H   0  0  0  0  0  0  0  0  0  0  0  0
  150.5120  138.7107  155.0562 H   0  0  0  0  0  0  0  0  0  0  0  0
  154.2788  141.7064  161.7673 H   0  0  0  0  0  0  0  0  0  0  0  0
  155.3007  141.4385  160.3618 H   0  0  0  0  0  0  0  0  0  0  0  0
  154.3915  140.1137  161.0894 H   0  0  0  0  0  0  0  0  0  0  0  0
  150.1991  144.0678  160.3815 H   0  0  0  0  0  0  0  0  0  0  0  0
  149.7773  144.0624  158.6800 H   0  0  0  0  0  0  0  0  0  0  0  0
  151.2079  144.9331  159.2164 H   0  0  0  0  0  0  0  0  0  0  0  0
  148.1053  139.8815  152.4993 H   0  0  0  0  0  0  0  0  0  0  0  0
  1  2  1  0  0  0  0
  1 24  1  0  0  0  0
  1 25  1  0  0  0  0
  1 26  1  0  0  0  0
  2  3  1  0  0  0  0
  3  4  1  0  0  0  0
  3 27  1  0  0  0  0
  3 28  1  0  0  0  0
  4  5  1  0  0  0  0
  4 29  1  0  0  0  0
  4 30  1  0  0  0  0
  5 15  1  0  0  0  0
  5  6  1  0  0  0  0
  6  7  1  0  0  0  0
  6 13  2  0  0  0  0
  7 12  1  0  0  0  0
  7  8  1  0  0  0  0
  8  9  1  0  0  0  0
  8 31  1  0  0  0  0
  8 32  1  0  0  0  0
  9 10  1  0  0  0  0
  9 33  1  0  0  0  0
  9 34  1  0  0  0  0
 10 11  1  0  0  0  0
 10 35  1  0  0  0  0
 10 46  1  0  0  0  0
 11 12  1  0  0  0  0
 11 36  1  0  0  0  0
 11 37  1  0  0  0  0
 12 38  1  0  0  0  0
 12 39  1  0  0  0  0
 13 14  1  0  0  0  0
 14 22  1  0  0  0  0
 14 15  2  0  0  0  0
 15 16  1  0  0  0  0
 16 17  2  0  0  0  0
 16 18  1  0  0  0  0
 18 19  1  0  0  0  0
 18 20  1  0  0  0  0
 19 40  1  0  0  0  0
 19 41  1  0  0  0  0
 19 42  1  0  0  0  0
 20 21  2  0  0  0  0
 20 22  1  0  0  0  0
 22 23  1  0  0  0  0
 23 43  1  0  0  0  0
 23 44  1  0  0  0  0
 23 45  1  0  0  0  0
M  CHG  1  10   1
M  END
> <s_m_source_file>
AV-unprocessed.smi

> <i_m_source_file_index>
509

> <i_lp_mmshare_version>
43012

> <i_f3d_flags>
0

> <s_epik_input>
W0NIM11uMWMoPU8pbihbQ0gzXSljKD1PKWMoYzEyKW4oW0NIMl1bQ0gyXU9bQ0gzXSljKG4yKU4zW0NIMl1bQ0gyXVtOSF1bQ0gyXVtDSDJdMw==

> <s_epik_cmdline>
J2VwaWtfcHl0aG9uJywgJy1waCcsICc3LjAnLCAnLXRuJywgJzgnLCAnLW1hJywgJzIwMCcsICctbWV0YWxfYmluZGluZycsICctaW1hZScsICc8aW5maWxlLm1hZT4nLCAnLW9tYWUnLCAnPG91dGZpbGUubWFlPic=

> <r_epik_Ionization_Penalty>
0.00857468

> <r_epik_Ionization_Penalty_Charging>
0.00857162

> <r_epik_Ionization_Penalty_Neutral>
3.06002e-06

> <r_epik_State_Penalty>
0.00646614

> <r_epik_Charging_Adjusted_Penalty>
0.0150378

> <i_epik_Tot_Q>
1

> <i_epik_Tot_abs_Q>
1

> <r_epik_Metal_State_Penalty>
0.00646904

> <b_epik_Metal_Only>
0

> <s_lp_Force_Field>
OPLS_2005

> <r_lp_Energy>
52.9694

> <b_lp_Chiralities_Consistent>
1

> <s_lp_Variant>
AV-unprocessed.smi:509-1

> <Gold.Version>
5.8.1

> <Gold.Id.Protein>
6NUR|6NUR_protein|mol2

> <Gold.PLP.Fitness>
46.6450

> <Gold.PLP.PLP>
-43.7270

> <Gold.PLP.part.hbond>
-3.0000

> <Gold.PLP.part.metal>
0.0000

> <Gold.PLP.part.buried>
-3.6296

> <Gold.PLP.part.nonpolar>
-37.9946

> <Gold.PLP.part.repulsive>
0.2474

> <Gold.PLP.ligand.clash>
5.6321

> <Gold.PLP.ligand.torsion>
0.3893

> <Gold.PLP.Chemscore.Hbond>
2.9913

> <Gold.PLP.Chemscore.CHOScore>
0.0000

> <Gold.PLP.Chemscore.Metal>
0.0000

> <Gold.Chemscore.Hbonds>
donor molecule, donor type, donor heavy atom, donor atom, acceptor molecule, acceptor atom, score
      L1  H    10    46       P1  7957  1.00
      P1  H  7997  8008       L1    17  1.00
      P1  H 10752 10763       L1     2  0.89

> <Gold.PLP.Chemscore.Internal.Correction>
0.3550

> <Gold.Rescore>
     Score         DG    S(hbond)    S(metal)    S(lipo)     H(rot)  DE(clash)    DE(int)     intcor
     14.43     -16.34       1.99        0.00      68.95       1.51       0.11       1.79       ----

> <Gold.Chemscore.Fitness>
14.4319

> <Gold.Chemscore.DG>
-16.3386

> <Gold.Chemscore.ZeroCoef>
-5.4800

> <Gold.Chemscore.Hbond>
1.9920

> <Gold.Chemscore.Metal>
0.0000

> <Gold.Chemscore.Lipo>
68.9512

> <Gold.Chemscore.Internal_Hbond>
0.0000

> <Gold.Chemscore.DEClash>
0.1117

> <Gold.Chemscore.DEInternal>
1.7949

> <Gold.Chemscore.Rot>
1.5086

> <Gold.Chemscore.Internal.Correction>
   9.000000E+99

> <Gold.Chemscore.Hbonds>
donor molecule, donor type, donor heavy atom, donor atom, acceptor molecule, acceptor atom, score
      L1  H    10    46       P1  7957  0.94
      P1  H  7997  8008       L1    17  0.50
      P1  H 10752 10763       L1     2  0.21

> <Gold.Chemscore.Hbond.Weighted>
-6.6533

> <Gold.Chemscore.Metal.Weighted>
-0.0000

> <Gold.Chemscore.Lipo.Weighted>
-8.0673

> <Gold.Chemscore.Internal_Hbond.Weighted>
0.0000

> <Gold.Chemscore.DEClash.Weighted>
0.1117

> <Gold.Chemscore.DEInternal.Weighted>
1.7949

> <Gold.Chemscore.Rot.Weighted>
3.8620

> <Gold.Chemscore.Internal.Correction.Weighted>
   9.000000E+99

> <Gold.Protein.RotatedTorsions>
[ 6907 6896 6895 6894 ] final  -79.68 input  -60.11 | X-H torsion
[ 7974 7965 7964 7962 ] final -105.64 input  175.53 | X-H torsion
[ 8008 7997 7996 7995 ] final -108.78 input   59.86 | X-H torsion
[ 10167 10162 10161 10158 ] final -160.09 input  -65.29 | X-H torsion
[ 10718 10713 10712 10709 ] final  163.58 input   66.30 | X-H torsion
[ 10763 10752 10751 10750 ] final  105.13 input  -60.55 | X-H torsion
[ 11005 11000 10999 10996 ] final   -0.76 input  -57.11 | X-H torsion

> <Gold.Protein.ActiveResidues>
 VAL166  LYS551  ARG553  GLY616  TRP617  ASP618  TYR619  PRO620  LYS621  CYS622 
 ASP623  PHE694  ASN695  SER759  ASP760  ASP761  ALA762  ILE779  LEU786  VAL792 
 PHE793  MET794  SER795  GLU796  ALA797  LYS798  CYS799  TRP800  GLU811  SER814 

> <Gold.Protein.RotatedAtoms>
  150.6945  134.4085  159.5150 H   0  0  0  0  0  0  0  0  0  0  0  0  # atno 6907 bound_to 6896
  152.1847  134.8721  160.0532 H   0  0  0  0  0  0  0  0  0  0  0  0  # atno 6908 bound_to 6896
  151.9699  133.3687  159.4104 H   0  0  0  0  0  0  0  0  0  0  0  0  # atno 6909 bound_to 6896
  145.2280  140.9159  143.3221 H   0  0  0  0  0  0  0  0  0  0  0  0  # atno 7974 bound_to 7965
  154.9494  140.0401  157.2136 H   0  0  0  0  0  0  0  0  0  0  0  0  # atno 8008 bound_to 7997
  154.7993  140.2849  155.5911 H   0  0  0  0  0  0  0  0  0  0  0  0  # atno 8009 bound_to 7997
  156.2959  140.2558  156.2858 H   0  0  0  0  0  0  0  0  0  0  0  0  # atno 8010 bound_to 7997
  139.6566  143.9988  152.2198 H   0  0  0  0  0  0  0  0  0  0  0  0  # atno 10167 bound_to 10162
  157.1064  131.0456  151.2476 H   0  0  0  0  0  0  0  0  0  0  0  0  # atno 10718 bound_to 10713
  153.3752  135.3920  155.1817 H   0  0  0  0  0  0  0  0  0  0  0  0  # atno 10763 bound_to 10752
  154.8700  135.3712  154.4927 H   0  0  0  0  0  0  0  0  0  0  0  0  # atno 10764 bound_to 10752
  153.5398  135.7084  153.5703 H   0  0  0  0  0  0  0  0  0  0  0  0  # atno 10765 bound_to 10752
  140.6398  133.9499  155.8320 H   0  0  0  0  0  0  0  0  0  0  0  0  # atno 11005 bound_to 11000
  144.9703  139.3887  143.6312 LP  0  0  0  0  0  0  0  0  0  0  0  0  # atno 17320 bound_to 7965
  146.3360  139.8798  142.8826 LP  0  0  0  0  0  0  0  0  0  0  0  0  # atno 17321 bound_to 7965
  139.9716  144.6490  150.7984 LP  0  0  0  0  0  0  0  0  0  0  0  0  # atno 17342 bound_to 10162
  140.7562  143.3061  151.2960 LP  0  0  0  0  0  0  0  0  0  0  0  0  # atno 17343 bound_to 10162
  157.4597  130.7646  149.7224 LP  0  0  0  0  0  0  0  0  0  0  0  0  # atno 17370 bound_to 10713
  155.9861  130.3977  150.3230 LP  0  0  0  0  0  0  0  0  0  0  0  0  # atno 17371 bound_to 10713
  141.0615  134.0339  157.3652 LP  0  0  0  0  0  0  0  0  0  0  0  0  # atno 17394 bound_to 11000
  139.9084  135.0185  156.7587 LP  0  0  0  0  0  0  0  0  0  0  0  0  # atno 17395 bound_to 11000

$$$$
