#       Name:                AV-unprocessed.smi:2419
#       Creating user name   scv26
#       Creation time:       Fri Mar 27 13:18:38 2020


#       File generated by GOLD software.
#

@<TRIPOS>MOLECULE
AV-unprocessed.smi:2419
    33    34     1
SMALL
NO_CHARGES


@<TRIPOS>ATOM
      1 ****        -0.1882   2.3574  -0.2759 O.2            1 S1                 0.0000
      2 ****        -0.6639   1.2577   0.0084 C.2            1 S1                 0.0000
      3 ****         0.0823   0.1936   0.3312 N.am           1 S1                 0.0000
      4 ****         1.5389   0.1954   0.3938 C.3            1 S1                 0.0000
      5 ****         2.0839  -1.2189   0.6260 C.3            1 S1                 0.0000
      6 ****         1.9898  -1.4282   2.0215 O.3            1 S1                 0.0000
      7 ****         1.5392  -2.3716  -0.2385 C.3            1 S1                 0.0000
      8 ****         2.9617  -2.9182  -0.3703 C.3            1 S1                 0.0000
      9 ****         3.4761  -1.5412   0.0538 C.3            1 S1                 0.0000
     10 ****        -1.9748   0.9604   0.0383 N.am           1 S1                 0.0000
     11 ****        -3.0748   1.8115  -0.2465 C.2            1 S1                 0.0000
     12 ****        -2.9631   3.0970  -0.6011 N.2            1 S1                 0.0000
     13 ****        -4.2086   3.6905  -0.8212 C.2            1 S1                 0.0000
     14 ****        -5.2657   2.8360  -0.6285 C.2            1 S1                 0.0000
     15 ****        -4.7357   1.2428  -0.1598 S.3            1 S1                 0.0000
     16 ****        -0.3828  -0.6732   0.5575 H              1 S1                 0.0000
     17 ****         1.9155   0.5889  -0.5519 H              1 S1                 0.0000
     18 ****         1.8758   0.8888   1.1667 H              1 S1                 0.0000
     19 ****         2.3478  -2.2849   2.1972 H              1 S1                 0.0000
     20 ****         0.8470  -3.0413   0.2731 H              1 S1                 0.0000
     21 ****         1.1323  -2.0321  -1.1924 H              1 S1                 0.0000
     22 ****         3.1845  -3.6955   0.3619 H              1 S1                 0.0000
     23 ****         3.2426  -3.2182  -1.3802 H              1 S1                 0.0000
     24 ****         3.7448  -0.9159  -0.7991 H              1 S1                 0.0000
     25 ****         4.2804  -1.5719   0.7899 H              1 S1                 0.0000
     26 ****        -2.2141   0.0136   0.2928 H              1 S1                 0.0000
     27 ****        -4.2510   4.7294  -1.1132 H              1 S1                 0.0000
     28 ****        -6.3196   3.0470  -0.7331 H              1 S1                 0.0000
     29 ****         0.8031   2.4893  -0.2731 LP             1 S1                 0.0000
     30 ****        -0.7932   3.1186  -0.5096 LP             1 S1                 0.0000
     31 ****         1.0333  -1.3897   2.3108 LP             1 S1                 0.0000
     32 ****         2.5139  -0.7302   2.5095 LP             1 S1                 0.0000
     33 ****        -2.0908   3.5765  -0.6973 LP             1 S1                 0.0000
@<TRIPOS>BOND
    1    1    2 2     
    2    2    3 am    
    3    2   10 am    
    4    3    4 1     
    5    3   16 1     
    6    4    5 1     
    7    4   17 1     
    8    4   18 1     
    9    5    9 1     
   10    5    6 1     
   11    5    7 1     
   12    6   19 1     
   13    7    8 1     
   14    7   20 1     
   15    7   21 1     
   16    8    9 1     
   17    8   22 1     
   18    8   23 1     
   19    9   24 1     
   20    9   25 1     
   21   10   11 1     
   22   10   26 1     
   23   11   15 1     
   24   11   12 2     
   25   12   13 1     
   26   13   14 2     
   27   13   27 1     
   28   14   15 1     
   29   14   28 1     
   30    1   29 1     
   31    1   30 1     
   32    6   31 1     
   33    6   32 1     
   34   12   33 1     
@<TRIPOS>SUBSTRUCTURE
      1 S1             1
@<TRIPOS>SET
LONE_PAIRS      STATIC     ATOMS    <user>   **** ""
5 29 30 31 32 33
DONOR_HYDROGENS      STATIC     ATOMS    <user>   **** ""
3 16 19 26
ATOM$BLUE        STATIC     ATOMS    COLORGROUP SYSTEM
5 29 30 31 32 33
ATOM$RED        STATIC     ATOMS    COLORGROUP SYSTEM
3 16 19 26
