#       Name:                AV-unprocessed.smi:2478
#       Creating user name   scv26
#       Creation time:       Fri Mar 27 13:40:34 2020


#       File generated by GOLD software.
#

@<TRIPOS>MOLECULE
AV-unprocessed.smi:2478
    49    50     1
SMALL
NO_CHARGES


@<TRIPOS>ATOM
      1 ****        -2.3115   1.3974   2.0316 C.3            1 S1                 0.0000
      2 ****        -2.6211   2.0543   0.6764 C.3            1 S1                 0.0000
      3 ****        -4.1325   2.3291   0.5383 C.3            1 S1                 0.0000
      4 ****        -4.4737   2.9789  -0.8110 C.3            1 S1                 0.0000
      5 ****        -3.9738   2.1172  -1.9783 C.3            1 S1                 0.0000
      6 ****        -2.4669   1.8480  -1.8583 C.3            1 S1                 0.0000
      7 ****        -2.1103   1.1974  -0.5045 C.3            1 S1                 0.0000
      8 ****        -0.6962   1.0923  -0.3908 O.3            1 S1                 0.0000
      9 ****        -0.1424  -0.0588  -1.0114 C.3            1 S1                 0.0000
     10 ****         1.3776  -0.0051  -0.8713 C.2            1 S1                 0.0000
     11 ****         1.9798   1.0137  -1.2101 O.2            1 S1                 0.0000
     12 ****         1.9596  -1.1101  -0.3694 N.am           1 S1                 0.0000
     13 ****         3.3420  -1.3620  -0.1507 C.ar           1 S1                 0.0000
     14 ****         4.3159  -0.4746  -0.4740 N.ar           1 S1                 0.0000
     15 ****         5.6056  -0.7937  -0.2452 C.ar           1 S1                 0.0000
     16 ****         6.0043  -2.0189   0.3153 C.ar           1 S1                 0.0000
     17 ****         5.0063  -2.9478   0.6562 C.ar           1 S1                 0.0000
     18 ****         3.6477  -2.6181   0.4319 C.ar           1 S1                 0.0000
     19 ****         2.6208  -3.4885   0.7287 O.3            1 S1                 0.0000
     20 ****         2.7347  -4.3049   1.8099 C.3            1 S1                 0.0000
     21 ****         1.5109  -4.5248   2.3478 F              1 S1                 0.0000
     22 ****         3.2443  -5.5065   1.4439 F              1 S1                 0.0000
     23 ****        -2.7949   0.4239   2.1199 H              1 S1                 0.0000
     24 ****        -2.6607   2.0179   2.8571 H              1 S1                 0.0000
     25 ****        -1.2397   1.2496   2.1666 H              1 S1                 0.0000
     26 ****        -2.1032   3.0143   0.6471 H              1 S1                 0.0000
     27 ****        -4.6879   1.3956   0.6405 H              1 S1                 0.0000
     28 ****        -4.4691   2.9768   1.3485 H              1 S1                 0.0000
     29 ****        -5.5510   3.1254  -0.8925 H              1 S1                 0.0000
     30 ****        -4.0212   3.9700  -0.8661 H              1 S1                 0.0000
     31 ****        -4.5156   1.1705  -1.9942 H              1 S1                 0.0000
     32 ****        -4.1880   2.6133  -2.9254 H              1 S1                 0.0000
     33 ****        -2.1501   1.2136  -2.6858 H              1 S1                 0.0000
     34 ****        -1.9221   2.7869  -1.9657 H              1 S1                 0.0000
     35 ****        -2.5705   0.2093  -0.4385 H              1 S1                 0.0000
     36 ****        -0.5383  -0.9629  -0.5449 H              1 S1                 0.0000
     37 ****        -0.3911  -0.0952  -2.0720 H              1 S1                 0.0000
     38 ****         1.3389  -1.8654  -0.1176 H              1 S1                 0.0000
     39 ****         6.3405  -0.0524  -0.5220 H              1 S1                 0.0000
     40 ****         7.0486  -2.2419   0.4763 H              1 S1                 0.0000
     41 ****         5.2903  -3.9000   1.0786 H              1 S1                 0.0000
     42 ****         3.3645  -3.8648   2.5835 H              1 S1                 0.0000
     43 ****        -0.4614   1.0674   0.5810 LP             1 S1                 0.0000
     44 ****        -0.2874   1.9020  -0.8118 LP             1 S1                 0.0000
     45 ****         1.4739   1.7962  -1.5731 LP             1 S1                 0.0000
     46 ****         2.9749   1.0589  -1.1223 LP             1 S1                 0.0000
     47 ****         4.0791   0.4087  -0.8786 LP             1 S1                 0.0000
     48 ****         2.4967  -4.0772  -0.0701 LP             1 S1                 0.0000
     49 ****         1.7992  -2.9351   0.8658 LP             1 S1                 0.0000
@<TRIPOS>BOND
    1    1    2 1     
    2    1   23 1     
    3    1   24 1     
    4    1   25 1     
    5    2    7 1     
    6    2    3 1     
    7    2   26 1     
    8    3    4 1     
    9    3   27 1     
   10    3   28 1     
   11    4    5 1     
   12    4   29 1     
   13    4   30 1     
   14    5    6 1     
   15    5   31 1     
   16    5   32 1     
   17    6    7 1     
   18    6   33 1     
   19    6   34 1     
   20    7    8 1     
   21    7   35 1     
   22    8    9 1     
   23    9   10 1     
   24    9   36 1     
   25    9   37 1     
   26   10   11 2     
   27   10   12 am    
   28   12   13 1     
   29   12   38 1     
   30   13   18 ar    
   31   13   14 ar    
   32   14   15 ar    
   33   15   16 ar    
   34   15   39 1     
   35   16   17 ar    
   36   16   40 1     
   37   17   18 ar    
   38   17   41 1     
   39   18   19 1     
   40   19   20 1     
   41   20   21 1     
   42   20   22 1     
   43   20   42 1     
   44    8   43 1     
   45    8   44 1     
   46   11   45 1     
   47   11   46 1     
   48   14   47 1     
   49   19   48 1     
   50   19   49 1     
@<TRIPOS>SUBSTRUCTURE
      1 S1             1
@<TRIPOS>SET
LONE_PAIRS      STATIC     ATOMS    <user>   **** ""
7 43 44 45 46 47 48 49
DONOR_HYDROGENS      STATIC     ATOMS    <user>   **** ""
1 38
ATOM$BLUE        STATIC     ATOMS    COLORGROUP SYSTEM
7 43 44 45 46 47 48 49
ATOM$RED        STATIC     ATOMS    COLORGROUP SYSTEM
1 38
