AV-unprocessed.smi:2748|AV-procd|sdf|10581|dock8
  -GOLD-   2272015 33D 1   1.00000     0.00000
 Structure written by MMmdl.
 30 32  0  0  0  0  0  0  0  0  1 V2000
  146.6523  139.4212  152.7061 O   0  0  0  0  0  0  0  0  0  0  0  0
  147.6517  139.7007  153.3654 C   0  0  0  0  0  0  0  0  0  0  0  0
  148.7047  138.7853  153.4545 N   0  0  0  0  0  0  0  0  0  0  0  0
  149.8888  138.9762  154.1674 C   0  0  0  0  0  0  0  0  0  0  0  0
  150.7546  138.1010  154.1656 O   0  0  0  0  0  0  0  0  0  0  0  0
  150.0226  140.1998  154.8628 N   0  0  0  0  0  0  0  0  0  0  0  0
  151.2446  140.4324  155.5923 C   0  0  0  0  0  0  0  0  0  0  0  0
  151.0644  140.3204  157.1187 C   0  0  2  0  0  0  0  0  0  0  0  0
  150.3554  141.5598  157.7273 C   0  0  0  0  0  0  0  0  0  0  0  0
  151.3813  142.0596  158.6828 C   0  0  0  0  0  0  0  0  0  0  0  0
  151.3108  143.1751  159.5347 C   0  0  0  0  0  0  0  0  0  0  0  0
  152.4286  143.4513  160.3528 C   0  0  0  0  0  0  0  0  0  0  0  0
  153.5750  142.6218  160.3044 C   0  0  0  0  0  0  0  0  0  0  0  0
  153.6182  141.5064  159.4376 C   0  0  0  0  0  0  0  0  0  0  0  0
  152.4979  141.2444  158.6295 C   0  0  0  0  0  0  0  0  0  0  0  0
  152.3603  140.2162  157.7410 O   0  0  0  0  0  0  0  0  0  0  0  0
  149.0078  141.1418  154.7943 C   0  0  0  0  0  0  0  0  0  0  0  0
  147.8623  140.9495  154.0967 C   0  0  0  0  0  0  0  0  0  0  0  0
  146.6430  142.1724  154.0575 Cl  0  0  0  0  0  0  0  0  0  0  0  0
  148.6012  137.9131  152.9565 H   0  0  0  0  0  0  0  0  0  0  0  0
  151.9648  139.6974  155.2286 H   0  0  0  0  0  0  0  0  0  0  0  0
  151.6272  141.4087  155.2871 H   0  0  0  0  0  0  0  0  0  0  0  0
  150.4952  139.4247  157.3705 H   0  0  0  0  0  0  0  0  0  0  0  0
  150.1241  142.3239  156.9843 H   0  0  0  0  0  0  0  0  0  0  0  0
  149.4403  141.2880  158.2542 H   0  0  0  0  0  0  0  0  0  0  0  0
  150.4313  143.8012  159.5624 H   0  0  0  0  0  0  0  0  0  0  0  0
  152.4088  144.3010  161.0193 H   0  0  0  0  0  0  0  0  0  0  0  0
  154.4231  142.8429  160.9356 H   0  0  0  0  0  0  0  0  0  0  0  0
  154.4901  140.8703  159.3975 H   0  0  0  0  0  0  0  0  0  0  0  0
  149.1342  142.0786  155.3184 H   0  0  0  0  0  0  0  0  0  0  0  0
  1  2  2  0  0  0  0
  2 18  1  0  0  0  0
  2  3  1  0  0  0  0
  3 20  1  0  0  0  0
  3  4  1  0  0  0  0
  4  5  2  0  0  0  0
  4  6  1  0  0  0  0
  6  7  1  0  0  0  0
  6 17  1  0  0  0  0
  7  8  1  0  0  0  0
  7 21  1  0  0  0  0
  7 22  1  0  0  0  0
  8 16  1  0  0  0  0
  8  9  1  0  0  0  0
  8 23  1  0  0  0  0
  9 10  1  0  0  0  0
  9 24  1  0  0  0  0
  9 25  1  0  0  0  0
 10 15  2  0  0  0  0
 10 11  1  0  0  0  0
 11 12  2  0  0  0  0
 11 26  1  0  0  0  0
 12 13  1  0  0  0  0
 12 27  1  0  0  0  0
 13 14  2  0  0  0  0
 13 28  1  0  0  0  0
 14 15  1  0  0  0  0
 14 29  1  0  0  0  0
 15 16  1  0  0  0  0
 17 18  2  0  0  0  0
 17 30  1  0  0  0  0
 18 19  1  0  0  0  0
M  END
> <s_m_source_file>
AV-unprocessed.smi

> <i_m_source_file_index>
2748

> <i_lp_mmshare_version>
43012

> <i_f3d_flags>
0

> <s_epik_input>
Tz1jMVtuSF1jKD1PKW4oW2NIXWMxQ2wpW0NIMl1bQ0BIXShbQ0gyXTIpT2MoYzIzKVtjSF1bY0hdW2NIXVtjSF0z

> <s_epik_cmdline>
J2VwaWtfcHl0aG9uJywgJy1waCcsICc3LjAnLCAnLXRuJywgJzgnLCAnLW1hJywgJzIwMCcsICctbWV0YWxfYmluZGluZycsICctaW1hZScsICc8aW5maWxlLm1hZT4nLCAnLW9tYWUnLCAnPG91dGZpbGUubWFlPic=

> <r_lp_tautomer_probability>
0.999537

> <r_epik_Ionization_Penalty>
0.0203523

> <r_epik_Ionization_Penalty_Charging>
0.0203523

> <r_epik_Ionization_Penalty_Neutral>
0

> <r_epik_State_Penalty>
0.0163078

> <r_epik_Charging_Adjusted_Penalty>
0.0366602

> <i_epik_Tot_Q>
0

> <i_epik_Tot_abs_Q>
0

> <r_epik_Metal_State_Penalty>
1.99317

> <b_epik_Metal_Only>
0

> <s_lp_Force_Field>
OPLS_2005

> <r_lp_Energy>
20.6728

> <b_lp_Chiralities_Consistent>
1

> <s_lp_Variant>
AV-unprocessed.smi:2748-1

> <Gold.Version>
5.8.1

> <Gold.Id.Protein>
6NUR|6NUR_protein|mol2

> <Gold.PLP.Fitness>
45.8125

> <Gold.PLP.PLP>
-39.8682

> <Gold.PLP.part.hbond>
-2.5514

> <Gold.PLP.part.metal>
0.0000

> <Gold.PLP.part.buried>
-0.4711

> <Gold.PLP.part.nonpolar>
-35.2782

> <Gold.PLP.part.repulsive>
0.5911

> <Gold.PLP.ligand.clash>
0.0000

> <Gold.PLP.ligand.torsion>
0.2931

> <Gold.PLP.Chemscore.Hbond>
1.4788

> <Gold.PLP.Chemscore.CHOScore>
0.6975

> <Gold.PLP.Chemscore.Metal>
0.0000

> <Gold.Chemscore.Hbonds>
donor molecule, donor type, donor heavy atom, donor atom, acceptor molecule, acceptor atom, score
      L1  H     3    20       P1  7948  1.00
      P1  H  7997  8009       L1    16  0.37
      L1  C    17    30       P1  8028  0.65

> <Gold.PLP.Chemscore.Internal.Correction>
0.0020

> <Gold.Rescore>
     Score         DG    S(hbond)    S(metal)    S(lipo)     H(rot)  DE(clash)    DE(int)     intcor
     18.55     -18.88       1.62        0.00      96.85       1.31       0.10       0.22       ----

> <Gold.Chemscore.Fitness>
18.5524

> <Gold.Chemscore.DG>
-18.8771

> <Gold.Chemscore.ZeroCoef>
-5.4800

> <Gold.Chemscore.Hbond>
1.6248

> <Gold.Chemscore.Metal>
0.0000

> <Gold.Chemscore.Lipo>
96.8483

> <Gold.Chemscore.Internal_Hbond>
0.0000

> <Gold.Chemscore.DEClash>
0.1042

> <Gold.Chemscore.DEInternal>
0.2204

> <Gold.Chemscore.Rot>
1.3129

> <Gold.Chemscore.Internal.Correction>
   9.000000E+99

> <Gold.Chemscore.Hbonds>
donor molecule, donor type, donor heavy atom, donor atom, acceptor molecule, acceptor atom, score
      L1  H     3    20       P1  7948  0.94
      P1  H  7997  8009       L1    16  0.14

> <Gold.Chemscore.Hbond.Weighted>
-5.4268

> <Gold.Chemscore.Metal.Weighted>
-0.0000

> <Gold.Chemscore.Lipo.Weighted>
-11.3313

> <Gold.Chemscore.Internal_Hbond.Weighted>
0.0000

> <Gold.Chemscore.DEClash.Weighted>
0.1042

> <Gold.Chemscore.DEInternal.Weighted>
0.2204

> <Gold.Chemscore.Rot.Weighted>
3.3610

> <Gold.Chemscore.Internal.Correction.Weighted>
   9.000000E+99

> <Gold.Protein.RotatedTorsions>
[ 6907 6896 6895 6894 ] final   90.05 input  -60.11 | X-H torsion
[ 7974 7965 7964 7962 ] final -102.27 input  175.53 | X-H torsion
[ 8008 7997 7996 7995 ] final  171.86 input   59.86 | X-H torsion
[ 10167 10162 10161 10158 ] final -119.02 input  -65.29 | X-H torsion
[ 10718 10713 10712 10709 ] final -122.52 input   66.30 | X-H torsion
[ 10763 10752 10751 10750 ] final -140.41 input  -60.55 | X-H torsion
[ 11005 11000 10999 10996 ] final -115.07 input  -57.11 | X-H torsion

> <Gold.Protein.ActiveResidues>
 VAL166  LYS551  ARG553  GLY616  TRP617  ASP618  TYR619  PRO620  LYS621  CYS622 
 ASP623  PHE694  ASN695  SER759  ASP760  ASP761  ALA762  ILE779  LEU786  VAL792 
 PHE793  MET794  SER795  GLU796  ALA797  LYS798  CYS799  TRP800  GLU811  SER814 

> <Gold.Protein.RotatedAtoms>
  152.5441  134.1871  159.8658 H   0  0  0  0  0  0  0  0  0  0  0  0  # atno 6907 bound_to 6896
  151.1869  133.4684  159.2602 H   0  0  0  0  0  0  0  0  0  0  0  0  # atno 6908 bound_to 6896
  151.1122  135.0045  159.8555 H   0  0  0  0  0  0  0  0  0  0  0  0  # atno 6909 bound_to 6896
  145.2709  140.9298  143.2987 H   0  0  0  0  0  0  0  0  0  0  0  0  # atno 7974 bound_to 7965
  156.1231  140.1501  156.9176 H   0  0  0  0  0  0  0  0  0  0  0  0  # atno 8008 bound_to 7997
  154.4851  140.0868  156.7508 H   0  0  0  0  0  0  0  0  0  0  0  0  # atno 8009 bound_to 7997
  155.4393  140.3430  155.4290 H   0  0  0  0  0  0  0  0  0  0  0  0  # atno 8010 bound_to 7997
  140.0512  143.5058  152.2081 H   0  0  0  0  0  0  0  0  0  0  0  0  # atno 10167 bound_to 10162
  156.1425  130.6476  150.9792 H   0  0  0  0  0  0  0  0  0  0  0  0  # atno 10718 bound_to 10713
  154.8579  135.3554  154.5704 H   0  0  0  0  0  0  0  0  0  0  0  0  # atno 10763 bound_to 10752
  153.6317  135.7002  153.5278 H   0  0  0  0  0  0  0  0  0  0  0  0  # atno 10764 bound_to 10752
  153.3044  135.4197  155.1241 H   0  0  0  0  0  0  0  0  0  0  0  0  # atno 10765 bound_to 10752
  141.0512  133.9685  157.2834 H   0  0  0  0  0  0  0  0  0  0  0  0  # atno 11005 bound_to 11000
  144.9336  139.4270  143.6483 LP  0  0  0  0  0  0  0  0  0  0  0  0  # atno 17320 bound_to 7965
  146.3246  139.8259  142.8917 LP  0  0  0  0  0  0  0  0  0  0  0  0  # atno 17321 bound_to 7965
  139.5952  144.7564  151.3304 LP  0  0  0  0  0  0  0  0  0  0  0  0  # atno 17342 bound_to 10162
  140.7216  143.7120  150.7762 LP  0  0  0  0  0  0  0  0  0  0  0  0  # atno 17343 bound_to 10162
  157.6588  131.0884  150.7886 LP  0  0  0  0  0  0  0  0  0  0  0  0  # atno 17370 bound_to 10713
  156.7960  130.4905  149.5377 LP  0  0  0  0  0  0  0  0  0  0  0  0  # atno 17371 bound_to 10713
  139.9352  135.0197  156.8531 LP  0  0  0  0  0  0  0  0  0  0  0  0  # atno 17394 bound_to 11000
  140.6052  134.0134  155.7554 LP  0  0  0  0  0  0  0  0  0  0  0  0  # atno 17395 bound_to 11000

$$$$
