#       Name:                AV-unprocessed.smi:716
#       Creating user name   scv26
#       Creation time:       Fri Mar 27 00:48:28 2020


#       File generated by GOLD software.
#

@<TRIPOS>MOLECULE
AV-unprocessed.smi:716
    55    57     1
SMALL
NO_CHARGES


@<TRIPOS>ATOM
      1 ****        -5.6672   1.7589  -1.6831 C.3            1 S1                 0.0000
      2 ****        -4.6087   0.7186  -2.0556 C.3            1 S1                 0.0000
      3 ****        -3.5361   0.8070  -1.1324 O.3            1 S1                 0.0000
      4 ****        -2.4766  -0.0969  -1.4198 C.3            1 S1                 0.0000
      5 ****        -1.4784   0.4920  -2.4259 C.3            1 S1                 0.0000
      6 ****        -0.7473   1.0843  -1.2192 C.3            1 S1                 0.0000
      7 ****         0.7020   1.0376  -1.3670 N.am           1 S1                 0.0000
      8 ****         1.5709   1.5180  -0.4663 C.2            1 S1                 0.0000
      9 ****         1.2267   2.1352   0.5420 O.2            1 S1                 0.0000
     10 ****         3.0541   1.2505  -0.7480 C.3            1 S1                 0.0000
     11 ****         3.7360   0.7052   0.4331 N.am           1 S1                 0.0000
     12 ****         3.5541  -0.6591   0.5977 N.2            1 S1                 0.0000
     13 ****         4.0443  -1.2797   1.6195 C.2            1 S1                 0.0000
     14 ****         3.7802  -2.7526   1.7270 C.3            1 S1                 0.0000
     15 ****         4.8142  -0.5404   2.6014 C.2            1 S1                 0.0000
     16 ****         4.9946   0.7877   2.4371 C.2            1 S1                 0.0000
     17 ****         4.4310   1.5054   1.2953 C.2            1 S1                 0.0000
     18 ****         4.5636   2.7176   1.1296 O.2            1 S1                 0.0000
     19 ****        -1.3471  -0.0581  -0.3587 C.3            1 S1                 0.0000
     20 ****        -0.5646  -1.3667  -0.1805 C.3            1 S1                 0.0000
     21 ****        -1.2583  -2.1523   0.9353 C.3            1 S1                 0.0000
     22 ****        -2.0241  -1.1104   1.7571 C.3            1 S1                 0.0000
     23 ****        -1.7347   0.2364   1.0893 C.3            1 S1                 0.0000
     24 ****        -6.5121   1.7186  -2.3708 H              1 S1                 0.0000
     25 ****        -5.2542   2.7674  -1.7189 H              1 S1                 0.0000
     26 ****        -6.0473   1.5874  -0.6757 H              1 S1                 0.0000
     27 ****        -5.0434  -0.2816  -2.0277 H              1 S1                 0.0000
     28 ****        -4.2563   0.8965  -3.0724 H              1 S1                 0.0000
     29 ****        -2.8193  -1.1064  -1.6543 H              1 S1                 0.0000
     30 ****        -0.9078  -0.2757  -2.9521 H              1 S1                 0.0000
     31 ****        -1.8870   1.2314  -3.1149 H              1 S1                 0.0000
     32 ****        -1.1397   2.0671  -0.9470 H              1 S1                 0.0000
     33 ****         1.0673   0.5554  -2.1756 H              1 S1                 0.0000
     34 ****         3.1540   0.5471  -1.5772 H              1 S1                 0.0000
     35 ****         3.5175   2.1753  -1.0948 H              1 S1                 0.0000
     36 ****         4.1341  -3.1489   2.6790 H              1 S1                 0.0000
     37 ****         4.2867  -3.2958   0.9287 H              1 S1                 0.0000
     38 ****         2.7124  -2.9629   1.6554 H              1 S1                 0.0000
     39 ****         5.2363  -1.0547   3.4523 H              1 S1                 0.0000
     40 ****         5.5680   1.3370   3.1690 H              1 S1                 0.0000
     41 ****        -0.5045  -1.9517  -1.0988 H              1 S1                 0.0000
     42 ****         0.4609  -1.1633   0.1296 H              1 S1                 0.0000
     43 ****        -1.9560  -2.8757   0.5117 H              1 S1                 0.0000
     44 ****        -0.5386  -2.7045   1.5407 H              1 S1                 0.0000
     45 ****        -3.0929  -1.3250   1.7214 H              1 S1                 0.0000
     46 ****        -1.7226  -1.1103   2.8050 H              1 S1                 0.0000
     47 ****        -0.9015   0.7178   1.6025 H              1 S1                 0.0000
     48 ****        -2.5826   0.9153   1.1783 H              1 S1                 0.0000
     49 ****        -3.8863   0.6063  -0.2175 LP             1 S1                 0.0000
     50 ****        -3.1740   1.7389  -1.1536 LP             1 S1                 0.0000
     51 ****         0.2566   2.2995   0.7208 LP             1 S1                 0.0000
     52 ****         1.9172   2.4722   1.1820 LP             1 S1                 0.0000
     53 ****         3.0347  -1.1717  -0.0860 LP             1 S1                 0.0000
     54 ****         4.1523   3.1614   0.3334 LP             1 S1                 0.0000
     55 ****         5.0827   3.2589   1.7911 LP             1 S1                 0.0000
@<TRIPOS>BOND
    1    1    2 1     
    2    1   24 1     
    3    1   25 1     
    4    1   26 1     
    5    2    3 1     
    6    2   27 1     
    7    2   28 1     
    8    3    4 1     
    9    4   19 1     
   10    4    5 1     
   11    4   29 1     
   12    5    6 1     
   13    5   30 1     
   14    5   31 1     
   15    6    7 1     
   16    6   19 1     
   17    6   32 1     
   18    7    8 am    
   19    7   33 1     
   20    8    9 2     
   21    8   10 1     
   22   10   11 1     
   23   10   34 1     
   24   10   35 1     
   25   11   17 am    
   26   11   12 1     
   27   12   13 2     
   28   13   14 1     
   29   13   15 1     
   30   14   36 1     
   31   14   37 1     
   32   14   38 1     
   33   15   16 2     
   34   15   39 1     
   35   16   17 1     
   36   16   40 1     
   37   17   18 2     
   38   19   23 1     
   39   19   20 1     
   40   20   21 1     
   41   20   41 1     
   42   20   42 1     
   43   21   22 1     
   44   21   43 1     
   45   21   44 1     
   46   22   23 1     
   47   22   45 1     
   48   22   46 1     
   49   23   47 1     
   50   23   48 1     
   51    3   49 1     
   52    3   50 1     
   53    9   51 1     
   54    9   52 1     
   55   12   53 1     
   56   18   54 1     
   57   18   55 1     
@<TRIPOS>SUBSTRUCTURE
      1 S1             1
@<TRIPOS>SET
LONE_PAIRS      STATIC     ATOMS    <user>   **** ""
7 49 50 51 52 53 54 55
DONOR_HYDROGENS      STATIC     ATOMS    <user>   **** ""
1 33
ATOM$BLUE        STATIC     ATOMS    COLORGROUP SYSTEM
7 49 50 51 52 53 54 55
ATOM$RED        STATIC     ATOMS    COLORGROUP SYSTEM
1 33
