AV-unprocessed.smi:2835|AV-procd|sdf|10918|dock2
  -GOLD-   2272015363D 1   1.00000     0.00000
 Structure written by MMmdl.
 34 35  0  0  0  0  0  0  0  0  2 V2000
  152.4221  139.5020  159.2905 O   0  0  0  0  0  0  0  0  0  0  0  0
  152.4154  140.6851  158.9556 C   0  0  0  0  0  0  0  0  0  0  0  0
  153.2592  141.6753  159.7762 C   0  0  0  0  0  0  0  0  0  0  0  0
  152.7644  143.0449  159.7502 N   0  0  0  0  0  0  0  0  0  0  0  0
  152.2701  143.7978  160.7954 C   0  0  0  0  0  0  0  0  0  0  0  0
  151.9085  145.0121  160.2865 C   0  0  0  0  0  0  0  0  0  0  0  0
  152.2248  144.9064  158.9032 C   0  0  0  0  0  0  0  0  0  0  0  0
  152.7412  143.7303  158.5862 N   0  0  0  0  0  0  0  0  0  0  0  0
  151.7144  141.1808  157.9153 N   0  0  0  0  0  0  0  0  0  0  0  0
  150.8247  140.5572  156.9234 C   0  0  0  0  0  0  0  0  0  0  0  0
  151.6666  139.4138  156.3000 C   0  0  0  0  0  0  0  0  0  0  0  0
  151.2205  138.2469  156.3742 O   0  0  0  0  0  0  0  0  0  0  0  0
  152.7720  139.7126  155.7943 O   0  5  0  0  0  0  0  0  0  0  0  0
  149.4752  140.0185  157.4978 C   0  0  0  0  0  0  0  0  0  0  0  0
  148.5056  139.5220  156.4072 C   0  0  0  0  0  0  0  0  0  0  0  0
  148.2199  140.6231  155.3761 C   0  0  0  0  0  0  0  0  0  0  0  0
  149.5213  141.1684  154.7705 C   0  0  0  0  0  0  0  0  0  0  0  0
  150.4916  141.6499  155.8673 C   0  0  0  0  0  0  0  0  0  0  0  0
  153.2898  141.3399  160.8134 H   0  0  0  0  0  0  0  0  0  0  0  0
  154.2862  141.6612  159.4085 H   0  0  0  0  0  0  0  0  0  0  0  0
  152.2113  143.4075  161.8010 H   0  0  0  0  0  0  0  0  0  0  0  0
  151.4794  145.8472  160.8200 H   0  0  0  0  0  0  0  0  0  0  0  0
  152.0955  145.6447  158.1255 H   0  0  0  0  0  0  0  0  0  0  0  0
  151.8412  142.1708  157.7621 H   0  0  0  0  0  0  0  0  0  0  0  0
  149.6432  139.2213  158.2234 H   0  0  0  0  0  0  0  0  0  0  0  0
  148.9674  140.8167  158.0403 H   0  0  0  0  0  0  0  0  0  0  0  0
  148.9156  138.6448  155.9056 H   0  0  0  0  0  0  0  0  0  0  0  0
  147.5715  139.1985  156.8669 H   0  0  0  0  0  0  0  0  0  0  0  0
  147.5748  140.2363  154.5867 H   0  0  0  0  0  0  0  0  0  0  0  0
  147.6719  141.4361  155.8538 H   0  0  0  0  0  0  0  0  0  0  0  0
  149.9946  140.3974  154.1618 H   0  0  0  0  0  0  0  0  0  0  0  0
  149.2942  141.9922  154.0935 H   0  0  0  0  0  0  0  0  0  0  0  0
  150.0421  142.5055  156.3738 H   0  0  0  0  0  0  0  0  0  0  0  0
  151.3998  142.0382  155.4035 H   0  0  0  0  0  0  0  0  0  0  0  0
  1  2  2  0  0  0  0
  2  3  1  0  0  0  0
  2  9  1  0  0  0  0
  3  4  1  0  0  0  0
  3 19  1  0  0  0  0
  3 20  1  0  0  0  0
  4  8  1  0  0  0  0
  4  5  1  0  0  0  0
  5  6  2  0  0  0  0
  5 21  1  0  0  0  0
  6  7  1  0  0  0  0
  6 22  1  0  0  0  0
  7  8  2  0  0  0  0
  7 23  1  0  0  0  0
  9 10  1  0  0  0  0
  9 24  1  0  0  0  0
 10 18  1  0  0  0  0
 10 11  1  0  0  0  0
 10 14  1  0  0  0  0
 11 12  2  0  0  0  0
 11 13  1  0  0  0  0
 14 15  1  0  0  0  0
 14 25  1  0  0  0  0
 14 26  1  0  0  0  0
 15 16  1  0  0  0  0
 15 27  1  0  0  0  0
 15 28  1  0  0  0  0
 16 17  1  0  0  0  0
 16 29  1  0  0  0  0
 16 30  1  0  0  0  0
 17 18  1  0  0  0  0
 17 31  1  0  0  0  0
 17 32  1  0  0  0  0
 18 33  1  0  0  0  0
 18 34  1  0  0  0  0
M  CHG  1  13  -1
M  END
> <s_m_source_file>
AV-unprocessed.smi

> <i_m_source_file_index>
2835

> <i_lp_mmshare_version>
43012

> <i_f3d_flags>
0

> <s_epik_input>
bjFbY0hdW2NIXVtjSF1uMVtDSDJdQyg9TylbTkhdQzIoQyg9TylbT0hdKVtDSDJdW0NIMl1bQ0gyXVtDSDJdW0NIMl0y

> <s_epik_cmdline>
J2VwaWtfcHl0aG9uJywgJy1waCcsICc3LjAnLCAnLXRuJywgJzgnLCAnLW1hJywgJzIwMCcsICctbWV0YWxfYmluZGluZycsICctaW1hZScsICc8aW5maWxlLm1hZT4nLCAnLW9tYWUnLCAnPG91dGZpbGUubWFlPic=

> <r_lp_tautomer_probability>
1

> <r_epik_Ionization_Penalty>
0.000342313

> <r_epik_Ionization_Penalty_Charging>
0.000323848

> <r_epik_Ionization_Penalty_Neutral>
1.84652e-05

> <r_epik_State_Penalty>
0.000195685

> <r_epik_Charging_Adjusted_Penalty>
0.000519533

> <i_epik_Tot_Q>
-1

> <i_epik_Tot_abs_Q>
1

> <r_epik_Metal_State_Penalty>
-0

> <b_epik_Metal_Only>
0

> <s_lp_Force_Field>
OPLS_2005

> <r_lp_Energy>
5.56985

> <b_lp_Chiralities_Consistent>
1

> <s_lp_Variant>
AV-unprocessed.smi:2835-1

> <Gold.Version>
5.8.1

> <Gold.Id.Protein>
6NUR|6NUR_protein|mol2

> <Gold.PLP.Fitness>
41.9004

> <Gold.PLP.PLP>
-36.8154

> <Gold.PLP.part.hbond>
-1.0000

> <Gold.PLP.part.metal>
0.0000

> <Gold.PLP.part.buried>
-5.3640

> <Gold.PLP.part.nonpolar>
-30.4643

> <Gold.PLP.part.repulsive>
0.0766

> <Gold.PLP.ligand.clash>
0.0000

> <Gold.PLP.ligand.torsion>
0.4848

> <Gold.PLP.Chemscore.Hbond>
2.0000

> <Gold.PLP.Chemscore.CHOScore>
0.0000

> <Gold.PLP.Chemscore.Metal>
0.0000

> <Gold.Chemscore.Hbonds>
donor molecule, donor type, donor heavy atom, donor atom, acceptor molecule, acceptor atom, score
      P1  H  7997  8009       L1    13  2.00

> <Gold.PLP.Chemscore.Internal.Correction>
0.0545

> <Gold.Rescore>
     Score         DG    S(hbond)    S(metal)    S(lipo)     H(rot)  DE(clash)    DE(int)     intcor
     11.22     -12.61       1.00        0.00      76.90       2.03       0.00       1.39       ----

> <Gold.Chemscore.Fitness>
11.2229

> <Gold.Chemscore.DG>
-12.6113

> <Gold.Chemscore.ZeroCoef>
-5.4800

> <Gold.Chemscore.Hbond>
1.0000

> <Gold.Chemscore.Metal>
0.0000

> <Gold.Chemscore.Lipo>
76.9045

> <Gold.Chemscore.Internal_Hbond>
0.0000

> <Gold.Chemscore.DEClash>
0.0000

> <Gold.Chemscore.DEInternal>
1.3883

> <Gold.Chemscore.Rot>
2.0338

> <Gold.Chemscore.Internal.Correction>
   9.000000E+99

> <Gold.Chemscore.Hbonds>
donor molecule, donor type, donor heavy atom, donor atom, acceptor molecule, acceptor atom, score
      P1  H  7997  8009       L1    13  1.00

> <Gold.Chemscore.Hbond.Weighted>
-3.3400

> <Gold.Chemscore.Metal.Weighted>
-0.0000

> <Gold.Chemscore.Lipo.Weighted>
-8.9978

> <Gold.Chemscore.Internal_Hbond.Weighted>
0.0000

> <Gold.Chemscore.DEClash.Weighted>
0.0000

> <Gold.Chemscore.DEInternal.Weighted>
1.3883

> <Gold.Chemscore.Rot.Weighted>
5.2066

> <Gold.Chemscore.Internal.Correction.Weighted>
   9.000000E+99

> <Gold.Protein.RotatedTorsions>
[ 6907 6896 6895 6894 ] final  -89.48 input  -60.11 | X-H torsion
[ 7974 7965 7964 7962 ] final  -49.27 input  175.53 | X-H torsion
[ 8008 7997 7996 7995 ] final -139.98 input   59.86 | X-H torsion
[ 10167 10162 10161 10158 ] final  140.56 input  -65.29 | X-H torsion
[ 10718 10713 10712 10709 ] final   -5.13 input   66.30 | X-H torsion
[ 10763 10752 10751 10750 ] final -121.05 input  -60.55 | X-H torsion
[ 11005 11000 10999 10996 ] final  127.55 input  -57.11 | X-H torsion

> <Gold.Protein.ActiveResidues>
 VAL166  LYS551  ARG553  GLY616  TRP617  ASP618  TYR619  PRO620  LYS621  CYS622 
 ASP623  PHE694  ASN695  SER759  ASP760  ASP761  ALA762  ILE779  LEU786  VAL792 
 PHE793  MET794  SER795  GLU796  ALA797  LYS798  CYS799  TRP800  GLU811  SER814 

> <Gold.Protein.RotatedAtoms>
  150.6874  134.2580  159.4537 H   0  0  0  0  0  0  0  0  0  0  0  0  # atno 6907 bound_to 6896
  152.0512  134.9650  160.0584 H   0  0  0  0  0  0  0  0  0  0  0  0  # atno 6908 bound_to 6896
  152.1113  133.4267  159.4669 H   0  0  0  0  0  0  0  0  0  0  0  0  # atno 6909 bound_to 6896
  145.9424  140.7650  142.9545 H   0  0  0  0  0  0  0  0  0  0  0  0  # atno 7974 bound_to 7965
  155.4539  140.0540  157.2998 H   0  0  0  0  0  0  0  0  0  0  0  0  # atno 8008 bound_to 7997
  154.4766  140.2063  155.9820 H   0  0  0  0  0  0  0  0  0  0  0  0  # atno 8009 bound_to 7997
  156.1141  140.3199  155.8118 H   0  0  0  0  0  0  0  0  0  0  0  0  # atno 8010 bound_to 7997
  139.5045  144.6226  151.6014 H   0  0  0  0  0  0  0  0  0  0  0  0  # atno 10167 bound_to 10162
  156.7512  130.5240  149.5804 H   0  0  0  0  0  0  0  0  0  0  0  0  # atno 10718 bound_to 10713
  154.8659  135.4181  154.2558 H   0  0  0  0  0  0  0  0  0  0  0  0  # atno 10763 bound_to 10752
  153.3496  135.6998  153.6805 H   0  0  0  0  0  0  0  0  0  0  0  0  # atno 10764 bound_to 10752
  153.5750  135.3584  155.2825 H   0  0  0  0  0  0  0  0  0  0  0  0  # atno 10765 bound_to 10752
  139.9513  134.9621  156.8871 H   0  0  0  0  0  0  0  0  0  0  0  0  # atno 11005 bound_to 11000
  144.6781  140.2301  143.7356 LP  0  0  0  0  0  0  0  0  0  0  0  0  # atno 17320 bound_to 7965
  145.8282  139.2074  143.1898 LP  0  0  0  0  0  0  0  0  0  0  0  0  # atno 17321 bound_to 7965
  140.5933  143.9740  150.6338 LP  0  0  0  0  0  0  0  0  0  0  0  0  # atno 17342 bound_to 10162
  140.2928  143.3313  152.1046 LP  0  0  0  0  0  0  0  0  0  0  0  0  # atno 17343 bound_to 10162
  156.1400  130.6238  151.0454 LP  0  0  0  0  0  0  0  0  0  0  0  0  # atno 17370 bound_to 10713
  157.6776  131.0846  150.7453 LP  0  0  0  0  0  0  0  0  0  0  0  0  # atno 17371 bound_to 10713
  140.5712  134.0442  155.7431 LP  0  0  0  0  0  0  0  0  0  0  0  0  # atno 17394 bound_to 11000
  141.1177  133.9514  157.2791 LP  0  0  0  0  0  0  0  0  0  0  0  0  # atno 17395 bound_to 11000

$$$$
