AV-unprocessed.smi:2159|AV-procd|sdf|8791|dock8
  -GOLD-   2272011573D 1   1.00000     0.00000
 Structure written by MMmdl.
 47 49  0  0  0  0  0  0  0  0  1 V2000
  151.5963  137.1622  154.3962 O   0  0  0  0  0  0  0  0  0  0  0  0
  151.0253  137.0363  155.4796 C   0  0  0  0  0  0  0  0  0  0  0  0
  151.0389  138.1831  156.4910 C   0  0  0  0  0  0  0  0  0  0  0  0
  151.7595  139.4274  155.9360 C   0  0  0  0  0  0  0  0  0  0  0  0
  151.7509  140.5270  156.9027 N   0  0  0  0  0  0  0  0  0  0  0  0
  152.4953  140.5573  158.0242 C   0  0  0  0  0  0  0  0  0  0  0  0
  153.3496  139.7437  158.3739 O   0  0  0  0  0  0  0  0  0  0  0  0
  152.0603  141.7449  158.8697 C   0  0  1  0  0  0  0  0  0  0  0  0
  153.0371  142.5426  159.7349 C   0  0  0  0  0  0  0  0  0  0  0  0
  152.2083  143.6477  160.4420 C   0  0  0  0  0  0  0  0  0  0  0  0
  151.3161  144.4846  159.4781 C   0  0  0  0  0  0  0  0  0  0  0  0
  150.4870  143.6308  158.4819 C   0  0  0  0  0  0  0  0  0  0  0  0
  151.4597  142.6559  157.8170 C   0  0  2  0  0  0  0  0  0  0  0  0
  151.0190  141.6491  156.7646 C   0  0  0  0  0  0  0  0  0  0  0  0
  150.1801  141.8890  155.8966 O   0  0  0  0  0  0  0  0  0  0  0  0
  150.3949  135.9128  155.8586 N   0  0  0  0  0  0  0  0  0  0  0  0
  150.3799  134.6577  155.1105 C   0  0  0  0  0  0  0  0  0  0  0  0
  149.6117  133.5410  155.8472 C   0  0  0  0  0  0  0  0  0  0  0  0
  149.7958  132.1596  155.2395 C   0  0  0  0  0  0  0  0  0  0  0  0
  150.6787  131.2297  155.8280 C   0  0  0  0  0  0  0  0  0  0  0  0
  150.7777  129.9456  155.2584 C   0  0  0  0  0  0  0  0  0  0  0  0
  149.9951  129.6424  154.1275 C   0  0  0  0  0  0  0  0  0  0  0  0
  149.1454  130.6416  153.6131 C   0  0  0  0  0  0  0  0  0  0  0  0
  149.0419  131.8751  154.1524 N   0  0  0  0  0  0  0  0  0  0  0  0
  150.0119  138.4306  156.7618 H   0  0  0  0  0  0  0  0  0  0  0  0
  151.5310  137.8471  157.4053 H   0  0  0  0  0  0  0  0  0  0  0  0
  152.7912  139.1831  155.6756 H   0  0  0  0  0  0  0  0  0  0  0  0
  151.2911  139.7476  155.0033 H   0  0  0  0  0  0  0  0  0  0  0  0
  151.2740  141.3568  159.5214 H   0  0  0  0  0  0  0  0  0  0  0  0
  153.5200  141.8990  160.4709 H   0  0  0  0  0  0  0  0  0  0  0  0
  153.8273  142.9827  159.1251 H   0  0  0  0  0  0  0  0  0  0  0  0
  151.5653  143.1772  161.1869 H   0  0  0  0  0  0  0  0  0  0  0  0
  152.8730  144.3096  160.9978 H   0  0  0  0  0  0  0  0  0  0  0  0
  150.6509  145.1276  160.0552 H   0  0  0  0  0  0  0  0  0  0  0  0
  151.9603  145.1558  158.9088 H   0  0  0  0  0  0  0  0  0  0  0  0
  149.6925  143.0936  159.0012 H   0  0  0  0  0  0  0  0  0  0  0  0
  150.0098  144.2704  157.7387 H   0  0  0  0  0  0  0  0  0  0  0  0
  152.2464  143.2423  157.3367 H   0  0  0  0  0  0  0  0  0  0  0  0
  149.9536  135.9043  156.7668 H   0  0  0  0  0  0  0  0  0  0  0  0
  149.9176  134.8406  154.1404 H   0  0  0  0  0  0  0  0  0  0  0  0
  151.3979  134.3252  154.9007 H   0  0  0  0  0  0  0  0  0  0  0  0
  149.9298  133.5108  156.8906 H   0  0  0  0  0  0  0  0  0  0  0  0
  148.5479  133.7799  155.8663 H   0  0  0  0  0  0  0  0  0  0  0  0
  151.2555  131.4889  156.7036 H   0  0  0  0  0  0  0  0  0  0  0  0
  151.4383  129.2051  155.6847 H   0  0  0  0  0  0  0  0  0  0  0  0
  150.0437  128.6671  153.6664 H   0  0  0  0  0  0  0  0  0  0  0  0
  148.5284  130.4435  152.7489 H   0  0  0  0  0  0  0  0  0  0  0  0
  1  2  2  0  0  0  0
  2  3  1  0  0  0  0
  2 16  1  0  0  0  0
  3  4  1  0  0  0  0
  3 25  1  0  0  0  0
  3 26  1  0  0  0  0
  4  5  1  0  0  0  0
  4 27  1  0  0  0  0
  4 28  1  0  0  0  0
  5 14  1  0  0  0  0
  5  6  1  0  0  0  0
  6  7  2  0  0  0  0
  6  8  1  0  0  0  0
  8 13  1  0  0  0  0
  8  9  1  0  0  0  0
  8 29  1  0  0  0  0
  9 10  1  0  0  0  0
  9 30  1  0  0  0  0
  9 31  1  0  0  0  0
 10 11  1  0  0  0  0
 10 32  1  0  0  0  0
 10 33  1  0  0  0  0
 11 12  1  0  0  0  0
 11 34  1  0  0  0  0
 11 35  1  0  0  0  0
 12 13  1  0  0  0  0
 12 36  1  0  0  0  0
 12 37  1  0  0  0  0
 13 14  1  0  0  0  0
 13 38  1  0  0  0  0
 14 15  2  0  0  0  0
 16 17  1  0  0  0  0
 16 39  1  0  0  0  0
 17 18  1  0  0  0  0
 17 40  1  0  0  0  0
 17 41  1  0  0  0  0
 18 19  1  0  0  0  0
 18 42  1  0  0  0  0
 18 43  1  0  0  0  0
 19 24  1  0  0  0  0
 19 20  2  0  0  0  0
 20 21  1  0  0  0  0
 20 44  1  0  0  0  0
 21 22  2  0  0  0  0
 21 45  1  0  0  0  0
 22 23  1  0  0  0  0
 22 46  1  0  0  0  0
 23 24  2  0  0  0  0
 23 47  1  0  0  0  0
M  END
> <s_m_source_file>
AV-unprocessed.smi

> <i_m_source_file_index>
2159

> <i_lp_mmshare_version>
43012

> <i_f3d_flags>
0

> <s_epik_input>
bjFbY0hdW2NIXVtjSF1bY0hdYzFbQ0gyXVtDSDJdW05IXUMoPU8pW0NIMl1bQ0gyXU4oQzI9TylDKD1PKVtDQEhdKFtDQEBIXTIzKVtDSDJdW0NIMl1bQ0gyXVtDSDJdMw==

> <s_epik_cmdline>
J2VwaWtfcHl0aG9uJywgJy1waCcsICc3LjAnLCAnLXRuJywgJzgnLCAnLW1hJywgJzIwMCcsICctbWV0YWxfYmluZGluZycsICctaW1hZScsICc8aW5maWxlLm1hZT4nLCAnLW9tYWUnLCAnPG91dGZpbGUubWFlPic=

> <r_lp_tautomer_probability>
1

> <r_epik_Ionization_Penalty>
0.026624

> <r_epik_Ionization_Penalty_Charging>
0

> <r_epik_Ionization_Penalty_Neutral>
0.026624

> <r_epik_State_Penalty>
0.0217444

> <r_epik_Charging_Adjusted_Penalty>
0.0217444

> <i_epik_Tot_Q>
0

> <i_epik_Tot_abs_Q>
0

> <r_epik_Metal_State_Penalty>
0.0208054

> <b_epik_Metal_Only>
0

> <s_lp_Force_Field>
OPLS_2005

> <r_lp_Energy>
31.6251

> <b_lp_Chiralities_Consistent>
1

> <s_lp_Variant>
AV-unprocessed.smi:2159-1

> <Gold.Version>
5.8.1

> <Gold.Id.Protein>
6NUR|6NUR_protein|mol2

> <Gold.PLP.Fitness>
51.5983

> <Gold.PLP.PLP>
-43.4179

> <Gold.PLP.part.hbond>
-2.0000

> <Gold.PLP.part.metal>
0.0000

> <Gold.PLP.part.buried>
-6.7240

> <Gold.PLP.part.nonpolar>
-35.1338

> <Gold.PLP.part.repulsive>
0.4574

> <Gold.PLP.ligand.clash>
0.0000

> <Gold.PLP.ligand.torsion>
0.4360

> <Gold.PLP.Chemscore.Hbond>
1.9913

> <Gold.PLP.Chemscore.CHOScore>
0.9962

> <Gold.PLP.Chemscore.Metal>
0.0000

> <Gold.Chemscore.Hbonds>
donor molecule, donor type, donor heavy atom, donor atom, acceptor molecule, acceptor atom, score
      P1  H  7997  8008       L1     7  1.00
      P1  H 10752 10763       L1     1  0.98
      L1  C    23    47       P1 10747  0.99

> <Gold.PLP.Chemscore.Internal.Correction>
0.0901

> <Gold.Rescore>
     Score         DG    S(hbond)    S(metal)    S(lipo)     H(rot)  DE(clash)    DE(int)     intcor
     17.78     -18.37       1.62        0.00     106.94       1.97       0.11       0.49       ----

> <Gold.Chemscore.Fitness>
17.7782

> <Gold.Chemscore.DG>
-18.3744

> <Gold.Chemscore.ZeroCoef>
-5.4800

> <Gold.Chemscore.Hbond>
1.6248

> <Gold.Chemscore.Metal>
0.0000

> <Gold.Chemscore.Lipo>
106.9390

> <Gold.Chemscore.Internal_Hbond>
0.0000

> <Gold.Chemscore.DEClash>
0.1110

> <Gold.Chemscore.DEInternal>
0.4851

> <Gold.Chemscore.Rot>
1.9704

> <Gold.Chemscore.Internal.Correction>
   9.000000E+99

> <Gold.Chemscore.Hbonds>
donor molecule, donor type, donor heavy atom, donor atom, acceptor molecule, acceptor atom, score
      P1  H  7997  8008       L1     7  0.48
      P1  H 10752 10763       L1     1  0.69

> <Gold.Chemscore.Hbond.Weighted>
-5.4268

> <Gold.Chemscore.Metal.Weighted>
-0.0000

> <Gold.Chemscore.Lipo.Weighted>
-12.5119

> <Gold.Chemscore.Internal_Hbond.Weighted>
0.0000

> <Gold.Chemscore.DEClash.Weighted>
0.1110

> <Gold.Chemscore.DEInternal.Weighted>
0.4851

> <Gold.Chemscore.Rot.Weighted>
5.0443

> <Gold.Chemscore.Internal.Correction.Weighted>
   9.000000E+99

> <Gold.Protein.RotatedTorsions>
[ 6907 6896 6895 6894 ] final  161.40 input  -60.11 | X-H torsion
[ 7974 7965 7964 7962 ] final -127.78 input  175.53 | X-H torsion
[ 8008 7997 7996 7995 ] final -103.47 input   59.86 | X-H torsion
[ 10167 10162 10161 10158 ] final  131.22 input  -65.29 | X-H torsion
[ 10718 10713 10712 10709 ] final   96.68 input   66.30 | X-H torsion
[ 10763 10752 10751 10750 ] final   30.89 input  -60.55 | X-H torsion
[ 11005 11000 10999 10996 ] final   40.92 input  -57.11 | X-H torsion

> <Gold.Protein.ActiveResidues>
 VAL166  LYS551  ARG553  GLY616  TRP617  ASP618  TYR619  PRO620  LYS621  CYS622 
 ASP623  PHE694  ASN695  SER759  ASP760  ASP761  ALA762  ILE779  LEU786  VAL792 
 PHE793  MET794  SER795  GLU796  ALA797  LYS798  CYS799  TRP800  GLU811  SER814 

> <Gold.Protein.RotatedAtoms>
  151.9562  133.3681  159.4017 H   0  0  0  0  0  0  0  0  0  0  0  0  # atno 6907 bound_to 6896
  150.6972  134.4289  159.5248 H   0  0  0  0  0  0  0  0  0  0  0  0  # atno 6908 bound_to 6896
  152.1970  134.8622  160.0562 H   0  0  0  0  0  0  0  0  0  0  0  0  # atno 6909 bound_to 6896
  144.9736  140.7570  143.4655 H   0  0  0  0  0  0  0  0  0  0  0  0  # atno 7974 bound_to 7965
  154.8714  140.0422  157.1726 H   0  0  0  0  0  0  0  0  0  0  0  0  # atno 8008 bound_to 7997
  154.8735  140.2962  155.5446 H   0  0  0  0  0  0  0  0  0  0  0  0  # atno 8009 bound_to 7997
  156.2999  140.2424  156.3727 H   0  0  0  0  0  0  0  0  0  0  0  0  # atno 8010 bound_to 7997
  139.5394  144.6715  151.4676 H   0  0  0  0  0  0  0  0  0  0  0  0  # atno 10167 bound_to 10162
  157.6923  131.0585  150.4528 H   0  0  0  0  0  0  0  0  0  0  0  0  # atno 10718 bound_to 10713
  153.0346  135.6453  154.1114 H   0  0  0  0  0  0  0  0  0  0  0  0  # atno 10763 bound_to 10752
  154.0831  135.2872  155.3288 H   0  0  0  0  0  0  0  0  0  0  0  0  # atno 10764 bound_to 10752
  154.6516  135.5424  153.7973 H   0  0  0  0  0  0  0  0  0  0  0  0  # atno 10765 bound_to 10752
  140.1884  134.4017  155.8160 H   0  0  0  0  0  0  0  0  0  0  0  0  # atno 11005 bound_to 11000
  145.2523  139.2027  143.4936 LP  0  0  0  0  0  0  0  0  0  0  0  0  # atno 17320 bound_to 7965
  146.3389  140.2438  142.8596 LP  0  0  0  0  0  0  0  0  0  0  0  0  # atno 17321 bound_to 7965
  140.6617  143.8485  150.6895 LP  0  0  0  0  0  0  0  0  0  0  0  0  # atno 17342 bound_to 10162
  140.1881  143.4059  152.1883 LP  0  0  0  0  0  0  0  0  0  0  0  0  # atno 17343 bound_to 10162
  156.4878  130.4088  149.6424 LP  0  0  0  0  0  0  0  0  0  0  0  0  # atno 17370 bound_to 10713
  156.3446  130.7400  151.2350 LP  0  0  0  0  0  0  0  0  0  0  0  0  # atno 17371 bound_to 10713
  141.2225  133.7034  156.8052 LP  0  0  0  0  0  0  0  0  0  0  0  0  # atno 17394 bound_to 11000
  140.2188  134.8773  157.3354 LP  0  0  0  0  0  0  0  0  0  0  0  0  # atno 17395 bound_to 11000

$$$$
