AV-unprocessed.smi:1501|AV-procd|sdf|6066|dock9
  -GOLD-   22720 6183D 1   1.00000     0.00000
 Structure written by MMmdl.
 48 49  0  0  0  0  0  0  0  0  2 V2000
  148.5147  141.3376  154.7844 C   0  0  0  0  0  0  0  0  0  0  0  0
  149.7984  141.1156  155.5641 C   0  0  0  0  0  0  0  0  0  0  0  0
  150.0515  142.0279  156.5987 N   0  0  0  0  0  0  0  0  0  0  0  0
  151.1288  141.9201  157.3167 C   0  0  0  0  0  0  0  0  0  0  0  0
  151.4162  142.8090  158.3561 N   0  0  0  0  0  0  0  0  0  0  0  0
  150.5320  143.9403  158.6463 C   0  0  0  0  0  0  0  0  0  0  0  0
  151.2761  145.0525  159.4039 C   0  0  0  0  0  0  0  0  0  0  0  0
  151.8589  144.5217  160.5866 O   0  0  0  0  0  0  0  0  0  0  0  0
  152.8094  143.5098  160.2835 C   0  0  0  0  0  0  0  0  0  0  0  0
  152.1150  142.3467  159.5557 C   0  0  0  0  0  0  0  0  0  0  0  0
  152.0607  140.9146  157.1116 N   0  5  0  0  0  0  0  0  0  0  0  0
  151.8761  139.9880  156.1285 C   0  0  0  0  0  0  0  0  0  0  0  0
  152.6809  139.0786  155.9295 O   0  0  0  0  0  0  0  0  0  0  0  0
  150.6645  140.0980  155.2976 C   0  0  0  0  0  0  0  0  0  0  0  0
  150.4471  139.0880  154.1730 C   0  0  0  0  0  0  0  0  0  0  0  0
  149.2945  138.1142  154.4845 C   0  0  0  0  0  0  0  0  0  0  0  0
  149.7477  136.8627  155.2425 C   0  0  0  0  0  0  0  0  0  0  0  0
  150.0889  136.9313  156.4240 O   0  0  0  0  0  0  0  0  0  0  0  0
  149.7570  135.7183  154.5424 N   0  0  0  0  0  0  0  0  0  0  0  0
  150.1677  134.4190  155.0654 C   0  0  0  0  0  0  0  0  0  0  0  0
  149.1685  133.2950  154.7177 C   0  0  0  0  0  0  0  0  0  0  0  0
  149.7134  131.9284  155.1577 C   0  0  0  0  0  0  0  0  0  0  0  0
  148.8039  133.2801  153.2233 C   0  0  0  0  0  0  0  0  0  0  0  0
  147.9241  140.4221  154.7461 H   0  0  0  0  0  0  0  0  0  0  0  0
  148.7393  141.6504  153.7646 H   0  0  0  0  0  0  0  0  0  0  0  0
  147.9012  142.1120  155.2466 H   0  0  0  0  0  0  0  0  0  0  0  0
  150.1044  144.3602  157.7355 H   0  0  0  0  0  0  0  0  0  0  0  0
  149.6952  143.5802  159.2457 H   0  0  0  0  0  0  0  0  0  0  0  0
  152.0453  145.5029  158.7746 H   0  0  0  0  0  0  0  0  0  0  0  0
  150.5827  145.8478  159.6775 H   0  0  0  0  0  0  0  0  0  0  0  0
  153.6167  143.9216  159.6755 H   0  0  0  0  0  0  0  0  0  0  0  0
  153.2592  143.1558  161.2111 H   0  0  0  0  0  0  0  0  0  0  0  0
  151.3965  141.8653  160.2200 H   0  0  0  0  0  0  0  0  0  0  0  0
  152.8619  141.5956  159.2948 H   0  0  0  0  0  0  0  0  0  0  0  0
  150.2475  139.6190  153.2424 H   0  0  0  0  0  0  0  0  0  0  0  0
  151.3702  138.5353  153.9906 H   0  0  0  0  0  0  0  0  0  0  0  0
  148.5293  138.6287  155.0680 H   0  0  0  0  0  0  0  0  0  0  0  0
  148.8172  137.7948  153.5577 H   0  0  0  0  0  0  0  0  0  0  0  0
  149.4603  135.7508  153.5776 H   0  0  0  0  0  0  0  0  0  0  0  0
  151.1492  134.1840  154.6527 H   0  0  0  0  0  0  0  0  0  0  0  0
  150.3013  134.4875  156.1465 H   0  0  0  0  0  0  0  0  0  0  0  0
  148.2499  133.4698  155.2797 H   0  0  0  0  0  0  0  0  0  0  0  0
  150.6394  131.6834  154.6364 H   0  0  0  0  0  0  0  0  0  0  0  0
  148.9953  131.1338  154.9533 H   0  0  0  0  0  0  0  0  0  0  0  0
  149.9206  131.9145  156.2282 H   0  0  0  0  0  0  0  0  0  0  0  0
  149.6874  133.1290  152.6023 H   0  0  0  0  0  0  0  0  0  0  0  0
  148.3357  134.2155  152.9156 H   0  0  0  0  0  0  0  0  0  0  0  0
  148.0998  132.4781  152.9996 H   0  0  0  0  0  0  0  0  0  0  0  0
  1  2  1  0  0  0  0
  1 24  1  0  0  0  0
  1 25  1  0  0  0  0
  1 26  1  0  0  0  0
  2 14  2  0  0  0  0
  2  3  1  0  0  0  0
  3  4  2  0  0  0  0
  4  5  1  0  0  0  0
  4 11  1  0  0  0  0
  5 10  1  0  0  0  0
  5  6  1  0  0  0  0
  6  7  1  0  0  0  0
  6 27  1  0  0  0  0
  6 28  1  0  0  0  0
  7  8  1  0  0  0  0
  7 29  1  0  0  0  0
  7 30  1  0  0  0  0
  8  9  1  0  0  0  0
  9 10  1  0  0  0  0
  9 31  1  0  0  0  0
  9 32  1  0  0  0  0
 10 33  1  0  0  0  0
 10 34  1  0  0  0  0
 11 12  1  0  0  0  0
 12 13  2  0  0  0  0
 12 14  1  0  0  0  0
 14 15  1  0  0  0  0
 15 16  1  0  0  0  0
 15 35  1  0  0  0  0
 15 36  1  0  0  0  0
 16 17  1  0  0  0  0
 16 37  1  0  0  0  0
 16 38  1  0  0  0  0
 17 18  2  0  0  0  0
 17 19  1  0  0  0  0
 19 20  1  0  0  0  0
 19 39  1  0  0  0  0
 20 21  1  0  0  0  0
 20 40  1  0  0  0  0
 20 41  1  0  0  0  0
 21 22  1  0  0  0  0
 21 23  1  0  0  0  0
 21 42  1  0  0  0  0
 22 43  1  0  0  0  0
 22 44  1  0  0  0  0
 22 45  1  0  0  0  0
 23 46  1  0  0  0  0
 23 47  1  0  0  0  0
 23 48  1  0  0  0  0
M  CHG  1  11  -1
M  END
> <s_m_source_file>
AV-unprocessed.smi

> <i_m_source_file_index>
1501

> <i_lp_mmshare_version>
43012

> <i_f3d_flags>
0

> <s_epik_input>
W0NIMl0xW0NIMl1PW0NIMl1bQ0gyXU4xYyhuYzJbQ0gzXSlbbkhdYyg9TyljMltDSDJdW0NIMl1DKD1PKVtOSF1bQ0gyXVtDSF0oW0NIM10pW0NIM10=

> <s_epik_cmdline>
J2VwaWtfcHl0aG9uJywgJy1waCcsICc3LjAnLCAnLXRuJywgJzgnLCAnLW1hJywgJzIwMCcsICctbWV0YWxfYmluZGluZycsICctaW1hZScsICc8aW5maWxlLm1hZT4nLCAnLW9tYWUnLCAnPG91dGZpbGUubWFlPic=

> <r_lp_tautomer_probability>
1

> <r_epik_Ionization_Penalty>
5.04715

> <r_epik_Ionization_Penalty_Charging>
9.89309e-08

> <r_epik_Ionization_Penalty_Neutral>
5.04715

> <r_epik_State_Penalty>
2.57778

> <r_epik_Charging_Adjusted_Penalty>
2.57778

> <i_epik_Tot_Q>
-1

> <i_epik_Tot_abs_Q>
1

> <r_epik_Metal_State_Penalty>
0.1232

> <b_epik_Metal_Only>
0

> <s_lp_Force_Field>
OPLS_2005

> <r_lp_Energy>
25.0321

> <b_lp_Chiralities_Consistent>
1

> <s_lp_Variant>
AV-unprocessed.smi:1501-3

> <Gold.Version>
5.8.1

> <Gold.Id.Protein>
6NUR|6NUR_protein|mol2

> <Gold.PLP.Fitness>
48.1692

> <Gold.PLP.PLP>
-43.6663

> <Gold.PLP.part.hbond>
-2.1573

> <Gold.PLP.part.metal>
0.0000

> <Gold.PLP.part.buried>
-2.3507

> <Gold.PLP.part.nonpolar>
-38.6549

> <Gold.PLP.part.repulsive>
0.5475

> <Gold.PLP.ligand.clash>
0.0000

> <Gold.PLP.ligand.torsion>
0.7505

> <Gold.PLP.Chemscore.Hbond>
1.9000

> <Gold.PLP.Chemscore.CHOScore>
0.0000

> <Gold.PLP.Chemscore.Metal>
0.0000

> <Gold.Chemscore.Hbonds>
donor molecule, donor type, donor heavy atom, donor atom, acceptor molecule, acceptor atom, score
      L1  H    19    39       P1  7948  1.00
      P1  H  7997  8010       L1    13  0.85

> <Gold.PLP.Chemscore.Internal.Correction>
0.3038

> <Gold.Rescore>
     Score         DG    S(hbond)    S(metal)    S(lipo)     H(rot)  DE(clash)    DE(int)     intcor
     14.71     -15.38       1.03        0.00      94.19       1.79       0.12       0.54       ----

> <Gold.Chemscore.Fitness>
14.7081

> <Gold.Chemscore.DG>
-15.3752

> <Gold.Chemscore.ZeroCoef>
-5.4800

> <Gold.Chemscore.Hbond>
1.0332

> <Gold.Chemscore.Metal>
0.0000

> <Gold.Chemscore.Lipo>
94.1906

> <Gold.Chemscore.Internal_Hbond>
0.0000

> <Gold.Chemscore.DEClash>
0.1231

> <Gold.Chemscore.DEInternal>
0.5440

> <Gold.Chemscore.Rot>
1.7875

> <Gold.Chemscore.Internal.Correction>
   9.000000E+99

> <Gold.Chemscore.Hbonds>
donor molecule, donor type, donor heavy atom, donor atom, acceptor molecule, acceptor atom, score
      L1  H    19    39       P1  7948  0.35
      P1  H  7997  8010       L1    13  0.14

> <Gold.Chemscore.Hbond.Weighted>
-3.4509

> <Gold.Chemscore.Metal.Weighted>
-0.0000

> <Gold.Chemscore.Lipo.Weighted>
-11.0203

> <Gold.Chemscore.Internal_Hbond.Weighted>
0.0000

> <Gold.Chemscore.DEClash.Weighted>
0.1231

> <Gold.Chemscore.DEInternal.Weighted>
0.5440

> <Gold.Chemscore.Rot.Weighted>
4.5760

> <Gold.Chemscore.Internal.Correction.Weighted>
   9.000000E+99

> <Gold.Protein.RotatedTorsions>
[ 6907 6896 6895 6894 ] final -177.52 input  -60.11 | X-H torsion
[ 7974 7965 7964 7962 ] final   75.05 input  175.53 | X-H torsion
[ 8008 7997 7996 7995 ] final   73.32 input   59.86 | X-H torsion
[ 10167 10162 10161 10158 ] final   97.70 input  -65.29 | X-H torsion
[ 10718 10713 10712 10709 ] final   95.34 input   66.30 | X-H torsion
[ 10763 10752 10751 10750 ] final  156.89 input  -60.55 | X-H torsion
[ 11005 11000 10999 10996 ] final  113.91 input  -57.11 | X-H torsion

> <Gold.Protein.ActiveResidues>
 VAL166  LYS551  ARG553  GLY616  TRP617  ASP618  TYR619  PRO620  LYS621  CYS622 
 ASP623  PHE694  ASN695  SER759  ASP760  ASP761  ALA762  ILE779  LEU786  VAL792 
 PHE793  MET794  SER795  GLU796  ALA797  LYS798  CYS799  TRP800  GLU811  SER814 

> <Gold.Protein.RotatedAtoms>
  151.6223  133.3338  159.3090 H   0  0  0  0  0  0  0  0  0  0  0  0  # atno 6907 bound_to 6896
  150.8100  134.7252  159.6690 H   0  0  0  0  0  0  0  0  0  0  0  0  # atno 6908 bound_to 6896
  152.4196  134.5984  160.0045 H   0  0  0  0  0  0  0  0  0  0  0  0  # atno 6909 bound_to 6896
  145.7205  139.2647  143.1598 H   0  0  0  0  0  0  0  0  0  0  0  0  # atno 7974 bound_to 7965
  155.7819  140.3481  155.5302 H   0  0  0  0  0  0  0  0  0  0  0  0  # atno 8008 bound_to 7997
  155.8720  140.0988  157.1564 H   0  0  0  0  0  0  0  0  0  0  0  0  # atno 8009 bound_to 7997
  154.4018  140.1338  156.4077 H   0  0  0  0  0  0  0  0  0  0  0  0  # atno 8010 bound_to 7997
  139.7777  144.6900  151.0067 H   0  0  0  0  0  0  0  0  0  0  0  0  # atno 10167 bound_to 10162
  157.6939  131.0542  150.4324 H   0  0  0  0  0  0  0  0  0  0  0  0  # atno 10718 bound_to 10713
  154.1915  135.2794  155.3020 H   0  0  0  0  0  0  0  0  0  0  0  0  # atno 10763 bound_to 10752
  154.5925  135.5555  153.7296 H   0  0  0  0  0  0  0  0  0  0  0  0  # atno 10764 bound_to 10752
  153.0111  135.6372  154.2053 H   0  0  0  0  0  0  0  0  0  0  0  0  # atno 10765 bound_to 10752
  139.8966  134.9558  156.6812 H   0  0  0  0  0  0  0  0  0  0  0  0  # atno 11005 bound_to 11000
  146.0630  140.7951  142.9725 LP  0  0  0  0  0  0  0  0  0  0  0  0  # atno 17320 bound_to 7965
  144.6918  140.3225  143.7230 LP  0  0  0  0  0  0  0  0  0  0  0  0  # atno 17321 bound_to 7965
  140.7817  143.4518  151.0402 LP  0  0  0  0  0  0  0  0  0  0  0  0  # atno 17342 bound_to 10162
  139.8199  143.7834  152.3176 LP  0  0  0  0  0  0  0  0  0  0  0  0  # atno 17343 bound_to 10162
  156.4689  130.4048  149.6530 LP  0  0  0  0  0  0  0  0  0  0  0  0  # atno 17370 bound_to 10713
  156.3618  130.7485  151.2458 LP  0  0  0  0  0  0  0  0  0  0  0  0  # atno 17371 bound_to 10713
  140.7298  133.9069  155.8203 LP  0  0  0  0  0  0  0  0  0  0  0  0  # atno 17394 bound_to 11000
  141.0162  134.0952  157.4169 LP  0  0  0  0  0  0  0  0  0  0  0  0  # atno 17395 bound_to 11000

$$$$
