AV-unprocessed.smi:1740|AV-procd|sdf|7010|dock2
  -GOLD-   22720 8223D 1   1.00000     0.00000
 Structure written by MMmdl.
 53 55  0  0  0  0  0  0  0  0  3 V2000
  142.3177  132.5725  150.9809 N   0  0  0  0  0  0  0  0  0  0  0  0
  143.5293  132.1686  150.5925 C   0  0  0  0  0  0  0  0  0  0  0  0
  143.7308  131.6709  149.4860 O   0  0  0  0  0  0  0  0  0  0  0  0
  144.6761  132.3715  151.5885 C   0  0  0  0  0  0  0  0  0  0  0  0
  144.9045  133.7985  151.9344 N   0  3  2  0  0  0  0  0  0  0  0  0
  143.9315  134.3215  152.9310 C   0  0  0  0  0  0  0  0  0  0  0  0
  144.2895  135.7547  153.3577 C   0  0  0  0  0  0  0  0  0  0  0  0
  144.3677  136.6918  152.1383 C   0  0  1  0  0  0  0  0  0  0  0  0
  144.7936  138.0323  152.5312 N   0  0  0  0  0  0  0  0  0  0  0  0
  146.0457  138.3738  152.8680 C   0  0  0  0  0  0  0  0  0  0  0  0
  146.9921  137.5870  152.8568 O   0  0  0  0  0  0  0  0  0  0  0  0
  146.1286  139.6745  153.1954 N   0  0  0  0  0  0  0  0  0  0  0  0
  147.2894  140.4030  153.5823 C   0  0  0  0  0  0  0  0  0  0  0  0
  148.5566  139.7695  153.6615 C   0  0  0  0  0  0  0  0  0  0  0  0
  149.6766  140.4902  154.1161 C   0  0  0  0  0  0  0  0  0  0  0  0
  149.5113  141.8312  154.5013 C   0  0  0  0  0  0  0  0  0  0  0  0
  148.2914  142.4024  154.4270 N   0  3  0  0  0  0  0  0  0  0  0  0
  147.1778  141.7664  153.9843 C   0  0  0  0  0  0  0  0  0  0  0  0
  145.9692  142.4995  153.9528 N   0  0  0  0  0  0  0  0  0  0  0  0
  145.3676  142.9866  155.1893 C   0  0  0  0  0  0  0  0  0  0  0  0
  144.3288  144.0143  154.7483 C   0  0  0  0  0  0  0  0  0  0  0  0
  144.9897  144.6433  153.5258 C   0  0  0  0  0  0  0  0  0  0  0  0
  145.7588  143.4797  152.8920 C   0  0  0  0  0  0  0  0  0  0  0  0
  145.3498  136.1110  151.1085 C   0  0  0  0  0  0  0  0  0  0  0  0
  144.9729  134.6679  150.7320 C   0  0  0  0  0  0  0  0  0  0  0  0
  141.5305  132.4652  150.3568 H   0  0  0  0  0  0  0  0  0  0  0  0
  142.1876  132.9889  151.8918 H   0  0  0  0  0  0  0  0  0  0  0  0
  144.4079  131.8148  152.4877 H   0  0  0  0  0  0  0  0  0  0  0  0
  145.5969  131.9262  151.2075 H   0  0  0  0  0  0  0  0  0  0  0  0
  142.9265  134.2988  152.5063 H   0  0  0  0  0  0  0  0  0  0  0  0
  143.9136  133.6808  153.8130 H   0  0  0  0  0  0  0  0  0  0  0  0
  143.5465  136.1191  154.0681 H   0  0  0  0  0  0  0  0  0  0  0  0
  145.2446  135.7487  153.8854 H   0  0  0  0  0  0  0  0  0  0  0  0
  143.3818  136.7542  151.6725 H   0  0  0  0  0  0  0  0  0  0  0  0
  144.0794  138.7453  152.5649 H   0  0  0  0  0  0  0  0  0  0  0  0
  145.2923  140.2240  153.0632 H   0  0  0  0  0  0  0  0  0  0  0  0
  148.6836  138.7294  153.4016 H   0  0  0  0  0  0  0  0  0  0  0  0
  150.6452  140.0160  154.1802 H   0  0  0  0  0  0  0  0  0  0  0  0
  150.3097  142.4594  154.8690 H   0  0  0  0  0  0  0  0  0  0  0  0
  144.9165  142.1747  155.7602 H   0  0  0  0  0  0  0  0  0  0  0  0
  146.1182  143.4725  155.8139 H   0  0  0  0  0  0  0  0  0  0  0  0
  143.4058  143.5120  154.4554 H   0  0  0  0  0  0  0  0  0  0  0  0
  144.0896  144.7389  155.5269 H   0  0  0  0  0  0  0  0  0  0  0  0
  144.2747  145.1015  152.8422 H   0  0  0  0  0  0  0  0  0  0  0  0
  145.6906  145.4151  153.8462 H   0  0  0  0  0  0  0  0  0  0  0  0
  146.6967  143.8187  152.4498 H   0  0  0  0  0  0  0  0  0  0  0  0
  145.1580  143.0209  152.1066 H   0  0  0  0  0  0  0  0  0  0  0  0
  145.3634  136.7325  150.2123 H   0  0  0  0  0  0  0  0  0  0  0  0
  146.3639  136.1264  151.5112 H   0  0  0  0  0  0  0  0  0  0  0  0
  145.7153  134.2764  150.0355 H   0  0  0  0  0  0  0  0  0  0  0  0
  144.0121  134.6513  150.2148 H   0  0  0  0  0  0  0  0  0  0  0  0
  145.8175  133.8367  152.3657 H   0  0  0  0  0  0  0  0  0  0  0  0
  148.2037  143.3768  154.7155 H   0  0  0  0  0  0  0  0  0  0  0  0
  1  2  1  0  0  0  0
  1 26  1  0  0  0  0
  1 27  1  0  0  0  0
  2  3  2  0  0  0  0
  2  4  1  0  0  0  0
  4  5  1  0  0  0  0
  4 28  1  0  0  0  0
  4 29  1  0  0  0  0
  5 25  1  0  0  0  0
  5  6  1  0  0  0  0
  5 52  1  0  0  0  0
  6  7  1  0  0  0  0
  6 30  1  0  0  0  0
  6 31  1  0  0  0  0
  7  8  1  0  0  0  0
  7 32  1  0  0  0  0
  7 33  1  0  0  0  0
  8  9  1  0  0  0  0
  8 24  1  0  0  0  0
  8 34  1  0  0  0  0
  9 10  1  0  0  0  0
  9 35  1  0  0  0  0
 10 11  2  0  0  0  0
 10 12  1  0  0  0  0
 12 13  1  0  0  0  0
 12 36  1  0  0  0  0
 13 18  1  0  0  0  0
 13 14  2  0  0  0  0
 14 15  1  0  0  0  0
 14 37  1  0  0  0  0
 15 16  2  0  0  0  0
 15 38  1  0  0  0  0
 16 17  1  0  0  0  0
 16 39  1  0  0  0  0
 17 18  2  0  0  0  0
 17 53  1  0  0  0  0
 18 19  1  0  0  0  0
 19 23  1  0  0  0  0
 19 20  1  0  0  0  0
 20 21  1  0  0  0  0
 20 40  1  0  0  0  0
 20 41  1  0  0  0  0
 21 22  1  0  0  0  0
 21 42  1  0  0  0  0
 21 43  1  0  0  0  0
 22 23  1  0  0  0  0
 22 44  1  0  0  0  0
 22 45  1  0  0  0  0
 23 46  1  0  0  0  0
 23 47  1  0  0  0  0
 24 25  1  0  0  0  0
 24 48  1  0  0  0  0
 24 49  1  0  0  0  0
 25 50  1  0  0  0  0
 25 51  1  0  0  0  0
M  CHG  1   5   1
M  CHG  1  17   1
M  END
> <s_m_source_file>
AV-unprocessed.smi

> <i_m_source_file_index>
1740

> <i_lp_mmshare_version>
43012

> <i_f3d_flags>
0

> <s_epik_input>
W05IMl1DKD1PKVtDSDJdTjFbQ0gyXVtDSDJdW0NIXShbQ0gyXVtDSDJdMSlbTkhdQyg9TylbTkhdYzJbY0hdW2NIXVtjSF1uYzJOM1tDSDJdW0NIMl1bQ0gyXVtDSDJdMw==

> <s_epik_cmdline>
J2VwaWtfcHl0aG9uJywgJy1waCcsICc3LjAnLCAnLXRuJywgJzgnLCAnLW1hJywgJzIwMCcsICctbWV0YWxfYmluZGluZycsICctaW1hZScsICc8aW5maWxlLm1hZT4nLCAnLW9tYWUnLCAnPG91dGZpbGUubWFlPic=

> <r_lp_tautomer_probability>
0.999994

> <r_epik_Ionization_Penalty>
2.11361

> <r_epik_Ionization_Penalty_Charging>
2.11355

> <r_epik_Ionization_Penalty_Neutral>
5.98217e-05

> <r_epik_State_Penalty>
2.13444

> <r_epik_Charging_Adjusted_Penalty>
4.24799

> <i_epik_Tot_Q>
2

> <i_epik_Tot_abs_Q>
2

> <r_epik_Metal_State_Penalty>
2.23528

> <b_epik_Metal_Only>
0

> <s_lp_Force_Field>
OPLS_2005

> <r_lp_Energy>
49.3709

> <b_lp_Chiralities_Consistent>
1

> <s_lp_Variant>
AV-unprocessed.smi:1740-5

> <Gold.Version>
5.8.1

> <Gold.Id.Protein>
6NUR|6NUR_protein|mol2

> <Gold.PLP.Fitness>
56.0280

> <Gold.PLP.PLP>
-41.5043

> <Gold.PLP.part.hbond>
-6.8178

> <Gold.PLP.part.metal>
0.0000

> <Gold.PLP.part.buried>
-5.9899

> <Gold.PLP.part.nonpolar>
-32.1798

> <Gold.PLP.part.repulsive>
3.5321

> <Gold.PLP.ligand.clash>
0.0000

> <Gold.PLP.ligand.torsion>
0.5145

> <Gold.PLP.Chemscore.Hbond>
5.0400

> <Gold.PLP.Chemscore.CHOScore>
0.0000

> <Gold.PLP.Chemscore.Metal>
0.0000

> <Gold.Chemscore.Hbonds>
donor molecule, donor type, donor heavy atom, donor atom, acceptor molecule, acceptor atom, score
      L1  H     1    26       P1 10186  0.13
      L1  H     9    35       P1 10175  0.98
      L1  H    12    36       P1 10175  1.00
      L1  H    17    53       P1  8028  1.95
      P1  H 10785 10796       L1     3  0.85

> <Gold.PLP.Chemscore.Internal.Correction>
0.4328

> <Gold.Rescore>
     Score         DG    S(hbond)    S(metal)    S(lipo)     H(rot)  DE(clash)    DE(int)     intcor
     13.73     -20.09       3.10        0.00      84.85       2.22       2.83       3.53       ----

> <Gold.Chemscore.Fitness>
13.7296

> <Gold.Chemscore.DG>
-20.0911

> <Gold.Chemscore.ZeroCoef>
-5.4800

> <Gold.Chemscore.Hbond>
3.1042

> <Gold.Chemscore.Metal>
0.0000

> <Gold.Chemscore.Lipo>
84.8534

> <Gold.Chemscore.Internal_Hbond>
0.0000

> <Gold.Chemscore.DEClash>
2.8301

> <Gold.Chemscore.DEInternal>
3.5314

> <Gold.Chemscore.Rot>
2.2207

> <Gold.Chemscore.Internal.Correction>
   9.000000E+99

> <Gold.Chemscore.Hbonds>
donor molecule, donor type, donor heavy atom, donor atom, acceptor molecule, acceptor atom, score
      L1  H     1    26       P1 10186  0.14
      L1  H     9    35       P1 10175  0.93
      L1  H    12    36       P1 10175  0.97
      L1  H    17    53       P1  8028  0.89
      P1  H 10785 10796       L1     3  0.85

> <Gold.Chemscore.Hbond.Weighted>
-10.3682

> <Gold.Chemscore.Metal.Weighted>
-0.0000

> <Gold.Chemscore.Lipo.Weighted>
-9.9278

> <Gold.Chemscore.Internal_Hbond.Weighted>
0.0000

> <Gold.Chemscore.DEClash.Weighted>
2.8301

> <Gold.Chemscore.DEInternal.Weighted>
3.5314

> <Gold.Chemscore.Rot.Weighted>
5.6849

> <Gold.Chemscore.Internal.Correction.Weighted>
   9.000000E+99

> <Gold.Protein.RotatedTorsions>
[ 6907 6896 6895 6894 ] final  131.28 input  -60.11 | X-H torsion
[ 7974 7965 7964 7962 ] final -111.31 input  175.53 | X-H torsion
[ 8008 7997 7996 7995 ] final   13.52 input   59.86 | X-H torsion
[ 10167 10162 10161 10158 ] final  -98.44 input  -65.29 | X-H torsion
[ 10718 10713 10712 10709 ] final  -13.49 input   66.30 | X-H torsion
[ 10763 10752 10751 10750 ] final   34.95 input  -60.55 | X-H torsion
[ 11005 11000 10999 10996 ] final -111.96 input  -57.11 | X-H torsion

> <Gold.Protein.ActiveResidues>
 VAL166  LYS551  ARG553  GLY616  TRP617  ASP618  TYR619  PRO620  LYS621  CYS622 
 ASP623  PHE694  ASN695  SER759  ASP760  ASP761  ALA762  ILE779  LEU786  VAL792 
 PHE793  MET794  SER795  GLU796  ALA797  LYS798  CYS799  TRP800  GLU811  SER814 

> <Gold.Protein.RotatedAtoms>
  152.3442  133.6103  159.5898 H   0  0  0  0  0  0  0  0  0  0  0  0  # atno 6907 bound_to 6896
  150.7497  133.9674  159.3544 H   0  0  0  0  0  0  0  0  0  0  0  0  # atno 6908 bound_to 6896
  151.7535  135.0828  160.0385 H   0  0  0  0  0  0  0  0  0  0  0  0  # atno 6909 bound_to 6896
  145.1577  140.8862  143.3609 H   0  0  0  0  0  0  0  0  0  0  0  0  # atno 7974 bound_to 7965
  154.8356  140.2906  155.5693 H   0  0  0  0  0  0  0  0  0  0  0  0  # atno 8008 bound_to 7997
  156.3008  140.2524  156.3220 H   0  0  0  0  0  0  0  0  0  0  0  0  # atno 8009 bound_to 7997
  154.9182  140.0386  157.1973 H   0  0  0  0  0  0  0  0  0  0  0  0  # atno 8010 bound_to 7997
  140.2729  143.3332  152.0517 H   0  0  0  0  0  0  0  0  0  0  0  0  # atno 10167 bound_to 10162
  156.6295  130.4897  149.6134 H   0  0  0  0  0  0  0  0  0  0  0  0  # atno 10718 bound_to 10713
  153.0141  135.6346  154.1750 H   0  0  0  0  0  0  0  0  0  0  0  0  # atno 10763 bound_to 10752
  154.1490  135.2830  155.3142 H   0  0  0  0  0  0  0  0  0  0  0  0  # atno 10764 bound_to 10752
  154.6068  135.5569  153.7492 H   0  0  0  0  0  0  0  0  0  0  0  0  # atno 10765 bound_to 10752
  141.0703  133.9390  157.2498 H   0  0  0  0  0  0  0  0  0  0  0  0  # atno 11005 bound_to 11000
  145.0364  139.3297  143.5999 LP  0  0  0  0  0  0  0  0  0  0  0  0  # atno 17320 bound_to 7965
  146.3486  139.9721  142.8705 LP  0  0  0  0  0  0  0  0  0  0  0  0  # atno 17321 bound_to 7965
  139.4984  144.6644  151.6390 LP  0  0  0  0  0  0  0  0  0  0  0  0  # atno 17342 bound_to 10162
  140.5875  143.9838  150.6304 LP  0  0  0  0  0  0  0  0  0  0  0  0  # atno 17343 bound_to 10162
  156.2246  130.6758  151.1403 LP  0  0  0  0  0  0  0  0  0  0  0  0  # atno 17370 bound_to 10713
  157.7204  131.0685  150.6158 LP  0  0  0  0  0  0  0  0  0  0  0  0  # atno 17371 bound_to 10713
  139.9517  135.0174  156.9012 LP  0  0  0  0  0  0  0  0  0  0  0  0  # atno 17394 bound_to 11000
  140.5687  134.0464  155.7423 LP  0  0  0  0  0  0  0  0  0  0  0  0  # atno 17395 bound_to 11000

$$$$
