AV-unprocessed.smi:734|AV-procd|sdf|3531|dock8
  -GOLD-   22720 0523D 1   1.00000     0.00000
 Structure written by MMmdl.
 38 39  0  0  0  0  0  0  0  0  3 V2000
  152.3892  144.0832  159.2824 C   0  0  0  0  0  0  0  0  0  0  0  0
  152.3761  142.5687  159.5357 C   0  0  0  0  0  0  0  0  0  0  0  0
  153.7333  142.0238  160.0038 C   0  0  0  0  0  0  0  0  0  0  0  0
  151.8355  141.8058  158.3667 C   0  0  0  0  0  0  0  0  0  0  0  0
  151.7587  140.4718  158.3371 N   0  0  0  0  0  0  0  0  0  0  0  0
  151.2167  140.0035  157.1496 N   0  0  0  0  0  0  0  0  0  0  0  0
  150.8818  140.9855  156.3014 C   0  0  0  0  0  0  0  0  0  0  0  0
  150.3356  140.7430  155.0983 N   0  5  0  0  0  0  0  0  0  0  0  0
  148.9966  140.8311  154.9372 C   0  0  0  0  0  0  0  0  0  0  0  0
  148.1840  141.2333  155.7736 O   0  0  0  0  0  0  0  0  0  0  0  0
  148.5698  140.4359  153.7294 N   0  0  0  0  0  0  0  0  0  0  0  0
  147.1837  140.4417  153.2785 C   0  0  0  0  0  0  0  0  0  0  0  0
  146.4276  139.1970  153.7773 C   0  0  0  0  0  0  0  0  0  0  0  0
  145.6264  138.5680  152.7031 N   0  3  0  0  0  0  0  0  0  0  0  0
  144.8761  137.3566  153.1392 C   0  0  0  0  0  0  0  0  0  0  0  0
  144.9975  136.4318  151.9611 C   0  0  0  0  0  0  0  0  0  0  0  0
  145.8252  136.9190  151.0438 C   0  0  0  0  0  0  0  0  0  0  0  0
  146.3889  138.2474  151.4621 C   0  0  0  0  0  0  0  0  0  0  0  0
  151.2455  142.5979  156.9142 S   0  0  0  0  0  0  0  0  0  0  0  0
  151.3922  144.4473  159.0316 H   0  0  0  0  0  0  0  0  0  0  0  0
  153.0553  144.3415  158.4582 H   0  0  0  0  0  0  0  0  0  0  0  0
  152.7273  144.6266  160.1651 H   0  0  0  0  0  0  0  0  0  0  0  0
  151.6799  142.4022  160.3587 H   0  0  0  0  0  0  0  0  0  0  0  0
  153.6652  140.9642  160.2516 H   0  0  0  0  0  0  0  0  0  0  0  0
  154.0829  142.5498  160.8924 H   0  0  0  0  0  0  0  0  0  0  0  0
  154.4936  142.1366  159.2303 H   0  0  0  0  0  0  0  0  0  0  0  0
  149.2659  140.1084  153.0754 H   0  0  0  0  0  0  0  0  0  0  0  0
  146.7067  141.3447  153.6597 H   0  0  0  0  0  0  0  0  0  0  0  0
  147.1565  140.5124  152.1900 H   0  0  0  0  0  0  0  0  0  0  0  0
  147.1152  138.4587  154.1928 H   0  0  0  0  0  0  0  0  0  0  0  0
  145.7583  139.4918  154.5871 H   0  0  0  0  0  0  0  0  0  0  0  0
  145.3229  136.8878  154.0173 H   0  0  0  0  0  0  0  0  0  0  0  0
  143.8349  137.5993  153.3531 H   0  0  0  0  0  0  0  0  0  0  0  0
  144.4811  135.4847  151.9055 H   0  0  0  0  0  0  0  0  0  0  0  0
  146.0952  136.4350  150.1166 H   0  0  0  0  0  0  0  0  0  0  0  0
  146.2284  139.0083  150.6979 H   0  0  0  0  0  0  0  0  0  0  0  0
  147.4592  138.1466  151.6476 H   0  0  0  0  0  0  0  0  0  0  0  0
  144.9218  139.2386  152.4312 H   0  0  0  0  0  0  0  0  0  0  0  0
  1  2  1  0  0  0  0
  1 20  1  0  0  0  0
  1 21  1  0  0  0  0
  1 22  1  0  0  0  0
  2  3  1  0  0  0  0
  2  4  1  0  0  0  0
  2 23  1  0  0  0  0
  3 24  1  0  0  0  0
  3 25  1  0  0  0  0
  3 26  1  0  0  0  0
  4 19  1  0  0  0  0
  4  5  2  0  0  0  0
  5  6  1  0  0  0  0
  6  7  2  0  0  0  0
  7  8  1  0  0  0  0
  7 19  1  0  0  0  0
  8  9  1  0  0  0  0
  9 10  2  0  0  0  0
  9 11  1  0  0  0  0
 11 12  1  0  0  0  0
 11 27  1  0  0  0  0
 12 13  1  0  0  0  0
 12 28  1  0  0  0  0
 12 29  1  0  0  0  0
 13 14  1  0  0  0  0
 13 30  1  0  0  0  0
 13 31  1  0  0  0  0
 14 18  1  0  0  0  0
 14 15  1  0  0  0  0
 14 38  1  0  0  0  0
 15 16  1  0  0  0  0
 15 32  1  0  0  0  0
 15 33  1  0  0  0  0
 16 17  2  0  0  0  0
 16 34  1  0  0  0  0
 17 18  1  0  0  0  0
 17 35  1  0  0  0  0
 18 36  1  0  0  0  0
 18 37  1  0  0  0  0
M  CHG  1   8  -1
M  CHG  1  14   1
M  END
> <s_m_source_file>
AV-unprocessed.smi

> <i_m_source_file_index>
734

> <i_lp_mmshare_version>
43012

> <i_f3d_flags>
0

> <s_epik_input>
W0NIM11bQ0hdKFtDSDNdKWMxbm5jKHMxKVtOSF1DKD1PKVtOSF1bQ0gyXVtDSDJdTjJbQ0gyXVtDSF09W0NIXVtDSDJdMg==

> <s_epik_cmdline>
J2VwaWtfcHl0aG9uJywgJy1waCcsICc3LjAnLCAnLXRuJywgJzgnLCAnLW1hJywgJzIwMCcsICctbWV0YWxfYmluZGluZycsICctaW1hZScsICc8aW5maWxlLm1hZT4nLCAnLW9tYWUnLCAnPG91dGZpbGUubWFlPic=

> <r_lp_tautomer_probability>
1

> <r_epik_Ionization_Penalty>
3.04352

> <r_epik_Ionization_Penalty_Charging>
2.92732

> <r_epik_Ionization_Penalty_Neutral>
0.116198

> <r_epik_State_Penalty>
2.92347

> <r_epik_Charging_Adjusted_Penalty>
5.85079

> <i_epik_Tot_Q>
0

> <i_epik_Tot_abs_Q>
2

> <r_epik_Metal_State_Penalty>
0.448048

> <b_epik_Metal_Only>
1

> <s_lp_Force_Field>
OPLS_2005

> <r_lp_Energy>
6.61646

> <b_lp_Chiralities_Consistent>
1

> <s_lp_Variant>
AV-unprocessed.smi:734-2

> <Gold.Version>
5.8.1

> <Gold.Id.Protein>
6NUR|6NUR_protein|mol2

> <Gold.PLP.Fitness>
44.6145

> <Gold.PLP.PLP>
-36.1299

> <Gold.PLP.part.hbond>
-3.0750

> <Gold.PLP.part.metal>
0.0000

> <Gold.PLP.part.buried>
2.5266

> <Gold.PLP.part.nonpolar>
-35.8430

> <Gold.PLP.part.repulsive>
0.3394

> <Gold.PLP.ligand.clash>
0.0000

> <Gold.PLP.ligand.torsion>
1.3415

> <Gold.PLP.Chemscore.Hbond>
3.6640

> <Gold.PLP.Chemscore.CHOScore>
0.0000

> <Gold.PLP.Chemscore.Metal>
0.0000

> <Gold.Chemscore.Hbonds>
donor molecule, donor type, donor heavy atom, donor atom, acceptor molecule, acceptor atom, score
      L1  H    11    27       P1  7957  0.80
      L1  H    14    38       P1 10175  2.00
      P1  H  7989  7998       L1     8  0.80

> <Gold.PLP.Chemscore.Internal.Correction>
0.1756

> <Gold.Rescore>
     Score         DG    S(hbond)    S(metal)    S(lipo)     H(rot)  DE(clash)    DE(int)     intcor
     18.71     -20.37       2.51        0.00      92.32       1.68       0.44       1.22       ----

> <Gold.Chemscore.Fitness>
18.7129

> <Gold.Chemscore.DG>
-20.3689

> <Gold.Chemscore.ZeroCoef>
-5.4800

> <Gold.Chemscore.Hbond>
2.5144

> <Gold.Chemscore.Metal>
0.0000

> <Gold.Chemscore.Lipo>
92.3221

> <Gold.Chemscore.Internal_Hbond>
0.0000

> <Gold.Chemscore.DEClash>
0.4353

> <Gold.Chemscore.DEInternal>
1.2207

> <Gold.Chemscore.Rot>
1.6839

> <Gold.Chemscore.Internal.Correction>
   9.000000E+99

> <Gold.Chemscore.Hbonds>
donor molecule, donor type, donor heavy atom, donor atom, acceptor molecule, acceptor atom, score
      L1  H    11    27       P1  7957  0.79
      L1  H    14    38       P1 10175  1.00
      P1  H  7989  7998       L1     8  0.68

> <Gold.Chemscore.Hbond.Weighted>
-8.3980

> <Gold.Chemscore.Metal.Weighted>
-0.0000

> <Gold.Chemscore.Lipo.Weighted>
-10.8017

> <Gold.Chemscore.Internal_Hbond.Weighted>
0.0000

> <Gold.Chemscore.DEClash.Weighted>
0.4353

> <Gold.Chemscore.DEInternal.Weighted>
1.2207

> <Gold.Chemscore.Rot.Weighted>
4.3108

> <Gold.Chemscore.Internal.Correction.Weighted>
   9.000000E+99

> <Gold.Protein.RotatedTorsions>
[ 6907 6896 6895 6894 ] final   21.53 input  -60.11 | X-H torsion
[ 7974 7965 7964 7962 ] final   70.31 input  175.53 | X-H torsion
[ 8008 7997 7996 7995 ] final   25.16 input   59.86 | X-H torsion
[ 10167 10162 10161 10158 ] final  151.61 input  -65.29 | X-H torsion
[ 10718 10713 10712 10709 ] final   90.01 input   66.30 | X-H torsion
[ 10763 10752 10751 10750 ] final   62.79 input  -60.55 | X-H torsion
[ 11005 11000 10999 10996 ] final  162.01 input  -57.11 | X-H torsion

> <Gold.Protein.ActiveResidues>
 VAL166  LYS551  ARG553  GLY616  TRP617  ASP618  TYR619  PRO620  LYS621  CYS622 
 ASP623  PHE694  ASN695  SER759  ASP760  ASP761  ALA762  ILE779  LEU786  VAL792 
 PHE793  MET794  SER795  GLU796  ALA797  LYS798  CYS799  TRP800  GLU811  SER814 

> <Gold.Protein.RotatedAtoms>
  151.9132  135.0330  160.0515 H   0  0  0  0  0  0  0  0  0  0  0  0  # atno 6907 bound_to 6896
  152.2262  133.5017  159.5198 H   0  0  0  0  0  0  0  0  0  0  0  0  # atno 6908 bound_to 6896
  150.7013  134.1194  159.4072 H   0  0  0  0  0  0  0  0  0  0  0  0  # atno 6909 bound_to 6896
  145.7797  139.2881  143.1273 H   0  0  0  0  0  0  0  0  0  0  0  0  # atno 7974 bound_to 7965
  155.0074  140.3132  155.4843 H   0  0  0  0  0  0  0  0  0  0  0  0  # atno 8008 bound_to 7997
  156.2915  140.2221  156.5128 H   0  0  0  0  0  0  0  0  0  0  0  0  # atno 8009 bound_to 7997
  154.7565  140.0462  157.0925 H   0  0  0  0  0  0  0  0  0  0  0  0  # atno 8010 bound_to 7997
  139.4839  144.5426  151.7538 H   0  0  0  0  0  0  0  0  0  0  0  0  # atno 10167 bound_to 10162
  157.6957  131.0354  150.3512 H   0  0  0  0  0  0  0  0  0  0  0  0  # atno 10718 bound_to 10713
  152.9995  135.5452  154.6248 H   0  0  0  0  0  0  0  0  0  0  0  0  # atno 10763 bound_to 10752
  154.5539  135.2828  155.0984 H   0  0  0  0  0  0  0  0  0  0  0  0  # atno 10764 bound_to 10752
  154.2213  135.6450  153.5198 H   0  0  0  0  0  0  0  0  0  0  0  0  # atno 10765 bound_to 10752
  140.2214  134.8193  157.3224 H   0  0  0  0  0  0  0  0  0  0  0  0  # atno 11005 bound_to 11000
  146.0087  140.8455  142.9982 LP  0  0  0  0  0  0  0  0  0  0  0  0  # atno 17320 bound_to 7965
  144.6798  140.2458  143.7338 LP  0  0  0  0  0  0  0  0  0  0  0  0  # atno 17321 bound_to 7965
  140.4968  144.1228  150.5962 LP  0  0  0  0  0  0  0  0  0  0  0  0  # atno 17342 bound_to 10162
  140.4108  143.2658  151.9835 LP  0  0  0  0  0  0  0  0  0  0  0  0  # atno 17343 bound_to 10162
  156.3960  130.3907  149.6994 LP  0  0  0  0  0  0  0  0  0  0  0  0  # atno 17370 bound_to 10713
  156.4328  130.7823  151.2843 LP  0  0  0  0  0  0  0  0  0  0  0  0  # atno 17371 bound_to 10713
  140.1845  134.4448  155.7752 LP  0  0  0  0  0  0  0  0  0  0  0  0  # atno 17394 bound_to 11000
  141.2223  133.6999  156.7924 LP  0  0  0  0  0  0  0  0  0  0  0  0  # atno 17395 bound_to 11000

$$$$
