AV-unprocessed.smi:1270|AV-procd|sdf|5331|dock3
  -GOLD-   22720 4463D 1   1.00000     0.00000
 Structure written by MMmdl.
 42 43  0  0  0  0  0  0  0  0  1 V2000
  146.8255  132.4588  152.3416 C   0  0  0  0  0  0  0  0  0  0  0  0
  147.7780  133.3079  152.9730 O   0  0  0  0  0  0  0  0  0  0  0  0
  148.6499  132.7535  153.8910 C   0  0  0  0  0  0  0  0  0  0  0  0
  148.5556  131.4245  154.1481 N   0  0  0  0  0  0  0  0  0  0  0  0
  149.4013  130.8821  155.0480 C   0  0  0  0  0  0  0  0  0  0  0  0
  150.3729  131.6288  155.7387 C   0  0  0  0  0  0  0  0  0  0  0  0
  150.4728  133.0072  155.4741 C   0  0  0  0  0  0  0  0  0  0  0  0
  149.6013  133.5895  154.5213 C   0  0  0  0  0  0  0  0  0  0  0  0
  149.6002  134.9735  154.1908 N   0  0  0  0  0  0  0  0  0  0  0  0
  150.0520  136.0130  154.9129 C   0  0  0  0  0  0  0  0  0  0  0  0
  150.5888  135.9355  156.0176 O   0  0  0  0  0  0  0  0  0  0  0  0
  149.8616  137.1706  154.2642 N   0  0  0  0  0  0  0  0  0  0  0  0
  150.2303  138.4893  154.7712 C   0  0  0  0  0  0  0  0  0  0  0  0
  151.7459  138.5506  155.0116 C   0  0  0  0  0  0  0  0  0  0  0  0
  152.1676  139.9089  155.5995 C   0  0  0  0  0  0  0  0  0  0  0  0
  151.4010  140.2379  156.8182 N   0  0  0  0  0  0  0  0  0  0  0  0
  152.1218  140.0160  158.3869 S   0  0  0  0  0  0  0  0  0  0  0  0
  152.1656  141.7089  159.1050 C   0  0  0  0  0  0  0  0  0  0  0  0
  151.2020  139.1995  159.1935 O   0  0  0  0  0  0  0  0  0  0  0  0
  153.5083  139.5680  158.1855 O   0  0  0  0  0  0  0  0  0  0  0  0
  149.9346  140.1587  156.6630 C   0  0  0  0  0  0  0  0  0  0  0  0
  149.4957  138.8016  156.0861 C   0  0  0  0  0  0  0  0  0  0  0  0
  146.2195  133.0470  151.6527 H   0  0  0  0  0  0  0  0  0  0  0  0
  146.1517  132.0048  153.0698 H   0  0  0  0  0  0  0  0  0  0  0  0
  147.3124  131.6714  151.7641 H   0  0  0  0  0  0  0  0  0  0  0  0
  149.2952  129.8226  155.2285 H   0  0  0  0  0  0  0  0  0  0  0  0
  151.0234  131.1560  156.4596 H   0  0  0  0  0  0  0  0  0  0  0  0
  151.2021  133.5870  156.0177 H   0  0  0  0  0  0  0  0  0  0  0  0
  149.2591  135.1917  153.2661 H   0  0  0  0  0  0  0  0  0  0  0  0
  149.4201  137.1395  153.3568 H   0  0  0  0  0  0  0  0  0  0  0  0
  149.9686  139.2434  154.0261 H   0  0  0  0  0  0  0  0  0  0  0  0
  152.0488  137.7463  155.6813 H   0  0  0  0  0  0  0  0  0  0  0  0
  152.2779  138.3817  154.0746 H   0  0  0  0  0  0  0  0  0  0  0  0
  153.2368  139.9165  155.8087 H   0  0  0  0  0  0  0  0  0  0  0  0
  151.9941  140.6937  154.8623 H   0  0  0  0  0  0  0  0  0  0  0  0
  152.6039  141.6602  160.1014 H   0  0  0  0  0  0  0  0  0  0  0  0
  151.1550  142.1052  159.1830 H   0  0  0  0  0  0  0  0  0  0  0  0
  152.7766  142.3602  158.4826 H   0  0  0  0  0  0  0  0  0  0  0  0
  149.4404  140.3436  157.6161 H   0  0  0  0  0  0  0  0  0  0  0  0
  149.6164  140.9579  155.9924 H   0  0  0  0  0  0  0  0  0  0  0  0
  148.4178  138.8146  155.9209 H   0  0  0  0  0  0  0  0  0  0  0  0
  149.6808  138.0103  156.8118 H   0  0  0  0  0  0  0  0  0  0  0  0
  1  2  1  0  0  0  0
  1 23  1  0  0  0  0
  1 24  1  0  0  0  0
  1 25  1  0  0  0  0
  2  3  1  0  0  0  0
  3  8  1  0  0  0  0
  3  4  2  0  0  0  0
  4  5  1  0  0  0  0
  5  6  2  0  0  0  0
  5 26  1  0  0  0  0
  6  7  1  0  0  0  0
  6 27  1  0  0  0  0
  7  8  2  0  0  0  0
  7 28  1  0  0  0  0
  8  9  1  0  0  0  0
  9 10  1  0  0  0  0
  9 29  1  0  0  0  0
 10 11  2  0  0  0  0
 10 12  1  0  0  0  0
 12 13  1  0  0  0  0
 12 30  1  0  0  0  0
 13 22  1  0  0  0  0
 13 14  1  0  0  0  0
 13 31  1  0  0  0  0
 14 15  1  0  0  0  0
 14 32  1  0  0  0  0
 14 33  1  0  0  0  0
 15 16  1  0  0  0  0
 15 34  1  0  0  0  0
 15 35  1  0  0  0  0
 16 17  1  0  0  0  0
 16 21  1  0  0  0  0
 17 18  1  0  0  0  0
 17 19  2  0  0  0  0
 17 20  2  0  0  0  0
 18 36  1  0  0  0  0
 18 37  1  0  0  0  0
 18 38  1  0  0  0  0
 21 22  1  0  0  0  0
 21 39  1  0  0  0  0
 21 40  1  0  0  0  0
 22 41  1  0  0  0  0
 22 42  1  0  0  0  0
M  END
> <s_m_source_file>
AV-unprocessed.smi

> <i_m_source_file_index>
1270

> <i_lp_mmshare_version>
43012

> <i_f3d_flags>
0

> <s_epik_input>
W0NIM11PYzFuW2NIXVtjSF1bY0hdYzFbTkhdQyg9TylbTkhdW0NIXTJbQ0gyXVtDSDJdTihTKD1PKSg9TylbQ0gzXSlbQ0gyXVtDSDJdMg==

> <s_epik_cmdline>
J2VwaWtfcHl0aG9uJywgJy1waCcsICc3LjAnLCAnLXRuJywgJzgnLCAnLW1hJywgJzIwMCcsICctbWV0YWxfYmluZGluZycsICctaW1hZScsICc8aW5maWxlLm1hZT4nLCAnLW9tYWUnLCAnPG91dGZpbGUubWFlPic=

> <r_lp_tautomer_probability>
1

> <r_epik_Ionization_Penalty>
9.27336e-05

> <r_epik_Ionization_Penalty_Charging>
0

> <r_epik_Ionization_Penalty_Neutral>
9.27336e-05

> <r_epik_State_Penalty>
-0

> <r_epik_Charging_Adjusted_Penalty>
0

> <i_epik_Tot_Q>
0

> <i_epik_Tot_abs_Q>
0

> <r_epik_Metal_State_Penalty>
-0

> <b_epik_Metal_Only>
0

> <s_lp_Force_Field>
OPLS_2005

> <r_lp_Energy>
1.71558

> <b_lp_Chiralities_Consistent>
1

> <s_lp_Variant>
AV-unprocessed.smi:1270-1

> <Gold.Version>
5.8.1

> <Gold.Id.Protein>
6NUR|6NUR_protein|mol2

> <Gold.PLP.Fitness>
41.0074

> <Gold.PLP.PLP>
-32.8554

> <Gold.PLP.part.hbond>
-3.6956

> <Gold.PLP.part.metal>
0.0000

> <Gold.PLP.part.buried>
-2.6572

> <Gold.PLP.part.nonpolar>
-27.0172

> <Gold.PLP.part.repulsive>
0.3488

> <Gold.PLP.ligand.clash>
0.0000

> <Gold.PLP.ligand.torsion>
1.1524

> <Gold.PLP.Chemscore.Hbond>
2.8000

> <Gold.PLP.Chemscore.CHOScore>
0.0000

> <Gold.PLP.Chemscore.Metal>
0.0000

> <Gold.Chemscore.Hbonds>
donor molecule, donor type, donor heavy atom, donor atom, acceptor molecule, acceptor atom, score
      L1  H     9    29       P1  7948  0.80
      L1  H    12    30       P1  7948  1.00
      P1  H  7997  8008       L1    20  1.00

> <Gold.PLP.Chemscore.Internal.Correction>
2.0568

> <Gold.Rescore>
     Score         DG    S(hbond)    S(metal)    S(lipo)     H(rot)  DE(clash)    DE(int)     intcor
     14.54     -17.93       2.59        0.00      60.65       1.29       0.00       3.39       ----

> <Gold.Chemscore.Fitness>
14.5364

> <Gold.Chemscore.DG>
-17.9289

> <Gold.Chemscore.ZeroCoef>
-5.4800

> <Gold.Chemscore.Hbond>
2.5907

> <Gold.Chemscore.Metal>
0.0000

> <Gold.Chemscore.Lipo>
60.6501

> <Gold.Chemscore.Internal_Hbond>
0.0000

> <Gold.Chemscore.DEClash>
0.0009

> <Gold.Chemscore.DEInternal>
3.3916

> <Gold.Chemscore.Rot>
1.2890

> <Gold.Chemscore.Internal.Correction>
   9.000000E+99

> <Gold.Chemscore.Hbonds>
donor molecule, donor type, donor heavy atom, donor atom, acceptor molecule, acceptor atom, score
      L1  H     9    29       P1  7948  0.12
      L1  H    12    30       P1  7948  0.88
      P1  H  7997  8008       L1    20  0.97

> <Gold.Chemscore.Hbond.Weighted>
-8.6528

> <Gold.Chemscore.Metal.Weighted>
-0.0000

> <Gold.Chemscore.Lipo.Weighted>
-7.0961

> <Gold.Chemscore.Internal_Hbond.Weighted>
0.0000

> <Gold.Chemscore.DEClash.Weighted>
0.0009

> <Gold.Chemscore.DEInternal.Weighted>
3.3916

> <Gold.Chemscore.Rot.Weighted>
3.2999

> <Gold.Chemscore.Internal.Correction.Weighted>
   9.000000E+99

> <Gold.Protein.RotatedTorsions>
[ 6907 6896 6895 6894 ] final -146.59 input  -60.11 | X-H torsion
[ 7974 7965 7964 7962 ] final  -35.13 input  175.53 | X-H torsion
[ 8008 7997 7996 7995 ] final -105.32 input   59.86 | X-H torsion
[ 10167 10162 10161 10158 ] final -158.06 input  -65.29 | X-H torsion
[ 10718 10713 10712 10709 ] final   26.54 input   66.30 | X-H torsion
[ 10763 10752 10751 10750 ] final   36.07 input  -60.55 | X-H torsion
[ 11005 11000 10999 10996 ] final   44.83 input  -57.11 | X-H torsion

> <Gold.Protein.ActiveResidues>
 VAL166  LYS551  ARG553  GLY616  TRP617  ASP618  TYR619  PRO620  LYS621  CYS622 
 ASP623  PHE694  ASN695  SER759  ASP760  ASP761  ALA762  ILE779  LEU786  VAL792 
 PHE793  MET794  SER795  GLU796  ALA797  LYS798  CYS799  TRP800  GLU811  SER814 

> <Gold.Protein.RotatedAtoms>
  151.1437  133.4954  159.2596 H   0  0  0  0  0  0  0  0  0  0  0  0  # atno 6907 bound_to 6896
  151.1627  135.0280  159.8727 H   0  0  0  0  0  0  0  0  0  0  0  0  # atno 6908 bound_to 6896
  152.5463  134.1309  159.8492 H   0  0  0  0  0  0  0  0  0  0  0  0  # atno 6909 bound_to 6896
  146.0772  140.6122  142.8925 H   0  0  0  0  0  0  0  0  0  0  0  0  # atno 7974 bound_to 7965
  154.8982  140.0413  157.1878 H   0  0  0  0  0  0  0  0  0  0  0  0  # atno 8008 bound_to 7997
  154.8471  140.2923  155.5601 H   0  0  0  0  0  0  0  0  0  0  0  0  # atno 8009 bound_to 7997
  156.2994  140.2472  156.3423 H   0  0  0  0  0  0  0  0  0  0  0  0  # atno 8010 bound_to 7997
  139.6722  143.9726  152.2290 H   0  0  0  0  0  0  0  0  0  0  0  0  # atno 10167 bound_to 10162
  157.2081  130.6921  149.6217 H   0  0  0  0  0  0  0  0  0  0  0  0  # atno 10718 bound_to 10713
  153.0092  135.6316  154.1926 H   0  0  0  0  0  0  0  0  0  0  0  0  # atno 10763 bound_to 10752
  154.1669  135.2820  155.3094 H   0  0  0  0  0  0  0  0  0  0  0  0  # atno 10764 bound_to 10752
  154.5938  135.5609  153.7366 H   0  0  0  0  0  0  0  0  0  0  0  0  # atno 10765 bound_to 10752
  140.1515  134.4455  155.8378 H   0  0  0  0  0  0  0  0  0  0  0  0  # atno 11005 bound_to 11000
  144.7269  140.4553  143.6966 LP  0  0  0  0  0  0  0  0  0  0  0  0  # atno 17320 bound_to 7965
  145.6284  139.1533  143.2983 LP  0  0  0  0  0  0  0  0  0  0  0  0  # atno 17321 bound_to 7965
  139.9493  144.6631  150.8187 LP  0  0  0  0  0  0  0  0  0  0  0  0  # atno 17342 bound_to 10162
  140.7622  143.3192  151.2660 LP  0  0  0  0  0  0  0  0  0  0  0  0  # atno 17343 bound_to 10162
  155.9693  130.4560  150.5909 LP  0  0  0  0  0  0  0  0  0  0  0  0  # atno 17370 bound_to 10713
  157.3699  131.0764  151.1566 LP  0  0  0  0  0  0  0  0  0  0  0  0  # atno 17371 bound_to 10713
  141.2199  133.6874  156.7430 LP  0  0  0  0  0  0  0  0  0  0  0  0  # atno 17394 bound_to 11000
  140.2599  134.8475  157.3748 LP  0  0  0  0  0  0  0  0  0  0  0  0  # atno 17395 bound_to 11000

$$$$
