AV-unprocessed.smi:2816|AV-procd|sdf|10845|dock9
  -GOLD-   2272015283D 1   1.00000     0.00000
 Structure written by MMmdl.
 43 45  0  0  0  0  0  0  0  0  1 V2000
  152.4398  130.4932  155.2379 C   0  0  0  0  0  0  0  0  0  0  0  0
  151.3942  129.9204  156.2106 C   0  0  0  0  0  0  0  0  0  0  0  0
  150.4875  128.9251  155.4641 C   0  0  0  0  0  0  0  0  0  0  0  0
  152.1122  129.2209  157.3794 C   0  0  0  0  0  0  0  0  0  0  0  0
  150.3714  131.3402  156.8467 S   0  0  0  0  0  0  0  0  0  0  0  0
  149.3779  130.8089  157.7933 O   0  0  0  0  0  0  0  0  0  0  0  0
  151.2953  132.3946  157.2945 O   0  0  0  0  0  0  0  0  0  0  0  0
  149.4766  131.9765  155.4276 C   0  0  0  0  0  0  0  0  0  0  0  0
  148.5201  131.1701  154.7782 C   0  0  0  0  0  0  0  0  0  0  0  0
  147.8073  131.7244  153.6987 C   0  0  0  0  0  0  0  0  0  0  0  0
  148.0691  133.0618  153.3166 C   0  0  0  0  0  0  0  0  0  0  0  0
  147.4069  133.7076  152.2620 N   0  0  0  0  0  0  0  0  0  0  0  0
  146.0095  133.4249  151.9561 C   0  0  1  0  0  0  0  0  0  0  0  0
  145.4417  134.3182  150.8444 C   0  0  0  0  0  0  0  0  0  0  0  0
  144.9422  133.2838  149.8287 C   0  0  2  0  0  0  0  0  0  0  0  0
  143.7235  132.5052  150.3424 C   0  0  0  0  0  0  0  0  0  0  0  0
  144.3575  131.5896  151.3893 C   0  0  0  0  0  0  0  0  0  0  0  0
  145.8285  132.0255  151.3424 C   0  0  1  0  0  0  0  0  0  0  0  0
  145.9559  132.3030  149.9572 O   0  0  0  0  0  0  0  0  0  0  0  0
  149.0464  133.7747  154.0448 C   0  0  0  0  0  0  0  0  0  0  0  0
  149.7355  133.2559  155.0827 N   0  0  0  0  0  0  0  0  0  0  0  0
  153.0743  129.7069  154.8276 H   0  0  0  0  0  0  0  0  0  0  0  0
  153.0892  131.2153  155.7342 H   0  0  0  0  0  0  0  0  0  0  0  0
  151.9642  131.0024  154.3991 H   0  0  0  0  0  0  0  0  0  0  0  0
  149.9457  129.4111  154.6524 H   0  0  0  0  0  0  0  0  0  0  0  0
  149.7512  128.4749  156.1300 H   0  0  0  0  0  0  0  0  0  0  0  0
  151.0699  128.1123  155.0288 H   0  0  0  0  0  0  0  0  0  0  0  0
  152.7814  128.4395  157.0181 H   0  0  0  0  0  0  0  0  0  0  0  0
  151.4072  128.7474  158.0616 H   0  0  0  0  0  0  0  0  0  0  0  0
  152.7123  129.9240  157.9574 H   0  0  0  0  0  0  0  0  0  0  0  0
  148.3320  130.1561  155.0983 H   0  0  0  0  0  0  0  0  0  0  0  0
  147.0729  131.1204  153.1878 H   0  0  0  0  0  0  0  0  0  0  0  0
  147.8184  134.5397  151.8634 H   0  0  0  0  0  0  0  0  0  0  0  0
  145.4224  133.4984  152.8723 H   0  0  0  0  0  0  0  0  0  0  0  0
  144.6449  134.9730  151.1975 H   0  0  0  0  0  0  0  0  0  0  0  0
  146.2149  134.9416  150.3925 H   0  0  0  0  0  0  0  0  0  0  0  0
  144.8238  133.6776  148.8188 H   0  0  0  0  0  0  0  0  0  0  0  0
  142.9593  133.1618  150.7593 H   0  0  0  0  0  0  0  0  0  0  0  0
  143.2708  131.9168  149.5436 H   0  0  0  0  0  0  0  0  0  0  0  0
  143.9172  131.7076  152.3798 H   0  0  0  0  0  0  0  0  0  0  0  0
  144.2557  130.5449  151.0932 H   0  0  0  0  0  0  0  0  0  0  0  0
  146.5186  131.2702  151.7209 H   0  0  0  0  0  0  0  0  0  0  0  0
  149.2786  134.7991  153.7919 H   0  0  0  0  0  0  0  0  0  0  0  0
  1  2  1  0  0  0  0
  1 22  1  0  0  0  0
  1 23  1  0  0  0  0
  1 24  1  0  0  0  0
  2  3  1  0  0  0  0
  2  4  1  0  0  0  0
  2  5  1  0  0  0  0
  3 25  1  0  0  0  0
  3 26  1  0  0  0  0
  3 27  1  0  0  0  0
  4 28  1  0  0  0  0
  4 29  1  0  0  0  0
  4 30  1  0  0  0  0
  5  6  2  0  0  0  0
  5  7  2  0  0  0  0
  5  8  1  0  0  0  0
  8 21  1  0  0  0  0
  8  9  2  0  0  0  0
  9 10  1  0  0  0  0
  9 31  1  0  0  0  0
 10 11  2  0  0  0  0
 10 32  1  0  0  0  0
 11 12  1  0  0  0  0
 11 20  1  0  0  0  0
 12 13  1  0  0  0  0
 12 33  1  0  0  0  0
 13 18  1  0  0  0  0
 13 14  1  0  0  0  0
 13 34  1  0  0  0  0
 14 15  1  0  0  0  0
 14 35  1  0  0  0  0
 14 36  1  0  0  0  0
 15 19  1  0  0  0  0
 15 16  1  0  0  0  0
 15 37  1  0  0  0  0
 16 17  1  0  0  0  0
 16 38  1  0  0  0  0
 16 39  1  0  0  0  0
 17 18  1  0  0  0  0
 17 40  1  0  0  0  0
 17 41  1  0  0  0  0
 18 19  1  0  0  0  0
 18 42  1  0  0  0  0
 20 21  2  0  0  0  0
 20 43  1  0  0  0  0
M  END
> <s_m_source_file>
AV-unprocessed.smi

> <i_m_source_file_index>
2816

> <i_lp_mmshare_version>
43012

> <i_f3d_flags>
0

> <s_epik_input>
W0NIM11DKFtDSDNdKShbQ0gzXSlTKD1PKSg9TyljMVtjSF1bY0hdYyhbY0hdbjEpW05IXVtDQEhdKFtDSDJdW0NAQEhdMjMpW0NAQEhdKE8zKVtDSDJdW0NIMl0y

> <s_epik_cmdline>
J2VwaWtfcHl0aG9uJywgJy1waCcsICc3LjAnLCAnLXRuJywgJzgnLCAnLW1hJywgJzIwMCcsICctbWV0YWxfYmluZGluZycsICctaW1hZScsICc8aW5maWxlLm1hZT4nLCAnLW9tYWUnLCAnPG91dGZpbGUubWFlPic=

> <r_lp_tautomer_probability>
1

> <r_epik_Ionization_Penalty>
1.94439e-07

> <r_epik_Ionization_Penalty_Charging>
0

> <r_epik_Ionization_Penalty_Neutral>
1.94439e-07

> <r_epik_State_Penalty>
-0

> <r_epik_Charging_Adjusted_Penalty>
0

> <i_epik_Tot_Q>
0

> <i_epik_Tot_abs_Q>
0

> <r_epik_Metal_State_Penalty>
-0

> <b_epik_Metal_Only>
0

> <s_lp_Force_Field>
OPLS_2005

> <r_lp_Energy>
42.0373

> <b_lp_Chiralities_Consistent>
1

> <s_lp_Variant>
AV-unprocessed.smi:2816-4

> <Gold.Version>
5.8.1

> <Gold.Id.Protein>
6NUR|6NUR_protein|mol2

> <Gold.PLP.Fitness>
38.1838

> <Gold.PLP.PLP>
-30.1627

> <Gold.PLP.part.hbond>
-2.0000

> <Gold.PLP.part.metal>
0.0000

> <Gold.PLP.part.buried>
-2.9004

> <Gold.PLP.part.nonpolar>
-25.8865

> <Gold.PLP.part.repulsive>
0.2422

> <Gold.PLP.ligand.clash>
0.0000

> <Gold.PLP.ligand.torsion>
1.5934

> <Gold.PLP.Chemscore.Hbond>
1.9913

> <Gold.PLP.Chemscore.CHOScore>
1.0000

> <Gold.PLP.Chemscore.Metal>
0.0000

> <Gold.Chemscore.Hbonds>
donor molecule, donor type, donor heavy atom, donor atom, acceptor molecule, acceptor atom, score
      L1  H    12    33       P1  7948  0.95
      P1  H  6896  6908       L1     7  0.67
      L1  C    20    43       P1  7948  0.84

> <Gold.PLP.Chemscore.Internal.Correction>
2.2340

> <Gold.Rescore>
     Score         DG    S(hbond)    S(metal)    S(lipo)     H(rot)  DE(clash)    DE(int)     intcor
     15.39     -17.16       1.66        0.00      77.69       1.15       0.29       1.48       ----

> <Gold.Chemscore.Fitness>
15.3939

> <Gold.Chemscore.DG>
-17.1648

> <Gold.Chemscore.ZeroCoef>
-5.4800

> <Gold.Chemscore.Hbond>
1.6561

> <Gold.Chemscore.Metal>
0.0000

> <Gold.Chemscore.Lipo>
77.6918

> <Gold.Chemscore.Internal_Hbond>
0.0000

> <Gold.Chemscore.DEClash>
0.2920

> <Gold.Chemscore.DEInternal>
1.4789

> <Gold.Chemscore.Rot>
1.1471

> <Gold.Chemscore.Internal.Correction>
   9.000000E+99

> <Gold.Chemscore.Hbonds>
donor molecule, donor type, donor heavy atom, donor atom, acceptor molecule, acceptor atom, score
      L1  H    12    33       P1  7948  0.21
      P1  H  6896  6908       L1     7  0.65

> <Gold.Chemscore.Hbond.Weighted>
-5.5314

> <Gold.Chemscore.Metal.Weighted>
-0.0000

> <Gold.Chemscore.Lipo.Weighted>
-9.0899

> <Gold.Chemscore.Internal_Hbond.Weighted>
0.0000

> <Gold.Chemscore.DEClash.Weighted>
0.2920

> <Gold.Chemscore.DEInternal.Weighted>
1.4789

> <Gold.Chemscore.Rot.Weighted>
2.9366

> <Gold.Chemscore.Internal.Correction.Weighted>
   9.000000E+99

> <Gold.Protein.RotatedTorsions>
[ 6907 6896 6895 6894 ] final   87.83 input  -60.11 | X-H torsion
[ 7974 7965 7964 7962 ] final  166.31 input  175.53 | X-H torsion
[ 8008 7997 7996 7995 ] final  -20.47 input   59.86 | X-H torsion
[ 10167 10162 10161 10158 ] final  164.26 input  -65.29 | X-H torsion
[ 10718 10713 10712 10709 ] final  -13.14 input   66.30 | X-H torsion
[ 10763 10752 10751 10750 ] final -179.04 input  -60.55 | X-H torsion
[ 11005 11000 10999 10996 ] final  -17.71 input  -57.11 | X-H torsion

> <Gold.Protein.ActiveResidues>
 VAL166  LYS551  ARG553  GLY616  TRP617  ASP618  TYR619  PRO620  LYS621  CYS622 
 ASP623  PHE694  ASN695  SER759  ASP760  ASP761  ALA762  ILE779  LEU786  VAL792 
 PHE793  MET794  SER795  GLU796  ALA797  LYS798  CYS799  TRP800  GLU811  SER814 

> <Gold.Protein.RotatedAtoms>
  152.5417  134.2216  159.8789 H   0  0  0  0  0  0  0  0  0  0  0  0  # atno 6907 bound_to 6896
  151.2193  133.4505  159.2608 H   0  0  0  0  0  0  0  0  0  0  0  0  # atno 6908 bound_to 6896
  151.0821  134.9877  159.8417 H   0  0  0  0  0  0  0  0  0  0  0  0  # atno 6909 bound_to 6896
  144.7467  139.8596  143.6379 H   0  0  0  0  0  0  0  0  0  0  0  0  # atno 7974 bound_to 7965
  154.4768  140.2061  155.9859 H   0  0  0  0  0  0  0  0  0  0  0  0  # atno 8008 bound_to 7997
  156.1101  140.3230  155.8031 H   0  0  0  0  0  0  0  0  0  0  0  0  # atno 8009 bound_to 7997
  155.4649  140.0527  157.2977 H   0  0  0  0  0  0  0  0  0  0  0  0  # atno 8010 bound_to 7997
  139.4886  144.4254  151.9136 H   0  0  0  0  0  0  0  0  0  0  0  0  # atno 10167 bound_to 10162
  156.6345  130.4910  149.6117 H   0  0  0  0  0  0  0  0  0  0  0  0  # atno 10718 bound_to 10713
  154.5401  135.2805  155.1103 H   0  0  0  0  0  0  0  0  0  0  0  0  # atno 10763 bound_to 10752
  154.2590  135.6325  153.5271 H   0  0  0  0  0  0  0  0  0  0  0  0  # atno 10764 bound_to 10752
  152.9977  135.5601  154.5938 H   0  0  0  0  0  0  0  0  0  0  0  0  # atno 10765 bound_to 10752
  140.8196  133.8079  155.9645 H   0  0  0  0  0  0  0  0  0  0  0  0  # atno 11005 bound_to 11000
  146.1357  139.4402  143.0140 LP  0  0  0  0  0  0  0  0  0  0  0  0  # atno 17320 bound_to 7965
  145.7095  141.0111  143.1461 LP  0  0  0  0  0  0  0  0  0  0  0  0  # atno 17321 bound_to 7965
  140.3699  144.2868  150.5921 LP  0  0  0  0  0  0  0  0  0  0  0  0  # atno 17342 bound_to 10162
  140.5328  143.2239  151.8211 LP  0  0  0  0  0  0  0  0  0  0  0  0  # atno 17343 bound_to 10162
  156.2208  130.6736  151.1366 LP  0  0  0  0  0  0  0  0  0  0  0  0  # atno 17370 bound_to 10713
  157.7190  131.0693  150.6213 LP  0  0  0  0  0  0  0  0  0  0  0  0  # atno 17371 bound_to 10713
  140.9113  134.2257  157.4984 LP  0  0  0  0  0  0  0  0  0  0  0  0  # atno 17394 bound_to 11000
  139.8709  134.9751  156.4872 LP  0  0  0  0  0  0  0  0  0  0  0  0  # atno 17395 bound_to 11000

$$$$
