AV-unprocessed.smi:109|AV-procd|sdf|1061|dock4
  -GOLD-   2262018133D 1   1.00000     0.00000
 Structure written by MMmdl.
 58 61  0  0  0  0  0  0  0  0  1 V2000
  152.7540  139.6445  155.0067 O   0  0  0  0  0  0  0  0  0  0  0  0
  151.8580  139.8111  156.0844 C   0  0  0  0  0  0  0  0  0  0  0  0
  151.0048  141.0719  155.8626 C   0  0  0  0  0  0  0  0  0  0  0  0
  150.0696  141.4159  157.0472 C   0  0  2  0  0  0  0  0  0  0  0  0
  148.8379  142.0178  156.5302 N   0  0  0  0  0  0  0  0  0  0  0  0
  147.6815  141.3248  156.4282 C   0  0  0  0  0  0  0  0  0  0  0  0
  146.6088  141.6105  157.2108 N   0  0  0  0  0  0  0  0  0  0  0  0
  145.4808  140.9058  157.0839 C   0  0  0  0  0  0  0  0  0  0  0  0
  145.2187  139.8940  156.2541 N   0  0  0  0  0  0  0  0  0  0  0  0
  146.2935  139.5995  155.4672 C   0  0  0  0  0  0  0  0  0  0  0  0
  147.5502  140.2661  155.4927 C   0  0  0  0  0  0  0  0  0  0  0  0
  148.4026  139.6988  154.5546 N   0  0  0  0  0  0  0  0  0  0  0  0
  147.6885  138.7492  154.0126 C   0  0  0  0  0  0  0  0  0  0  0  0
  146.4066  138.6216  154.4996 N   0  0  0  0  0  0  0  0  0  0  0  0
  145.3712  137.6292  154.0827 C   0  0  1  0  0  0  0  0  0  0  0  0
  145.1327  137.8027  152.7227 O   0  0  0  0  0  0  0  0  0  0  0  0
  144.8259  136.5538  152.0987 C   0  0  1  0  0  0  0  0  0  0  0  0
  145.7603  136.3686  150.8910 C   0  0  0  0  0  0  0  0  0  0  0  0
  146.3801  137.5936  150.5626 O   0  0  0  0  0  0  0  0  0  0  0  0
  145.0430  135.4814  153.1847 C   0  0  2  0  0  0  0  0  0  0  0  0
  143.7767  135.0611  153.6662 O   0  0  0  0  0  0  0  0  0  0  0  0
  145.8679  136.1976  154.2506 C   0  0  2  0  0  0  0  0  0  0  0  0
  145.6416  135.6720  155.5451 O   0  0  0  0  0  0  0  0  0  0  0  0
  150.7110  142.3689  158.0962 C   0  0  0  0  0  0  0  0  0  0  0  0
  151.3385  143.6380  157.4663 C   0  0  0  0  0  0  0  0  0  0  0  0
  152.0089  144.5446  158.5116 C   0  0  0  0  0  0  0  0  0  0  0  0
  153.0666  143.7834  159.3195 C   0  0  0  0  0  0  0  0  0  0  0  0
  152.4522  142.5414  159.9756 C   0  0  0  0  0  0  0  0  0  0  0  0
  151.7912  141.6314  158.9287 C   0  0  0  0  0  0  0  0  0  0  0  0
  144.4748  137.8591  154.6609 H   0  0  0  0  0  0  0  0  0  0  0  0
  143.7876  136.5553  151.7613 H   0  0  0  0  0  0  0  0  0  0  0  0
  145.5627  134.5996  152.8084 H   0  0  0  0  0  0  0  0  0  0  0  0
  146.9266  136.1405  153.9960 H   0  0  0  0  0  0  0  0  0  0  0  0
  152.2542  139.4552  154.2273 H   0  0  0  0  0  0  0  0  0  0  0  0
  151.2360  138.9190  156.1566 H   0  0  0  0  0  0  0  0  0  0  0  0
  152.4276  139.8898  157.0108 H   0  0  0  0  0  0  0  0  0  0  0  0
  151.6987  141.8926  155.6886 H   0  0  0  0  0  0  0  0  0  0  0  0
  150.4181  140.9646  154.9491 H   0  0  0  0  0  0  0  0  0  0  0  0
  149.8580  140.4834  157.5692 H   0  0  0  0  0  0  0  0  0  0  0  0
  148.9342  142.9604  156.1807 H   0  0  0  0  0  0  0  0  0  0  0  0
  144.6729  141.1939  157.7402 H   0  0  0  0  0  0  0  0  0  0  0  0
  148.0812  138.1106  153.2345 H   0  0  0  0  0  0  0  0  0  0  0  0
  146.5098  135.6000  151.0736 H   0  0  0  0  0  0  0  0  0  0  0  0
  145.1876  136.0554  150.0175 H   0  0  0  0  0  0  0  0  0  0  0  0
  145.7144  138.1992  150.2741 H   0  0  0  0  0  0  0  0  0  0  0  0
  143.6339  134.1671  153.3966 H   0  0  0  0  0  0  0  0  0  0  0  0
  144.9806  136.1973  155.9696 H   0  0  0  0  0  0  0  0  0  0  0  0
  149.9256  142.6959  158.7797 H   0  0  0  0  0  0  0  0  0  0  0  0
  152.0695  143.3501  156.7095 H   0  0  0  0  0  0  0  0  0  0  0  0
  150.5815  144.2338  156.9587 H   0  0  0  0  0  0  0  0  0  0  0  0
  152.4663  145.4029  158.0189 H   0  0  0  0  0  0  0  0  0  0  0  0
  151.2514  144.9444  159.1869 H   0  0  0  0  0  0  0  0  0  0  0  0
  153.8868  143.4867  158.6645 H   0  0  0  0  0  0  0  0  0  0  0  0
  153.4963  144.4351  160.0807 H   0  0  0  0  0  0  0  0  0  0  0  0
  153.2216  141.9885  160.5151 H   0  0  0  0  0  0  0  0  0  0  0  0
  151.7119  142.8447  160.7170 H   0  0  0  0  0  0  0  0  0  0  0  0
  151.3622  140.7727  159.4452 H   0  0  0  0  0  0  0  0  0  0  0  0
  152.5569  141.2326  158.2618 H   0  0  0  0  0  0  0  0  0  0  0  0
  1  2  1  0  0  0  0
  1 34  1  0  0  0  0
  2  3  1  0  0  0  0
  2 35  1  0  0  0  0
  2 36  1  0  0  0  0
  3  4  1  0  0  0  0
  3 37  1  0  0  0  0
  3 38  1  0  0  0  0
  4  5  1  0  0  0  0
  4 24  1  0  0  0  0
  4 39  1  0  0  0  0
  5  6  1  0  0  0  0
  5 40  1  0  0  0  0
  6 11  1  0  0  0  0
  6  7  2  0  0  0  0
  7  8  1  0  0  0  0
  8  9  2  0  0  0  0
  8 41  1  0  0  0  0
  9 10  1  0  0  0  0
 10 14  1  0  0  0  0
 10 11  2  0  0  0  0
 11 12  1  0  0  0  0
 12 13  2  0  0  0  0
 13 14  1  0  0  0  0
 13 42  1  0  0  0  0
 14 15  1  0  0  0  0
 15 30  1  0  0  0  0
 15 22  1  0  0  0  0
 15 16  1  0  0  0  0
 16 17  1  0  0  0  0
 17 31  1  0  0  0  0
 17 18  1  0  0  0  0
 17 20  1  0  0  0  0
 18 19  1  0  0  0  0
 18 43  1  0  0  0  0
 18 44  1  0  0  0  0
 19 45  1  0  0  0  0
 20 32  1  0  0  0  0
 20 21  1  0  0  0  0
 20 22  1  0  0  0  0
 21 46  1  0  0  0  0
 22 33  1  0  0  0  0
 22 23  1  0  0  0  0
 23 47  1  0  0  0  0
 24 29  1  0  0  0  0
 24 25  1  0  0  0  0
 24 48  1  0  0  0  0
 25 26  1  0  0  0  0
 25 49  1  0  0  0  0
 25 50  1  0  0  0  0
 26 27  1  0  0  0  0
 26 51  1  0  0  0  0
 26 52  1  0  0  0  0
 27 28  1  0  0  0  0
 27 53  1  0  0  0  0
 27 54  1  0  0  0  0
 28 29  1  0  0  0  0
 28 55  1  0  0  0  0
 28 56  1  0  0  0  0
 29 57  1  0  0  0  0
 29 58  1  0  0  0  0
M  END
> <s_m_source_file>
AV-unprocessed.smi

> <i_m_source_file_index>
109

> <i_lp_mmshare_version>
43012

> <i_f3d_flags>
0

> <s_epik_input>
W0NIMl0xW0NIMl1bQ0gyXVtDSDJdW0NIMl1bQ0hdMVtDQEhdKFtDSDJdW0NIMl1bT0hdKVtOSF1jKG5bY0hdbjIpYyhjMjMpbltjSF1uM1tDQEBIXTRPW0NASF0oW0NIMl1bT0hdKVtDQEBIXShbT0hdKVtDQEhdNFtPSF0=

> <s_epik_cmdline>
J2VwaWtfcHl0aG9uJywgJy1waCcsICc3LjAnLCAnLXRuJywgJzgnLCAnLW1hJywgJzIwMCcsICctbWV0YWxfYmluZGluZycsICctaW1hZScsICc8aW5maWxlLm1hZT4nLCAnLW9tYWUnLCAnPG91dGZpbGUubWFlPic=

> <r_lp_tautomer_probability>
1

> <r_epik_Ionization_Penalty>
0.000793976

> <r_epik_Ionization_Penalty_Charging>
0

> <r_epik_Ionization_Penalty_Neutral>
0.000793976

> <r_epik_State_Penalty>
-0

> <r_epik_Charging_Adjusted_Penalty>
0

> <i_epik_Tot_Q>
0

> <i_epik_Tot_abs_Q>
0

> <r_epik_Metal_State_Penalty>
-0

> <b_epik_Metal_Only>
0

> <s_epik_Chemistry_Notes>
This compound contains an acetal/aminal-like group ( X-CH(R)-Y where X, Y are N, S, or O) that may be acid/base labile, releasing an aldehyde.

> <s_lp_Force_Field>
OPLS_2005

> <r_lp_Energy>
56.6401

> <b_lp_Chiralities_Consistent>
1

> <s_lp_Variant>
AV-unprocessed.smi:109-31

> <Gold.Version>
5.8.1

> <Gold.Id.Protein>
6NUR|6NUR_protein|mol2

> <Gold.PLP.Fitness>
52.4117

> <Gold.PLP.PLP>
-41.3810

> <Gold.PLP.part.hbond>
-5.9656

> <Gold.PLP.part.metal>
0.0000

> <Gold.PLP.part.buried>
-5.3228

> <Gold.PLP.part.nonpolar>
-30.8355

> <Gold.PLP.part.repulsive>
0.4829

> <Gold.PLP.ligand.clash>
0.0000

> <Gold.PLP.ligand.torsion>
2.0786

> <Gold.PLP.Chemscore.Hbond>
3.9760

> <Gold.PLP.Chemscore.CHOScore>
1.0000

> <Gold.PLP.Chemscore.Metal>
0.0000

> <Gold.Chemscore.Hbonds>
donor molecule, donor type, donor heavy atom, donor atom, acceptor molecule, acceptor atom, score
      L1  H     5    40       P1  8028  1.00
      L1  H    19    45       P1 10171  1.00
      P1  H  7954  7966       L1    19  0.96
      P1  H  7997  8010       L1     1  1.00
      L1  C    13    42       P1  7948  1.00

> <Gold.PLP.Chemscore.Internal.Correction>
0.2600

> <Gold.Rescore>
     Score         DG    S(hbond)    S(metal)    S(lipo)     H(rot)  DE(clash)    DE(int)     intcor
     13.89     -16.24       3.80        0.00     103.03       5.47       0.23       2.12       ----

> <Gold.Chemscore.Fitness>
13.8857

> <Gold.Chemscore.DG>
-16.2380

> <Gold.Chemscore.ZeroCoef>
-5.4800

> <Gold.Chemscore.Hbond>
3.8015

> <Gold.Chemscore.Metal>
0.0000

> <Gold.Chemscore.Lipo>
103.0308

> <Gold.Chemscore.Internal_Hbond>
0.0000

> <Gold.Chemscore.DEClash>
0.2309

> <Gold.Chemscore.DEInternal>
2.1213

> <Gold.Chemscore.Rot>
5.4662

> <Gold.Chemscore.Internal.Correction>
   9.000000E+99

> <Gold.Chemscore.Hbonds>
donor molecule, donor type, donor heavy atom, donor atom, acceptor molecule, acceptor atom, score
      L1  H     5    40       P1  8028  1.00
      L1  H    19    45       P1 10171  0.96
      P1  H  7954  7966       L1    19  0.87
      P1  H  7997  8010       L1     1  0.29

> <Gold.Chemscore.Hbond.Weighted>
-12.6969

> <Gold.Chemscore.Metal.Weighted>
-0.0000

> <Gold.Chemscore.Lipo.Weighted>
-12.0546

> <Gold.Chemscore.Internal_Hbond.Weighted>
0.0000

> <Gold.Chemscore.DEClash.Weighted>
0.2309

> <Gold.Chemscore.DEInternal.Weighted>
2.1213

> <Gold.Chemscore.Rot.Weighted>
13.9935

> <Gold.Chemscore.Internal.Correction.Weighted>
   9.000000E+99

> <Gold.Protein.RotatedTorsions>
[ 6907 6896 6895 6894 ] final -121.80 input  -60.11 | X-H torsion
[ 7974 7965 7964 7962 ] final  -79.20 input  175.53 | X-H torsion
[ 8008 7997 7996 7995 ] final  107.45 input   59.86 | X-H torsion
[ 10167 10162 10161 10158 ] final  124.22 input  -65.29 | X-H torsion
[ 10718 10713 10712 10709 ] final   69.92 input   66.30 | X-H torsion
[ 10763 10752 10751 10750 ] final -104.79 input  -60.55 | X-H torsion
[ 11005 11000 10999 10996 ] final   37.56 input  -57.11 | X-H torsion

> <Gold.Protein.ActiveResidues>
 VAL166  LYS551  ARG553  GLY616  TRP617  ASP618  TYR619  PRO620  LYS621  CYS622 
 ASP623  PHE694  ASN695  SER759  ASP760  ASP761  ALA762  ILE779  LEU786  VAL792 
 PHE793  MET794  SER795  GLU796  ALA797  LYS798  CYS799  TRP800  GLU811  SER814 

> <Gold.Protein.RotatedAtoms>
  150.8517  133.7777  159.3023 H   0  0  0  0  0  0  0  0  0  0  0  0  # atno 6907 bound_to 6896
  151.5447  135.1066  159.9944 H   0  0  0  0  0  0  0  0  0  0  0  0  # atno 6908 bound_to 6896
  152.4558  133.7676  159.6837 H   0  0  0  0  0  0  0  0  0  0  0  0  # atno 6909 bound_to 6896
  145.5764  140.9457  143.1368 H   0  0  0  0  0  0  0  0  0  0  0  0  # atno 7974 bound_to 7965
  156.1825  140.3094  155.9175 H   0  0  0  0  0  0  0  0  0  0  0  0  # atno 8008 bound_to 7997
  155.3354  140.0463  157.3060 H   0  0  0  0  0  0  0  0  0  0  0  0  # atno 8009 bound_to 7997
  154.5358  140.2245  155.8735 H   0  0  0  0  0  0  0  0  0  0  0  0  # atno 8010 bound_to 7997
  139.5754  144.6960  151.3668 H   0  0  0  0  0  0  0  0  0  0  0  0  # atno 10167 bound_to 10162
  157.6372  130.9450  150.0579 H   0  0  0  0  0  0  0  0  0  0  0  0  # atno 10718 bound_to 10713
  154.7903  135.4773  154.0037 H   0  0  0  0  0  0  0  0  0  0  0  0  # atno 10763 bound_to 10752
  153.1620  135.6810  153.8735 H   0  0  0  0  0  0  0  0  0  0  0  0  # atno 10764 bound_to 10752
  153.8346  135.3187  155.3399 H   0  0  0  0  0  0  0  0  0  0  0  0  # atno 10765 bound_to 10752
  140.2214  134.3637  155.8003 H   0  0  0  0  0  0  0  0  0  0  0  0  # atno 11005 bound_to 11000
  144.7414  139.7438  143.7309 LP  0  0  0  0  0  0  0  0  0  0  0  0  # atno 17320 bound_to 7965
  146.1748  139.4914  142.9904 LP  0  0  0  0  0  0  0  0  0  0  0  0  # atno 17321 bound_to 7965
  140.7037  143.7569  150.7445 LP  0  0  0  0  0  0  0  0  0  0  0  0  # atno 17342 bound_to 10162
  140.1087  143.4720  152.2383 LP  0  0  0  0  0  0  0  0  0  0  0  0  # atno 17343 bound_to 10162
  156.1621  130.3644  149.9285 LP  0  0  0  0  0  0  0  0  0  0  0  0  # atno 17370 bound_to 10713
  156.7280  130.9032  151.3623 LP  0  0  0  0  0  0  0  0  0  0  0  0  # atno 17371 bound_to 10713
  141.2223  133.7195  156.8581 LP  0  0  0  0  0  0  0  0  0  0  0  0  # atno 17394 bound_to 11000
  140.1846  134.9009  157.2989 LP  0  0  0  0  0  0  0  0  0  0  0  0  # atno 17395 bound_to 11000

$$$$
