AV-unprocessed.smi:290|AV-procd|sdf|2237|dock10
  -GOLD-   2262022113D 1   1.00000     0.00000
 Structure written by MMmdl.
 59 62  0  0  0  0  0  0  0  0  2 V2000
  151.1531  142.2219  156.3133 C   0  0  0  0  0  0  0  0  0  0  0  0
  150.8576  140.7131  156.3321 C   0  0  2  0  0  0  0  0  0  0  0  0
  152.0640  139.9631  156.1946 O   0  0  0  0  0  0  0  0  0  0  0  0
  151.9872  139.1218  155.0531 C   0  0  0  0  0  0  0  0  0  0  0  0
  150.4983  138.8459  154.8922 C   0  0  0  0  0  0  0  0  0  0  0  0
  149.8745  140.1853  155.2596 C   0  0  2  0  0  0  0  0  0  0  0  0
  149.8913  141.0131  154.1073 O   0  0  0  0  0  0  0  0  0  0  0  0
  148.4172  140.0811  155.7696 C   0  0  0  0  0  0  0  0  0  0  0  0
  147.5649  139.2629  154.9203 N   0  0  0  0  0  0  0  0  0  0  0  0
  147.7853  138.9364  153.6010 C   0  0  0  0  0  0  0  0  0  0  0  0
  146.8664  138.1904  153.0507 N   0  0  0  0  0  0  0  0  0  0  0  0
  145.9456  137.9805  154.0700 C   0  0  0  0  0  0  0  0  0  0  0  0
  144.7143  137.2733  154.1709 C   0  0  0  0  0  0  0  0  0  0  0  0
  144.1317  136.5854  153.1655 N   0  0  0  0  0  0  0  0  0  0  0  0
  144.8565  136.5735  151.8987 C   0  0  0  0  0  0  0  0  0  0  0  0
  144.6891  135.1657  151.3245 C   0  0  0  0  0  0  0  0  0  0  0  0
  144.5247  134.3070  152.5826 C   0  0  2  0  0  0  0  0  0  0  0  0
  143.9618  132.9409  152.3683 N   0  3  1  0  0  0  0  0  0  0  0  0
  142.8997  132.9146  151.3301 C   0  0  0  0  0  0  0  0  0  0  0  0
  145.0227  131.9284  152.1065 C   0  0  0  0  0  0  0  0  0  0  0  0
  146.0609  132.3883  151.0661 C   0  0  0  0  0  0  0  0  0  0  0  0
  147.3688  132.2296  151.5723 O   0  0  0  0  0  0  0  0  0  0  0  0
  143.6810  135.2342  153.4882 C   0  0  2  0  0  0  0  0  0  0  0  0
  142.1603  135.1375  153.2605 C   0  0  0  0  0  0  0  0  0  0  0  0
  144.0707  137.2810  155.3629 N   0  0  0  0  0  0  0  0  0  0  0  0
  144.5928  137.9445  156.3993 C   0  0  0  0  0  0  0  0  0  0  0  0
  145.7246  138.6506  156.4541 N   0  0  0  0  0  0  0  0  0  0  0  0
  146.3743  138.6419  155.2551 C   0  0  0  0  0  0  0  0  0  0  0  0
  145.5140  134.1872  153.0265 H   0  0  0  0  0  0  0  0  0  0  0  0
  143.8836  135.0073  154.5365 H   0  0  0  0  0  0  0  0  0  0  0  0
  150.2348  142.8020  156.4083 H   0  0  0  0  0  0  0  0  0  0  0  0
  151.6506  142.5237  155.3911 H   0  0  0  0  0  0  0  0  0  0  0  0
  151.8068  142.4974  157.1409 H   0  0  0  0  0  0  0  0  0  0  0  0
  150.4715  140.4588  157.3199 H   0  0  0  0  0  0  0  0  0  0  0  0
  152.3763  139.6583  154.1865 H   0  0  0  0  0  0  0  0  0  0  0  0
  152.5742  138.2126  155.1842 H   0  0  0  0  0  0  0  0  0  0  0  0
  150.2329  138.4944  153.8942 H   0  0  0  0  0  0  0  0  0  0  0  0
  150.1970  138.0801  155.6083 H   0  0  0  0  0  0  0  0  0  0  0  0
  149.8809  141.9161  154.3853 H   0  0  0  0  0  0  0  0  0  0  0  0
  148.3999  139.6510  156.7718 H   0  0  0  0  0  0  0  0  0  0  0  0
  147.9734  141.0738  155.8566 H   0  0  0  0  0  0  0  0  0  0  0  0
  148.6529  139.2764  153.0542 H   0  0  0  0  0  0  0  0  0  0  0  0
  144.4572  137.3278  151.2203 H   0  0  0  0  0  0  0  0  0  0  0  0
  145.9139  136.7947  152.0499 H   0  0  0  0  0  0  0  0  0  0  0  0
  143.7902  135.1206  150.7081 H   0  0  0  0  0  0  0  0  0  0  0  0
  145.5401  134.8731  150.7086 H   0  0  0  0  0  0  0  0  0  0  0  0
  143.2867  133.2575  150.3697 H   0  0  0  0  0  0  0  0  0  0  0  0
  142.0570  133.5482  151.6047 H   0  0  0  0  0  0  0  0  0  0  0  0
  142.4912  131.9154  151.1912 H   0  0  0  0  0  0  0  0  0  0  0  0
  145.5200  131.6798  153.0451 H   0  0  0  0  0  0  0  0  0  0  0  0
  144.5824  130.9984  151.7479 H   0  0  0  0  0  0  0  0  0  0  0  0
  145.9674  131.8603  150.1183 H   0  0  0  0  0  0  0  0  0  0  0  0
  145.9111  133.4456  150.8462 H   0  0  0  0  0  0  0  0  0  0  0  0
  147.9026  131.8217  150.9069 H   0  0  0  0  0  0  0  0  0  0  0  0
  141.7723  134.1595  153.5404 H   0  0  0  0  0  0  0  0  0  0  0  0
  141.8927  135.3181  152.2189 H   0  0  0  0  0  0  0  0  0  0  0  0
  141.6328  135.8746  153.8666 H   0  0  0  0  0  0  0  0  0  0  0  0
  144.0216  137.9063  157.3152 H   0  0  0  0  0  0  0  0  0  0  0  0
  143.5236  132.6775  153.2399 H   0  0  0  0  0  0  0  0  0  0  0  0
  1  2  1  0  0  0  0
  1 31  1  0  0  0  0
  1 32  1  0  0  0  0
  1 33  1  0  0  0  0
  2  6  1  0  0  0  0
  2  3  1  0  0  0  0
  2 34  1  0  0  0  0
  3  4  1  0  0  0  0
  4  5  1  0  0  0  0
  4 35  1  0  0  0  0
  4 36  1  0  0  0  0
  5  6  1  0  0  0  0
  5 37  1  0  0  0  0
  5 38  1  0  0  0  0
  6  7  1  0  0  0  0
  6  8  1  0  0  0  0
  7 39  1  0  0  0  0
  8  9  1  0  0  0  0
  8 40  1  0  0  0  0
  8 41  1  0  0  0  0
  9 28  1  0  0  0  0
  9 10  1  0  0  0  0
 10 11  2  0  0  0  0
 10 42  1  0  0  0  0
 11 12  1  0  0  0  0
 12 28  2  0  0  0  0
 12 13  1  0  0  0  0
 13 14  1  0  0  0  0
 13 25  2  0  0  0  0
 14 23  1  0  0  0  0
 14 15  1  0  0  0  0
 15 16  1  0  0  0  0
 15 43  1  0  0  0  0
 15 44  1  0  0  0  0
 16 17  1  0  0  0  0
 16 45  1  0  0  0  0
 16 46  1  0  0  0  0
 17 29  1  0  0  0  0
 17 18  1  0  0  0  0
 17 23  1  0  0  0  0
 18 19  1  0  0  0  0
 18 20  1  0  0  0  0
 18 59  1  0  0  0  0
 19 47  1  0  0  0  0
 19 48  1  0  0  0  0
 19 49  1  0  0  0  0
 20 21  1  0  0  0  0
 20 50  1  0  0  0  0
 20 51  1  0  0  0  0
 21 22  1  0  0  0  0
 21 52  1  0  0  0  0
 21 53  1  0  0  0  0
 22 54  1  0  0  0  0
 23 30  1  0  0  0  0
 23 24  1  0  0  0  0
 24 55  1  0  0  0  0
 24 56  1  0  0  0  0
 24 57  1  0  0  0  0
 25 26  1  0  0  0  0
 26 27  2  0  0  0  0
 26 58  1  0  0  0  0
 27 28  1  0  0  0  0
M  CHG  1  18   1
M  END
> <s_m_source_file>
AV-unprocessed.smi

> <i_m_source_file_index>
290

> <i_lp_mmshare_version>
43012

> <i_f3d_flags>
0

> <s_epik_input>
W0NIMl0xW0NIMl1PW0NAQEhdKFtDSDNdKVtDQEBdMShbT0hdKVtDSDJdbihbY0hdbjIpYyhjMjMpbltjSF1uYzNONFtDSDJdW0NIMl1bQ0BIXShbQ0BIXTRbQ0gzXSlOKFtDSDNdKVtDSDJdW0NIMl1bT0hd

> <s_epik_cmdline>
J2VwaWtfcHl0aG9uJywgJy1waCcsICc3LjAnLCAnLXRuJywgJzgnLCAnLW1hJywgJzIwMCcsICctbWV0YWxfYmluZGluZycsICctaW1hZScsICc8aW5maWxlLm1hZT4nLCAnLW9tYWUnLCAnPG91dGZpbGUubWFlPic=

> <r_lp_tautomer_probability>
1

> <r_epik_Ionization_Penalty>
0.0036983

> <r_epik_Ionization_Penalty_Charging>
0.0032725

> <r_epik_Ionization_Penalty_Neutral>
0.000425798

> <r_epik_State_Penalty>
-0

> <r_epik_Charging_Adjusted_Penalty>
0.0032725

> <i_epik_Tot_Q>
1

> <i_epik_Tot_abs_Q>
1

> <r_epik_Metal_State_Penalty>
-0

> <b_epik_Metal_Only>
0

> <s_lp_Force_Field>
OPLS_2005

> <r_lp_Energy>
65.7953

> <b_lp_Chiralities_Consistent>
1

> <s_lp_Variant>
AV-unprocessed.smi:290-23

> <Gold.Version>
5.8.1

> <Gold.Id.Protein>
6NUR|6NUR_protein|mol2

> <Gold.PLP.Fitness>
45.3517

> <Gold.PLP.PLP>
-33.7745

> <Gold.PLP.part.hbond>
-4.4610

> <Gold.PLP.part.metal>
0.0000

> <Gold.PLP.part.buried>
-3.2578

> <Gold.PLP.part.nonpolar>
-26.7743

> <Gold.PLP.part.repulsive>
0.3944

> <Gold.PLP.ligand.clash>
0.0000

> <Gold.PLP.ligand.torsion>
1.6172

> <Gold.PLP.Chemscore.Hbond>
3.8499

> <Gold.PLP.Chemscore.CHOScore>
1.0000

> <Gold.PLP.Chemscore.Metal>
0.0000

> <Gold.Chemscore.Hbonds>
donor molecule, donor type, donor heavy atom, donor atom, acceptor molecule, acceptor atom, score
      L1  H    18    59       P1 10957  2.00
      L1  H    22    54       P1 10747  1.00
      P1  H  7989  7998       L1     7  0.48
      P1  H  7997  8010       L1     3  0.36
      L1  C    10    42       P1  7957  1.00

> <Gold.PLP.Chemscore.Internal.Correction>
0.2618

> <Gold.Rescore>
     Score         DG    S(hbond)    S(metal)    S(lipo)     H(rot)  DE(clash)    DE(int)     intcor
      6.81     -12.20       2.20        0.00      74.76       3.67       0.19       5.19       ----

> <Gold.Chemscore.Fitness>
6.8139

> <Gold.Chemscore.DG>
-12.1960

> <Gold.Chemscore.ZeroCoef>
-5.4800

> <Gold.Chemscore.Hbond>
2.2017

> <Gold.Chemscore.Metal>
0.0000

> <Gold.Chemscore.Lipo>
74.7577

> <Gold.Chemscore.Internal_Hbond>
0.0000

> <Gold.Chemscore.DEClash>
0.1928

> <Gold.Chemscore.DEInternal>
5.1893

> <Gold.Chemscore.Rot>
3.6658

> <Gold.Chemscore.Internal.Correction>
   9.000000E+99

> <Gold.Chemscore.Hbonds>
donor molecule, donor type, donor heavy atom, donor atom, acceptor molecule, acceptor atom, score
      L1  H    18    59       P1 10957  0.34
      L1  H    22    54       P1 10747  0.97
      P1  H  7989  7998       L1     7  0.06
      P1  H  7997  8010       L1     3  0.08

> <Gold.Chemscore.Hbond.Weighted>
-7.3537

> <Gold.Chemscore.Metal.Weighted>
-0.0000

> <Gold.Chemscore.Lipo.Weighted>
-8.7467

> <Gold.Chemscore.Internal_Hbond.Weighted>
0.0000

> <Gold.Chemscore.DEClash.Weighted>
0.1928

> <Gold.Chemscore.DEInternal.Weighted>
5.1893

> <Gold.Chemscore.Rot.Weighted>
9.3844

> <Gold.Chemscore.Internal.Correction.Weighted>
   9.000000E+99

> <Gold.Protein.RotatedTorsions>
[ 6907 6896 6895 6894 ] final  -70.13 input  -60.11 | X-H torsion
[ 7974 7965 7964 7962 ] final -140.39 input  175.53 | X-H torsion
[ 8008 7997 7996 7995 ] final   75.42 input   59.86 | X-H torsion
[ 10167 10162 10161 10158 ] final  -58.57 input  -65.29 | X-H torsion
[ 10718 10713 10712 10709 ] final  167.28 input   66.30 | X-H torsion
[ 10763 10752 10751 10750 ] final -131.44 input  -60.55 | X-H torsion
[ 11005 11000 10999 10996 ] final  -80.85 input  -57.11 | X-H torsion

> <Gold.Protein.ActiveResidues>
 VAL166  LYS551  ARG553  GLY616  TRP617  ASP618  TYR619  PRO620  LYS621  CYS622 
 ASP623  PHE694  ASN695  SER759  ASP760  ASP761  ALA762  ILE779  LEU786  VAL792 
 PHE793  MET794  SER795  GLU796  ALA797  LYS798  CYS799  TRP800  GLU811  SER814 

> <Gold.Protein.RotatedAtoms>
  150.7272  134.5497  159.5788 H   0  0  0  0  0  0  0  0  0  0  0  0  # atno 6907 bound_to 6896
  152.2987  134.7633  160.0371 H   0  0  0  0  0  0  0  0  0  0  0  0  # atno 6908 bound_to 6896
  151.8221  133.3360  159.3624 H   0  0  0  0  0  0  0  0  0  0  0  0  # atno 6909 bound_to 6896
  144.8601  140.6205  143.5334 H   0  0  0  0  0  0  0  0  0  0  0  0  # atno 7974 bound_to 7965
  155.8127  140.3472  155.5467 H   0  0  0  0  0  0  0  0  0  0  0  0  # atno 8008 bound_to 7997
  155.8424  140.0943  157.1746 H   0  0  0  0  0  0  0  0  0  0  0  0  # atno 8009 bound_to 7997
  154.4005  140.1392  156.3732 H   0  0  0  0  0  0  0  0  0  0  0  0  # atno 8010 bound_to 7997
  140.6189  143.2412  151.5530 H   0  0  0  0  0  0  0  0  0  0  0  0  # atno 10167 bound_to 10162
  157.0538  131.0321  151.2671 H   0  0  0  0  0  0  0  0  0  0  0  0  # atno 10718 bound_to 10713
  154.8750  135.3830  154.4246 H   0  0  0  0  0  0  0  0  0  0  0  0  # atno 10763 bound_to 10752
  153.4947  135.7030  153.5870 H   0  0  0  0  0  0  0  0  0  0  0  0  # atno 10764 bound_to 10752
  153.4228  135.3897  155.2089 H   0  0  0  0  0  0  0  0  0  0  0  0  # atno 10765 bound_to 10752
  141.1667  133.7169  156.8334 H   0  0  0  0  0  0  0  0  0  0  0  0  # atno 11005 bound_to 11000
  145.4330  139.1546  143.4012 LP  0  0  0  0  0  0  0  0  0  0  0  0  # atno 17320 bound_to 7965
  146.2853  140.4447  142.8760 LP  0  0  0  0  0  0  0  0  0  0  0  0  # atno 17321 bound_to 7965
  139.5422  144.2618  152.1372 LP  0  0  0  0  0  0  0  0  0  0  0  0  # atno 17342 bound_to 10162
  140.1833  144.4823  150.6516 LP  0  0  0  0  0  0  0  0  0  0  0  0  # atno 17343 bound_to 10162
  157.5009  130.7879  149.7604 LP  0  0  0  0  0  0  0  0  0  0  0  0  # atno 17370 bound_to 10713
  155.9999  130.3886  150.2645 LP  0  0  0  0  0  0  0  0  0  0  0  0  # atno 17371 bound_to 10713
  140.2035  134.8880  157.3195 LP  0  0  0  0  0  0  0  0  0  0  0  0  # atno 17394 bound_to 11000
  140.2162  134.4078  155.7588 LP  0  0  0  0  0  0  0  0  0  0  0  0  # atno 17395 bound_to 11000

$$$$
