AV-unprocessed.smi:261|AV-procd|sdf|1988|dock8
  -GOLD-   2262021173D 1   1.00000     0.00000
 Structure written by MMmdl.
 51 54  0  0  0  0  0  0  0  0  1 V2000
  146.1517  129.7946  151.1350 C   0  0  0  0  0  0  0  0  0  0  0  0
  147.2108  129.8593  152.0761 O   0  0  0  0  0  0  0  0  0  0  0  0
  147.1235  130.9738  152.9520 C   0  0  2  0  0  0  0  0  0  0  0  0
  147.3027  132.3211  152.2458 C   0  0  0  0  0  0  0  0  0  0  0  0
  147.8045  133.2665  153.3503 C   0  0  1  0  0  0  0  0  0  0  0  0
  146.6426  133.9826  154.0618 C   0  0  0  0  0  0  0  0  0  0  0  0
  146.6613  135.3174  154.0467 N   0  0  0  0  0  0  0  0  0  0  0  0
  145.7375  133.3492  154.6034 O   0  0  0  0  0  0  0  0  0  0  0  0
  148.5333  132.3722  154.2536 N   0  0  0  0  0  0  0  0  0  0  0  0
  149.5132  132.7928  155.1006 C   0  0  0  0  0  0  0  0  0  0  0  0
  150.3081  131.8561  155.6840 N   0  0  0  0  0  0  0  0  0  0  0  0
  151.2862  132.2125  156.5201 C   0  0  0  0  0  0  0  0  0  0  0  0
  151.6423  133.4356  156.9117 N   0  0  0  0  0  0  0  0  0  0  0  0
  150.8525  134.3853  156.3356 C   0  0  0  0  0  0  0  0  0  0  0  0
  149.7769  134.1580  155.4277 C   0  0  0  0  0  0  0  0  0  0  0  0
  149.2181  135.3791  155.0622 N   0  0  0  0  0  0  0  0  0  0  0  0
  149.9165  136.2680  155.7127 C   0  0  0  0  0  0  0  0  0  0  0  0
  150.9154  135.7563  156.5069 N   0  0  0  0  0  0  0  0  0  0  0  0
  151.8359  136.5075  157.3411 C   0  0  0  0  0  0  0  0  0  0  0  0
  152.9593  135.6367  157.9436 C   0  0  1  0  0  0  0  0  0  0  0  0
  154.0272  135.6315  157.0175 O   0  0  0  0  0  0  0  0  0  0  0  0
  153.4804  136.1248  159.3137 C   0  0  2  0  0  0  0  0  0  0  0  0
  154.5616  135.2376  159.9340 C   0  0  0  0  0  0  0  0  0  0  0  0
  154.4749  135.5553  161.4176 C   0  0  0  0  0  0  0  0  0  0  0  0
  153.0886  136.1832  161.5791 C   0  0  0  0  0  0  0  0  0  0  0  0
  152.4689  136.0512  160.3077 O   0  0  0  0  0  0  0  0  0  0  0  0
  148.2793  130.9694  153.9535 C   0  0  0  0  0  0  0  0  0  0  0  0
  146.1792  130.9616  153.5000 H   0  0  0  0  0  0  0  0  0  0  0  0
  148.4744  134.0073  152.9099 H   0  0  0  0  0  0  0  0  0  0  0  0
  146.2588  128.8957  150.5280 H   0  0  0  0  0  0  0  0  0  0  0  0
  146.1603  130.6527  150.4624 H   0  0  0  0  0  0  0  0  0  0  0  0
  145.1824  129.7491  151.6330 H   0  0  0  0  0  0  0  0  0  0  0  0
  148.0678  132.2315  151.4731 H   0  0  0  0  0  0  0  0  0  0  0  0
  146.3893  132.6668  151.7599 H   0  0  0  0  0  0  0  0  0  0  0  0
  145.9201  135.8369  154.4935 H   0  0  0  0  0  0  0  0  0  0  0  0
  147.4156  135.8016  153.5822 H   0  0  0  0  0  0  0  0  0  0  0  0
  151.8661  131.4012  156.9347 H   0  0  0  0  0  0  0  0  0  0  0  0
  149.7150  137.3264  155.6361 H   0  0  0  0  0  0  0  0  0  0  0  0
  152.2630  137.3078  156.7352 H   0  0  0  0  0  0  0  0  0  0  0  0
  151.2645  136.9896  158.1357 H   0  0  0  0  0  0  0  0  0  0  0  0
  152.6084  134.6086  158.0404 H   0  0  0  0  0  0  0  0  0  0  0  0
  154.8373  135.7338  157.4931 H   0  0  0  0  0  0  0  0  0  0  0  0
  153.8394  137.1534  159.2424 H   0  0  0  0  0  0  0  0  0  0  0  0
  154.3219  134.1858  159.7713 H   0  0  0  0  0  0  0  0  0  0  0  0
  155.5524  135.4247  159.5196 H   0  0  0  0  0  0  0  0  0  0  0  0
  154.5907  134.6550  162.0222 H   0  0  0  0  0  0  0  0  0  0  0  0
  155.2495  136.2628  161.7154 H   0  0  0  0  0  0  0  0  0  0  0  0
  152.4945  135.6939  162.3512 H   0  0  0  0  0  0  0  0  0  0  0  0
  153.1719  137.2411  161.8313 H   0  0  0  0  0  0  0  0  0  0  0  0
  148.0174  130.3993  154.8452 H   0  0  0  0  0  0  0  0  0  0  0  0
  149.1752  130.5332  153.5090 H   0  0  0  0  0  0  0  0  0  0  0  0
  1  2  1  0  0  0  0
  1 30  1  0  0  0  0
  1 31  1  0  0  0  0
  1 32  1  0  0  0  0
  2  3  1  0  0  0  0
  3 28  1  0  0  0  0
  3 27  1  0  0  0  0
  3  4  1  0  0  0  0
  4  5  1  0  0  0  0
  4 33  1  0  0  0  0
  4 34  1  0  0  0  0
  5 29  1  0  0  0  0
  5  6  1  0  0  0  0
  5  9  1  0  0  0  0
  6  7  1  0  0  0  0
  6  8  2  0  0  0  0
  7 35  1  0  0  0  0
  7 36  1  0  0  0  0
  9 10  1  0  0  0  0
  9 27  1  0  0  0  0
 10 15  1  0  0  0  0
 10 11  2  0  0  0  0
 11 12  1  0  0  0  0
 12 13  2  0  0  0  0
 12 37  1  0  0  0  0
 13 14  1  0  0  0  0
 14 18  1  0  0  0  0
 14 15  2  0  0  0  0
 15 16  1  0  0  0  0
 16 17  2  0  0  0  0
 17 18  1  0  0  0  0
 17 38  1  0  0  0  0
 18 19  1  0  0  0  0
 19 20  1  0  0  0  0
 19 39  1  0  0  0  0
 19 40  1  0  0  0  0
 20 21  1  0  0  0  0
 20 22  1  0  0  0  0
 20 41  1  0  0  0  0
 21 42  1  0  0  0  0
 22 26  1  0  0  0  0
 22 23  1  0  0  0  0
 22 43  1  0  0  0  0
 23 24  1  0  0  0  0
 23 44  1  0  0  0  0
 23 45  1  0  0  0  0
 24 25  1  0  0  0  0
 24 46  1  0  0  0  0
 24 47  1  0  0  0  0
 25 26  1  0  0  0  0
 25 48  1  0  0  0  0
 25 49  1  0  0  0  0
 27 50  1  0  0  0  0
 27 51  1  0  0  0  0
M  END
> <s_m_source_file>
AV-unprocessed.smi

> <i_m_source_file_index>
261

> <i_lp_mmshare_version>
43012

> <i_f3d_flags>
0

> <s_epik_input>
W0NIM11PW0NASF0xW0NIMl1bQ0BASF0oQyg9TylbTkgyXSlOKFtDSDJdMSljKG5bY0hdbjIpYyhjMjMpbltjSF1uM1tDSDJdW0NASF0oW09IXSlbQ0BASF00W0NIMl1bQ0gyXVtDSDJdTzQ=

> <s_epik_cmdline>
J2VwaWtfcHl0aG9uJywgJy1waCcsICc3LjAnLCAnLXRuJywgJzgnLCAnLW1hJywgJzIwMCcsICctbWV0YWxfYmluZGluZycsICctaW1hZScsICc8aW5maWxlLm1hZT4nLCAnLW9tYWUnLCAnPG91dGZpbGUubWFlPic=

> <r_lp_tautomer_probability>
1

> <r_epik_Ionization_Penalty>
0.000713824

> <r_epik_Ionization_Penalty_Charging>
0

> <r_epik_Ionization_Penalty_Neutral>
0.000713824

> <r_epik_State_Penalty>
0.000402132

> <r_epik_Charging_Adjusted_Penalty>
0.000402132

> <i_epik_Tot_Q>
0

> <i_epik_Tot_abs_Q>
0

> <r_epik_Metal_State_Penalty>
-0

> <b_epik_Metal_Only>
0

> <s_lp_Force_Field>
OPLS_2005

> <r_lp_Energy>
43.323

> <b_lp_Chiralities_Consistent>
1

> <s_lp_Variant>
AV-unprocessed.smi:261-6

> <Gold.Version>
5.8.1

> <Gold.Id.Protein>
6NUR|6NUR_protein|mol2

> <Gold.PLP.Fitness>
41.9378

> <Gold.PLP.PLP>
-33.8104

> <Gold.PLP.part.hbond>
-4.0000

> <Gold.PLP.part.metal>
0.0000

> <Gold.PLP.part.buried>
-3.3534

> <Gold.PLP.part.nonpolar>
-27.9695

> <Gold.PLP.part.repulsive>
1.3640

> <Gold.PLP.ligand.clash>
0.0000

> <Gold.PLP.ligand.torsion>
0.5037

> <Gold.PLP.Chemscore.Hbond>
3.0000

> <Gold.PLP.Chemscore.CHOScore>
0.0000

> <Gold.PLP.Chemscore.Metal>
0.0000

> <Gold.Chemscore.Hbonds>
donor molecule, donor type, donor heavy atom, donor atom, acceptor molecule, acceptor atom, score
      L1  H     7    36       P1  7948  0.23
      P1  H 10752 10763       L1    21  1.00

> <Gold.PLP.Chemscore.Internal.Correction>
0.1348

> <Gold.Rescore>
     Score         DG    S(hbond)    S(metal)    S(lipo)     H(rot)  DE(clash)    DE(int)     intcor
      9.90     -13.23       2.58        0.00      62.35       3.18       0.03       3.30       ----

> <Gold.Chemscore.Fitness>
9.9024

> <Gold.Chemscore.DG>
-13.2341

> <Gold.Chemscore.ZeroCoef>
-5.4800

> <Gold.Chemscore.Hbond>
2.5774

> <Gold.Chemscore.Metal>
0.0000

> <Gold.Chemscore.Lipo>
62.3455

> <Gold.Chemscore.Internal_Hbond>
0.0000

> <Gold.Chemscore.DEClash>
0.0307

> <Gold.Chemscore.DEInternal>
3.3011

> <Gold.Chemscore.Rot>
3.1831

> <Gold.Chemscore.Internal.Correction>
   9.000000E+99

> <Gold.Chemscore.Hbonds>
donor molecule, donor type, donor heavy atom, donor atom, acceptor molecule, acceptor atom, score
      L1  H     7    36       P1  7948  0.23
      P1  H  6896  6907       L1    26  0.02
      P1  H 10752 10763       L1    21  0.81

> <Gold.Chemscore.Hbond.Weighted>
-8.6084

> <Gold.Chemscore.Metal.Weighted>
-0.0000

> <Gold.Chemscore.Lipo.Weighted>
-7.2944

> <Gold.Chemscore.Internal_Hbond.Weighted>
0.0000

> <Gold.Chemscore.DEClash.Weighted>
0.0307

> <Gold.Chemscore.DEInternal.Weighted>
3.3011

> <Gold.Chemscore.Rot.Weighted>
8.1486

> <Gold.Chemscore.Internal.Correction.Weighted>
   9.000000E+99

> <Gold.Protein.RotatedTorsions>
[ 6907 6896 6895 6894 ] final   20.60 input  -60.11 | X-H torsion
[ 7974 7965 7964 7962 ] final -160.40 input  175.53 | X-H torsion
[ 8008 7997 7996 7995 ] final  -36.03 input   59.86 | X-H torsion
[ 10167 10162 10161 10158 ] final  -83.90 input  -65.29 | X-H torsion
[ 10718 10713 10712 10709 ] final   24.97 input   66.30 | X-H torsion
[ 10763 10752 10751 10750 ] final  161.69 input  -60.55 | X-H torsion
[ 11005 11000 10999 10996 ] final -104.30 input  -57.11 | X-H torsion

> <Gold.Protein.ActiveResidues>
 VAL166  LYS551  ARG553  GLY616  TRP617  ASP618  TYR619  PRO620  LYS621  CYS622 
 ASP623  PHE694  ASN695  SER759  ASP760  ASP761  ALA762  ILE779  LEU786  VAL792 
 PHE793  MET794  SER795  GLU796  ALA797  LYS798  CYS799  TRP800  GLU811  SER814 

> <Gold.Protein.RotatedAtoms>
  151.8989  135.0386  160.0504 H   0  0  0  0  0  0  0  0  0  0  0  0  # atno 6907 bound_to 6896
  152.2374  133.5103  159.5259 H   0  0  0  0  0  0  0  0  0  0  0  0  # atno 6908 bound_to 6896
  150.7043  134.1051  159.4022 H   0  0  0  0  0  0  0  0  0  0  0  0  # atno 6909 bound_to 6896
  144.7428  140.3546  143.6108 H   0  0  0  0  0  0  0  0  0  0  0  0  # atno 7974 bound_to 7965
  154.4082  140.1641  156.2308 H   0  0  0  0  0  0  0  0  0  0  0  0  # atno 8008 bound_to 7997
  155.9284  140.3416  155.6206 H   0  0  0  0  0  0  0  0  0  0  0  0  # atno 8009 bound_to 7997
  155.7136  140.0759  157.2351 H   0  0  0  0  0  0  0  0  0  0  0  0  # atno 8010 bound_to 7997
  140.4183  143.2595  151.8925 H   0  0  0  0  0  0  0  0  0  0  0  0  # atno 10167 bound_to 10162
  157.1870  130.6829  149.6135 H   0  0  0  0  0  0  0  0  0  0  0  0  # atno 10718 bound_to 10713
  154.2669  135.2767  155.2755 H   0  0  0  0  0  0  0  0  0  0  0  0  # atno 10763 bound_to 10752
  154.5336  135.5723  153.6783 H   0  0  0  0  0  0  0  0  0  0  0  0  # atno 10764 bound_to 10752
  152.9952  135.6233  154.2821 H   0  0  0  0  0  0  0  0  0  0  0  0  # atno 10765 bound_to 10752
  141.1107  133.8712  157.1594 H   0  0  0  0  0  0  0  0  0  0  0  0  # atno 11005 bound_to 11000
  145.7240  139.1717  143.2468 LP  0  0  0  0  0  0  0  0  0  0  0  0  # atno 17320 bound_to 7965
  146.1256  140.7253  142.9437 LP  0  0  0  0  0  0  0  0  0  0  0  0  # atno 17321 bound_to 7965
  139.4782  144.5464  151.8451 LP  0  0  0  0  0  0  0  0  0  0  0  0  # atno 17342 bound_to 10162
  140.4562  144.1786  150.5902 LP  0  0  0  0  0  0  0  0  0  0  0  0  # atno 17343 bound_to 10162
  155.9716  130.4627  150.6156 LP  0  0  0  0  0  0  0  0  0  0  0  0  # atno 17370 bound_to 10713
  157.3897  131.0794  151.1405 LP  0  0  0  0  0  0  0  0  0  0  0  0  # atno 17371 bound_to 10713
  139.9999  135.0032  157.0166 LP  0  0  0  0  0  0  0  0  0  0  0  0  # atno 17394 bound_to 11000
  140.4783  134.1315  155.7213 LP  0  0  0  0  0  0  0  0  0  0  0  0  # atno 17395 bound_to 11000

$$$$
