AV-unprocessed.smi:643|AV-procd|sdf|3153|dock8
  -GOLD-   22720 0 73D 1   1.00000     0.00000
 Structure written by MMmdl.
 40 41  0  0  0  0  0  0  0  0  1 V2000
  145.9810  142.0102  156.8337 C   0  0  0  0  0  0  0  0  0  0  0  0
  146.5861  141.2554  155.6296 C   0  0  0  0  0  0  0  0  0  0  0  0
  145.8862  139.8835  155.5160 C   0  0  0  0  0  0  0  0  0  0  0  0
  146.4072  142.0423  154.3215 C   0  0  0  0  0  0  0  0  0  0  0  0
  147.4653  141.4946  153.3599 C   0  0  0  0  0  0  0  0  0  0  0  0
  148.6004  140.9539  154.2398 C   0  0  0  0  0  0  0  0  0  0  0  0
  148.1231  141.0580  155.7012 C   0  0  1  0  0  0  0  0  0  0  0  0
  148.8012  142.1817  156.3526 N   0  0  0  0  0  0  0  0  0  0  0  0
  149.6120  142.1029  157.4181 C   0  0  0  0  0  0  0  0  0  0  0  0
  149.8947  141.0473  157.9843 O   0  0  0  0  0  0  0  0  0  0  0  0
  150.0574  143.3192  157.7755 N   0  0  0  0  0  0  0  0  0  0  0  0
  150.9188  143.6631  158.8496 C   0  0  0  0  0  0  0  0  0  0  0  0
  151.3476  144.9798  159.1959 C   0  0  0  0  0  0  0  0  0  0  0  0
  152.1477  144.7724  160.2831 C   0  0  0  0  0  0  0  0  0  0  0  0
  152.1631  143.4157  160.5343 N   0  0  0  0  0  0  0  0  0  0  0  0
  152.8695  142.7016  161.5801 C   0  0  0  0  0  0  0  0  0  0  0  0
  153.8327  141.6528  161.0082 C   0  0  0  0  0  0  0  0  0  0  0  0
  154.2451  140.8374  161.9780 F   0  0  0  0  0  0  0  0  0  0  0  0
  153.2347  140.9332  160.0588 F   0  0  0  0  0  0  0  0  0  0  0  0
  151.4036  142.7306  159.6521 N   0  0  0  0  0  0  0  0  0  0  0  0
  144.8971  142.0870  156.7437 H   0  0  0  0  0  0  0  0  0  0  0  0
  146.3640  143.0276  156.9201 H   0  0  0  0  0  0  0  0  0  0  0  0
  146.1980  141.4945  157.7698 H   0  0  0  0  0  0  0  0  0  0  0  0
  146.2693  139.2939  154.6829 H   0  0  0  0  0  0  0  0  0  0  0  0
  144.8120  139.9973  155.3672 H   0  0  0  0  0  0  0  0  0  0  0  0
  146.0288  139.2940  156.4224 H   0  0  0  0  0  0  0  0  0  0  0  0
  145.3980  141.9691  153.9146 H   0  0  0  0  0  0  0  0  0  0  0  0
  146.6058  143.1007  154.4965 H   0  0  0  0  0  0  0  0  0  0  0  0
  147.0439  140.6838  152.7644 H   0  0  0  0  0  0  0  0  0  0  0  0
  147.8130  142.2597  152.6654 H   0  0  0  0  0  0  0  0  0  0  0  0
  148.7988  139.9128  153.9827 H   0  0  0  0  0  0  0  0  0  0  0  0
  149.5298  141.4997  154.0696 H   0  0  0  0  0  0  0  0  0  0  0  0
  148.3560  140.1317  156.2291 H   0  0  0  0  0  0  0  0  0  0  0  0
  148.6306  143.0953  155.9589 H   0  0  0  0  0  0  0  0  0  0  0  0
  149.7273  144.0966  157.2229 H   0  0  0  0  0  0  0  0  0  0  0  0
  151.1170  145.9289  158.7361 H   0  0  0  0  0  0  0  0  0  0  0  0
  152.7004  145.4707  160.8942 H   0  0  0  0  0  0  0  0  0  0  0  0
  153.4168  143.4273  162.1835 H   0  0  0  0  0  0  0  0  0  0  0  0
  152.1398  142.2292  162.2390 H   0  0  0  0  0  0  0  0  0  0  0  0
  154.7197  142.1110  160.5699 H   0  0  0  0  0  0  0  0  0  0  0  0
  1  2  1  0  0  0  0
  1 21  1  0  0  0  0
  1 22  1  0  0  0  0
  1 23  1  0  0  0  0
  2  7  1  0  0  0  0
  2  3  1  0  0  0  0
  2  4  1  0  0  0  0
  3 24  1  0  0  0  0
  3 25  1  0  0  0  0
  3 26  1  0  0  0  0
  4  5  1  0  0  0  0
  4 27  1  0  0  0  0
  4 28  1  0  0  0  0
  5  6  1  0  0  0  0
  5 29  1  0  0  0  0
  5 30  1  0  0  0  0
  6  7  1  0  0  0  0
  6 31  1  0  0  0  0
  6 32  1  0  0  0  0
  7  8  1  0  0  0  0
  7 33  1  0  0  0  0
  8  9  1  0  0  0  0
  8 34  1  0  0  0  0
  9 10  2  0  0  0  0
  9 11  1  0  0  0  0
 11 12  1  0  0  0  0
 11 35  1  0  0  0  0
 12 20  2  0  0  0  0
 12 13  1  0  0  0  0
 13 14  2  0  0  0  0
 13 36  1  0  0  0  0
 14 15  1  0  0  0  0
 14 37  1  0  0  0  0
 15 16  1  0  0  0  0
 15 20  1  0  0  0  0
 16 17  1  0  0  0  0
 16 38  1  0  0  0  0
 16 39  1  0  0  0  0
 17 18  1  0  0  0  0
 17 19  1  0  0  0  0
 17 40  1  0  0  0  0
M  END
> <s_m_source_file>
AV-unprocessed.smi

> <i_m_source_file_index>
643

> <i_lp_mmshare_version>
43012

> <i_f3d_flags>
0

> <s_epik_input>
W0NIM11DMShbQ0gzXSlbQ0gyXVtDSDJdW0NIMl1bQ0BIXTFbTkhdQyg9TylbTkhdYzJbY0hdW2NIXW4objIpW0NIMl1bQ0hdKEYpRg==

> <s_epik_cmdline>
J2VwaWtfcHl0aG9uJywgJy1waCcsICc3LjAnLCAnLXRuJywgJzgnLCAnLW1hJywgJzIwMCcsICctbWV0YWxfYmluZGluZycsICctaW1hZScsICc8aW5maWxlLm1hZT4nLCAnLW9tYWUnLCAnPG91dGZpbGUubWFlPic=

> <r_lp_tautomer_probability>
1

> <r_epik_Ionization_Penalty>
3.99908e-05

> <r_epik_Ionization_Penalty_Charging>
0

> <r_epik_Ionization_Penalty_Neutral>
3.99908e-05

> <r_epik_State_Penalty>
-0

> <r_epik_Charging_Adjusted_Penalty>
0

> <i_epik_Tot_Q>
0

> <i_epik_Tot_abs_Q>
0

> <r_epik_Metal_State_Penalty>
-0

> <b_epik_Metal_Only>
0

> <s_lp_Force_Field>
OPLS_2005

> <r_lp_Energy>
26.1954

> <b_lp_Chiralities_Consistent>
1

> <s_lp_Variant>
AV-unprocessed.smi:643-1

> <Gold.Version>
5.8.1

> <Gold.Id.Protein>
6NUR|6NUR_protein|mol2

> <Gold.PLP.Fitness>
48.5447

> <Gold.PLP.PLP>
-42.7275

> <Gold.PLP.part.hbond>
-2.0000

> <Gold.PLP.part.metal>
0.0000

> <Gold.PLP.part.buried>
-6.5926

> <Gold.PLP.part.nonpolar>
-34.3120

> <Gold.PLP.part.repulsive>
0.0919

> <Gold.PLP.ligand.clash>
0.0000

> <Gold.PLP.ligand.torsion>
0.0982

> <Gold.PLP.Chemscore.Hbond>
2.0000

> <Gold.PLP.Chemscore.CHOScore>
0.0000

> <Gold.PLP.Chemscore.Metal>
0.0000

> <Gold.Chemscore.Hbonds>
donor molecule, donor type, donor heavy atom, donor atom, acceptor molecule, acceptor atom, score
      L1  H     8    34       P1  8028  1.00
      L1  H    11    35       P1  8028  1.00

> <Gold.PLP.Chemscore.Internal.Correction>
0.0136

> <Gold.Rescore>
     Score         DG    S(hbond)    S(metal)    S(lipo)     H(rot)  DE(clash)    DE(int)     intcor
     14.38     -17.59       1.83        0.00      79.30       1.28       0.17       3.04       ----

> <Gold.Chemscore.Fitness>
14.3822

> <Gold.Chemscore.DG>
-17.5950

> <Gold.Chemscore.ZeroCoef>
-5.4800

> <Gold.Chemscore.Hbond>
1.8284

> <Gold.Chemscore.Metal>
0.0000

> <Gold.Chemscore.Lipo>
79.2955

> <Gold.Chemscore.Internal_Hbond>
0.0000

> <Gold.Chemscore.DEClash>
0.1689

> <Gold.Chemscore.DEInternal>
3.0438

> <Gold.Chemscore.Rot>
1.2771

> <Gold.Chemscore.Internal.Correction>
   9.000000E+99

> <Gold.Chemscore.Hbonds>
donor molecule, donor type, donor heavy atom, donor atom, acceptor molecule, acceptor atom, score
      L1  H     8    34       P1  8028  0.98
      L1  H    11    35       P1  8028  0.52

> <Gold.Chemscore.Hbond.Weighted>
-6.1068

> <Gold.Chemscore.Metal.Weighted>
-0.0000

> <Gold.Chemscore.Lipo.Weighted>
-9.2776

> <Gold.Chemscore.Internal_Hbond.Weighted>
0.0000

> <Gold.Chemscore.DEClash.Weighted>
0.1689

> <Gold.Chemscore.DEInternal.Weighted>
3.0438

> <Gold.Chemscore.Rot.Weighted>
3.2694

> <Gold.Chemscore.Internal.Correction.Weighted>
   9.000000E+99

> <Gold.Protein.RotatedTorsions>
[ 6907 6896 6895 6894 ] final  -24.73 input  -60.11 | X-H torsion
[ 7974 7965 7964 7962 ] final  -20.13 input  175.53 | X-H torsion
[ 8008 7997 7996 7995 ] final  -89.54 input   59.86 | X-H torsion
[ 10167 10162 10161 10158 ] final   18.60 input  -65.29 | X-H torsion
[ 10718 10713 10712 10709 ] final  -24.16 input   66.30 | X-H torsion
[ 10763 10752 10751 10750 ] final   68.71 input  -60.55 | X-H torsion
[ 11005 11000 10999 10996 ] final  -47.99 input  -57.11 | X-H torsion

> <Gold.Protein.ActiveResidues>
 VAL166  LYS551  ARG553  GLY616  TRP617  ASP618  TYR619  PRO620  LYS621  CYS622 
 ASP623  PHE694  ASN695  SER759  ASP760  ASP761  ALA762  ILE779  LEU786  VAL792 
 PHE793  MET794  SER795  GLU796  ALA797  LYS798  CYS799  TRP800  GLU811  SER814 

> <Gold.Protein.RotatedAtoms>
  151.1854  135.0379  159.8809 H   0  0  0  0  0  0  0  0  0  0  0  0  # atno 6907 bound_to 6896
  152.5442  134.1016  159.8330 H   0  0  0  0  0  0  0  0  0  0  0  0  # atno 6908 bound_to 6896
  151.1138  133.5106  159.2637 H   0  0  0  0  0  0  0  0  0  0  0  0  # atno 6909 bound_to 6896
  146.1805  140.4159  142.8496 H   0  0  0  0  0  0  0  0  0  0  0  0  # atno 7974 bound_to 7965
  154.6878  140.0540  157.0332 H   0  0  0  0  0  0  0  0  0  0  0  0  # atno 8008 bound_to 7997
  155.0859  140.3214  155.4569 H   0  0  0  0  0  0  0  0  0  0  0  0  # atno 8009 bound_to 7997
  156.2717  140.2056  156.5987 H   0  0  0  0  0  0  0  0  0  0  0  0  # atno 8010 bound_to 7997
  140.5641  143.9282  150.6664 H   0  0  0  0  0  0  0  0  0  0  0  0  # atno 10167 bound_to 10162
  156.4814  130.4546  149.6809 H   0  0  0  0  0  0  0  0  0  0  0  0  # atno 10718 bound_to 10713
  153.0249  135.5237  154.7177 H   0  0  0  0  0  0  0  0  0  0  0  0  # atno 10763 bound_to 10752
  154.6241  135.2892  155.0294 H   0  0  0  0  0  0  0  0  0  0  0  0  # atno 10764 bound_to 10752
  154.1270  135.6599  153.4967 H   0  0  0  0  0  0  0  0  0  0  0  0  # atno 10765 bound_to 10752
  141.0674  133.6689  156.3377 H   0  0  0  0  0  0  0  0  0  0  0  0  # atno 11005 bound_to 11000
  144.8306  140.6701  143.6293 LP  0  0  0  0  0  0  0  0  0  0  0  0  # atno 17320 bound_to 7965
  145.4091  139.1583  143.4136 LP  0  0  0  0  0  0  0  0  0  0  0  0  # atno 17321 bound_to 7965
  140.2741  143.3435  152.1211 LP  0  0  0  0  0  0  0  0  0  0  0  0  # atno 17342 bound_to 10162
  139.5084  144.6850  151.5911 LP  0  0  0  0  0  0  0  0  0  0  0  0  # atno 17343 bound_to 10162
  156.3518  130.7436  151.2396 LP  0  0  0  0  0  0  0  0  0  0  0  0  # atno 17370 bound_to 10713
  157.7483  131.0375  150.4459 LP  0  0  0  0  0  0  0  0  0  0  0  0  # atno 17371 bound_to 10713
  140.5745  134.5807  157.5465 LP  0  0  0  0  0  0  0  0  0  0  0  0  # atno 17394 bound_to 11000
  139.9490  134.7651  156.0494 LP  0  0  0  0  0  0  0  0  0  0  0  0  # atno 17395 bound_to 11000

$$$$
