#       Name:                AV-unprocessed.smi:1428
#       Creating user name   scv26
#       Creation time:       Fri Mar 27 05:46:55 2020


#       File generated by GOLD software.
#

@<TRIPOS>MOLECULE
AV-unprocessed.smi:1428
    51    52     1
SMALL
NO_CHARGES


@<TRIPOS>ATOM
      1 ****        -4.3706  -4.7118   0.2259 C.3            1 S1                 0.0000
      2 ****        -3.7441  -3.4353   0.1589 O.3            1 S1                 0.0000
      3 ****        -4.5132  -2.3095   0.3848 C.ar           1 S1                 0.0000
      4 ****        -5.8346  -2.4748   0.6446 N.ar           1 S1                 0.0000
      5 ****        -6.5874  -1.3791   0.8697 C.ar           1 S1                 0.0000
      6 ****        -6.0681  -0.0723   0.8520 C.ar           1 S1                 0.0000
      7 ****        -4.6979   0.1022   0.5833 C.ar           1 S1                 0.0000
      8 ****        -3.8932  -1.0382   0.3367 C.ar           1 S1                 0.0000
      9 ****        -2.4962  -0.9954   0.0607 N.am           1 S1                 0.0000
     10 ****        -1.6967   0.0605  -0.1695 C.2            1 S1                 0.0000
     11 ****        -2.0486   1.2391  -0.1892 O.2            1 S1                 0.0000
     12 ****        -0.4332  -0.3322  -0.3864 N.am           1 S1                 0.0000
     13 ****         0.6883   0.5605  -0.6638 C.3            1 S1                 0.0000
     14 ****         1.7836  -0.1971  -1.4313 C.3            1 S1                 0.0000
     15 ****         3.0174   0.6917  -1.6618 C.3            1 S1                 0.0000
     16 ****         3.5488   1.2144  -0.3770 N.4            1 S1                 1.0000
     17 ****         4.8225   1.9592  -0.5513 C.3            1 S1                 0.0000
     18 ****         5.6820   1.9828   0.7171 C.2            1 S1                 0.0000
     19 ****         6.6390   2.9113   0.7780 N.am           1 S1                 0.0000
     20 ****         5.4989   1.1699   1.6217 O.2            1 S1                 0.0000
     21 ****         2.5173   1.9870   0.3664 C.3            1 S1                 0.0000
     22 ****         1.2728   1.1275   0.6428 C.3            1 S1                 0.0000
     23 ****        -3.6308  -5.4873   0.0281 H              1 S1                 0.0000
     24 ****        -5.1596  -4.8098  -0.5210 H              1 S1                 0.0000
     25 ****        -4.7884  -4.8992   1.2161 H              1 S1                 0.0000
     26 ****        -7.6341  -1.5494   1.0737 H              1 S1                 0.0000
     27 ****        -6.7059   0.7780   1.0430 H              1 S1                 0.0000
     28 ****        -4.3037   1.1052   0.5818 H              1 S1                 0.0000
     29 ****        -2.0510  -1.9000   0.0093 H              1 S1                 0.0000
     30 ****        -0.2330  -1.3215  -0.3553 H              1 S1                 0.0000
     31 ****         0.3433   1.3869  -1.2888 H              1 S1                 0.0000
     32 ****         2.0797  -1.0884  -0.8757 H              1 S1                 0.0000
     33 ****         1.3967  -0.5444  -2.3902 H              1 S1                 0.0000
     34 ****         3.7863   0.1080  -2.1693 H              1 S1                 0.0000
     35 ****         2.7656   1.5254  -2.3194 H              1 S1                 0.0000
     36 ****         5.4241   1.4810  -1.3253 H              1 S1                 0.0000
     37 ****         4.6188   2.9747  -0.8953 H              1 S1                 0.0000
     38 ****         7.2337   2.9773   1.5915 H              1 S1                 0.0000
     39 ****         6.7635   3.5521   0.0070 H              1 S1                 0.0000
     40 ****         2.9230   2.3420   1.3142 H              1 S1                 0.0000
     41 ****         2.2391   2.8723  -0.2076 H              1 S1                 0.0000
     42 ****         0.5240   1.7263   1.1627 H              1 S1                 0.0000
     43 ****         1.5384   0.3116   1.3169 H              1 S1                 0.0000
     44 ****         3.7749   0.4068   0.1865 H              1 S1                 0.0000
     45 ****        -3.3529  -3.3464  -0.7572 LP             1 S1                 0.0000
     46 ****        -3.0092  -3.4314   0.8370 LP             1 S1                 0.0000
     47 ****        -6.2408  -3.3882   0.6685 LP             1 S1                 0.0000
     48 ****        -3.0055   1.4781  -0.0244 LP             1 S1                 0.0000
     49 ****        -1.3777   1.9583  -0.3701 LP             1 S1                 0.0000
     50 ****         4.7802   0.4799   1.5359 LP             1 S1                 0.0000
     51 ****         6.0687   1.1990   2.4429 LP             1 S1                 0.0000
@<TRIPOS>BOND
    1    1    2 1     
    2    1   23 1     
    3    1   24 1     
    4    1   25 1     
    5    2    3 1     
    6    3    8 ar    
    7    3    4 ar    
    8    4    5 ar    
    9    5    6 ar    
   10    5   26 1     
   11    6    7 ar    
   12    6   27 1     
   13    7    8 ar    
   14    7   28 1     
   15    8    9 1     
   16    9   10 am    
   17    9   29 1     
   18   10   11 2     
   19   10   12 am    
   20   12   13 1     
   21   12   30 1     
   22   13   22 1     
   23   13   14 1     
   24   13   31 1     
   25   14   15 1     
   26   14   32 1     
   27   14   33 1     
   28   15   16 1     
   29   15   34 1     
   30   15   35 1     
   31   16   17 1     
   32   16   21 1     
   33   16   44 1     
   34   17   18 1     
   35   17   36 1     
   36   17   37 1     
   37   18   19 am    
   38   18   20 2     
   39   19   38 1     
   40   19   39 1     
   41   21   22 1     
   42   21   40 1     
   43   21   41 1     
   44   22   42 1     
   45   22   43 1     
   46    2   45 1     
   47    2   46 1     
   48    4   47 1     
   49   11   48 1     
   50   11   49 1     
   51   20   50 1     
   52   20   51 1     
@<TRIPOS>SUBSTRUCTURE
      1 S1             1
@<TRIPOS>SET
LONE_PAIRS      STATIC     ATOMS    <user>   **** ""
7 45 46 47 48 49 50 51
DONOR_HYDROGENS      STATIC     ATOMS    <user>   **** ""
5 29 30 44 38 39
ATOM$BLUE        STATIC     ATOMS    COLORGROUP SYSTEM
7 45 46 47 48 49 50 51
ATOM$RED        STATIC     ATOMS    COLORGROUP SYSTEM
5 29 30 44 38 39
