#       Name:                AV-unprocessed.smi:227
#       Creating user name   scv26
#       Creation time:       Thu Mar 26 20:24:13 2020


#       File generated by GOLD software.
#

@<TRIPOS>MOLECULE
AV-unprocessed.smi:227
    64    68     1
SMALL
NO_CHARGES


@<TRIPOS>ATOM
      1 ****        -1.1630   3.4029  -3.4436 O.3            1 S1                 0.0000
      2 ****        -1.7295   2.8152  -2.2902 C.3            1 S1                 0.0000
      3 ****        -1.0899   3.3724  -0.9926 C.3            1 S1                 0.0000
      4 ****         0.4561   3.1835  -1.0018 C.3            1 S1                 0.0000
      5 ****         0.8877   1.7932  -0.9782 N.pl3          1 S1                 0.0000
      6 ****         1.0542   0.9658  -2.0651 C.2            1 S1                 0.0000
      7 ****         1.4402  -0.2484  -1.7862 N.2            1 S1                 0.0000
      8 ****         1.5659  -0.2603  -0.4019 C.ar           1 S1                 0.0000
      9 ****         1.9336  -1.2478   0.5582 C.ar           1 S1                 0.0000
     10 ****         2.2452  -2.5329   0.2386 N.3            1 S1                 0.0000
     11 ****         2.2433  -3.5835   1.2450 C.3            1 S1                 0.0000
     12 ****         2.8665  -4.7645   0.4811 C.3            1 S1                 0.0000
     13 ****         2.3140  -4.5317  -0.9352 C.3            1 S1                 0.0000
     14 ****         1.4426  -3.2808  -0.7190 C.3            1 S1                 0.0000
     15 ****         0.1695  -3.7006   0.0590 C.3            1 S1                 0.0000
     16 ****        -0.9926  -2.6926  -0.0398 C.3            1 S1                 0.0000
     17 ****        -2.1448  -3.2159   0.5856 O.3            1 S1                 0.0000
     18 ****         0.7447  -3.8663   1.4806 C.3            1 S1                 0.0000
     19 ****         1.9815  -0.8610   1.8607 N.ar           1 S1                 0.0000
     20 ****         1.6624   0.3877   2.2097 C.ar           1 S1                 0.0000
     21 ****         1.2785   1.3978   1.4292 N.ar           1 S1                 0.0000
     22 ****         1.2440   1.0262   0.1182 C.ar           1 S1                 0.0000
     23 ****        -1.7604   2.7761   0.2858 C.3            1 S1                 0.0000
     24 ****        -1.3273   3.4494   1.5852 C.3            1 S1                 0.0000
     25 ****        -2.2649   4.6512   1.7058 C.3            1 S1                 0.0000
     26 ****        -3.3973   4.3458   0.8999 O.3            1 S1                 0.0000
     27 ****        -3.2719   3.0201   0.4072 C.3            1 S1                 0.0000
     28 ****        -1.6170   3.0716  -4.2036 H              1 S1                 0.0000
     29 ****        -2.7930   3.0372  -2.3375 H              1 S1                 0.0000
     30 ****        -1.6308   1.7313  -2.3475 H              1 S1                 0.0000
     31 ****        -1.2744   4.4476  -0.9890 H              1 S1                 0.0000
     32 ****         0.8899   3.6523  -1.8852 H              1 S1                 0.0000
     33 ****         0.9218   3.7015  -0.1652 H              1 S1                 0.0000
     34 ****         0.8696   1.2910  -3.0786 H              1 S1                 0.0000
     35 ****         2.7887  -3.3448   2.1588 H              1 S1                 0.0000
     36 ****         3.9554  -4.7008   0.4822 H              1 S1                 0.0000
     37 ****         2.5808  -5.7316   0.8962 H              1 S1                 0.0000
     38 ****         3.1268  -4.3207  -1.6314 H              1 S1                 0.0000
     39 ****         1.7536  -5.3843  -1.3204 H              1 S1                 0.0000
     40 ****         1.2281  -2.7740  -1.6583 H              1 S1                 0.0000
     41 ****        -0.1871  -4.6597  -0.3201 H              1 S1                 0.0000
     42 ****        -0.7455  -1.7389   0.4254 H              1 S1                 0.0000
     43 ****        -1.2290  -2.4893  -1.0845 H              1 S1                 0.0000
     44 ****        -2.3885  -4.0163   0.1461 H              1 S1                 0.0000
     45 ****         0.5644  -4.8587   1.8948 H              1 S1                 0.0000
     46 ****         0.3175  -3.1373   2.1706 H              1 S1                 0.0000
     47 ****         1.7192   0.6074   3.2656 H              1 S1                 0.0000
     48 ****        -1.5621   1.7044   0.3237 H              1 S1                 0.0000
     49 ****        -1.5080   2.7673   2.4175 H              1 S1                 0.0000
     50 ****        -0.2793   3.7358   1.6373 H              1 S1                 0.0000
     51 ****        -2.5555   4.8356   2.7403 H              1 S1                 0.0000
     52 ****        -1.7939   5.5552   1.3187 H              1 S1                 0.0000
     53 ****        -3.8472   2.8732  -0.5038 H              1 S1                 0.0000
     54 ****        -3.6936   2.3427   1.1517 H              1 S1                 0.0000
     55 ****        -0.1930   3.1666  -3.5007 LP             1 S1                 0.0000
     56 ****        -1.2617   4.3970  -3.3986 LP             1 S1                 0.0000
     57 ****         1.6078  -1.0004  -2.4237 LP             1 S1                 0.0000
     58 ****         3.1370  -2.2007  -0.0685 LP             1 S1                 0.0000
     59 ****        -2.8926  -2.5551   0.5216 LP             1 S1                 0.0000
     60 ****        -1.9492  -3.4057   1.5477 LP             1 S1                 0.0000
     61 ****         2.2580  -1.5170   2.5630 LP             1 S1                 0.0000
     62 ****         1.0456   2.3113   1.7628 LP             1 S1                 0.0000
     63 ****        -3.4447   4.9853   0.1326 LP             1 S1                 0.0000
     64 ****        -4.2296   4.4218   1.4490 LP             1 S1                 0.0000
@<TRIPOS>BOND
    1    1    2 1     
    2    1   28 1     
    3    2    3 1     
    4    2   29 1     
    5    2   30 1     
    6    3    4 1     
    7    3   23 1     
    8    3   31 1     
    9    4    5 1     
   10    4   32 1     
   11    4   33 1     
   12    5   22 1     
   13    5    6 1     
   14    6    7 2     
   15    6   34 1     
   16    7    8 1     
   17    8   22 ar    
   18    8    9 ar    
   19    9   10 1     
   20    9   19 ar    
   21   10   14 1     
   22   10   11 1     
   23   11   18 1     
   24   11   12 1     
   25   11   35 1     
   26   12   13 1     
   27   12   36 1     
   28   12   37 1     
   29   13   14 1     
   30   13   38 1     
   31   13   39 1     
   32   14   15 1     
   33   14   40 1     
   34   15   16 1     
   35   15   18 1     
   36   15   41 1     
   37   16   17 1     
   38   16   42 1     
   39   16   43 1     
   40   17   44 1     
   41   18   45 1     
   42   18   46 1     
   43   19   20 ar    
   44   20   21 ar    
   45   20   47 1     
   46   21   22 ar    
   47   23   27 1     
   48   23   24 1     
   49   23   48 1     
   50   24   25 1     
   51   24   49 1     
   52   24   50 1     
   53   25   26 1     
   54   25   51 1     
   55   25   52 1     
   56   26   27 1     
   57   27   53 1     
   58   27   54 1     
   59    1   55 1     
   60    1   56 1     
   61    7   57 1     
   62   10   58 1     
   63   17   59 1     
   64   17   60 1     
   65   19   61 1     
   66   21   62 1     
   67   26   63 1     
   68   26   64 1     
@<TRIPOS>SUBSTRUCTURE
      1 S1             1
@<TRIPOS>SET
LONE_PAIRS      STATIC     ATOMS    <user>   **** ""
10 55 56 57 58 59 60 61 62 63 64
DONOR_HYDROGENS      STATIC     ATOMS    <user>   **** ""
2 28 44
ATOM$BLUE        STATIC     ATOMS    COLORGROUP SYSTEM
10 55 56 57 58 59 60 61 62 63 64
ATOM$RED        STATIC     ATOMS    COLORGROUP SYSTEM
2 28 44
