AV-unprocessed.smi:1734|AV-procd|sdf|6983|dock8
  -GOLD-   22720 8193D 1   1.00000     0.00000
 Structure written by MMmdl.
 50 52  0  0  0  0  0  0  0  0  1 V2000
  146.9464  131.4702  152.9403 C   0  0  0  0  0  0  0  0  0  0  0  0
  145.9786  132.1881  152.0137 C   0  0  0  0  0  0  0  0  0  0  0  0
  145.0416  131.4337  151.2759 C   0  0  0  0  0  0  0  0  0  0  0  0
  144.1473  132.0986  150.4200 C   0  0  0  0  0  0  0  0  0  0  0  0
  144.2284  133.4991  150.3372 C   0  0  0  0  0  0  0  0  0  0  0  0
  145.1211  134.2277  151.0377 N   0  0  0  0  0  0  0  0  0  0  0  0
  145.9921  133.6016  151.8688 C   0  0  0  0  0  0  0  0  0  0  0  0
  146.9634  134.3053  152.6357 N   0  0  0  0  0  0  0  0  0  0  0  0
  147.1400  134.3020  153.9688 C   0  0  0  0  0  0  0  0  0  0  0  0
  146.4836  133.6393  154.7728 O   0  0  0  0  0  0  0  0  0  0  0  0
  148.1310  135.1322  154.3254 N   0  0  0  0  0  0  0  0  0  0  0  0
  148.5594  135.4112  155.6938 C   0  0  0  0  0  0  0  0  0  0  0  0
  148.4148  136.9157  156.0522 C   0  0  1  0  0  0  0  0  0  0  0  0
  148.4892  137.1833  157.5873 C   0  0  1  0  0  0  0  0  0  0  0  0
  147.4726  136.4852  158.4956 C   0  0  0  0  0  0  0  0  0  0  0  0
  148.3110  135.9719  159.6675 C   0  0  0  0  0  0  0  0  0  0  0  0
  149.4918  136.7581  159.6273 O   0  0  0  0  0  0  0  0  0  0  0  0
  149.8387  136.8995  158.2599 C   0  0  0  0  0  0  0  0  0  0  0  0
  149.2228  137.8323  155.2234 N   0  0  0  0  0  0  0  0  0  0  0  0
  148.8516  139.2441  155.2973 C   0  0  0  0  0  0  0  0  0  0  0  0
  149.6807  140.1027  154.3260 C   0  0  0  0  0  0  0  0  0  0  0  0
  151.0702  139.9109  154.5708 O   0  0  0  0  0  0  0  0  0  0  0  0
  151.4665  138.5496  154.4422 C   0  0  0  0  0  0  0  0  0  0  0  0
  150.6623  137.6894  155.4307 C   0  0  0  0  0  0  0  0  0  0  0  0
  146.7937  130.3908  152.9150 H   0  0  0  0  0  0  0  0  0  0  0  0
  146.8082  131.8043  153.9689 H   0  0  0  0  0  0  0  0  0  0  0  0
  147.9769  131.6698  152.6451 H   0  0  0  0  0  0  0  0  0  0  0  0
  145.0059  130.3575  151.3623 H   0  0  0  0  0  0  0  0  0  0  0  0
  143.4182  131.5498  149.8424 H   0  0  0  0  0  0  0  0  0  0  0  0
  143.5599  134.0497  149.6919 H   0  0  0  0  0  0  0  0  0  0  0  0
  147.5841  134.8978  152.1049 H   0  0  0  0  0  0  0  0  0  0  0  0
  148.6150  135.6308  153.5930 H   0  0  0  0  0  0  0  0  0  0  0  0
  148.0215  134.7904  156.4109 H   0  0  0  0  0  0  0  0  0  0  0  0
  149.6010  135.0995  155.7538 H   0  0  0  0  0  0  0  0  0  0  0  0
  147.3789  137.1590  155.8100 H   0  0  0  0  0  0  0  0  0  0  0  0
  148.3169  138.2516  157.7286 H   0  0  0  0  0  0  0  0  0  0  0  0
  146.7369  137.2081  158.8498 H   0  0  0  0  0  0  0  0  0  0  0  0
  146.9187  135.6799  158.0160 H   0  0  0  0  0  0  0  0  0  0  0  0
  147.7980  136.0676  160.6247 H   0  0  0  0  0  0  0  0  0  0  0  0
  148.5721  134.9222  159.5243 H   0  0  0  0  0  0  0  0  0  0  0  0
  150.2914  135.9675  157.9195 H   0  0  0  0  0  0  0  0  0  0  0  0
  150.5597  137.7033  158.1097 H   0  0  0  0  0  0  0  0  0  0  0  0
  147.8024  139.3750  155.0436 H   0  0  0  0  0  0  0  0  0  0  0  0
  148.9873  139.6173  156.3126 H   0  0  0  0  0  0  0  0  0  0  0  0
  149.4493  139.8429  153.2919 H   0  0  0  0  0  0  0  0  0  0  0  0
  149.4381  141.1579  154.4520 H   0  0  0  0  0  0  0  0  0  0  0  0
  151.3100  138.2105  153.4171 H   0  0  0  0  0  0  0  0  0  0  0  0
  152.5337  138.4676  154.6485 H   0  0  0  0  0  0  0  0  0  0  0  0
  150.9313  137.9873  156.4438 H   0  0  0  0  0  0  0  0  0  0  0  0
  150.9539  136.6447  155.3196 H   0  0  0  0  0  0  0  0  0  0  0  0
  1  2  1  0  0  0  0
  1 25  1  0  0  0  0
  1 26  1  0  0  0  0
  1 27  1  0  0  0  0
  2  7  1  0  0  0  0
  2  3  2  0  0  0  0
  3  4  1  0  0  0  0
  3 28  1  0  0  0  0
  4  5  2  0  0  0  0
  4 29  1  0  0  0  0
  5  6  1  0  0  0  0
  5 30  1  0  0  0  0
  6  7  2  0  0  0  0
  7  8  1  0  0  0  0
  8  9  1  0  0  0  0
  8 31  1  0  0  0  0
  9 10  2  0  0  0  0
  9 11  1  0  0  0  0
 11 12  1  0  0  0  0
 11 32  1  0  0  0  0
 12 13  1  0  0  0  0
 12 33  1  0  0  0  0
 12 34  1  0  0  0  0
 13 14  1  0  0  0  0
 13 19  1  0  0  0  0
 13 35  1  0  0  0  0
 14 18  1  0  0  0  0
 14 15  1  0  0  0  0
 14 36  1  0  0  0  0
 15 16  1  0  0  0  0
 15 37  1  0  0  0  0
 15 38  1  0  0  0  0
 16 17  1  0  0  0  0
 16 39  1  0  0  0  0
 16 40  1  0  0  0  0
 17 18  1  0  0  0  0
 18 41  1  0  0  0  0
 18 42  1  0  0  0  0
 19 24  1  0  0  0  0
 19 20  1  0  0  0  0
 20 21  1  0  0  0  0
 20 43  1  0  0  0  0
 20 44  1  0  0  0  0
 21 22  1  0  0  0  0
 21 45  1  0  0  0  0
 21 46  1  0  0  0  0
 22 23  1  0  0  0  0
 23 24  1  0  0  0  0
 23 47  1  0  0  0  0
 23 48  1  0  0  0  0
 24 49  1  0  0  0  0
 24 50  1  0  0  0  0
M  END
> <s_m_source_file>
AV-unprocessed.smi

> <i_m_source_file_index>
1734

> <i_lp_mmshare_version>
43012

> <i_f3d_flags>
0

> <s_epik_input>
W0NIM11jMVtjSF1bY0hdW2NIXW5jMVtOSF1DKD1PKVtOSF1bQ0gyXVtDQEhdKFtDQEBIXTJbQ0gyXVtDSDJdT1tDSDJdMilOM1tDSDJdW0NIMl1PW0NIMl1bQ0gyXTM=

> <s_epik_cmdline>
J2VwaWtfcHl0aG9uJywgJy1waCcsICc3LjAnLCAnLXRuJywgJzgnLCAnLW1hJywgJzIwMCcsICctbWV0YWxfYmluZGluZycsICctaW1hZScsICc8aW5maWxlLm1hZT4nLCAnLW9tYWUnLCAnPG91dGZpbGUubWFlPic=

> <r_epik_Ionization_Penalty>
0.125073

> <r_epik_Ionization_Penalty_Charging>
0

> <r_epik_Ionization_Penalty_Neutral>
0.125073

> <r_epik_State_Penalty>
0.114484

> <r_epik_Charging_Adjusted_Penalty>
0.114484

> <i_epik_Tot_Q>
0

> <i_epik_Tot_abs_Q>
0

> <r_epik_Metal_State_Penalty>
0.114483

> <b_epik_Metal_Only>
0

> <s_lp_Force_Field>
OPLS_2005

> <r_lp_Energy>
55.6911

> <b_lp_Chiralities_Consistent>
1

> <s_lp_Variant>
AV-unprocessed.smi:1734-4

> <Gold.Version>
5.8.1

> <Gold.Id.Protein>
6NUR|6NUR_protein|mol2

> <Gold.PLP.Fitness>
44.0168

> <Gold.PLP.PLP>
-31.9695

> <Gold.PLP.part.hbond>
-4.0000

> <Gold.PLP.part.metal>
0.0000

> <Gold.PLP.part.buried>
-6.2017

> <Gold.PLP.part.nonpolar>
-22.2007

> <Gold.PLP.part.repulsive>
0.3814

> <Gold.PLP.ligand.clash>
0.0000

> <Gold.PLP.ligand.torsion>
0.7376

> <Gold.PLP.Chemscore.Hbond>
3.3500

> <Gold.PLP.Chemscore.CHOScore>
1.0000

> <Gold.PLP.Chemscore.Metal>
0.0000

> <Gold.Chemscore.Hbonds>
donor molecule, donor type, donor heavy atom, donor atom, acceptor molecule, acceptor atom, score
      L1  H     8    31       P1  7948  1.00
      L1  H    11    32       P1  7948  1.00
      P1  H  6896  6907       L1    17  0.09
      P1  H  7989  7998       L1    22  0.95
      L1  C     5    30       P1 10186  0.88

> <Gold.PLP.Chemscore.Internal.Correction>
0.4724

> <Gold.Rescore>
     Score         DG    S(hbond)    S(metal)    S(lipo)     H(rot)  DE(clash)    DE(int)     intcor
     15.84     -17.65       2.22        0.00      76.68       1.65       0.09       1.72       ----

> <Gold.Chemscore.Fitness>
15.8435

> <Gold.Chemscore.DG>
-17.6514

> <Gold.Chemscore.ZeroCoef>
-5.4800

> <Gold.Chemscore.Hbond>
2.2213

> <Gold.Chemscore.Metal>
0.0000

> <Gold.Chemscore.Lipo>
76.6762

> <Gold.Chemscore.Internal_Hbond>
0.0000

> <Gold.Chemscore.DEClash>
0.0897

> <Gold.Chemscore.DEInternal>
1.7182

> <Gold.Chemscore.Rot>
1.6480

> <Gold.Chemscore.Internal.Correction>
   9.000000E+99

> <Gold.Chemscore.Hbonds>
donor molecule, donor type, donor heavy atom, donor atom, acceptor molecule, acceptor atom, score
      L1  H     8    31       P1  7948  0.84
      L1  H    11    32       P1  7948  0.98
      P1  H  7989  7998       L1    22  0.18

> <Gold.Chemscore.Hbond.Weighted>
-7.4191

> <Gold.Chemscore.Metal.Weighted>
-0.0000

> <Gold.Chemscore.Lipo.Weighted>
-8.9711

> <Gold.Chemscore.Internal_Hbond.Weighted>
0.0000

> <Gold.Chemscore.DEClash.Weighted>
0.0897

> <Gold.Chemscore.DEInternal.Weighted>
1.7182

> <Gold.Chemscore.Rot.Weighted>
4.2188

> <Gold.Chemscore.Internal.Correction.Weighted>
   9.000000E+99

> <Gold.Protein.RotatedTorsions>
[ 6907 6896 6895 6894 ] final  -45.12 input  -60.11 | X-H torsion
[ 7974 7965 7964 7962 ] final  150.92 input  175.53 | X-H torsion
[ 8008 7997 7996 7995 ] final   40.46 input   59.86 | X-H torsion
[ 10167 10162 10161 10158 ] final  -90.27 input  -65.29 | X-H torsion
[ 10718 10713 10712 10709 ] final  158.71 input   66.30 | X-H torsion
[ 10763 10752 10751 10750 ] final    7.02 input  -60.55 | X-H torsion
[ 11005 11000 10999 10996 ] final -112.27 input  -57.11 | X-H torsion

> <Gold.Protein.ActiveResidues>
 VAL166  LYS551  ARG553  GLY616  TRP617  ASP618  TYR619  PRO620  LYS621  CYS622 
 ASP623  PHE694  ASN695  SER759  ASP760  ASP761  ALA762  ILE779  LEU786  VAL792 
 PHE793  MET794  SER795  GLU796  ALA797  LYS798  CYS799  TRP800  GLU811  SER814 

> <Gold.Protein.RotatedAtoms>
  150.9254  134.8670  159.7515 H   0  0  0  0  0  0  0  0  0  0  0  0  # atno 6907 bound_to 6896
  152.5012  134.4157  159.9473 H   0  0  0  0  0  0  0  0  0  0  0  0  # atno 6908 bound_to 6896
  151.4188  133.3665  159.2788 H   0  0  0  0  0  0  0  0  0  0  0  0  # atno 6909 bound_to 6896
  144.8329  139.6471  143.6051 H   0  0  0  0  0  0  0  0  0  0  0  0  # atno 7974 bound_to 7965
  155.2536  140.3354  155.4280 H   0  0  0  0  0  0  0  0  0  0  0  0  # atno 8008 bound_to 7997
  156.2205  140.1807  156.7531 H   0  0  0  0  0  0  0  0  0  0  0  0  # atno 8009 bound_to 7997
  154.5818  140.0652  156.9100 H   0  0  0  0  0  0  0  0  0  0  0  0  # atno 8010 bound_to 7997
  140.3565  143.2864  151.9664 H   0  0  0  0  0  0  0  0  0  0  0  0  # atno 10167 bound_to 10162
  157.1742  131.0617  151.2166 H   0  0  0  0  0  0  0  0  0  0  0  0  # atno 10718 bound_to 10713
  153.2410  135.6903  153.7783 H   0  0  0  0  0  0  0  0  0  0  0  0  # atno 10763 bound_to 10752
  153.6913  135.3312  155.3203 H   0  0  0  0  0  0  0  0  0  0  0  0  # atno 10764 bound_to 10752
  154.8355  135.4546  154.1332 H   0  0  0  0  0  0  0  0  0  0  0  0  # atno 10765 bound_to 10752
  141.0685  133.9419  157.2531 H   0  0  0  0  0  0  0  0  0  0  0  0  # atno 11005 bound_to 11000
  146.2631  139.6456  142.9348 LP  0  0  0  0  0  0  0  0  0  0  0  0  # atno 17320 bound_to 7965
  145.4856  141.0438  143.2621 LP  0  0  0  0  0  0  0  0  0  0  0  0  # atno 17321 bound_to 7965
  139.4819  144.6030  151.7572 LP  0  0  0  0  0  0  0  0  0  0  0  0  # atno 17342 bound_to 10162
  140.5168  144.0940  150.6011 LP  0  0  0  0  0  0  0  0  0  0  0  0  # atno 17343 bound_to 10162
  157.4014  130.7335  149.6770 LP  0  0  0  0  0  0  0  0  0  0  0  0  # atno 17370 bound_to 10713
  155.9734  130.4119  150.4008 LP  0  0  0  0  0  0  0  0  0  0  0  0  # atno 17371 bound_to 10713
  139.9500  135.0177  156.8966 LP  0  0  0  0  0  0  0  0  0  0  0  0  # atno 17394 bound_to 11000
  140.5723  134.0432  155.7434 LP  0  0  0  0  0  0  0  0  0  0  0  0  # atno 17395 bound_to 11000

$$$$
