AV-unprocessed.smi:1396|AV-procd|sdf|5676|dock5
  -GOLD-   22720 5303D 1   1.00000     0.00000
 Structure written by MMmdl.
 47 48  0  0  0  0  0  0  0  0  2 V2000
  141.6420  138.6259  154.5532 C   0  0  0  0  0  0  0  0  0  0  0  0
  142.4423  139.8309  154.7113 N   0  0  0  0  0  0  0  0  0  0  0  0
  142.8686  140.3023  155.8913 C   0  0  0  0  0  0  0  0  0  0  0  0
  142.6315  139.7478  156.9650 O   0  0  0  0  0  0  0  0  0  0  0  0
  143.7029  141.5865  155.8484 C   0  0  0  0  0  0  0  0  0  0  0  0
  144.8292  141.5140  154.8823 N   0  3  2  0  0  0  0  0  0  0  0  0
  145.8585  140.5093  155.2614 C   0  0  0  0  0  0  0  0  0  0  0  0
  146.9260  140.3695  154.1628 C   0  0  0  0  0  0  0  0  0  0  0  0
  147.5885  141.7212  153.8279 C   0  0  2  0  0  0  0  0  0  0  0  0
  148.4470  142.1973  154.9127 N   0  0  0  0  0  0  0  0  0  0  0  0
  149.4080  141.4808  155.5136 C   0  0  0  0  0  0  0  0  0  0  0  0
  149.6722  140.3161  155.2172 O   0  0  0  0  0  0  0  0  0  0  0  0
  150.0414  142.2064  156.4507 N   0  0  0  0  0  0  0  0  0  0  0  0
  151.0777  141.7900  157.3282 C   0  0  0  0  0  0  0  0  0  0  0  0
  151.3539  142.5865  158.4576 C   0  0  0  0  0  0  0  0  0  0  0  0
  152.3617  142.1818  159.3528 C   0  0  0  0  0  0  0  0  0  0  0  0
  153.0566  140.9832  159.0960 C   0  0  0  0  0  0  0  0  0  0  0  0
  154.0429  140.5901  159.9773 O   0  0  0  0  0  0  0  0  0  0  0  0
  154.0797  141.1972  161.2642 C   0  0  0  0  0  0  0  0  0  0  0  0
  152.7879  140.2019  158.0209 N   0  0  0  0  0  0  0  0  0  0  0  0
  151.8225  140.5968  157.1642 C   0  0  0  0  0  0  0  0  0  0  0  0
  146.5013  142.7621  153.5087 C   0  0  0  0  0  0  0  0  0  0  0  0
  145.4349  142.8440  154.6172 C   0  0  0  0  0  0  0  0  0  0  0  0
  141.4058  138.4714  153.5002 H   0  0  0  0  0  0  0  0  0  0  0  0
  140.7040  138.7069  155.1038 H   0  0  0  0  0  0  0  0  0  0  0  0
  142.1828  137.7498  154.9135 H   0  0  0  0  0  0  0  0  0  0  0  0
  142.6840  140.3367  153.8711 H   0  0  0  0  0  0  0  0  0  0  0  0
  143.0226  142.3889  155.5597 H   0  0  0  0  0  0  0  0  0  0  0  0
  144.0782  141.8358  156.8425 H   0  0  0  0  0  0  0  0  0  0  0  0
  146.3230  140.7980  156.2055 H   0  0  0  0  0  0  0  0  0  0  0  0
  145.3931  139.5374  155.4275 H   0  0  0  0  0  0  0  0  0  0  0  0
  147.6739  139.6338  154.4602 H   0  0  0  0  0  0  0  0  0  0  0  0
  146.4572  139.9700  153.2625 H   0  0  0  0  0  0  0  0  0  0  0  0
  148.2121  141.5978  152.9404 H   0  0  0  0  0  0  0  0  0  0  0  0
  148.3119  143.1504  155.2162 H   0  0  0  0  0  0  0  0  0  0  0  0
  149.7874  143.1814  156.5113 H   0  0  0  0  0  0  0  0  0  0  0  0
  150.8054  143.4998  158.6362 H   0  0  0  0  0  0  0  0  0  0  0  0
  152.5967  142.7793  160.2213 H   0  0  0  0  0  0  0  0  0  0  0  0
  154.9121  140.7847  161.8336 H   0  0  0  0  0  0  0  0  0  0  0  0
  153.1651  140.9992  161.8248 H   0  0  0  0  0  0  0  0  0  0  0  0
  154.2300  142.2754  161.1931 H   0  0  0  0  0  0  0  0  0  0  0  0
  151.6386  139.9177  156.3461 H   0  0  0  0  0  0  0  0  0  0  0  0
  146.9511  143.7425  153.3468 H   0  0  0  0  0  0  0  0  0  0  0  0
  146.0159  142.4944  152.5693 H   0  0  0  0  0  0  0  0  0  0  0  0
  144.6588  143.5467  154.3113 H   0  0  0  0  0  0  0  0  0  0  0  0
  145.8701  143.2366  155.5374 H   0  0  0  0  0  0  0  0  0  0  0  0
  144.4262  141.2061  154.0082 H   0  0  0  0  0  0  0  0  0  0  0  0
  1  2  1  0  0  0  0
  1 24  1  0  0  0  0
  1 25  1  0  0  0  0
  1 26  1  0  0  0  0
  2  3  1  0  0  0  0
  2 27  1  0  0  0  0
  3  4  2  0  0  0  0
  3  5  1  0  0  0  0
  5  6  1  0  0  0  0
  5 28  1  0  0  0  0
  5 29  1  0  0  0  0
  6 23  1  0  0  0  0
  6  7  1  0  0  0  0
  6 47  1  0  0  0  0
  7  8  1  0  0  0  0
  7 30  1  0  0  0  0
  7 31  1  0  0  0  0
  8  9  1  0  0  0  0
  8 32  1  0  0  0  0
  8 33  1  0  0  0  0
  9 10  1  0  0  0  0
  9 22  1  0  0  0  0
  9 34  1  0  0  0  0
 10 11  1  0  0  0  0
 10 35  1  0  0  0  0
 11 12  2  0  0  0  0
 11 13  1  0  0  0  0
 13 14  1  0  0  0  0
 13 36  1  0  0  0  0
 14 21  1  0  0  0  0
 14 15  2  0  0  0  0
 15 16  1  0  0  0  0
 15 37  1  0  0  0  0
 16 17  2  0  0  0  0
 16 38  1  0  0  0  0
 17 18  1  0  0  0  0
 17 20  1  0  0  0  0
 18 19  1  0  0  0  0
 19 39  1  0  0  0  0
 19 40  1  0  0  0  0
 19 41  1  0  0  0  0
 20 21  2  0  0  0  0
 21 42  1  0  0  0  0
 22 23  1  0  0  0  0
 22 43  1  0  0  0  0
 22 44  1  0  0  0  0
 23 45  1  0  0  0  0
 23 46  1  0  0  0  0
M  CHG  1   6   1
M  END
> <s_m_source_file>
AV-unprocessed.smi

> <i_m_source_file_index>
1396

> <i_lp_mmshare_version>
43012

> <i_f3d_flags>
0

> <s_epik_input>
W0NIM11bTkhdQyg9TylbQ0gyXU4xW0NIMl1bQ0gyXVtDSF0oW0NIMl1bQ0gyXTEpW05IXUMoPU8pW05IXWMyW2NIXVtjSF1jKE9bQ0gzXSluW2NIXTI=

> <s_epik_cmdline>
J2VwaWtfcHl0aG9uJywgJy1waCcsICc3LjAnLCAnLXRuJywgJzgnLCAnLW1hJywgJzIwMCcsICctbWV0YWxfYmluZGluZycsICctaW1hZScsICc8aW5maWxlLm1hZT4nLCAnLW9tYWUnLCAnPG91dGZpbGUubWFlPic=

> <r_lp_tautomer_probability>
1

> <r_epik_Ionization_Penalty>
0.838943

> <r_epik_Ionization_Penalty_Charging>
0.838844

> <r_epik_Ionization_Penalty_Neutral>
9.87511e-05

> <r_epik_State_Penalty>
0.8734

> <r_epik_Charging_Adjusted_Penalty>
1.71224

> <i_epik_Tot_Q>
1

> <i_epik_Tot_abs_Q>
1

> <r_epik_Metal_State_Penalty>
0.877926

> <b_epik_Metal_Only>
0

> <s_lp_Force_Field>
OPLS_2005

> <r_lp_Energy>
16.6272

> <b_lp_Chiralities_Consistent>
1

> <s_lp_Variant>
AV-unprocessed.smi:1396-3

> <Gold.Version>
5.8.1

> <Gold.Id.Protein>
6NUR|6NUR_protein|mol2

> <Gold.PLP.Fitness>
52.1111

> <Gold.PLP.PLP>
-35.1191

> <Gold.PLP.part.hbond>
-5.0000

> <Gold.PLP.part.metal>
0.0000

> <Gold.PLP.part.buried>
-6.8559

> <Gold.PLP.part.nonpolar>
-23.3423

> <Gold.PLP.part.repulsive>
0.3458

> <Gold.PLP.ligand.clash>
0.0000

> <Gold.PLP.ligand.torsion>
0.4558

> <Gold.PLP.Chemscore.Hbond>
5.9520

> <Gold.PLP.Chemscore.CHOScore>
0.0000

> <Gold.PLP.Chemscore.Metal>
0.0000

> <Gold.Chemscore.Hbonds>
donor molecule, donor type, donor heavy atom, donor atom, acceptor molecule, acceptor atom, score
      L1  H     2    27       P1 10175  1.00
      L1  H     6    47       P1 10175  2.00
      L1  H    10    35       P1  8028  1.00
      L1  H    13    36       P1  8028  0.96
      P1  H  7997  8010       L1    20  0.95

> <Gold.PLP.Chemscore.Internal.Correction>
0.0476

> <Gold.Rescore>
     Score         DG    S(hbond)    S(metal)    S(lipo)     H(rot)  DE(clash)    DE(int)     intcor
     19.80     -23.19       4.31        0.00      72.14       2.00       0.47       2.92       ----

> <Gold.Chemscore.Fitness>
19.8004

> <Gold.Chemscore.DG>
-23.1900

> <Gold.Chemscore.ZeroCoef>
-5.4800

> <Gold.Chemscore.Hbond>
4.3054

> <Gold.Chemscore.Metal>
0.0000

> <Gold.Chemscore.Lipo>
72.1404

> <Gold.Chemscore.Internal_Hbond>
0.0000

> <Gold.Chemscore.DEClash>
0.4677

> <Gold.Chemscore.DEInternal>
2.9219

> <Gold.Chemscore.Rot>
1.9963

> <Gold.Chemscore.Internal.Correction>
   9.000000E+99

> <Gold.Chemscore.Hbonds>
donor molecule, donor type, donor heavy atom, donor atom, acceptor molecule, acceptor atom, score
      L1  H     2    27       P1 10175  0.86
      L1  H     6    47       P1 10175  0.60
      L1  H    10    35       P1  8028  0.96
      L1  H    13    36       P1  8028  0.90
      P1  H  7997  8010       L1    20  0.27

> <Gold.Chemscore.Hbond.Weighted>
-14.3801

> <Gold.Chemscore.Metal.Weighted>
-0.0000

> <Gold.Chemscore.Lipo.Weighted>
-8.4404

> <Gold.Chemscore.Internal_Hbond.Weighted>
0.0000

> <Gold.Chemscore.DEClash.Weighted>
0.4677

> <Gold.Chemscore.DEInternal.Weighted>
2.9219

> <Gold.Chemscore.Rot.Weighted>
5.1105

> <Gold.Chemscore.Internal.Correction.Weighted>
   9.000000E+99

> <Gold.Protein.RotatedTorsions>
[ 6907 6896 6895 6894 ] final  -82.66 input  -60.11 | X-H torsion
[ 7974 7965 7964 7962 ] final -149.25 input  175.53 | X-H torsion
[ 8008 7997 7996 7995 ] final   46.38 input   59.86 | X-H torsion
[ 10167 10162 10161 10158 ] final  -45.24 input  -65.29 | X-H torsion
[ 10718 10713 10712 10709 ] final  136.27 input   66.30 | X-H torsion
[ 10763 10752 10751 10750 ] final   52.12 input  -60.55 | X-H torsion
[ 11005 11000 10999 10996 ] final  136.56 input  -57.11 | X-H torsion

> <Gold.Protein.ActiveResidues>
 VAL166  LYS551  ARG553  GLY616  TRP617  ASP618  TYR619  PRO620  LYS621  CYS622 
 ASP623  PHE694  ASN695  SER759  ASP760  ASP761  ALA762  ILE779  LEU786  VAL792 
 PHE793  MET794  SER795  GLU796  ALA797  LYS798  CYS799  TRP800  GLU811  SER814 

> <Gold.Protein.RotatedAtoms>
  150.6894  134.3630  159.4958 H   0  0  0  0  0  0  0  0  0  0  0  0  # atno 6907 bound_to 6896
  152.1457  134.9025  160.0560 H   0  0  0  0  0  0  0  0  0  0  0  0  # atno 6908 bound_to 6896
  152.0142  133.3838  159.4269 H   0  0  0  0  0  0  0  0  0  0  0  0  # atno 6909 bound_to 6896
  144.7979  140.5089  143.5727 H   0  0  0  0  0  0  0  0  0  0  0  0  # atno 7974 bound_to 7965
  155.3514  140.3413  155.4239 H   0  0  0  0  0  0  0  0  0  0  0  0  # atno 8008 bound_to 7997
  156.1762  140.1648  156.8394 H   0  0  0  0  0  0  0  0  0  0  0  0  # atno 8009 bound_to 7997
  154.5284  140.0751  156.8283 H   0  0  0  0  0  0  0  0  0  0  0  0  # atno 8010 bound_to 7997
  140.6866  143.2889  151.3611 H   0  0  0  0  0  0  0  0  0  0  0  0  # atno 10167 bound_to 10162
  157.4484  131.1064  151.0062 H   0  0  0  0  0  0  0  0  0  0  0  0  # atno 10718 bound_to 10713
  152.9787  135.5823  154.4527 H   0  0  0  0  0  0  0  0  0  0  0  0  # atno 10763 bound_to 10752
  154.4113  135.2770  155.2036 H   0  0  0  0  0  0  0  0  0  0  0  0  # atno 10764 bound_to 10752
  154.3825  135.6143  153.5852 H   0  0  0  0  0  0  0  0  0  0  0  0  # atno 10765 bound_to 10752
  140.0054  134.9461  157.0163 H   0  0  0  0  0  0  0  0  0  0  0  0  # atno 11005 bound_to 11000
  145.5627  139.1480  143.3332 LP  0  0  0  0  0  0  0  0  0  0  0  0  # atno 17320 bound_to 7965
  146.2252  140.5763  142.8999 LP  0  0  0  0  0  0  0  0  0  0  0  0  # atno 17321 bound_to 7965
  139.6229  144.0871  152.2408 LP  0  0  0  0  0  0  0  0  0  0  0  0  # atno 17342 bound_to 10162
  140.0321  144.6073  150.7479 LP  0  0  0  0  0  0  0  0  0  0  0  0  # atno 17343 bound_to 10162
  157.0900  130.5938  149.5438 LP  0  0  0  0  0  0  0  0  0  0  0  0  # atno 17370 bound_to 10713
  155.9977  130.5049  150.7544 LP  0  0  0  0  0  0  0  0  0  0  0  0  # atno 17371 bound_to 10713
  140.4651  134.1444  155.7196 LP  0  0  0  0  0  0  0  0  0  0  0  0  # atno 17394 bound_to 11000
  141.1673  133.8678  157.1677 LP  0  0  0  0  0  0  0  0  0  0  0  0  # atno 17395 bound_to 11000

$$$$
