AV-unprocessed.smi:1552|AV-procd|sdf|6235|dock8
  -GOLD-   22720 6413D 1   1.00000     0.00000
 Structure written by MMmdl.
 50 51  0  0  0  0  0  0  0  0  2 V2000
  151.8845  139.1244  155.9403 C   0  0  0  0  0  0  0  0  0  0  0  0
  150.9204  140.2409  156.1048 N   0  3  0  0  0  0  0  0  0  0  0  0
  149.7577  140.0844  155.2007 C   0  0  0  0  0  0  0  0  0  0  0  0
  150.5225  140.5723  157.5100 C   0  0  1  0  0  0  0  0  0  0  0  0
  150.6305  139.3712  158.4851 C   0  0  0  0  0  0  0  0  0  0  0  0
  149.4865  138.4752  158.3622 N   0  0  0  0  0  0  0  0  0  0  0  0
  149.3967  137.1952  158.7606 C   0  0  0  0  0  0  0  0  0  0  0  0
  150.3452  136.6547  159.3253 O   0  0  0  0  0  0  0  0  0  0  0  0
  148.0955  136.3984  158.5458 C   0  0  0  0  0  0  0  0  0  0  0  0
  147.6214  135.7982  159.8000 N   0  0  0  0  0  0  0  0  0  0  0  0
  147.4252  134.4263  159.8724 C   0  0  0  0  0  0  0  0  0  0  0  0
  147.0044  133.7894  160.9906 C   0  0  0  0  0  0  0  0  0  0  0  0
  146.7302  134.5422  162.2096 C   0  0  0  0  0  0  0  0  0  0  0  0
  146.3441  134.0571  163.2707 O   0  0  0  0  0  0  0  0  0  0  0  0
  146.9422  135.9189  162.0991 N   0  0  0  0  0  0  0  0  0  0  0  0
  147.3778  136.5814  160.9502 C   0  0  0  0  0  0  0  0  0  0  0  0
  147.5373  137.8012  160.9658 O   0  0  0  0  0  0  0  0  0  0  0  0
  151.2162  141.8719  158.0145 C   0  0  0  0  0  0  0  0  0  0  0  0
  151.2596  142.9743  156.9328 C   0  0  0  0  0  0  0  0  0  0  0  0
  151.8266  144.2904  157.4912 C   0  0  0  0  0  0  0  0  0  0  0  0
  153.2143  144.0824  158.1176 C   0  0  0  0  0  0  0  0  0  0  0  0
  153.1795  142.9847  159.1920 C   0  0  0  0  0  0  0  0  0  0  0  0
  152.6218  141.6696  158.6246 C   0  0  0  0  0  0  0  0  0  0  0  0
  146.7685  136.4818  162.9190 H   0  0  0  0  0  0  0  0  0  0  0  0
  151.4188  138.1610  156.1512 H   0  0  0  0  0  0  0  0  0  0  0  0
  152.7515  139.2311  156.5896 H   0  0  0  0  0  0  0  0  0  0  0  0
  152.2513  139.0951  154.9138 H   0  0  0  0  0  0  0  0  0  0  0  0
  149.1403  139.2368  155.5008 H   0  0  0  0  0  0  0  0  0  0  0  0
  150.0854  139.9218  154.1734 H   0  0  0  0  0  0  0  0  0  0  0  0
  149.1375  140.9816  155.2062 H   0  0  0  0  0  0  0  0  0  0  0  0
  149.4607  140.8247  157.4843 H   0  0  0  0  0  0  0  0  0  0  0  0
  151.5391  138.8023  158.2832 H   0  0  0  0  0  0  0  0  0  0  0  0
  150.6896  139.7267  159.5135 H   0  0  0  0  0  0  0  0  0  0  0  0
  148.6513  138.8785  157.9622 H   0  0  0  0  0  0  0  0  0  0  0  0
  147.3517  137.0805  158.1308 H   0  0  0  0  0  0  0  0  0  0  0  0
  148.1864  135.6203  157.7895 H   0  0  0  0  0  0  0  0  0  0  0  0
  147.6201  133.8292  158.9928 H   0  0  0  0  0  0  0  0  0  0  0  0
  146.8710  132.7172  160.9836 H   0  0  0  0  0  0  0  0  0  0  0  0
  150.5896  142.2713  158.8130 H   0  0  0  0  0  0  0  0  0  0  0  0
  151.8712  142.6514  156.0895 H   0  0  0  0  0  0  0  0  0  0  0  0
  150.2590  143.1526  156.5376 H   0  0  0  0  0  0  0  0  0  0  0  0
  151.8855  145.0362  156.6981 H   0  0  0  0  0  0  0  0  0  0  0  0
  151.1446  144.6925  158.2417 H   0  0  0  0  0  0  0  0  0  0  0  0
  153.9302  143.8113  157.3406 H   0  0  0  0  0  0  0  0  0  0  0  0
  153.5699  145.0172  158.5524 H   0  0  0  0  0  0  0  0  0  0  0  0
  154.1821  142.8225  159.5891 H   0  0  0  0  0  0  0  0  0  0  0  0
  152.5647  143.3121  160.0314 H   0  0  0  0  0  0  0  0  0  0  0  0
  152.5943  140.9240  159.4189 H   0  0  0  0  0  0  0  0  0  0  0  0
  153.3118  141.3006  157.8665 H   0  0  0  0  0  0  0  0  0  0  0  0
  151.3985  141.0655  155.7700 H   0  0  0  0  0  0  0  0  0  0  0  0
  1  2  1  0  0  0  0
  1 25  1  0  0  0  0
  1 26  1  0  0  0  0
  1 27  1  0  0  0  0
  2  3  1  0  0  0  0
  2  4  1  0  0  0  0
  2 50  1  0  0  0  0
  3 28  1  0  0  0  0
  3 29  1  0  0  0  0
  3 30  1  0  0  0  0
  4  5  1  0  0  0  0
  4 18  1  0  0  0  0
  4 31  1  0  0  0  0
  5  6  1  0  0  0  0
  5 32  1  0  0  0  0
  5 33  1  0  0  0  0
  6  7  1  0  0  0  0
  6 34  1  0  0  0  0
  7  8  2  0  0  0  0
  7  9  1  0  0  0  0
  9 10  1  0  0  0  0
  9 35  1  0  0  0  0
  9 36  1  0  0  0  0
 10 16  1  0  0  0  0
 10 11  1  0  0  0  0
 11 12  2  0  0  0  0
 11 37  1  0  0  0  0
 12 13  1  0  0  0  0
 12 38  1  0  0  0  0
 13 14  2  0  0  0  0
 13 15  1  0  0  0  0
 15 24  1  0  0  0  0
 15 16  1  0  0  0  0
 16 17  2  0  0  0  0
 18 23  1  0  0  0  0
 18 19  1  0  0  0  0
 18 39  1  0  0  0  0
 19 20  1  0  0  0  0
 19 40  1  0  0  0  0
 19 41  1  0  0  0  0
 20 21  1  0  0  0  0
 20 42  1  0  0  0  0
 20 43  1  0  0  0  0
 21 22  1  0  0  0  0
 21 44  1  0  0  0  0
 21 45  1  0  0  0  0
 22 23  1  0  0  0  0
 22 46  1  0  0  0  0
 22 47  1  0  0  0  0
 23 48  1  0  0  0  0
 23 49  1  0  0  0  0
M  CHG  1   2   1
M  END
> <s_m_source_file>
AV-unprocessed.smi

> <i_m_source_file_index>
1552

> <i_lp_mmshare_version>
43012

> <i_f3d_flags>
0

> <s_epik_input>
W0NIMl0xW0NIMl1bQ0gyXVtDSDJdW0NIMl1bQ0hdMVtDQEhdKE4oW0NIM10pW0NIM10pW0NIMl1bTkhdQyg9TylbQ0gyXW4yW2NIXVtjSF1jKD1PKVtuSF1jMj1P

> <s_epik_cmdline>
J2VwaWtfcHl0aG9uJywgJy1waCcsICc3LjAnLCAnLXRuJywgJzgnLCAnLW1hJywgJzIwMCcsICctbWV0YWxfYmluZGluZycsICctaW1hZScsICc8aW5maWxlLm1hZT4nLCAnLW9tYWUnLCAnPG91dGZpbGUubWFlPic=

> <r_lp_tautomer_probability>
1

> <r_epik_Ionization_Penalty>
0.00705217

> <r_epik_Ionization_Penalty_Charging>
0.00705209

> <r_epik_Ionization_Penalty_Neutral>
7.66101e-08

> <r_epik_State_Penalty>
-0

> <r_epik_Charging_Adjusted_Penalty>
0.00705209

> <i_epik_Tot_Q>
1

> <i_epik_Tot_abs_Q>
1

> <r_epik_Metal_State_Penalty>
0.375122

> <b_epik_Metal_Only>
0

> <s_lp_Force_Field>
OPLS_2005

> <r_lp_Energy>
31.5593

> <b_lp_Chiralities_Consistent>
1

> <s_lp_Variant>
AV-unprocessed.smi:1552-2

> <Gold.Version>
5.8.1

> <Gold.Id.Protein>
6NUR|6NUR_protein|mol2

> <Gold.PLP.Fitness>
45.2191

> <Gold.PLP.PLP>
-40.8829

> <Gold.PLP.part.hbond>
-3.8193

> <Gold.PLP.part.metal>
0.0000

> <Gold.PLP.part.buried>
-3.6448

> <Gold.PLP.part.nonpolar>
-35.1859

> <Gold.PLP.part.repulsive>
0.3727

> <Gold.PLP.ligand.clash>
0.0000

> <Gold.PLP.ligand.torsion>
2.0061

> <Gold.PLP.Chemscore.Hbond>
2.6423

> <Gold.PLP.Chemscore.CHOScore>
0.0000

> <Gold.PLP.Chemscore.Metal>
0.0000

> <Gold.Chemscore.Hbonds>
donor molecule, donor type, donor heavy atom, donor atom, acceptor molecule, acceptor atom, score
      P1  H  6896  6907       L1     8  1.00
      P1  H  6931  6943       L1    17  0.54
      P1  H  6934  6947       L1    17  0.31

> <Gold.PLP.Chemscore.Internal.Correction>
0.4216

> <Gold.Rescore>
     Score         DG    S(hbond)    S(metal)    S(lipo)     H(rot)  DE(clash)    DE(int)     intcor
     16.18     -19.65       2.64        0.00     100.30       2.50       0.16       3.31       ----

> <Gold.Chemscore.Fitness>
16.1751

> <Gold.Chemscore.DG>
-19.6542

> <Gold.Chemscore.ZeroCoef>
-5.4800

> <Gold.Chemscore.Hbond>
2.6441

> <Gold.Chemscore.Metal>
0.0000

> <Gold.Chemscore.Lipo>
100.2965

> <Gold.Chemscore.Internal_Hbond>
0.0000

> <Gold.Chemscore.DEClash>
0.1648

> <Gold.Chemscore.DEInternal>
3.3143

> <Gold.Chemscore.Rot>
2.4968

> <Gold.Chemscore.Internal.Correction>
   9.000000E+99

> <Gold.Chemscore.Hbonds>
donor molecule, donor type, donor heavy atom, donor atom, acceptor molecule, acceptor atom, score
      P1  H  6896  6907       L1     8  1.00
      P1  H  6931  6943       L1    17  0.44
      P1  H  6934  6947       L1    17  0.30

> <Gold.Chemscore.Hbond.Weighted>
-8.8312

> <Gold.Chemscore.Metal.Weighted>
-0.0000

> <Gold.Chemscore.Lipo.Weighted>
-11.7347

> <Gold.Chemscore.Internal_Hbond.Weighted>
0.0000

> <Gold.Chemscore.DEClash.Weighted>
0.1648

> <Gold.Chemscore.DEInternal.Weighted>
3.3143

> <Gold.Chemscore.Rot.Weighted>
6.3917

> <Gold.Chemscore.Internal.Correction.Weighted>
   9.000000E+99

> <Gold.Protein.RotatedTorsions>
[ 6907 6896 6895 6894 ] final  -23.35 input  -60.11 | X-H torsion
[ 7974 7965 7964 7962 ] final  160.45 input  175.53 | X-H torsion
[ 8008 7997 7996 7995 ] final   -4.32 input   59.86 | X-H torsion
[ 10167 10162 10161 10158 ] final   50.44 input  -65.29 | X-H torsion
[ 10718 10713 10712 10709 ] final   -9.13 input   66.30 | X-H torsion
[ 10763 10752 10751 10750 ] final -141.53 input  -60.55 | X-H torsion
[ 11005 11000 10999 10996 ] final -121.18 input  -57.11 | X-H torsion

> <Gold.Protein.ActiveResidues>
 VAL166  LYS551  ARG553  GLY616  TRP617  ASP618  TYR619  PRO620  LYS621  CYS622 
 ASP623  PHE694  ASN695  SER759  ASP760  ASP761  ALA762  ILE779  LEU786  VAL792 
 PHE793  MET794  SER795  GLU796  ALA797  LYS798  CYS799  TRP800  GLU811  SER814 

> <Gold.Protein.RotatedAtoms>
  151.2053  135.0459  159.8888 H   0  0  0  0  0  0  0  0  0  0  0  0  # atno 6907 bound_to 6896
  152.5429  134.0805  159.8243 H   0  0  0  0  0  0  0  0  0  0  0  0  # atno 6908 bound_to 6896
  151.0951  133.5238  159.2645 H   0  0  0  0  0  0  0  0  0  0  0  0  # atno 6909 bound_to 6896
  144.7736  139.7759  143.6287 H   0  0  0  0  0  0  0  0  0  0  0  0  # atno 7974 bound_to 7965
  154.6155  140.2487  155.7614 H   0  0  0  0  0  0  0  0  0  0  0  0  # atno 8008 bound_to 7997
  156.2396  140.2937  156.0357 H   0  0  0  0  0  0  0  0  0  0  0  0  # atno 8009 bound_to 7997
  155.1981  140.0393  157.2903 H   0  0  0  0  0  0  0  0  0  0  0  0  # atno 8010 bound_to 7997
  140.2724  144.3250  150.6286 H   0  0  0  0  0  0  0  0  0  0  0  0  # atno 10167 bound_to 10162
  156.6925  130.5069  149.5939 H   0  0  0  0  0  0  0  0  0  0  0  0  # atno 10718 bound_to 10713
  154.8542  135.3522  154.5882 H   0  0  0  0  0  0  0  0  0  0  0  0  # atno 10763 bound_to 10752
  153.6492  135.6995  153.5219 H   0  0  0  0  0  0  0  0  0  0  0  0  # atno 10764 bound_to 10752
  153.2908  135.4235  155.1123 H   0  0  0  0  0  0  0  0  0  0  0  0  # atno 10765 bound_to 10752
  141.0089  134.0293  157.3440 H   0  0  0  0  0  0  0  0  0  0  0  0  # atno 11005 bound_to 11000
  146.1901  139.5136  142.9811 LP  0  0  0  0  0  0  0  0  0  0  0  0  # atno 17320 bound_to 7965
  145.6250  141.0315  143.1894 LP  0  0  0  0  0  0  0  0  0  0  0  0  # atno 17321 bound_to 7965
  140.5878  143.2169  151.7309 LP  0  0  0  0  0  0  0  0  0  0  0  0  # atno 17342 bound_to 10162
  139.4985  144.3984  152.0207 LP  0  0  0  0  0  0  0  0  0  0  0  0  # atno 17343 bound_to 10162
  156.1787  130.6484  151.0925 LP  0  0  0  0  0  0  0  0  0  0  0  0  # atno 17370 bound_to 10713
  157.7003  131.0778  150.6840 LP  0  0  0  0  0  0  0  0  0  0  0  0  # atno 17371 bound_to 10713
  139.9079  135.0184  156.7565 LP  0  0  0  0  0  0  0  0  0  0  0  0  # atno 17394 bound_to 11000
  140.6766  133.9512  155.7886 LP  0  0  0  0  0  0  0  0  0  0  0  0  # atno 17395 bound_to 11000

$$$$
