AV-unprocessed.smi:1626|AV-procd|sdf|6509|dock9
  -GOLD-   22720 7183D 1   1.00000     0.00000
 Structure written by MMmdl.
 48 50  0  0  0  0  0  0  0  0  2 V2000
  153.0578  142.6383  161.1247 C   0  0  0  0  0  0  0  0  0  0  0  0
  152.4272  142.3176  159.7811 C   0  0  0  0  0  0  0  0  0  0  0  0
  152.2183  140.9661  159.4254 C   0  0  0  0  0  0  0  0  0  0  0  0
  151.6324  140.6258  158.1867 C   0  0  0  0  0  0  0  0  0  0  0  0
  151.3376  139.3880  157.6412 N   0  0  0  0  0  0  0  0  0  0  0  0
  150.8033  139.7299  156.4726 C   0  0  0  0  0  0  0  0  0  0  0  0
  150.7245  141.0454  156.1925 N   0  0  0  0  0  0  0  0  0  0  0  0
  150.1891  141.6563  154.9890 C   0  0  0  0  0  0  0  0  0  0  0  0
  148.9729  140.8922  154.4309 C   0  0  1  0  0  0  0  0  0  0  0  0
  148.2668  141.7287  153.5341 O   0  0  0  0  0  0  0  0  0  0  0  0
  149.3992  139.6146  153.6811 C   0  0  0  0  0  0  0  0  0  0  0  0
  148.2834  138.6464  153.5220 N   0  3  2  0  0  0  0  0  0  0  0  0
  147.2591  139.0835  152.5364 C   0  0  0  0  0  0  0  0  0  0  0  0
  146.2057  137.9849  152.3015 C   0  0  0  0  0  0  0  0  0  0  0  0
  145.5515  137.5242  153.6147 C   0  0  2  0  0  0  0  0  0  0  0  0
  144.7158  138.5426  154.1274 O   0  0  0  0  0  0  0  0  0  0  0  0
  146.6283  137.1559  154.6487 C   0  0  0  0  0  0  0  0  0  0  0  0
  147.6666  138.2786  154.8223 C   0  0  0  0  0  0  0  0  0  0  0  0
  151.2603  141.6830  157.3057 C   0  0  0  0  0  0  0  0  0  0  0  0
  151.4642  143.0315  157.6472 C   0  0  0  0  0  0  0  0  0  0  0  0
  152.0496  143.3539  158.8895 C   0  0  0  0  0  0  0  0  0  0  0  0
  152.2644  144.8130  159.2513 C   0  0  0  0  0  0  0  0  0  0  0  0
  153.2751  141.7314  161.6897 H   0  0  0  0  0  0  0  0  0  0  0  0
  152.3865  143.2528  161.7252 H   0  0  0  0  0  0  0  0  0  0  0  0
  153.9942  143.1794  160.9876 H   0  0  0  0  0  0  0  0  0  0  0  0
  152.5060  140.1766  160.1042 H   0  0  0  0  0  0  0  0  0  0  0  0
  150.4535  138.9807  155.7773 H   0  0  0  0  0  0  0  0  0  0  0  0
  149.9233  142.6908  155.2119 H   0  0  0  0  0  0  0  0  0  0  0  0
  150.9854  141.6931  154.2444 H   0  0  0  0  0  0  0  0  0  0  0  0
  148.3089  140.6448  155.2587 H   0  0  0  0  0  0  0  0  0  0  0  0
  147.3435  141.6662  153.7293 H   0  0  0  0  0  0  0  0  0  0  0  0
  149.7780  139.9050  152.6996 H   0  0  0  0  0  0  0  0  0  0  0  0
  150.2300  139.1266  154.1931 H   0  0  0  0  0  0  0  0  0  0  0  0
  146.7786  139.9967  152.8909 H   0  0  0  0  0  0  0  0  0  0  0  0
  147.7279  139.3282  151.5842 H   0  0  0  0  0  0  0  0  0  0  0  0
  145.4457  138.3352  151.6018 H   0  0  0  0  0  0  0  0  0  0  0  0
  146.6865  137.1302  151.8235 H   0  0  0  0  0  0  0  0  0  0  0  0
  144.9213  136.6549  153.4231 H   0  0  0  0  0  0  0  0  0  0  0  0
  144.4870  139.1295  153.4225 H   0  0  0  0  0  0  0  0  0  0  0  0
  146.1671  136.9176  155.6080 H   0  0  0  0  0  0  0  0  0  0  0  0
  147.1390  136.2481  154.3244 H   0  0  0  0  0  0  0  0  0  0  0  0
  148.4385  137.9405  155.5148 H   0  0  0  0  0  0  0  0  0  0  0  0
  147.2043  139.1596  155.2705 H   0  0  0  0  0  0  0  0  0  0  0  0
  151.1714  143.8109  156.9596 H   0  0  0  0  0  0  0  0  0  0  0  0
  151.9266  145.4755  158.4538 H   0  0  0  0  0  0  0  0  0  0  0  0
  153.3219  145.0116  159.4257 H   0  0  0  0  0  0  0  0  0  0  0  0
  151.7100  145.0680  160.1548 H   0  0  0  0  0  0  0  0  0  0  0  0
  148.7010  137.7998  153.1619 H   0  0  0  0  0  0  0  0  0  0  0  0
  1  2  1  0  0  0  0
  1 23  1  0  0  0  0
  1 24  1  0  0  0  0
  1 25  1  0  0  0  0
  2 21  1  0  0  0  0
  2  3  2  0  0  0  0
  3  4  1  0  0  0  0
  3 26  1  0  0  0  0
  4 19  2  0  0  0  0
  4  5  1  0  0  0  0
  5  6  2  0  0  0  0
  6  7  1  0  0  0  0
  6 27  1  0  0  0  0
  7  8  1  0  0  0  0
  7 19  1  0  0  0  0
  8  9  1  0  0  0  0
  8 28  1  0  0  0  0
  8 29  1  0  0  0  0
  9 10  1  0  0  0  0
  9 11  1  0  0  0  0
  9 30  1  0  0  0  0
 10 31  1  0  0  0  0
 11 12  1  0  0  0  0
 11 32  1  0  0  0  0
 11 33  1  0  0  0  0
 12 18  1  0  0  0  0
 12 13  1  0  0  0  0
 12 48  1  0  0  0  0
 13 14  1  0  0  0  0
 13 34  1  0  0  0  0
 13 35  1  0  0  0  0
 14 15  1  0  0  0  0
 14 36  1  0  0  0  0
 14 37  1  0  0  0  0
 15 16  1  0  0  0  0
 15 17  1  0  0  0  0
 15 38  1  0  0  0  0
 16 39  1  0  0  0  0
 17 18  1  0  0  0  0
 17 40  1  0  0  0  0
 17 41  1  0  0  0  0
 18 42  1  0  0  0  0
 18 43  1  0  0  0  0
 19 20  1  0  0  0  0
 20 21  2  0  0  0  0
 20 44  1  0  0  0  0
 21 22  1  0  0  0  0
 22 45  1  0  0  0  0
 22 46  1  0  0  0  0
 22 47  1  0  0  0  0
M  CHG  1  12   1
M  END
> <s_m_source_file>
AV-unprocessed.smi

> <i_m_source_file_index>
1626

> <i_lp_mmshare_version>
43012

> <i_f3d_flags>
0

> <s_epik_input>
W0NIM11jKFtjSF0xKWMoW0NIM10pW2NIXWMoYzEyKW4oW2NIXW4yKVtDSDJdW0NASF0oW09IXSlbQ0gyXU4zW0NIMl1bQ0gyXVtDSF0oW09IXSlbQ0gyXVtDSDJdMw==

> <s_epik_cmdline>
J2VwaWtfcHl0aG9uJywgJy1waCcsICc3LjAnLCAnLXRuJywgJzgnLCAnLW1hJywgJzIwMCcsICctbWV0YWxfYmluZGluZycsICctaW1hZScsICc8aW5maWxlLm1hZT4nLCAnLW9tYWUnLCAnPG91dGZpbGUubWFlPic=

> <r_epik_Ionization_Penalty>
0.106584

> <r_epik_Ionization_Penalty_Charging>
0.0185694

> <r_epik_Ionization_Penalty_Neutral>
0.0880147

> <r_epik_State_Penalty>
0.0908428

> <r_epik_Charging_Adjusted_Penalty>
0.109412

> <i_epik_Tot_Q>
1

> <i_epik_Tot_abs_Q>
1

> <r_epik_Metal_State_Penalty>
0.0153739

> <b_epik_Metal_Only>
0

> <s_lp_Force_Field>
OPLS_2005

> <r_lp_Energy>
22.63

> <b_lp_Chiralities_Consistent>
1

> <s_lp_Variant>
AV-unprocessed.smi:1626-4

> <Gold.Version>
5.8.1

> <Gold.Id.Protein>
6NUR|6NUR_protein|mol2

> <Gold.PLP.Fitness>
48.9069

> <Gold.PLP.PLP>
-39.8645

> <Gold.PLP.part.hbond>
-4.2978

> <Gold.PLP.part.metal>
0.0000

> <Gold.PLP.part.buried>
4.6470

> <Gold.PLP.part.nonpolar>
-39.6776

> <Gold.PLP.part.repulsive>
0.0331

> <Gold.PLP.ligand.clash>
0.0000

> <Gold.PLP.ligand.torsion>
0.6792

> <Gold.PLP.Chemscore.Hbond>
3.4550

> <Gold.PLP.Chemscore.CHOScore>
0.0000

> <Gold.PLP.Chemscore.Metal>
0.0000

> <Gold.Chemscore.Hbonds>
donor molecule, donor type, donor heavy atom, donor atom, acceptor molecule, acceptor atom, score
      L1  H    12    48       P1  7948  1.98
      L1  H    16    39       P1 10175  1.00
      P1  H  8011  8017       L1    10  0.54

> <Gold.PLP.Chemscore.Internal.Correction>
0.0357

> <Gold.Rescore>
     Score         DG    S(hbond)    S(metal)    S(lipo)     H(rot)  DE(clash)    DE(int)     intcor
     14.77     -19.32       1.91        0.00     122.23       2.67       2.69       1.85       ----

> <Gold.Chemscore.Fitness>
14.7745

> <Gold.Chemscore.DG>
-19.3239

> <Gold.Chemscore.ZeroCoef>
-5.4800

> <Gold.Chemscore.Hbond>
1.9107

> <Gold.Chemscore.Metal>
0.0000

> <Gold.Chemscore.Lipo>
122.2275

> <Gold.Chemscore.Internal_Hbond>
0.0000

> <Gold.Chemscore.DEClash>
2.6947

> <Gold.Chemscore.DEInternal>
1.8547

> <Gold.Chemscore.Rot>
2.6712

> <Gold.Chemscore.Internal.Correction>
   9.000000E+99

> <Gold.Chemscore.Hbonds>
donor molecule, donor type, donor heavy atom, donor atom, acceptor molecule, acceptor atom, score
      L1  H    12    48       P1  7948  0.91
      L1  H    16    39       P1 10175  1.00
      P1  H  8011  8017       L1    10  0.17

> <Gold.Chemscore.Hbond.Weighted>
-6.3817

> <Gold.Chemscore.Metal.Weighted>
-0.0000

> <Gold.Chemscore.Lipo.Weighted>
-14.3006

> <Gold.Chemscore.Internal_Hbond.Weighted>
0.0000

> <Gold.Chemscore.DEClash.Weighted>
2.6947

> <Gold.Chemscore.DEInternal.Weighted>
1.8547

> <Gold.Chemscore.Rot.Weighted>
6.8383

> <Gold.Chemscore.Internal.Correction.Weighted>
   9.000000E+99

> <Gold.Protein.RotatedTorsions>
[ 6907 6896 6895 6894 ] final -115.32 input  -60.11 | X-H torsion
[ 7974 7965 7964 7962 ] final    5.93 input  175.53 | X-H torsion
[ 8008 7997 7996 7995 ] final  101.45 input   59.86 | X-H torsion
[ 10167 10162 10161 10158 ] final  -90.91 input  -65.29 | X-H torsion
[ 10718 10713 10712 10709 ] final  100.47 input   66.30 | X-H torsion
[ 10763 10752 10751 10750 ] final   67.67 input  -60.55 | X-H torsion
[ 11005 11000 10999 10996 ] final -110.75 input  -57.11 | X-H torsion

> <Gold.Protein.ActiveResidues>
 VAL166  LYS551  ARG553  GLY616  TRP617  ASP618  TYR619  PRO620  LYS621  CYS622 
 ASP623  PHE694  ASN695  SER759  ASP760  ASP761  ALA762  ILE779  LEU786  VAL792 
 PHE793  MET794  SER795  GLU796  ALA797  LYS798  CYS799  TRP800  GLU811  SER814 

> <Gold.Protein.RotatedAtoms>
  150.7969  133.8675  159.3248 H   0  0  0  0  0  0  0  0  0  0  0  0  # atno 6907 bound_to 6896
  151.6497  135.1001  160.0168 H   0  0  0  0  0  0  0  0  0  0  0  0  # atno 6908 bound_to 6896
  152.4052  133.6838  159.6385 H   0  0  0  0  0  0  0  0  0  0  0  0  # atno 6909 bound_to 6896
  146.2438  140.0310  142.8390 H   0  0  0  0  0  0  0  0  0  0  0  0  # atno 7974 bound_to 7965
  156.1300  140.3197  155.8335 H   0  0  0  0  0  0  0  0  0  0  0  0  # atno 8008 bound_to 7997
  155.4349  140.0521  157.3032 H   0  0  0  0  0  0  0  0  0  0  0  0  # atno 8009 bound_to 7997
  154.4892  140.2085  155.9600 H   0  0  0  0  0  0  0  0  0  0  0  0  # atno 8010 bound_to 7997
  140.3502  143.2895  151.9735 H   0  0  0  0  0  0  0  0  0  0  0  0  # atno 10167 bound_to 10162
  157.6853  131.0699  150.5105 H   0  0  0  0  0  0  0  0  0  0  0  0  # atno 10718 bound_to 10713
  153.0197  135.5275  154.7016 H   0  0  0  0  0  0  0  0  0  0  0  0  # atno 10763 bound_to 10752
  154.6123  135.2879  155.0421 H   0  0  0  0  0  0  0  0  0  0  0  0  # atno 10764 bound_to 10752
  154.1438  135.6574  153.5000 H   0  0  0  0  0  0  0  0  0  0  0  0  # atno 10765 bound_to 10752
  141.0774  133.9278  157.2361 H   0  0  0  0  0  0  0  0  0  0  0  0  # atno 11005 bound_to 11000
  145.1155  140.9431  143.4631 LP  0  0  0  0  0  0  0  0  0  0  0  0  # atno 17320 bound_to 7965
  145.0533  139.3164  143.5917 LP  0  0  0  0  0  0  0  0  0  0  0  0  # atno 17321 bound_to 7965
  139.4827  144.6082  151.7482 LP  0  0  0  0  0  0  0  0  0  0  0  0  # atno 17342 bound_to 10162
  140.5226  144.0855  150.6027 LP  0  0  0  0  0  0  0  0  0  0  0  0  # atno 17343 bound_to 10162
  156.5423  130.4211  149.6148 LP  0  0  0  0  0  0  0  0  0  0  0  0  # atno 17370 bound_to 10713
  156.2975  130.7158  151.2022 LP  0  0  0  0  0  0  0  0  0  0  0  0  # atno 17371 bound_to 10713
  139.9586  135.0159  156.9199 LP  0  0  0  0  0  0  0  0  0  0  0  0  # atno 17394 bound_to 11000
  140.5544  134.0596  155.7379 LP  0  0  0  0  0  0  0  0  0  0  0  0  # atno 17395 bound_to 11000

$$$$
