AV-unprocessed.smi:1843|AV-procd|sdf|7504|dock4
  -GOLD-   22720 9203D 1   1.00000     0.00000
 Structure written by MMmdl.
 36 38  0  0  0  0  0  0  0  0  2 V2000
  148.6039  139.3628  156.0209 O   0  0  0  0  0  0  0  0  0  0  0  0
  149.1824  139.6932  154.9831 C   0  0  0  0  0  0  0  0  0  0  0  0
  150.4015  140.2723  154.8955 N   0  5  0  0  0  0  0  0  0  0  0  0
  151.1010  140.5380  156.0111 C   0  0  0  0  0  0  0  0  0  0  0  0
  152.0415  139.7080  156.4837 N   0  0  0  0  0  0  0  0  0  0  0  0
  152.6444  140.1725  157.6434 N   0  0  0  0  0  0  0  0  0  0  0  0
  152.1554  141.3540  158.0272 C   0  0  0  0  0  0  0  0  0  0  0  0
  152.6415  142.0609  159.2482 C   0  0  0  0  0  0  0  0  0  0  0  0
  151.9330  143.2943  159.7589 C   0  0  0  0  0  0  0  0  0  0  0  0
  153.3140  143.4141  159.1668 C   0  0  0  0  0  0  0  0  0  0  0  0
  150.9040  141.9999  156.9773 S   0  0  0  0  0  0  0  0  0  0  0  0
  148.5980  139.4844  153.7947 N   0  0  0  0  0  0  0  0  0  0  0  0
  147.2806  138.8900  153.5746 C   0  0  2  0  0  0  0  0  0  0  0  0
  147.1879  137.5635  154.3618 C   0  0  0  0  0  0  0  0  0  0  0  0
  145.8914  136.7977  154.0616 C   0  0  0  0  0  0  0  0  0  0  0  0
  145.7449  136.5376  152.5567 C   0  0  0  0  0  0  0  0  0  0  0  0
  145.7829  137.8570  151.7743 C   0  0  0  0  0  0  0  0  0  0  0  0
  147.0702  138.6539  152.0603 C   0  0  1  0  0  0  0  0  0  0  0  0
  146.9546  139.8965  151.3957 O   0  0  0  0  0  0  0  0  0  0  0  0
  153.0180  141.3488  159.9798 H   0  0  0  0  0  0  0  0  0  0  0  0
  151.1011  143.6790  159.1721 H   0  0  0  0  0  0  0  0  0  0  0  0
  151.8347  143.4052  160.8368 H   0  0  0  0  0  0  0  0  0  0  0  0
  154.1384  143.6061  159.8502 H   0  0  0  0  0  0  0  0  0  0  0  0
  153.3972  143.8902  158.1919 H   0  0  0  0  0  0  0  0  0  0  0  0
  149.1069  139.7752  152.9730 H   0  0  0  0  0  0  0  0  0  0  0  0
  146.5023  139.5662  153.9343 H   0  0  0  0  0  0  0  0  0  0  0  0
  148.0399  136.9291  154.1125 H   0  0  0  0  0  0  0  0  0  0  0  0
  147.2551  137.7576  155.4330 H   0  0  0  0  0  0  0  0  0  0  0  0
  145.8838  135.8528  154.6053 H   0  0  0  0  0  0  0  0  0  0  0  0
  145.0356  137.3700  154.4217 H   0  0  0  0  0  0  0  0  0  0  0  0
  146.5469  135.8819  152.2148 H   0  0  0  0  0  0  0  0  0  0  0  0
  144.8091  136.0141  152.3585 H   0  0  0  0  0  0  0  0  0  0  0  0
  145.6992  137.6534  150.7061 H   0  0  0  0  0  0  0  0  0  0  0  0
  144.9107  138.4547  152.0435 H   0  0  0  0  0  0  0  0  0  0  0  0
  147.9235  138.1150  151.6456 H   0  0  0  0  0  0  0  0  0  0  0  0
  147.8020  140.1302  151.0491 H   0  0  0  0  0  0  0  0  0  0  0  0
  1  2  2  0  0  0  0
  2  3  1  0  0  0  0
  2 12  1  0  0  0  0
  3  4  1  0  0  0  0
  4 11  1  0  0  0  0
  4  5  2  0  0  0  0
  5  6  1  0  0  0  0
  6  7  2  0  0  0  0
  7  8  1  0  0  0  0
  7 11  1  0  0  0  0
  8 10  1  0  0  0  0
  8  9  1  0  0  0  0
  8 20  1  0  0  0  0
  9 10  1  0  0  0  0
  9 21  1  0  0  0  0
  9 22  1  0  0  0  0
 10 23  1  0  0  0  0
 10 24  1  0  0  0  0
 12 13  1  0  0  0  0
 12 25  1  0  0  0  0
 13 18  1  0  0  0  0
 13 14  1  0  0  0  0
 13 26  1  0  0  0  0
 14 15  1  0  0  0  0
 14 27  1  0  0  0  0
 14 28  1  0  0  0  0
 15 16  1  0  0  0  0
 15 29  1  0  0  0  0
 15 30  1  0  0  0  0
 16 17  1  0  0  0  0
 16 31  1  0  0  0  0
 16 32  1  0  0  0  0
 17 18  1  0  0  0  0
 17 33  1  0  0  0  0
 17 34  1  0  0  0  0
 18 19  1  0  0  0  0
 18 35  1  0  0  0  0
 19 36  1  0  0  0  0
M  CHG  1   3  -1
M  END
> <s_m_source_file>
AV-unprocessed.smi

> <i_m_source_file_index>
1843

> <i_lp_mmshare_version>
43012

> <i_f3d_flags>
0

> <s_epik_input>
W09IXVtDQEBIXTFbQ0gyXVtDSDJdW0NIMl1bQ0gyXVtDQEhdMVtOSF1DKD1PKVtOSF1jMm5uYyhzMilbQ0hdM1tDSDJdW0NIMl0z

> <s_epik_cmdline>
J2VwaWtfcHl0aG9uJywgJy1waCcsICc3LjAnLCAnLXRuJywgJzgnLCAnLW1hJywgJzIwMCcsICctbWV0YWxfYmluZGluZycsICctaW1hZScsICc8aW5maWxlLm1hZT4nLCAnLW9tYWUnLCAnPG91dGZpbGUubWFlPic=

> <r_lp_tautomer_probability>
1

> <r_epik_Ionization_Penalty>
4.7996

> <r_epik_Ionization_Penalty_Charging>
4.64516

> <r_epik_Ionization_Penalty_Neutral>
0.154442

> <r_epik_State_Penalty>
4.64493

> <r_epik_Charging_Adjusted_Penalty>
9.29009

> <i_epik_Tot_Q>
-1

> <i_epik_Tot_abs_Q>
1

> <r_epik_Metal_State_Penalty>
0.896144

> <b_epik_Metal_Only>
1

> <s_lp_Force_Field>
OPLS_2005

> <r_lp_Energy>
6.98885

> <b_lp_Chiralities_Consistent>
1

> <s_lp_Variant>
AV-unprocessed.smi:1843-5

> <Gold.Version>
5.8.1

> <Gold.Id.Protein>
6NUR|6NUR_protein|mol2

> <Gold.PLP.Fitness>
40.2653

> <Gold.PLP.PLP>
-30.2979

> <Gold.PLP.part.hbond>
-4.3379

> <Gold.PLP.part.metal>
0.0000

> <Gold.PLP.part.buried>
-0.0791

> <Gold.PLP.part.nonpolar>
-25.7743

> <Gold.PLP.part.repulsive>
0.1384

> <Gold.PLP.ligand.clash>
0.0000

> <Gold.PLP.ligand.torsion>
0.8922

> <Gold.PLP.Chemscore.Hbond>
3.8720

> <Gold.PLP.Chemscore.CHOScore>
0.0000

> <Gold.PLP.Chemscore.Metal>
0.0000

> <Gold.Chemscore.Hbonds>
donor molecule, donor type, donor heavy atom, donor atom, acceptor molecule, acceptor atom, score
      L1  H    12    25       P1  7957  1.00
      L1  H    19    36       P1  7957  1.00
      P1  H  7989  7998       L1     3  1.00
      P1  H  7997  8010       L1     6  0.76

> <Gold.PLP.Chemscore.Internal.Correction>
0.1358

> <Gold.Rescore>
     Score         DG    S(hbond)    S(metal)    S(lipo)     H(rot)  DE(clash)    DE(int)     intcor
     16.22     -19.39       2.82        0.00      75.76       1.72       1.02       2.15       ----

> <Gold.Chemscore.Fitness>
16.2222

> <Gold.Chemscore.DG>
-19.3867

> <Gold.Chemscore.ZeroCoef>
-5.4800

> <Gold.Chemscore.Hbond>
2.8250

> <Gold.Chemscore.Metal>
0.0000

> <Gold.Chemscore.Lipo>
75.7635

> <Gold.Chemscore.Internal_Hbond>
0.0000

> <Gold.Chemscore.DEClash>
1.0184

> <Gold.Chemscore.DEInternal>
2.1461

> <Gold.Chemscore.Rot>
1.7160

> <Gold.Chemscore.Internal.Correction>
   9.000000E+99

> <Gold.Chemscore.Hbonds>
donor molecule, donor type, donor heavy atom, donor atom, acceptor molecule, acceptor atom, score
      L1  H    12    25       P1  7957  1.00
      L1  H    19    36       P1  7957  0.93
      P1  H  7989  7998       L1     3  0.34
      P1  H  7997  8010       L1     6  0.12

> <Gold.Chemscore.Hbond.Weighted>
-9.4353

> <Gold.Chemscore.Metal.Weighted>
-0.0000

> <Gold.Chemscore.Lipo.Weighted>
-8.8643

> <Gold.Chemscore.Internal_Hbond.Weighted>
0.0000

> <Gold.Chemscore.DEClash.Weighted>
1.0184

> <Gold.Chemscore.DEInternal.Weighted>
2.1461

> <Gold.Chemscore.Rot.Weighted>
4.3930

> <Gold.Chemscore.Internal.Correction.Weighted>
   9.000000E+99

> <Gold.Protein.RotatedTorsions>
[ 6907 6896 6895 6894 ] final -162.57 input  -60.11 | X-H torsion
[ 7974 7965 7964 7962 ] final   32.06 input  175.53 | X-H torsion
[ 8008 7997 7996 7995 ] final   36.60 input   59.86 | X-H torsion
[ 10167 10162 10161 10158 ] final   22.58 input  -65.29 | X-H torsion
[ 10718 10713 10712 10709 ] final  166.09 input   66.30 | X-H torsion
[ 10763 10752 10751 10750 ] final  145.30 input  -60.55 | X-H torsion
[ 11005 11000 10999 10996 ] final -108.01 input  -57.11 | X-H torsion

> <Gold.Protein.ActiveResidues>
 VAL166  LYS551  ARG553  GLY616  TRP617  ASP618  TYR619  PRO620  LYS621  CYS622 
 ASP623  PHE694  ASN695  SER759  ASP760  ASP761  ALA762  ILE779  LEU786  VAL792 
 PHE793  MET794  SER795  GLU796  ALA797  LYS798  CYS799  TRP800  GLU811  SER814 

> <Gold.Protein.RotatedAtoms>
  151.3823  133.3817  159.2711 H   0  0  0  0  0  0  0  0  0  0  0  0  # atno 6907 bound_to 6896
  150.9568  134.8962  159.7716 H   0  0  0  0  0  0  0  0  0  0  0  0  # atno 6908 bound_to 6896
  152.5134  134.3781  159.9393 H   0  0  0  0  0  0  0  0  0  0  0  0  # atno 6909 bound_to 6896
  146.1510  139.6575  142.9098 H   0  0  0  0  0  0  0  0  0  0  0  0  # atno 7974 bound_to 7965
  155.1901  140.3307  155.4360 H   0  0  0  0  0  0  0  0  0  0  0  0  # atno 8008 bound_to 7997
  156.2445  140.1912  156.6944 H   0  0  0  0  0  0  0  0  0  0  0  0  # atno 8009 bound_to 7997
  154.6212  140.0595  156.9603 H   0  0  0  0  0  0  0  0  0  0  0  0  # atno 8010 bound_to 7997
  140.5337  143.9797  150.6480 H   0  0  0  0  0  0  0  0  0  0  0  0  # atno 10167 bound_to 10162
  157.0708  131.0365  151.2612 H   0  0  0  0  0  0  0  0  0  0  0  0  # atno 10718 bound_to 10713
  154.0031  135.2921  155.3400 H   0  0  0  0  0  0  0  0  0  0  0  0  # atno 10763 bound_to 10752
  154.7148  135.5134  153.8724 H   0  0  0  0  0  0  0  0  0  0  0  0  # atno 10764 bound_to 10752
  153.0757  135.6662  154.0270 H   0  0  0  0  0  0  0  0  0  0  0  0  # atno 10765 bound_to 10752
  141.0924  133.9031  157.2044 H   0  0  0  0  0  0  0  0  0  0  0  0  # atno 11005 bound_to 11000
  145.4822  141.0438  143.2639 LP  0  0  0  0  0  0  0  0  0  0  0  0  # atno 17320 bound_to 7965
  144.7904  139.6339  143.7115 LP  0  0  0  0  0  0  0  0  0  0  0  0  # atno 17321 bound_to 7965
  140.3179  143.3156  152.0814 LP  0  0  0  0  0  0  0  0  0  0  0  0  # atno 17342 bound_to 10162
  139.4963  144.6593  151.6500 LP  0  0  0  0  0  0  0  0  0  0  0  0  # atno 17343 bound_to 10162
  157.4880  130.7805  149.7479 LP  0  0  0  0  0  0  0  0  0  0  0  0  # atno 17370 bound_to 10713
  155.9951  130.3914  150.2832 LP  0  0  0  0  0  0  0  0  0  0  0  0  # atno 17371 bound_to 10713
  139.9753  135.0116  156.9614 LP  0  0  0  0  0  0  0  0  0  0  0  0  # atno 17394 bound_to 11000
  140.5221  134.0897  155.7294 LP  0  0  0  0  0  0  0  0  0  0  0  0  # atno 17395 bound_to 11000

$$$$
