AV-unprocessed.smi:405|AV-procd|sdf|2498|dock5
  -GOLD-   2262022443D 1   1.00000     0.00000
 Structure written by MMmdl.
 46 47  0  0  0  0  0  0  0  0  1 V2000
  152.6792  143.3628  160.0338 C   0  0  0  0  0  0  0  0  0  0  0  0
  151.8687  144.2982  159.1119 C   0  0  0  0  0  0  0  0  0  0  0  0
  151.4083  145.5154  159.9371 C   0  0  0  0  0  0  0  0  0  0  0  0
  152.7782  144.8021  157.9709 C   0  0  0  0  0  0  0  0  0  0  0  0
  150.6017  143.5811  158.5647 C   0  0  0  0  0  0  0  0  0  0  0  0
  150.8595  142.3926  157.6283 C   0  0  0  0  0  0  0  0  0  0  0  0
  151.5806  141.4623  157.9881 O   0  0  0  0  0  0  0  0  0  0  0  0
  150.2890  142.4550  156.4160 N   0  0  0  0  0  0  0  0  0  0  0  0
  150.4560  141.4665  155.3566 C   0  0  0  0  0  0  0  0  0  0  0  0
  149.1382  140.9269  154.8100 C   0  0  0  0  0  0  0  0  0  0  0  0
  148.1225  141.8302  154.4308 C   0  0  0  0  0  0  0  0  0  0  0  0
  146.9098  141.3281  153.9247 C   0  0  0  0  0  0  0  0  0  0  0  0
  146.7585  139.9336  153.8164 C   0  0  0  0  0  0  0  0  0  0  0  0
  147.7193  139.0563  154.1731 N   0  0  0  0  0  0  0  0  0  0  0  0
  148.8887  139.5377  154.6607 C   0  0  0  0  0  0  0  0  0  0  0  0
  149.8668  138.6000  155.0273 N   0  0  0  0  0  0  0  0  0  0  0  0
  149.3758  137.2283  155.0523 C   0  0  0  0  0  0  0  0  0  0  0  0
  150.4551  136.2993  155.6329 C   0  0  0  0  0  0  0  0  0  0  0  0
  151.6582  136.4351  154.8806 O   0  0  0  0  0  0  0  0  0  0  0  0
  152.1669  137.7663  154.9135 C   0  0  0  0  0  0  0  0  0  0  0  0
  151.1297  138.7307  154.3130 C   0  0  0  0  0  0  0  0  0  0  0  0
  153.5239  143.8861  160.4833 H   0  0  0  0  0  0  0  0  0  0  0  0
  153.0839  142.5072  159.4923 H   0  0  0  0  0  0  0  0  0  0  0  0
  152.0636  142.9767  160.8469 H   0  0  0  0  0  0  0  0  0  0  0  0
  150.7761  145.2135  160.7729 H   0  0  0  0  0  0  0  0  0  0  0  0
  150.8341  146.2142  159.3275 H   0  0  0  0  0  0  0  0  0  0  0  0
  152.2563  146.0626  160.3506 H   0  0  0  0  0  0  0  0  0  0  0  0
  153.6027  145.4017  158.3580 H   0  0  0  0  0  0  0  0  0  0  0  0
  152.2233  145.4234  157.2670 H   0  0  0  0  0  0  0  0  0  0  0  0
  153.2222  143.9804  157.4087 H   0  0  0  0  0  0  0  0  0  0  0  0
  149.9825  143.2423  159.3973 H   0  0  0  0  0  0  0  0  0  0  0  0
  149.9857  144.2971  158.0187 H   0  0  0  0  0  0  0  0  0  0  0  0
  149.7151  143.2578  156.2025 H   0  0  0  0  0  0  0  0  0  0  0  0
  151.0558  141.8924  154.5507 H   0  0  0  0  0  0  0  0  0  0  0  0
  151.0333  140.6322  155.7557 H   0  0  0  0  0  0  0  0  0  0  0  0
  148.2673  142.8962  154.5282 H   0  0  0  0  0  0  0  0  0  0  0  0
  146.1149  141.9958  153.6275 H   0  0  0  0  0  0  0  0  0  0  0  0
  145.8418  139.5109  153.4329 H   0  0  0  0  0  0  0  0  0  0  0  0
  148.4666  137.1685  155.6516 H   0  0  0  0  0  0  0  0  0  0  0  0
  149.1169  136.9116  154.0409 H   0  0  0  0  0  0  0  0  0  0  0  0
  150.6420  136.5303  156.6829 H   0  0  0  0  0  0  0  0  0  0  0  0
  150.1220  135.2624  155.5885 H   0  0  0  0  0  0  0  0  0  0  0  0
  152.4101  138.0478  155.9393 H   0  0  0  0  0  0  0  0  0  0  0  0
  153.0945  137.8082  154.3428 H   0  0  0  0  0  0  0  0  0  0  0  0
  150.9828  138.5054  153.2558 H   0  0  0  0  0  0  0  0  0  0  0  0
  151.4878  139.7587  154.3795 H   0  0  0  0  0  0  0  0  0  0  0  0
  1  2  1  0  0  0  0
  1 22  1  0  0  0  0
  1 23  1  0  0  0  0
  1 24  1  0  0  0  0
  2  3  1  0  0  0  0
  2  4  1  0  0  0  0
  2  5  1  0  0  0  0
  3 25  1  0  0  0  0
  3 26  1  0  0  0  0
  3 27  1  0  0  0  0
  4 28  1  0  0  0  0
  4 29  1  0  0  0  0
  4 30  1  0  0  0  0
  5  6  1  0  0  0  0
  5 31  1  0  0  0  0
  5 32  1  0  0  0  0
  6  7  2  0  0  0  0
  6  8  1  0  0  0  0
  8  9  1  0  0  0  0
  8 33  1  0  0  0  0
  9 10  1  0  0  0  0
  9 34  1  0  0  0  0
  9 35  1  0  0  0  0
 10 15  1  0  0  0  0
 10 11  2  0  0  0  0
 11 12  1  0  0  0  0
 11 36  1  0  0  0  0
 12 13  2  0  0  0  0
 12 37  1  0  0  0  0
 13 14  1  0  0  0  0
 13 38  1  0  0  0  0
 14 15  2  0  0  0  0
 15 16  1  0  0  0  0
 16 21  1  0  0  0  0
 16 17  1  0  0  0  0
 17 18  1  0  0  0  0
 17 39  1  0  0  0  0
 17 40  1  0  0  0  0
 18 19  1  0  0  0  0
 18 41  1  0  0  0  0
 18 42  1  0  0  0  0
 19 20  1  0  0  0  0
 20 21  1  0  0  0  0
 20 43  1  0  0  0  0
 20 44  1  0  0  0  0
 21 45  1  0  0  0  0
 21 46  1  0  0  0  0
M  END
> <s_m_source_file>
AV-unprocessed.smi

> <i_m_source_file_index>
405

> <i_lp_mmshare_version>
43012

> <i_f3d_flags>
0

> <s_epik_input>
W0NIM11DKFtDSDNdKShbQ0gzXSlbQ0gyXUMoPU8pW05IXVtDSDJdYzFbY0hdW2NIXVtjSF1uYzFOMltDSDJdW0NIMl1PW0NIMl1bQ0gyXTI=

> <s_epik_cmdline>
J2VwaWtfcHl0aG9uJywgJy1waCcsICc3LjAnLCAnLXRuJywgJzgnLCAnLW1hJywgJzIwMCcsICctbWV0YWxfYmluZGluZycsICctaW1hZScsICc8aW5maWxlLm1hZT4nLCAnLW9tYWUnLCAnPG91dGZpbGUubWFlPic=

> <r_lp_tautomer_probability>
1

> <r_epik_Ionization_Penalty>
0.00557636

> <r_epik_Ionization_Penalty_Charging>
0

> <r_epik_Ionization_Penalty_Neutral>
0.00557636

> <r_epik_State_Penalty>
0.00408419

> <r_epik_Charging_Adjusted_Penalty>
0.00408419

> <i_epik_Tot_Q>
0

> <i_epik_Tot_abs_Q>
0

> <r_epik_Metal_State_Penalty>
-0

> <b_epik_Metal_Only>
0

> <s_lp_Force_Field>
OPLS_2005

> <r_lp_Energy>
19.7271

> <b_lp_Chiralities_Consistent>
1

> <s_lp_Variant>
AV-unprocessed.smi:405-1

> <Gold.Version>
5.8.1

> <Gold.Id.Protein>
6NUR|6NUR_protein|mol2

> <Gold.PLP.Fitness>
52.1673

> <Gold.PLP.PLP>
-43.5435

> <Gold.PLP.part.hbond>
-2.0000

> <Gold.PLP.part.metal>
0.0000

> <Gold.PLP.part.buried>
-3.8399

> <Gold.PLP.part.nonpolar>
-38.0566

> <Gold.PLP.part.repulsive>
0.4847

> <Gold.PLP.ligand.clash>
0.0000

> <Gold.PLP.ligand.torsion>
0.2679

> <Gold.PLP.Chemscore.Hbond>
2.0000

> <Gold.PLP.Chemscore.CHOScore>
1.0000

> <Gold.PLP.Chemscore.Metal>
0.0000

> <Gold.Chemscore.Hbonds>
donor molecule, donor type, donor heavy atom, donor atom, acceptor molecule, acceptor atom, score
      L1  H     8    33       P1  8028  1.00
      P1  H 10752 10763       L1    19  1.00
      L1  C    13    38       P1 10175  0.94

> <Gold.PLP.Chemscore.Internal.Correction>
0.1596

> <Gold.Rescore>
     Score         DG    S(hbond)    S(metal)    S(lipo)     H(rot)  DE(clash)    DE(int)     intcor
     18.66     -21.27       1.90        0.00     115.95       1.62       0.16       2.45       ----

> <Gold.Chemscore.Fitness>
18.6627

> <Gold.Chemscore.DG>
-21.2711

> <Gold.Chemscore.ZeroCoef>
-5.4800

> <Gold.Chemscore.Hbond>
1.9049

> <Gold.Chemscore.Metal>
0.0000

> <Gold.Chemscore.Lipo>
115.9543

> <Gold.Chemscore.Internal_Hbond>
0.0000

> <Gold.Chemscore.DEClash>
0.1625

> <Gold.Chemscore.DEInternal>
2.4458

> <Gold.Chemscore.Rot>
1.6164

> <Gold.Chemscore.Internal.Correction>
   9.000000E+99

> <Gold.Chemscore.Hbonds>
donor molecule, donor type, donor heavy atom, donor atom, acceptor molecule, acceptor atom, score
      L1  H     8    33       P1  8028  1.00
      P1  H 10752 10763       L1    19  0.33

> <Gold.Chemscore.Hbond.Weighted>
-6.3625

> <Gold.Chemscore.Metal.Weighted>
-0.0000

> <Gold.Chemscore.Lipo.Weighted>
-13.5667

> <Gold.Chemscore.Internal_Hbond.Weighted>
0.0000

> <Gold.Chemscore.DEClash.Weighted>
0.1625

> <Gold.Chemscore.DEInternal.Weighted>
2.4458

> <Gold.Chemscore.Rot.Weighted>
4.1381

> <Gold.Chemscore.Internal.Correction.Weighted>
   9.000000E+99

> <Gold.Protein.RotatedTorsions>
[ 6907 6896 6895 6894 ] final   32.39 input  -60.11 | X-H torsion
[ 7974 7965 7964 7962 ] final  177.15 input  175.53 | X-H torsion
[ 8008 7997 7996 7995 ] final -172.88 input   59.86 | X-H torsion
[ 10167 10162 10161 10158 ] final  138.33 input  -65.29 | X-H torsion
[ 10718 10713 10712 10709 ] final   17.69 input   66.30 | X-H torsion
[ 10763 10752 10751 10750 ] final   55.85 input  -60.55 | X-H torsion
[ 11005 11000 10999 10996 ] final   22.66 input  -57.11 | X-H torsion

> <Gold.Protein.ActiveResidues>
 VAL166  LYS551  ARG553  GLY616  TRP617  ASP618  TYR619  PRO620  LYS621  CYS622 
 ASP623  PHE694  ASN695  SER759  ASP760  ASP761  ALA762  ILE779  LEU786  VAL792 
 PHE793  MET794  SER795  GLU796  ALA797  LYS798  CYS799  TRP800  GLU811  SER814 

> <Gold.Protein.RotatedAtoms>
  152.0738  134.9516  160.0574 H   0  0  0  0  0  0  0  0  0  0  0  0  # atno 6907 bound_to 6896
  152.0831  133.4158  159.4518 H   0  0  0  0  0  0  0  0  0  0  0  0  # atno 6908 bound_to 6896
  150.6836  134.2878  159.4697 H   0  0  0  0  0  0  0  0  0  0  0  0  # atno 6909 bound_to 6896
  144.7173  140.0203  143.6440 H   0  0  0  0  0  0  0  0  0  0  0  0  # atno 7974 bound_to 7965
  155.9502  140.1125  157.0983 H   0  0  0  0  0  0  0  0  0  0  0  0  # atno 8008 bound_to 7997
  154.4108  140.1202  156.5109 H   0  0  0  0  0  0  0  0  0  0  0  0  # atno 8009 bound_to 7997
  155.6851  140.3473  155.4873 H   0  0  0  0  0  0  0  0  0  0  0  0  # atno 8010 bound_to 7997
  139.5114  144.6360  151.5696 H   0  0  0  0  0  0  0  0  0  0  0  0  # atno 10167 bound_to 10162
  157.0857  130.6406  149.5837 H   0  0  0  0  0  0  0  0  0  0  0  0  # atno 10718 bound_to 10713
  152.9823  135.5696  154.5134 H   0  0  0  0  0  0  0  0  0  0  0  0  # atno 10763 bound_to 10752
  154.4634  135.2782  155.1698 H   0  0  0  0  0  0  0  0  0  0  0  0  # atno 10764 bound_to 10752
  154.3276  135.6256  153.5590 H   0  0  0  0  0  0  0  0  0  0  0  0  # atno 10765 bound_to 10752
  140.3782  134.1949  155.7664 H   0  0  0  0  0  0  0  0  0  0  0  0  # atno 11005 bound_to 11000
  146.0186  139.3231  143.0827 LP  0  0  0  0  0  0  0  0  0  0  0  0  # atno 17320 bound_to 7965
  145.8596  140.9483  143.0707 LP  0  0  0  0  0  0  0  0  0  0  0  0  # atno 17321 bound_to 7965
  140.6109  143.9438  150.6452 LP  0  0  0  0  0  0  0  0  0  0  0  0  # atno 17342 bound_to 10162
  140.2681  143.3476  152.1263 LP  0  0  0  0  0  0  0  0  0  0  0  0  # atno 17343 bound_to 10162
  155.9911  130.4965  150.7287 LP  0  0  0  0  0  0  0  0  0  0  0  0  # atno 17370 bound_to 10713
  157.4763  131.0898  151.0586 LP  0  0  0  0  0  0  0  0  0  0  0  0  # atno 17371 bound_to 10713
  141.1932  133.8155  157.0807 LP  0  0  0  0  0  0  0  0  0  0  0  0  # atno 17394 bound_to 11000
  140.0499  134.9811  157.1117 LP  0  0  0  0  0  0  0  0  0  0  0  0  # atno 17395 bound_to 11000

$$$$
