AV-unprocessed.smi:3289|AV-procd|sdf|12610|dock2
  -GOLD-   2272018543D 1   1.00000     0.00000
 Structure written by MMmdl.
 39 40  0  0  0  0  0  0  0  0  1 V2000
  148.1971  140.8759  156.5596 C   0  0  0  0  0  0  0  0  0  0  0  0
  149.2752  141.1784  155.5093 C   0  0  0  0  0  0  0  0  0  0  0  0
  148.6675  141.6677  154.1859 C   0  0  0  0  0  0  0  0  0  0  0  0
  150.1872  139.9994  155.3012 C   0  0  0  0  0  0  0  0  0  0  0  0
  150.4514  139.4888  154.1006 N   0  0  0  0  0  0  0  0  0  0  0  0
  151.2938  138.4108  154.3419 C   0  0  0  0  0  0  0  0  0  0  0  0
  151.5052  138.2955  155.6932 C   0  0  0  0  0  0  0  0  0  0  0  0
  150.7843  139.3155  156.3030 N   0  0  0  0  0  0  0  0  0  0  0  0
  150.7154  139.5434  157.7394 C   0  0  0  0  0  0  0  0  0  0  0  0
  152.0462  140.0680  158.2832 C   0  0  0  0  0  0  0  0  0  0  0  0
  153.0894  139.8550  157.6656 O   0  0  0  0  0  0  0  0  0  0  0  0
  151.9967  140.7452  159.4408 N   0  0  0  0  0  0  0  0  0  0  0  0
  153.1479  141.3208  160.1264 C   0  0  0  0  0  0  0  0  0  0  0  0
  153.0185  142.8469  160.2617 C   0  0  1  0  0  0  0  0  0  0  0  0
  152.7847  143.5636  158.9357 C   0  0  0  0  0  0  0  0  0  0  0  0
  152.2187  144.8908  159.3953 C   0  0  0  0  0  0  0  0  0  0  0  0
  151.4535  144.5206  160.6680 C   0  0  0  0  0  0  0  0  0  0  0  0
  151.8688  143.2030  161.0180 O   0  0  0  0  0  0  0  0  0  0  0  0
  148.6478  140.5987  157.5132 H   0  0  0  0  0  0  0  0  0  0  0  0
  147.5534  140.0544  156.2440 H   0  0  0  0  0  0  0  0  0  0  0  0
  147.5646  141.7463  156.7351 H   0  0  0  0  0  0  0  0  0  0  0  0
  149.8604  142.0101  155.8957 H   0  0  0  0  0  0  0  0  0  0  0  0
  149.4474  141.9321  153.4712 H   0  0  0  0  0  0  0  0  0  0  0  0
  148.0489  142.5520  154.3409 H   0  0  0  0  0  0  0  0  0  0  0  0
  148.0411  140.9018  153.7274 H   0  0  0  0  0  0  0  0  0  0  0  0
  151.6753  137.8051  153.5333 H   0  0  0  0  0  0  0  0  0  0  0  0
  152.0878  137.5838  156.2594 H   0  0  0  0  0  0  0  0  0  0  0  0
  149.9384  140.2814  157.9420 H   0  0  0  0  0  0  0  0  0  0  0  0
  150.4074  138.6262  158.2422 H   0  0  0  0  0  0  0  0  0  0  0  0
  151.0953  140.8746  159.8769 H   0  0  0  0  0  0  0  0  0  0  0  0
  153.1969  140.8707  161.1181 H   0  0  0  0  0  0  0  0  0  0  0  0
  154.0777  141.0534  159.6213 H   0  0  0  0  0  0  0  0  0  0  0  0
  153.9019  143.2632  160.7495 H   0  0  0  0  0  0  0  0  0  0  0  0
  153.6928  143.6700  158.3417 H   0  0  0  0  0  0  0  0  0  0  0  0
  152.0440  143.0297  158.3384 H   0  0  0  0  0  0  0  0  0  0  0  0
  153.0313  145.5774  159.6370 H   0  0  0  0  0  0  0  0  0  0  0  0
  151.5873  145.3648  158.6433 H   0  0  0  0  0  0  0  0  0  0  0  0
  151.6720  145.2177  161.4774 H   0  0  0  0  0  0  0  0  0  0  0  0
  150.3760  144.5219  160.5015 H   0  0  0  0  0  0  0  0  0  0  0  0
  1  2  1  0  0  0  0
  1 19  1  0  0  0  0
  1 20  1  0  0  0  0
  1 21  1  0  0  0  0
  2  3  1  0  0  0  0
  2  4  1  0  0  0  0
  2 22  1  0  0  0  0
  3 23  1  0  0  0  0
  3 24  1  0  0  0  0
  3 25  1  0  0  0  0
  4  8  1  0  0  0  0
  4  5  2  0  0  0  0
  5  6  1  0  0  0  0
  6  7  2  0  0  0  0
  6 26  1  0  0  0  0
  7  8  1  0  0  0  0
  7 27  1  0  0  0  0
  8  9  1  0  0  0  0
  9 10  1  0  0  0  0
  9 28  1  0  0  0  0
  9 29  1  0  0  0  0
 10 11  2  0  0  0  0
 10 12  1  0  0  0  0
 12 13  1  0  0  0  0
 12 30  1  0  0  0  0
 13 14  1  0  0  0  0
 13 31  1  0  0  0  0
 13 32  1  0  0  0  0
 14 18  1  0  0  0  0
 14 15  1  0  0  0  0
 14 33  1  0  0  0  0
 15 16  1  0  0  0  0
 15 34  1  0  0  0  0
 15 35  1  0  0  0  0
 16 17  1  0  0  0  0
 16 36  1  0  0  0  0
 16 37  1  0  0  0  0
 17 18  1  0  0  0  0
 17 38  1  0  0  0  0
 17 39  1  0  0  0  0
M  END
> <s_m_source_file>
AV-unprocessed.smi

> <i_m_source_file_index>
3289

> <i_lp_mmshare_version>
43012

> <i_f3d_flags>
0

> <s_epik_input>
W0NIM11bQ0hdKFtDSDNdKWMxbltjSF1bY0hdbjFbQ0gyXUMoPU8pW05IXVtDSDJdW0NAQEhdMltDSDJdW0NIMl1bQ0gyXU8y

> <s_epik_cmdline>
J2VwaWtfcHl0aG9uJywgJy1waCcsICc3LjAnLCAnLXRuJywgJzgnLCAnLW1hJywgJzIwMCcsICctbWV0YWxfYmluZGluZycsICctaW1hZScsICc8aW5maWxlLm1hZT4nLCAnLW9tYWUnLCAnPG91dGZpbGUubWFlPic=

> <r_lp_tautomer_probability>
1

> <r_epik_Ionization_Penalty>
0.587725

> <r_epik_Ionization_Penalty_Charging>
0.587725

> <r_epik_Ionization_Penalty_Neutral>
1.43432e-07

> <r_epik_State_Penalty>
0.601029

> <r_epik_Charging_Adjusted_Penalty>
1.18875

> <i_epik_Tot_Q>
0

> <i_epik_Tot_abs_Q>
0

> <r_epik_Metal_State_Penalty>
0.297663

> <b_epik_Metal_Only>
0

> <s_lp_Force_Field>
OPLS_2005

> <r_lp_Energy>
18.4157

> <b_lp_Chiralities_Consistent>
1

> <s_lp_Variant>
AV-unprocessed.smi:3289-4

> <Gold.Version>
5.8.1

> <Gold.Id.Protein>
6NUR|6NUR_protein|mol2

> <Gold.PLP.Fitness>
44.9166

> <Gold.PLP.PLP>
-38.8779

> <Gold.PLP.part.hbond>
-2.1816

> <Gold.PLP.part.metal>
0.0000

> <Gold.PLP.part.buried>
-3.8745

> <Gold.PLP.part.nonpolar>
-32.7264

> <Gold.PLP.part.repulsive>
0.7708

> <Gold.PLP.ligand.clash>
0.0000

> <Gold.PLP.ligand.torsion>
0.5314

> <Gold.PLP.Chemscore.Hbond>
1.9500

> <Gold.PLP.Chemscore.CHOScore>
0.3927

> <Gold.PLP.Chemscore.Metal>
0.0000

> <Gold.Chemscore.Hbonds>
donor molecule, donor type, donor heavy atom, donor atom, acceptor molecule, acceptor atom, score
      P1  H  7989  7998       L1     5  0.90
      P1  H  7997  8009       L1    11  1.00
      L1  C     6    26       P1  7949  0.38

> <Gold.PLP.Chemscore.Internal.Correction>
0.0732

> <Gold.Rescore>
     Score         DG    S(hbond)    S(metal)    S(lipo)     H(rot)  DE(clash)    DE(int)     intcor
     13.99     -15.64       1.07        0.00      94.01       1.72       0.05       1.60       ----

> <Gold.Chemscore.Fitness>
13.9882

> <Gold.Chemscore.DG>
-15.6415

> <Gold.Chemscore.ZeroCoef>
-5.4800

> <Gold.Chemscore.Hbond>
1.0655

> <Gold.Chemscore.Metal>
0.0000

> <Gold.Chemscore.Lipo>
94.0122

> <Gold.Chemscore.Internal_Hbond>
0.0000

> <Gold.Chemscore.DEClash>
0.0516

> <Gold.Chemscore.DEInternal>
1.6017

> <Gold.Chemscore.Rot>
1.7175

> <Gold.Chemscore.Internal.Correction>
   9.000000E+99

> <Gold.Chemscore.Hbonds>
donor molecule, donor type, donor heavy atom, donor atom, acceptor molecule, acceptor atom, score
      P1  H  7989  7998       L1     5  0.08
      P1  H  7997  8009       L1    11  0.96

> <Gold.Chemscore.Hbond.Weighted>
-3.5588

> <Gold.Chemscore.Metal.Weighted>
-0.0000

> <Gold.Chemscore.Lipo.Weighted>
-10.9994

> <Gold.Chemscore.Internal_Hbond.Weighted>
0.0000

> <Gold.Chemscore.DEClash.Weighted>
0.0516

> <Gold.Chemscore.DEInternal.Weighted>
1.6017

> <Gold.Chemscore.Rot.Weighted>
4.3967

> <Gold.Chemscore.Internal.Correction.Weighted>
   9.000000E+99

> <Gold.Protein.RotatedTorsions>
[ 6907 6896 6895 6894 ] final    4.88 input  -60.11 | X-H torsion
[ 7974 7965 7964 7962 ] final    5.38 input  175.53 | X-H torsion
[ 8008 7997 7996 7995 ] final  179.35 input   59.86 | X-H torsion
[ 10167 10162 10161 10158 ] final  -12.85 input  -65.29 | X-H torsion
[ 10718 10713 10712 10709 ] final   48.50 input   66.30 | X-H torsion
[ 10763 10752 10751 10750 ] final  -89.18 input  -60.55 | X-H torsion
[ 11005 11000 10999 10996 ] final  -38.39 input  -57.11 | X-H torsion

> <Gold.Protein.ActiveResidues>
 VAL166  LYS551  ARG553  GLY616  TRP617  ASP618  TYR619  PRO620  LYS621  CYS622 
 ASP623  PHE694  ASN695  SER759  ASP760  ASP761  ALA762  ILE779  LEU786  VAL792 
 PHE793  MET794  SER795  GLU796  ALA797  LYS798  CYS799  TRP800  GLU811  SER814 

> <Gold.Protein.RotatedAtoms>
  151.6485  135.1004  160.0155 H   0  0  0  0  0  0  0  0  0  0  0  0  # atno 6907 bound_to 6896
  152.4014  133.6819  159.6328 H   0  0  0  0  0  0  0  0  0  0  0  0  # atno 6908 bound_to 6896
  150.7913  133.8701  159.3297 H   0  0  0  0  0  0  0  0  0  0  0  0  # atno 6909 bound_to 6896
  146.2440  140.0392  142.8383 H   0  0  0  0  0  0  0  0  0  0  0  0  # atno 7974 bound_to 7965
  156.0444  140.1311  157.0120 H   0  0  0  0  0  0  0  0  0  0  0  0  # atno 8008 bound_to 7997
  154.4405  140.1024  156.6354 H   0  0  0  0  0  0  0  0  0  0  0  0  # atno 8009 bound_to 7997
  155.5619  140.3465  155.4495 H   0  0  0  0  0  0  0  0  0  0  0  0  # atno 8010 bound_to 7997
  140.7170  143.5488  150.9324 H   0  0  0  0  0  0  0  0  0  0  0  0  # atno 10167 bound_to 10162
  157.4693  130.8245  149.7970 H   0  0  0  0  0  0  0  0  0  0  0  0  # atno 10718 bound_to 10713
  154.6525  135.5350  153.7918 H   0  0  0  0  0  0  0  0  0  0  0  0  # atno 10763 bound_to 10752
  153.0394  135.6486  154.0996 H   0  0  0  0  0  0  0  0  0  0  0  0  # atno 10764 bound_to 10752
  154.0912  135.2940  155.3251 H   0  0  0  0  0  0  0  0  0  0  0  0  # atno 10765 bound_to 10752
  141.0024  133.6949  156.2047 H   0  0  0  0  0  0  0  0  0  0  0  0  # atno 11005 bound_to 11000
  145.1085  140.9390  143.4671 LP  0  0  0  0  0  0  0  0  0  0  0  0  # atno 17320 bound_to 7965
  145.0600  139.3113  143.5885 LP  0  0  0  0  0  0  0  0  0  0  0  0  # atno 17321 bound_to 7965
  139.9212  143.6604  152.3096 LP  0  0  0  0  0  0  0  0  0  0  0  0  # atno 17342 bound_to 10162
  139.7021  144.7633  151.1255 LP  0  0  0  0  0  0  0  0  0  0  0  0  # atno 17343 bound_to 10162
  156.0065  130.3853  150.2412 LP  0  0  0  0  0  0  0  0  0  0  0  0  # atno 17370 bound_to 10713
  157.0593  131.0085  151.3228 LP  0  0  0  0  0  0  0  0  0  0  0  0  # atno 17371 bound_to 10713
  140.6868  134.4709  157.5589 LP  0  0  0  0  0  0  0  0  0  0  0  0  # atno 17394 bound_to 11000
  139.9045  134.8479  156.1759 LP  0  0  0  0  0  0  0  0  0  0  0  0  # atno 17395 bound_to 11000

$$$$
