AV-unprocessed.smi:792|AV-procd|sdf|3751|dock5
  -GOLD-   22720 1183D 1   1.00000     0.00000
 Structure written by MMmdl.
 47 48  0  0  0  0  0  0  0  0  2 V2000
  144.0073  131.7411  150.6752 C   0  0  0  0  0  0  0  0  0  0  0  0
  144.5626  133.1422  150.8196 C   0  0  0  0  0  0  0  0  0  0  0  0
  145.8537  133.3940  151.3320 C   0  0  0  0  0  0  0  0  0  0  0  0
  146.3047  134.7262  151.4382 C   0  0  0  0  0  0  0  0  0  0  0  0
  145.4573  135.7791  151.0289 C   0  0  0  0  0  0  0  0  0  0  0  0
  145.9120  137.2219  151.1324 C   0  0  0  0  0  0  0  0  0  0  0  0
  145.9429  137.7149  152.5850 C   0  0  0  0  0  0  0  0  0  0  0  0
  147.0980  138.5720  152.8116 N   0  0  0  0  0  0  0  0  0  0  0  0
  147.4022  139.1269  153.9917 C   0  0  0  0  0  0  0  0  0  0  0  0
  146.7474  138.9568  155.0205 O   0  0  0  0  0  0  0  0  0  0  0  0
  148.5017  139.8906  153.9159 N   0  0  0  0  0  0  0  0  0  0  0  0
  149.0991  140.6166  155.0356 C   0  0  0  0  0  0  0  0  0  0  0  0
  150.3852  139.9615  155.5751 C   0  0  0  0  0  0  0  0  0  0  0  0
  151.2156  139.5267  154.7742 O   0  0  0  0  0  0  0  0  0  0  0  0
  150.5697  139.8877  156.9161 N   0  0  0  0  0  0  0  0  0  0  0  0
  149.6243  140.4670  157.8803 C   0  0  0  0  0  0  0  0  0  0  0  0
  150.2915  141.6700  158.5718 C   0  0  0  0  0  0  0  0  0  0  0  0
  151.6202  141.2592  159.2337 C   0  0  0  0  0  0  0  0  0  0  0  0
  152.5274  140.4883  158.2564 C   0  0  0  0  0  0  0  0  0  0  0  0
  151.7561  139.3366  157.5867 C   0  0  0  0  0  0  0  0  0  0  0  0
  144.1760  135.4671  150.5259 C   0  0  0  0  0  0  0  0  0  0  0  0
  143.7808  134.1780  150.4404 N   0  3  0  0  0  0  0  0  0  0  0  0
  144.7283  130.9956  151.0123 H   0  0  0  0  0  0  0  0  0  0  0  0
  143.7658  131.5336  149.6323 H   0  0  0  0  0  0  0  0  0  0  0  0
  143.0992  131.6289  151.2683 H   0  0  0  0  0  0  0  0  0  0  0  0
  146.4923  132.5793  151.6408 H   0  0  0  0  0  0  0  0  0  0  0  0
  147.2893  134.9353  151.8303 H   0  0  0  0  0  0  0  0  0  0  0  0
  146.9018  137.3167  150.6832 H   0  0  0  0  0  0  0  0  0  0  0  0
  145.2435  137.8474  150.5390 H   0  0  0  0  0  0  0  0  0  0  0  0
  145.0318  138.2715  152.8111 H   0  0  0  0  0  0  0  0  0  0  0  0
  145.9821  136.8669  153.2704 H   0  0  0  0  0  0  0  0  0  0  0  0
  147.6978  138.7600  152.0214 H   0  0  0  0  0  0  0  0  0  0  0  0
  148.9723  139.9632  153.0258 H   0  0  0  0  0  0  0  0  0  0  0  0
  149.3344  141.6236  154.6900 H   0  0  0  0  0  0  0  0  0  0  0  0
  148.3665  140.7146  155.8388 H   0  0  0  0  0  0  0  0  0  0  0  0
  148.6860  140.7806  157.4209 H   0  0  0  0  0  0  0  0  0  0  0  0
  149.3536  139.7117  158.6196 H   0  0  0  0  0  0  0  0  0  0  0  0
  150.4758  142.4548  157.8368 H   0  0  0  0  0  0  0  0  0  0  0  0
  149.6192  142.0950  159.3176 H   0  0  0  0  0  0  0  0  0  0  0  0
  152.1388  142.1378  159.6183 H   0  0  0  0  0  0  0  0  0  0  0  0
  151.4068  140.6255  160.0953 H   0  0  0  0  0  0  0  0  0  0  0  0
  152.9054  141.1677  157.4911 H   0  0  0  0  0  0  0  0  0  0  0  0
  153.3988  140.1006  158.7845 H   0  0  0  0  0  0  0  0  0  0  0  0
  151.4365  138.6168  158.3417 H   0  0  0  0  0  0  0  0  0  0  0  0
  152.4187  138.7811  156.9253 H   0  0  0  0  0  0  0  0  0  0  0  0
  143.4592  136.2035  150.1925 H   0  0  0  0  0  0  0  0  0  0  0  0
  142.8503  133.9772  150.0730 H   0  0  0  0  0  0  0  0  0  0  0  0
  1  2  1  0  0  0  0
  1 23  1  0  0  0  0
  1 24  1  0  0  0  0
  1 25  1  0  0  0  0
  2 22  1  0  0  0  0
  2  3  2  0  0  0  0
  3  4  1  0  0  0  0
  3 26  1  0  0  0  0
  4  5  2  0  0  0  0
  4 27  1  0  0  0  0
  5  6  1  0  0  0  0
  5 21  1  0  0  0  0
  6  7  1  0  0  0  0
  6 28  1  0  0  0  0
  6 29  1  0  0  0  0
  7  8  1  0  0  0  0
  7 30  1  0  0  0  0
  7 31  1  0  0  0  0
  8  9  1  0  0  0  0
  8 32  1  0  0  0  0
  9 10  2  0  0  0  0
  9 11  1  0  0  0  0
 11 12  1  0  0  0  0
 11 33  1  0  0  0  0
 12 13  1  0  0  0  0
 12 34  1  0  0  0  0
 12 35  1  0  0  0  0
 13 14  2  0  0  0  0
 13 15  1  0  0  0  0
 15 20  1  0  0  0  0
 15 16  1  0  0  0  0
 16 17  1  0  0  0  0
 16 36  1  0  0  0  0
 16 37  1  0  0  0  0
 17 18  1  0  0  0  0
 17 38  1  0  0  0  0
 17 39  1  0  0  0  0
 18 19  1  0  0  0  0
 18 40  1  0  0  0  0
 18 41  1  0  0  0  0
 19 20  1  0  0  0  0
 19 42  1  0  0  0  0
 19 43  1  0  0  0  0
 20 44  1  0  0  0  0
 20 45  1  0  0  0  0
 21 22  2  0  0  0  0
 21 46  1  0  0  0  0
 22 47  1  0  0  0  0
M  CHG  1  22   1
M  END
> <s_m_source_file>
AV-unprocessed.smi

> <i_m_source_file_index>
792

> <i_lp_mmshare_version>
43012

> <i_f3d_flags>
0

> <s_epik_input>
W0NIM11jMVtjSF1bY0hdYyhbY0hdbjEpW0NIMl1bQ0gyXVtOSF1DKD1PKVtOSF1bQ0gyXUMoPU8pTjJbQ0gyXVtDSDJdW0NIMl1bQ0gyXVtDSDJdMg==

> <s_epik_cmdline>
J2VwaWtfcHl0aG9uJywgJy1waCcsICc3LjAnLCAnLXRuJywgJzgnLCAnLW1hJywgJzIwMCcsICctbWV0YWxfYmluZGluZycsICctaW1hZScsICc8aW5maWxlLm1hZT4nLCAnLW9tYWUnLCAnPG91dGZpbGUubWFlPic=

> <r_epik_Ionization_Penalty>
1.3596

> <r_epik_Ionization_Penalty_Charging>
1.35956

> <r_epik_Ionization_Penalty_Neutral>
4.39183e-05

> <r_epik_State_Penalty>
1.43833

> <r_epik_Charging_Adjusted_Penalty>
2.79788

> <i_epik_Tot_Q>
1

> <i_epik_Tot_abs_Q>
1

> <r_epik_Metal_State_Penalty>
1.49594

> <b_epik_Metal_Only>
0

> <s_lp_Force_Field>
OPLS_2005

> <r_lp_Energy>
23.5444

> <b_lp_Chiralities_Consistent>
1

> <s_lp_Variant>
AV-unprocessed.smi:792-2

> <Gold.Version>
5.8.1

> <Gold.Id.Protein>
6NUR|6NUR_protein|mol2

> <Gold.PLP.Fitness>
52.2919

> <Gold.PLP.PLP>
-40.1972

> <Gold.PLP.part.hbond>
-4.9830

> <Gold.PLP.part.metal>
0.0000

> <Gold.PLP.part.buried>
-0.6883

> <Gold.PLP.part.nonpolar>
-35.0419

> <Gold.PLP.part.repulsive>
0.3948

> <Gold.PLP.ligand.clash>
0.0000

> <Gold.PLP.ligand.torsion>
0.7484

> <Gold.PLP.Chemscore.Hbond>
4.5010

> <Gold.PLP.Chemscore.CHOScore>
0.0000

> <Gold.PLP.Chemscore.Metal>
0.0000

> <Gold.Chemscore.Hbonds>
donor molecule, donor type, donor heavy atom, donor atom, acceptor molecule, acceptor atom, score
      L1  H     8    32       P1  7957  0.02
      L1  H    11    33       P1  7957  1.00
      L1  H    22    47       P1 10186  2.00
      P1  H  7989  7998       L1    14  1.00

> <Gold.PLP.Chemscore.Internal.Correction>
0.0885

> <Gold.Rescore>
     Score         DG    S(hbond)    S(metal)    S(lipo)     H(rot)  DE(clash)    DE(int)     intcor
     20.67     -23.49       3.47        0.00      95.74       1.86       2.03       0.78       ----

> <Gold.Chemscore.Fitness>
20.6748

> <Gold.Chemscore.DG>
-23.4855

> <Gold.Chemscore.ZeroCoef>
-5.4800

> <Gold.Chemscore.Hbond>
3.4658

> <Gold.Chemscore.Metal>
0.0000

> <Gold.Chemscore.Lipo>
95.7364

> <Gold.Chemscore.Internal_Hbond>
0.0000

> <Gold.Chemscore.DEClash>
2.0258

> <Gold.Chemscore.DEInternal>
0.7849

> <Gold.Chemscore.Rot>
1.8639

> <Gold.Chemscore.Internal.Correction>
   9.000000E+99

> <Gold.Chemscore.Hbonds>
donor molecule, donor type, donor heavy atom, donor atom, acceptor molecule, acceptor atom, score
      L1  H     8    32       P1  7957  0.07
      L1  H    11    33       P1  7957  0.98
      L1  H    22    47       P1 10186  0.96
      P1  H  7989  7998       L1    14  0.74

> <Gold.Chemscore.Hbond.Weighted>
-11.5758

> <Gold.Chemscore.Metal.Weighted>
-0.0000

> <Gold.Chemscore.Lipo.Weighted>
-11.2012

> <Gold.Chemscore.Internal_Hbond.Weighted>
0.0000

> <Gold.Chemscore.DEClash.Weighted>
2.0258

> <Gold.Chemscore.DEInternal.Weighted>
0.7849

> <Gold.Chemscore.Rot.Weighted>
4.7715

> <Gold.Chemscore.Internal.Correction.Weighted>
   9.000000E+99

> <Gold.Protein.RotatedTorsions>
[ 6907 6896 6895 6894 ] final  -92.97 input  -60.11 | X-H torsion
[ 7974 7965 7964 7962 ] final  162.29 input  175.53 | X-H torsion
[ 8008 7997 7996 7995 ] final  -59.88 input   59.86 | X-H torsion
[ 10167 10162 10161 10158 ] final  115.37 input  -65.29 | X-H torsion
[ 10718 10713 10712 10709 ] final  -23.52 input   66.30 | X-H torsion
[ 10763 10752 10751 10750 ] final   96.00 input  -60.55 | X-H torsion
[ 11005 11000 10999 10996 ] final   56.26 input  -57.11 | X-H torsion

> <Gold.Protein.ActiveResidues>
 VAL166  LYS551  ARG553  GLY616  TRP617  ASP618  TYR619  PRO620  LYS621  CYS622 
 ASP623  PHE694  ASN695  SER759  ASP760  ASP761  ALA762  ILE779  LEU786  VAL792 
 PHE793  MET794  SER795  GLU796  ALA797  LYS798  CYS799  TRP800  GLU811  SER814 

> <Gold.Protein.RotatedAtoms>
  150.6914  134.2040  159.4332 H   0  0  0  0  0  0  0  0  0  0  0  0  # atno 6907 bound_to 6896
  152.0005  134.9928  160.0574 H   0  0  0  0  0  0  0  0  0  0  0  0  # atno 6908 bound_to 6896
  152.1583  133.4531  159.4885 H   0  0  0  0  0  0  0  0  0  0  0  0  # atno 6909 bound_to 6896
  144.7643  139.8019  143.6321 H   0  0  0  0  0  0  0  0  0  0  0  0  # atno 7974 bound_to 7965
  154.4372  140.1052  156.6185 H   0  0  0  0  0  0  0  0  0  0  0  0  # atno 8008 bound_to 7997
  155.5733  140.3489  155.4502 H   0  0  0  0  0  0  0  0  0  0  0  0  # atno 8009 bound_to 7997
  156.0374  140.1274  157.0183 H   0  0  0  0  0  0  0  0  0  0  0  0  # atno 8010 bound_to 7997
  139.6322  144.7116  151.2409 H   0  0  0  0  0  0  0  0  0  0  0  0  # atno 10167 bound_to 10162
  156.4899  130.4564  149.6761 H   0  0  0  0  0  0  0  0  0  0  0  0  # atno 10718 bound_to 10713
  153.2597  135.4234  155.0882 H   0  0  0  0  0  0  0  0  0  0  0  0  # atno 10763 bound_to 10752
  154.8415  135.3446  154.6395 H   0  0  0  0  0  0  0  0  0  0  0  0  # atno 10764 bound_to 10752
  153.6815  135.7038  153.5173 H   0  0  0  0  0  0  0  0  0  0  0  0  # atno 10765 bound_to 10752
  140.0543  134.5693  155.9226 H   0  0  0  0  0  0  0  0  0  0  0  0  # atno 11005 bound_to 11000
  146.1737  139.4898  142.9911 LP  0  0  0  0  0  0  0  0  0  0  0  0  # atno 17320 bound_to 7965
  145.6518  141.0261  143.1756 LP  0  0  0  0  0  0  0  0  0  0  0  0  # atno 17321 bound_to 7965
  140.7445  143.6460  150.8291 LP  0  0  0  0  0  0  0  0  0  0  0  0  # atno 17342 bound_to 10162
  140.0086  143.5666  152.2848 LP  0  0  0  0  0  0  0  0  0  0  0  0  # atno 17343 bound_to 10162
  156.3436  130.7395  151.2344 LP  0  0  0  0  0  0  0  0  0  0  0  0  # atno 17370 bound_to 10713
  157.7475  131.0396  150.4561 LP  0  0  0  0  0  0  0  0  0  0  0  0  # atno 17371 bound_to 10713
  141.1945  133.6583  156.5596 LP  0  0  0  0  0  0  0  0  0  0  0  0  # atno 17394 bound_to 11000
  140.3869  134.7475  157.4697 LP  0  0  0  0  0  0  0  0  0  0  0  0  # atno 17395 bound_to 11000

$$$$
