AV-unprocessed.smi:1787|AV-procd|sdf|7206|dock1
  -GOLD-   22720 8443D 1   1.00000     0.00000
 Structure written by MMmdl.
 44 46  0  0  0  0  0  0  0  0  1 V2000
  144.8340  136.3669  153.8220 O   0  0  0  0  0  0  0  0  0  0  0  0
  145.9115  136.2126  153.2482 C   0  0  0  0  0  0  0  0  0  0  0  0
  147.0086  136.9219  153.5401 N   0  0  0  0  0  0  0  0  0  0  0  0
  147.0855  137.9561  154.5678 C   0  0  0  0  0  0  0  0  0  0  0  0
  148.3206  138.8916  154.3645 C   0  0  1  0  0  0  0  0  0  0  0  0
  149.5882  138.1001  154.4247 N   0  0  0  0  0  0  0  0  0  0  0  0
  150.8351  138.8780  154.4703 C   0  0  0  0  0  0  0  0  0  0  0  0
  152.0862  137.9831  154.4492 C   0  0  0  0  0  0  0  0  0  0  0  0
  152.0373  137.0618  155.5300 O   0  0  0  0  0  0  0  0  0  0  0  0
  150.8833  136.2347  155.4761 C   0  0  0  0  0  0  0  0  0  0  0  0
  149.6180  137.1081  155.5086 C   0  0  0  0  0  0  0  0  0  0  0  0
  148.1231  139.6409  153.0145 C   0  0  0  0  0  0  0  0  0  0  0  0
  146.9978  140.6709  153.1648 C   0  0  0  0  0  0  0  0  0  0  0  0
  147.0267  141.2582  154.8747 S   0  0  0  0  0  0  0  0  0  0  0  0
  148.2468  140.0291  155.4148 C   0  0  0  0  0  0  0  0  0  0  0  0
  146.1518  135.3414  152.2533 N   0  0  0  0  0  0  0  0  0  0  0  0
  145.2658  134.4112  151.6434 C   0  0  0  0  0  0  0  0  0  0  0  0
  143.9785  134.2709  152.2024 C   0  0  0  0  0  0  0  0  0  0  0  0
  143.0687  133.3700  151.6174 C   0  0  0  0  0  0  0  0  0  0  0  0
  143.4818  132.6434  150.4845 C   0  0  0  0  0  0  0  0  0  0  0  0
  144.7046  132.7723  149.9287 N   0  0  0  0  0  0  0  0  0  0  0  0
  145.5728  133.6383  150.4951 C   0  0  0  0  0  0  0  0  0  0  0  0
  147.8548  136.7351  153.0218 H   0  0  0  0  0  0  0  0  0  0  0  0
  146.1550  138.5234  154.5678 H   0  0  0  0  0  0  0  0  0  0  0  0
  147.1037  137.4756  155.5455 H   0  0  0  0  0  0  0  0  0  0  0  0
  150.9165  139.5399  153.6117 H   0  0  0  0  0  0  0  0  0  0  0  0
  150.8676  139.5019  155.3628 H   0  0  0  0  0  0  0  0  0  0  0  0
  152.1595  137.4438  153.5035 H   0  0  0  0  0  0  0  0  0  0  0  0
  152.9868  138.5906  154.5409 H   0  0  0  0  0  0  0  0  0  0  0  0
  150.9065  135.6211  154.5742 H   0  0  0  0  0  0  0  0  0  0  0  0
  150.8940  135.5536  156.3272 H   0  0  0  0  0  0  0  0  0  0  0  0
  149.5587  137.6099  156.4752 H   0  0  0  0  0  0  0  0  0  0  0  0
  148.7638  136.4370  155.4503 H   0  0  0  0  0  0  0  0  0  0  0  0
  149.0042  140.2217  152.7520 H   0  0  0  0  0  0  0  0  0  0  0  0
  147.9396  138.9655  152.1782 H   0  0  0  0  0  0  0  0  0  0  0  0
  147.1163  141.5030  152.4705 H   0  0  0  0  0  0  0  0  0  0  0  0
  146.0270  140.2182  152.9635 H   0  0  0  0  0  0  0  0  0  0  0  0
  147.9975  139.6632  156.4114 H   0  0  0  0  0  0  0  0  0  0  0  0
  149.1946  140.5577  155.5000 H   0  0  0  0  0  0  0  0  0  0  0  0
  147.0769  135.3792  151.8508 H   0  0  0  0  0  0  0  0  0  0  0  0
  143.6893  134.8446  153.0709 H   0  0  0  0  0  0  0  0  0  0  0  0
  142.0777  133.2399  152.0263 H   0  0  0  0  0  0  0  0  0  0  0  0
  142.8103  131.9441  150.0087 H   0  0  0  0  0  0  0  0  0  0  0  0
  146.5220  133.7096  149.9887 H   0  0  0  0  0  0  0  0  0  0  0  0
  1  2  2  0  0  0  0
  2  3  1  0  0  0  0
  2 16  1  0  0  0  0
  3  4  1  0  0  0  0
  3 23  1  0  0  0  0
  4  5  1  0  0  0  0
  4 24  1  0  0  0  0
  4 25  1  0  0  0  0
  5 15  1  0  0  0  0
  5  6  1  0  0  0  0
  5 12  1  0  0  0  0
  6 11  1  0  0  0  0
  6  7  1  0  0  0  0
  7  8  1  0  0  0  0
  7 26  1  0  0  0  0
  7 27  1  0  0  0  0
  8  9  1  0  0  0  0
  8 28  1  0  0  0  0
  8 29  1  0  0  0  0
  9 10  1  0  0  0  0
 10 11  1  0  0  0  0
 10 30  1  0  0  0  0
 10 31  1  0  0  0  0
 11 32  1  0  0  0  0
 11 33  1  0  0  0  0
 12 13  1  0  0  0  0
 12 34  1  0  0  0  0
 12 35  1  0  0  0  0
 13 14  1  0  0  0  0
 13 36  1  0  0  0  0
 13 37  1  0  0  0  0
 14 15  1  0  0  0  0
 15 38  1  0  0  0  0
 15 39  1  0  0  0  0
 16 17  1  0  0  0  0
 16 40  1  0  0  0  0
 17 22  1  0  0  0  0
 17 18  2  0  0  0  0
 18 19  1  0  0  0  0
 18 41  1  0  0  0  0
 19 20  2  0  0  0  0
 19 42  1  0  0  0  0
 20 21  1  0  0  0  0
 20 43  1  0  0  0  0
 21 22  2  0  0  0  0
 22 44  1  0  0  0  0
M  END
> <s_m_source_file>
AV-unprocessed.smi

> <i_m_source_file_index>
1787

> <i_lp_mmshare_version>
43012

> <i_f3d_flags>
0

> <s_epik_input>
W2NIXTFuW2NIXVtjSF1bY0hdYzFbTkhdQyg9TylbTkhdW0NIMl1bQ0BdMihbQ0gyXVtDSDJdU1tDSDJdMilOM1tDSDJdW0NIMl1PW0NIMl1bQ0gyXTM=

> <s_epik_cmdline>
J2VwaWtfcHl0aG9uJywgJy1waCcsICc3LjAnLCAnLXRuJywgJzgnLCAnLW1hJywgJzIwMCcsICctbWV0YWxfYmluZGluZycsICctaW1hZScsICc8aW5maWxlLm1hZT4nLCAnLW9tYWUnLCAnPG91dGZpbGUubWFlPic=

> <r_epik_Ionization_Penalty>
0.024212

> <r_epik_Ionization_Penalty_Charging>
0

> <r_epik_Ionization_Penalty_Neutral>
0.024212

> <r_epik_State_Penalty>
0.0155843

> <r_epik_Charging_Adjusted_Penalty>
0.0155843

> <i_epik_Tot_Q>
0

> <i_epik_Tot_abs_Q>
0

> <r_epik_Metal_State_Penalty>
0.01557

> <b_epik_Metal_Only>
0

> <s_lp_Force_Field>
OPLS_2005

> <r_lp_Energy>
57.3635

> <b_lp_Chiralities_Consistent>
1

> <s_lp_Variant>
AV-unprocessed.smi:1787-1

> <Gold.Version>
5.8.1

> <Gold.Id.Protein>
6NUR|6NUR_protein|mol2

> <Gold.PLP.Fitness>
37.7892

> <Gold.PLP.PLP>
-28.8512

> <Gold.PLP.part.hbond>
-3.0000

> <Gold.PLP.part.metal>
0.0000

> <Gold.PLP.part.buried>
0.2848

> <Gold.PLP.part.nonpolar>
-27.2201

> <Gold.PLP.part.repulsive>
0.4858

> <Gold.PLP.ligand.clash>
0.0000

> <Gold.PLP.ligand.torsion>
0.4351

> <Gold.PLP.Chemscore.Hbond>
2.2658

> <Gold.PLP.Chemscore.CHOScore>
0.9823

> <Gold.PLP.Chemscore.Metal>
0.0000

> <Gold.Chemscore.Hbonds>
donor molecule, donor type, donor heavy atom, donor atom, acceptor molecule, acceptor atom, score
      L1  H     3    23       P1  7948  1.00
      L1  H    16    40       P1  7948  0.99
      P1  H 10752 10764       L1     9  0.35
      L1  C    20    43       P1 10952  0.86
      L1  C    22    44       P1  7921  0.16

> <Gold.PLP.Chemscore.Internal.Correction>
0.0640

> <Gold.Rescore>
     Score         DG    S(hbond)    S(metal)    S(lipo)     H(rot)  DE(clash)    DE(int)     intcor
     15.07     -18.56       1.93        0.00      88.31       1.44       1.72       1.77       ----

> <Gold.Chemscore.Fitness>
15.0663

> <Gold.Chemscore.DG>
-18.5552

> <Gold.Chemscore.ZeroCoef>
-5.4800

> <Gold.Chemscore.Hbond>
1.9284

> <Gold.Chemscore.Metal>
0.0000

> <Gold.Chemscore.Lipo>
88.3114

> <Gold.Chemscore.Internal_Hbond>
0.0000

> <Gold.Chemscore.DEClash>
1.7219

> <Gold.Chemscore.DEInternal>
1.7669

> <Gold.Chemscore.Rot>
1.4445

> <Gold.Chemscore.Internal.Correction>
   9.000000E+99

> <Gold.Chemscore.Hbonds>
donor molecule, donor type, donor heavy atom, donor atom, acceptor molecule, acceptor atom, score
      L1  H     3    23       P1  7948  1.00
      L1  H    16    40       P1  7948  0.88
      P1  H 10752 10764       L1     9  0.01

> <Gold.Chemscore.Hbond.Weighted>
-6.4407

> <Gold.Chemscore.Metal.Weighted>
-0.0000

> <Gold.Chemscore.Lipo.Weighted>
-10.3324

> <Gold.Chemscore.Internal_Hbond.Weighted>
0.0000

> <Gold.Chemscore.DEClash.Weighted>
1.7219

> <Gold.Chemscore.DEInternal.Weighted>
1.7669

> <Gold.Chemscore.Rot.Weighted>
3.6980

> <Gold.Chemscore.Internal.Correction.Weighted>
   9.000000E+99

> <Gold.Protein.RotatedTorsions>
[ 6907 6896 6895 6894 ] final  115.82 input  -60.11 | X-H torsion
[ 7974 7965 7964 7962 ] final  111.91 input  175.53 | X-H torsion
[ 8008 7997 7996 7995 ] final   70.90 input   59.86 | X-H torsion
[ 10167 10162 10161 10158 ] final   84.11 input  -65.29 | X-H torsion
[ 10718 10713 10712 10709 ] final -176.02 input   66.30 | X-H torsion
[ 10763 10752 10751 10750 ] final  -19.54 input  -60.55 | X-H torsion
[ 11005 11000 10999 10996 ] final   10.90 input  -57.11 | X-H torsion

> <Gold.Protein.ActiveResidues>
 VAL166  LYS551  ARG553  GLY616  TRP617  ASP618  TYR619  PRO620  LYS621  CYS622 
 ASP623  PHE694  ASN695  SER759  ASP760  ASP761  ALA762  ILE779  LEU786  VAL792 
 PHE793  MET794  SER795  GLU796  ALA797  LYS798  CYS799  TRP800  GLU811  SER814 

> <Gold.Protein.RotatedAtoms>
  152.4717  133.8046  159.6970 H   0  0  0  0  0  0  0  0  0  0  0  0  # atno 6907 bound_to 6896
  150.8711  133.7495  159.2967 H   0  0  0  0  0  0  0  0  0  0  0  0  # atno 6908 bound_to 6896
  151.5030  135.1066  159.9886 H   0  0  0  0  0  0  0  0  0  0  0  0  # atno 6909 bound_to 6896
  145.2363  139.2798  143.4141 H   0  0  0  0  0  0  0  0  0  0  0  0  # atno 7974 bound_to 7965
  155.7458  140.3489  155.5126 H   0  0  0  0  0  0  0  0  0  0  0  0  # atno 8008 bound_to 7997
  155.9052  140.1041  157.1342 H   0  0  0  0  0  0  0  0  0  0  0  0  # atno 8009 bound_to 7997
  154.4049  140.1278  156.4473 H   0  0  0  0  0  0  0  0  0  0  0  0  # atno 8010 bound_to 7997
  139.9114  144.6269  150.8533 H   0  0  0  0  0  0  0  0  0  0  0  0  # atno 10167 bound_to 10162
  156.8085  130.9578  151.3116 H   0  0  0  0  0  0  0  0  0  0  0  0  # atno 10718 bound_to 10713
  153.6065  135.6997  153.5364 H   0  0  0  0  0  0  0  0  0  0  0  0  # atno 10763 bound_to 10752
  153.3053  135.4117  155.1288 H   0  0  0  0  0  0  0  0  0  0  0  0  # atno 10764 bound_to 10752
  154.8572  135.3659  154.5602 H   0  0  0  0  0  0  0  0  0  0  0  0  # atno 10765 bound_to 10752
  140.5093  134.0668  155.7814 H   0  0  0  0  0  0  0  0  0  0  0  0  # atno 11005 bound_to 11000
  146.3340  140.2713  142.8606 LP  0  0  0  0  0  0  0  0  0  0  0  0  # atno 17320 bound_to 7965
  144.9630  140.8294  143.5502 LP  0  0  0  0  0  0  0  0  0  0  0  0  # atno 17321 bound_to 7965
  140.7684  143.3363  151.2302 LP  0  0  0  0  0  0  0  0  0  0  0  0  # atno 17342 bound_to 10162
  139.6939  143.9645  152.2873 LP  0  0  0  0  0  0  0  0  0  0  0  0  # atno 17343 bound_to 10162
  157.6518  130.8890  149.9648 LP  0  0  0  0  0  0  0  0  0  0  0  0  # atno 17370 bound_to 10713
  156.1058  130.3653  150.0136 LP  0  0  0  0  0  0  0  0  0  0  0  0  # atno 17371 bound_to 10713
  141.1394  133.9164  157.2360 LP  0  0  0  0  0  0  0  0  0  0  0  0  # atno 17394 bound_to 11000
  139.9668  135.0139  156.9408 LP  0  0  0  0  0  0  0  0  0  0  0  0  # atno 17395 bound_to 11000

$$$$
