AV-unprocessed.smi:668|AV-procd|sdf|3261|dock5
  -GOLD-   22720 0213D 1   1.00000     0.00000
 Structure written by MMmdl.
 38 39  0  0  0  0  0  0  0  0  1 V2000
  153.5041  135.5905  157.1908 C   0  0  0  0  0  0  0  0  0  0  0  0
  152.8587  134.3255  157.0958 O   0  0  0  0  0  0  0  0  0  0  0  0
  151.8420  134.1764  156.1749 C   0  0  0  0  0  0  0  0  0  0  0  0
  151.2228  132.9172  156.0516 C   0  0  0  0  0  0  0  0  0  0  0  0
  150.1805  132.7572  155.1181 C   0  0  0  0  0  0  0  0  0  0  0  0
  149.7902  133.8671  154.3300 C   0  0  0  0  0  0  0  0  0  0  0  0
  148.7497  133.8552  153.3594 N   0  0  0  0  0  0  0  0  0  0  0  0
  147.7919  132.9376  153.1412 C   0  0  0  0  0  0  0  0  0  0  0  0
  147.6555  131.8804  153.7553 O   0  0  0  0  0  0  0  0  0  0  0  0
  146.9858  133.3159  152.1394 N   0  0  0  0  0  0  0  0  0  0  0  0
  145.8413  132.5504  151.6387 C   0  0  2  0  0  0  0  0  0  0  0  0
  146.0534  132.0902  150.1800 C   0  0  0  0  0  0  0  0  0  0  0  0
  144.8184  132.5307  149.3896 C   0  0  0  0  0  0  0  0  0  0  0  0
  143.7411  132.7902  150.4424 C   0  0  0  0  0  0  0  0  0  0  0  0
  144.4899  133.3191  151.6760 C   0  0  2  0  0  0  0  0  0  0  0  0
  144.5994  134.8589  151.6317 C   0  0  0  0  0  0  0  0  0  0  0  0
  145.1039  135.3983  150.5189 N   0  0  0  0  0  0  0  0  0  0  0  0
  144.2337  135.5514  152.5800 O   0  0  0  0  0  0  0  0  0  0  0  0
  150.4739  135.0841  154.5330 C   0  0  0  0  0  0  0  0  0  0  0  0
  151.4728  135.2445  155.4261 N   0  0  0  0  0  0  0  0  0  0  0  0
  154.2707  135.5474  157.9643 H   0  0  0  0  0  0  0  0  0  0  0  0
  152.8007  136.3776  157.4666 H   0  0  0  0  0  0  0  0  0  0  0  0
  153.9937  135.8597  156.2539 H   0  0  0  0  0  0  0  0  0  0  0  0
  151.5392  132.0873  156.6663 H   0  0  0  0  0  0  0  0  0  0  0  0
  149.7075  131.7920  155.0400 H   0  0  0  0  0  0  0  0  0  0  0  0
  148.7382  134.6520  152.7397 H   0  0  0  0  0  0  0  0  0  0  0  0
  147.1771  134.1947  151.6808 H   0  0  0  0  0  0  0  0  0  0  0  0
  145.7254  131.6628  152.2640 H   0  0  0  0  0  0  0  0  0  0  0  0
  146.9592  132.5035  149.7338 H   0  0  0  0  0  0  0  0  0  0  0  0
  146.1524  131.0044  150.1507 H   0  0  0  0  0  0  0  0  0  0  0  0
  145.0379  133.4522  148.8494 H   0  0  0  0  0  0  0  0  0  0  0  0
  144.5087  131.7883  148.6536 H   0  0  0  0  0  0  0  0  0  0  0  0
  142.9702  133.4707  150.0775 H   0  0  0  0  0  0  0  0  0  0  0  0
  143.2451  131.8524  150.6963 H   0  0  0  0  0  0  0  0  0  0  0  0
  143.9412  133.0468  152.5795 H   0  0  0  0  0  0  0  0  0  0  0  0
  145.1946  136.4008  150.4390 H   0  0  0  0  0  0  0  0  0  0  0  0
  145.3917  134.7994  149.7586 H   0  0  0  0  0  0  0  0  0  0  0  0
  150.2109  135.9617  153.9604 H   0  0  0  0  0  0  0  0  0  0  0  0
  1  2  1  0  0  0  0
  1 21  1  0  0  0  0
  1 22  1  0  0  0  0
  1 23  1  0  0  0  0
  2  3  1  0  0  0  0
  3 20  1  0  0  0  0
  3  4  2  0  0  0  0
  4  5  1  0  0  0  0
  4 24  1  0  0  0  0
  5  6  2  0  0  0  0
  5 25  1  0  0  0  0
  6  7  1  0  0  0  0
  6 19  1  0  0  0  0
  7  8  1  0  0  0  0
  7 26  1  0  0  0  0
  8  9  2  0  0  0  0
  8 10  1  0  0  0  0
 10 11  1  0  0  0  0
 10 27  1  0  0  0  0
 11 15  1  0  0  0  0
 11 12  1  0  0  0  0
 11 28  1  0  0  0  0
 12 13  1  0  0  0  0
 12 29  1  0  0  0  0
 12 30  1  0  0  0  0
 13 14  1  0  0  0  0
 13 31  1  0  0  0  0
 13 32  1  0  0  0  0
 14 15  1  0  0  0  0
 14 33  1  0  0  0  0
 14 34  1  0  0  0  0
 15 16  1  0  0  0  0
 15 35  1  0  0  0  0
 16 17  1  0  0  0  0
 16 18  2  0  0  0  0
 17 36  1  0  0  0  0
 17 37  1  0  0  0  0
 19 20  2  0  0  0  0
 19 38  1  0  0  0  0
M  END
> <s_m_source_file>
AV-unprocessed.smi

> <i_m_source_file_index>
668

> <i_lp_mmshare_version>
43012

> <i_f3d_flags>
0

> <s_epik_input>
W0NIM11PYzFbY0hdW2NIXWMoW2NIXW4xKVtOSF1DKD1PKVtOSF1bQ0BASF0yW0NIMl1bQ0gyXVtDSDJdW0NASF0yQyg9TylbTkgyXQ==

> <s_epik_cmdline>
J2VwaWtfcHl0aG9uJywgJy1waCcsICc3LjAnLCAnLXRuJywgJzgnLCAnLW1hJywgJzIwMCcsICctbWV0YWxfYmluZGluZycsICctaW1hZScsICc8aW5maWxlLm1hZT4nLCAnLW9tYWUnLCAnPG91dGZpbGUubWFlPic=

> <r_lp_tautomer_probability>
1

> <r_epik_Ionization_Penalty>
9.0916e-05

> <r_epik_Ionization_Penalty_Charging>
0

> <r_epik_Ionization_Penalty_Neutral>
9.0916e-05

> <r_epik_State_Penalty>
-0

> <r_epik_Charging_Adjusted_Penalty>
0

> <i_epik_Tot_Q>
0

> <i_epik_Tot_abs_Q>
0

> <r_epik_Metal_State_Penalty>
-0

> <b_epik_Metal_Only>
0

> <s_lp_Force_Field>
OPLS_2005

> <r_lp_Energy>
18.8655

> <b_lp_Chiralities_Consistent>
1

> <s_lp_Variant>
AV-unprocessed.smi:668-3

> <Gold.Version>
5.8.1

> <Gold.Id.Protein>
6NUR|6NUR_protein|mol2

> <Gold.PLP.Fitness>
41.9474

> <Gold.PLP.PLP>
-32.0332

> <Gold.PLP.part.hbond>
-4.0000

> <Gold.PLP.part.metal>
0.0000

> <Gold.PLP.part.buried>
-2.2478

> <Gold.PLP.part.nonpolar>
-25.6095

> <Gold.PLP.part.repulsive>
0.3242

> <Gold.PLP.ligand.clash>
0.0000

> <Gold.PLP.ligand.torsion>
0.1309

> <Gold.PLP.Chemscore.Hbond>
2.5250

> <Gold.PLP.Chemscore.CHOScore>
0.8618

> <Gold.PLP.Chemscore.Metal>
0.0000

> <Gold.Chemscore.Hbonds>
donor molecule, donor type, donor heavy atom, donor atom, acceptor molecule, acceptor atom, score
      L1  H     7    26       P1  7948  0.70
      L1  H    17    37       P1  7921  0.39
      P1  H 10752 10765       L1    20  0.86
      L1  C    19    38       P1  7948  0.60
      L1  C    19    38       P1  7949  0.05

> <Gold.PLP.Chemscore.Internal.Correction>
0.0156

> <Gold.Rescore>
     Score         DG    S(hbond)    S(metal)    S(lipo)     H(rot)  DE(clash)    DE(int)     intcor
     11.32     -12.57       0.99        0.00      73.00       1.86       0.12       1.13       ----

> <Gold.Chemscore.Fitness>
11.3167

> <Gold.Chemscore.DG>
-12.5664

> <Gold.Chemscore.ZeroCoef>
-5.4800

> <Gold.Chemscore.Hbond>
0.9937

> <Gold.Chemscore.Metal>
0.0000

> <Gold.Chemscore.Lipo>
73.0017

> <Gold.Chemscore.Internal_Hbond>
0.0000

> <Gold.Chemscore.DEClash>
0.1153

> <Gold.Chemscore.DEInternal>
1.1344

> <Gold.Chemscore.Rot>
1.8648

> <Gold.Chemscore.Internal.Correction>
   9.000000E+99

> <Gold.Chemscore.Hbonds>
donor molecule, donor type, donor heavy atom, donor atom, acceptor molecule, acceptor atom, score
      L1  H     7    26       P1  7948  0.07
      L1  H    17    37       P1  7921  0.38
      P1  H 10752 10765       L1    20  0.16

> <Gold.Chemscore.Hbond.Weighted>
-3.3191

> <Gold.Chemscore.Metal.Weighted>
-0.0000

> <Gold.Chemscore.Lipo.Weighted>
-8.5412

> <Gold.Chemscore.Internal_Hbond.Weighted>
0.0000

> <Gold.Chemscore.DEClash.Weighted>
0.1153

> <Gold.Chemscore.DEInternal.Weighted>
1.1344

> <Gold.Chemscore.Rot.Weighted>
4.7739

> <Gold.Chemscore.Internal.Correction.Weighted>
   9.000000E+99

> <Gold.Protein.RotatedTorsions>
[ 6907 6896 6895 6894 ] final  -56.67 input  -60.11 | X-H torsion
[ 7974 7965 7964 7962 ] final   57.97 input  175.53 | X-H torsion
[ 8008 7997 7996 7995 ] final  -83.49 input   59.86 | X-H torsion
[ 10167 10162 10161 10158 ] final -173.66 input  -65.29 | X-H torsion
[ 10718 10713 10712 10709 ] final  152.19 input   66.30 | X-H torsion
[ 10763 10752 10751 10750 ] final  179.92 input  -60.55 | X-H torsion
[ 11005 11000 10999 10996 ] final -166.38 input  -57.11 | X-H torsion

> <Gold.Protein.ActiveResidues>
 VAL166  LYS551  ARG553  GLY616  TRP617  ASP618  TYR619  PRO620  LYS621  CYS622 
 ASP623  PHE694  ASN695  SER759  ASP760  ASP761  ALA762  ILE779  LEU786  VAL792 
 PHE793  MET794  SER795  GLU796  ALA797  LYS798  CYS799  TRP800  GLU811  SER814 

> <Gold.Protein.RotatedAtoms>
  150.8148  134.7324  159.6720 H   0  0  0  0  0  0  0  0  0  0  0  0  # atno 6907 bound_to 6896
  152.4267  134.5851  159.9968 H   0  0  0  0  0  0  0  0  0  0  0  0  # atno 6908 bound_to 6896
  151.6050  133.3315  159.3091 H   0  0  0  0  0  0  0  0  0  0  0  0  # atno 6909 bound_to 6896
  145.9233  139.3747  143.0465 H   0  0  0  0  0  0  0  0  0  0  0  0  # atno 7974 bound_to 7965
  154.6197  140.0618  156.9599 H   0  0  0  0  0  0  0  0  0  0  0  0  # atno 8008 bound_to 7997
  155.1838  140.3301  155.4352 H   0  0  0  0  0  0  0  0  0  0  0  0  # atno 8009 bound_to 7997
  156.2424  140.1893  156.6933 H   0  0  0  0  0  0  0  0  0  0  0  0  # atno 8010 bound_to 7997
  139.5676  144.1718  152.1336 H   0  0  0  0  0  0  0  0  0  0  0  0  # atno 10167 bound_to 10162
  157.2610  131.0798  151.1666 H   0  0  0  0  0  0  0  0  0  0  0  0  # atno 10718 bound_to 10713
  154.5269  135.2797  155.1214 H   0  0  0  0  0  0  0  0  0  0  0  0  # atno 10763 bound_to 10752
  154.2750  135.6296  153.5328 H   0  0  0  0  0  0  0  0  0  0  0  0  # atno 10764 bound_to 10752
  152.9948  135.5637  154.5772 H   0  0  0  0  0  0  0  0  0  0  0  0  # atno 10765 bound_to 10752
  140.5651  134.5294  157.5151 H   0  0  0  0  0  0  0  0  0  0  0  0  # atno 11005 bound_to 11000
  145.8522  140.9523  143.0744 LP  0  0  0  0  0  0  0  0  0  0  0  0  # atno 17320 bound_to 7965
  144.6755  140.0421  143.7480 LP  0  0  0  0  0  0  0  0  0  0  0  0  # atno 17321 bound_to 7965
  140.1244  144.5344  150.6842 LP  0  0  0  0  0  0  0  0  0  0  0  0  # atno 17342 bound_to 10162
  140.6960  143.2404  151.4999 LP  0  0  0  0  0  0  0  0  0  0  0  0  # atno 17343 bound_to 10162
  157.3176  130.6921  149.6250 LP  0  0  0  0  0  0  0  0  0  0  0  0  # atno 17370 bound_to 10713
  155.9664  130.4345  150.5051 LP  0  0  0  0  0  0  0  0  0  0  0  0  # atno 17371 bound_to 10713
  139.9389  134.7824  156.0731 LP  0  0  0  0  0  0  0  0  0  0  0  0  # atno 17394 bound_to 11000
  141.1090  133.6650  156.2934 LP  0  0  0  0  0  0  0  0  0  0  0  0  # atno 17395 bound_to 11000

$$$$
