AV-unprocessed.smi:3316|AV-procd|sdf|12757|dock9
  -GOLD-   2272019 93D 1   1.00000     0.00000
 Structure written by MMmdl.
 41 43  0  0  0  0  0  0  0  0  2 V2000
  148.1053  140.3119  154.0443 C   0  0  0  0  0  0  0  0  0  0  0  0
  148.3350  141.6296  154.8011 C   0  0  2  0  0  0  0  0  0  0  0  0
  149.0262  141.3884  156.1570 C   0  0  0  0  0  0  0  0  0  0  0  0
  150.1995  142.2683  156.3349 N   0  3  0  0  0  0  0  0  0  0  0  0
  151.1398  141.8115  157.3763 C   0  0  0  0  0  0  0  0  0  0  0  0
  151.0812  142.7207  158.6173 C   0  0  2  0  0  0  0  0  0  0  0  0
  150.8773  144.2333  158.2846 C   0  0  0  0  0  0  0  0  0  0  0  0
  152.0710  144.9142  158.9931 C   0  0  1  0  0  0  0  0  0  0  0  0
  151.9054  144.7221  160.4857 C   0  0  0  0  0  0  0  0  0  0  0  0
  152.1130  143.4296  160.7444 C   0  0  0  0  0  0  0  0  0  0  0  0
  152.4060  142.7474  159.4239 C   0  0  2  0  0  0  0  0  0  0  0  0
  153.1609  143.8767  158.7104 C   0  0  0  0  0  0  0  0  0  0  0  0
  147.0375  142.4151  154.9487 C   0  0  0  0  0  0  0  0  0  0  0  0
  146.3699  142.9155  153.8108 C   0  0  0  0  0  0  0  0  0  0  0  0
  145.1750  143.6401  153.9932 C   0  0  0  0  0  0  0  0  0  0  0  0
  144.6344  143.8846  155.2057 N   0  0  0  0  0  0  0  0  0  0  0  0
  145.2752  143.4031  156.2919 C   0  0  0  0  0  0  0  0  0  0  0  0
  146.4753  142.6677  156.2191 C   0  0  0  0  0  0  0  0  0  0  0  0
  147.6678  140.4965  153.0626 H   0  0  0  0  0  0  0  0  0  0  0  0
  147.4338  139.6461  154.5873 H   0  0  0  0  0  0  0  0  0  0  0  0
  149.0441  139.7795  153.8899 H   0  0  0  0  0  0  0  0  0  0  0  0
  149.0145  142.2282  154.1919 H   0  0  0  0  0  0  0  0  0  0  0  0
  148.3264  141.5497  156.9781 H   0  0  0  0  0  0  0  0  0  0  0  0
  149.3560  140.3508  156.2214 H   0  0  0  0  0  0  0  0  0  0  0  0
  150.6967  142.3236  155.4575 H   0  0  0  0  0  0  0  0  0  0  0  0
  150.8770  140.7912  157.6583 H   0  0  0  0  0  0  0  0  0  0  0  0
  152.1485  141.7783  156.9639 H   0  0  0  0  0  0  0  0  0  0  0  0
  150.2767  142.3657  159.2646 H   0  0  0  0  0  0  0  0  0  0  0  0
  150.9184  144.4176  157.2101 H   0  0  0  0  0  0  0  0  0  0  0  0
  149.9197  144.6088  158.6476 H   0  0  0  0  0  0  0  0  0  0  0  0
  152.3023  145.9336  158.6832 H   0  0  0  0  0  0  0  0  0  0  0  0
  151.6375  145.5022  161.1830 H   0  0  0  0  0  0  0  0  0  0  0  0
  152.0481  142.9272  161.6982 H   0  0  0  0  0  0  0  0  0  0  0  0
  152.9440  141.8030  159.5124 H   0  0  0  0  0  0  0  0  0  0  0  0
  153.3389  143.7003  157.6485 H   0  0  0  0  0  0  0  0  0  0  0  0
  154.1134  144.1190  159.1865 H   0  0  0  0  0  0  0  0  0  0  0  0
  146.7572  142.7492  152.8163 H   0  0  0  0  0  0  0  0  0  0  0  0
  144.6403  144.0351  153.1420 H   0  0  0  0  0  0  0  0  0  0  0  0
  144.8193  143.6111  157.2484 H   0  0  0  0  0  0  0  0  0  0  0  0
  146.9461  142.3060  157.1215 H   0  0  0  0  0  0  0  0  0  0  0  0
  149.8729  143.1926  156.5792 H   0  0  0  0  0  0  0  0  0  0  0  0
  1  2  1  0  0  0  0
  1 19  1  0  0  0  0
  1 20  1  0  0  0  0
  1 21  1  0  0  0  0
  2  3  1  0  0  0  0
  2 13  1  0  0  0  0
  2 22  1  0  0  0  0
  3  4  1  0  0  0  0
  3 23  1  0  0  0  0
  3 24  1  0  0  0  0
  4  5  1  0  0  0  0
  4 25  1  0  0  0  0
  4 41  1  0  0  0  0
  5  6  1  0  0  0  0
  5 26  1  0  0  0  0
  5 27  1  0  0  0  0
  6 11  1  0  0  0  0
  6  7  1  0  0  0  0
  6 28  1  0  0  0  0
  7  8  1  0  0  0  0
  7 29  1  0  0  0  0
  7 30  1  0  0  0  0
  8 12  1  0  0  0  0
  8  9  1  0  0  0  0
  8 31  1  0  0  0  0
  9 10  2  0  0  0  0
  9 32  1  0  0  0  0
 10 11  1  0  0  0  0
 10 33  1  0  0  0  0
 11 12  1  0  0  0  0
 11 34  1  0  0  0  0
 12 35  1  0  0  0  0
 12 36  1  0  0  0  0
 13 18  1  0  0  0  0
 13 14  2  0  0  0  0
 14 15  1  0  0  0  0
 14 37  1  0  0  0  0
 15 16  2  0  0  0  0
 15 38  1  0  0  0  0
 16 17  1  0  0  0  0
 17 18  2  0  0  0  0
 17 39  1  0  0  0  0
 18 40  1  0  0  0  0
M  CHG  1   4   1
M  END
> <s_m_source_file>
AV-unprocessed.smi

> <i_m_source_file_index>
3316

> <i_lp_mmshare_version>
43012

> <i_f3d_flags>
0

> <s_epik_input>
W2NIXTFbY0hdbltjSF1bY0hdYzFbQ0BIXShbQ0gzXSlbQ0gyXVtOSF1bQ0gyXVtDQEhdKFtDSDJdW0NASF0yMylbQ0BIXShbQ0gyXTMpW0NIXT1bQ0hdMg==

> <s_epik_cmdline>
J2VwaWtfcHl0aG9uJywgJy1waCcsICc3LjAnLCAnLXRuJywgJzgnLCAnLW1hJywgJzIwMCcsICctbWV0YWxfYmluZGluZycsICctaW1hZScsICc8aW5maWxlLm1hZT4nLCAnLW9tYWUnLCAnPG91dGZpbGUubWFlPic=

> <r_lp_tautomer_probability>
1

> <r_epik_Ionization_Penalty>
0.00280406

> <r_epik_Ionization_Penalty_Charging>
0.000446589

> <r_epik_Ionization_Penalty_Neutral>
0.00235747

> <r_epik_State_Penalty>
-0

> <r_epik_Charging_Adjusted_Penalty>
0.000446589

> <i_epik_Tot_Q>
1

> <i_epik_Tot_abs_Q>
1

> <r_epik_Metal_State_Penalty>
-0

> <b_epik_Metal_Only>
0

> <s_lp_Force_Field>
OPLS_2005

> <r_lp_Energy>
65.5539

> <b_lp_Chiralities_Consistent>
1

> <s_lp_Variant>
AV-unprocessed.smi:3316-5

> <Gold.Version>
5.8.1

> <Gold.Id.Protein>
6NUR|6NUR_protein|mol2

> <Gold.PLP.Fitness>
48.1113

> <Gold.PLP.PLP>
-43.9251

> <Gold.PLP.part.hbond>
-1.0000

> <Gold.PLP.part.metal>
0.0000

> <Gold.PLP.part.buried>
-3.9199

> <Gold.PLP.part.nonpolar>
-40.0114

> <Gold.PLP.part.repulsive>
0.2327

> <Gold.PLP.ligand.clash>
0.0000

> <Gold.PLP.ligand.torsion>
1.4781

> <Gold.PLP.Chemscore.Hbond>
1.5040

> <Gold.PLP.Chemscore.CHOScore>
0.8506

> <Gold.PLP.Chemscore.Metal>
0.0000

> <Gold.Chemscore.Hbonds>
donor molecule, donor type, donor heavy atom, donor atom, acceptor molecule, acceptor atom, score
      L1  H     4    41       P1  8028  1.49
      L1  C    15    38       P1 10174  0.45

> <Gold.PLP.Chemscore.Internal.Correction>
0.0788

> <Gold.Rescore>
     Score         DG    S(hbond)    S(metal)    S(lipo)     H(rot)  DE(clash)    DE(int)     intcor
     19.02     -20.39       0.81        0.00     134.23       1.36       0.11       1.26       ----

> <Gold.Chemscore.Fitness>
19.0245

> <Gold.Chemscore.DG>
-20.3942

> <Gold.Chemscore.ZeroCoef>
-5.4800

> <Gold.Chemscore.Hbond>
0.8086

> <Gold.Chemscore.Metal>
0.0000

> <Gold.Chemscore.Lipo>
134.2337

> <Gold.Chemscore.Internal_Hbond>
0.0000

> <Gold.Chemscore.DEClash>
0.1108

> <Gold.Chemscore.DEInternal>
1.2589

> <Gold.Chemscore.Rot>
1.3640

> <Gold.Chemscore.Internal.Correction>
   9.000000E+99

> <Gold.Chemscore.Hbonds>
donor molecule, donor type, donor heavy atom, donor atom, acceptor molecule, acceptor atom, score
      L1  H     4    41       P1  8028  0.70

> <Gold.Chemscore.Hbond.Weighted>
-2.7008

> <Gold.Chemscore.Metal.Weighted>
-0.0000

> <Gold.Chemscore.Lipo.Weighted>
-15.7053

> <Gold.Chemscore.Internal_Hbond.Weighted>
0.0000

> <Gold.Chemscore.DEClash.Weighted>
0.1108

> <Gold.Chemscore.DEInternal.Weighted>
1.2589

> <Gold.Chemscore.Rot.Weighted>
3.4919

> <Gold.Chemscore.Internal.Correction.Weighted>
   9.000000E+99

> <Gold.Protein.RotatedTorsions>
[ 6907 6896 6895 6894 ] final   -7.54 input  -60.11 | X-H torsion
[ 7974 7965 7964 7962 ] final -119.72 input  175.53 | X-H torsion
[ 8008 7997 7996 7995 ] final   86.78 input   59.86 | X-H torsion
[ 10167 10162 10161 10158 ] final    5.59 input  -65.29 | X-H torsion
[ 10718 10713 10712 10709 ] final  -88.36 input   66.30 | X-H torsion
[ 10763 10752 10751 10750 ] final  -93.84 input  -60.55 | X-H torsion
[ 11005 11000 10999 10996 ] final    5.61 input  -57.11 | X-H torsion

> <Gold.Protein.ActiveResidues>
 VAL166  LYS551  ARG553  GLY616  TRP617  ASP618  TYR619  PRO620  LYS621  CYS622 
 ASP623  PHE694  ASN695  SER759  ASP760  ASP761  ALA762  ILE779  LEU786  VAL792 
 PHE793  MET794  SER795  GLU796  ALA797  LYS798  CYS799  TRP800  GLU811  SER814 

> <Gold.Protein.RotatedAtoms>
  151.4479  135.1027  159.9688 H   0  0  0  0  0  0  0  0  0  0  0  0  # atno 6907 bound_to 6896
  152.4899  133.8467  159.7191 H   0  0  0  0  0  0  0  0  0  0  0  0  # atno 6908 bound_to 6896
  150.9042  133.7020  159.2898 H   0  0  0  0  0  0  0  0  0  0  0  0  # atno 6909 bound_to 6896
  145.0594  140.8278  143.4162 H   0  0  0  0  0  0  0  0  0  0  0  0  # atno 7974 bound_to 7965
  155.9671  140.3388  155.6542 H   0  0  0  0  0  0  0  0  0  0  0  0  # atno 8008 bound_to 7997
  155.6722  140.0728  157.2534 H   0  0  0  0  0  0  0  0  0  0  0  0  # atno 8009 bound_to 7997
  154.4157  140.1689  156.1879 H   0  0  0  0  0  0  0  0  0  0  0  0  # atno 8010 bound_to 7997
  140.6474  143.7629  150.7520 H   0  0  0  0  0  0  0  0  0  0  0  0  # atno 10167 bound_to 10162
  155.9984  130.4833  150.5007 H   0  0  0  0  0  0  0  0  0  0  0  0  # atno 10718 bound_to 10713
  154.6998  135.5179  153.8510 H   0  0  0  0  0  0  0  0  0  0  0  0  # atno 10763 bound_to 10752
  153.0695  135.6596  154.0288 H   0  0  0  0  0  0  0  0  0  0  0  0  # atno 10764 bound_to 10752
  154.0149  135.2999  155.3367 H   0  0  0  0  0  0  0  0  0  0  0  0  # atno 10765 bound_to 10752
  140.5687  134.0123  155.8000 H   0  0  0  0  0  0  0  0  0  0  0  0  # atno 11005 bound_to 11000
  145.1428  139.2562  143.5481 LP  0  0  0  0  0  0  0  0  0  0  0  0  # atno 17320 bound_to 7965
  146.3523  140.1110  142.8604 LP  0  0  0  0  0  0  0  0  0  0  0  0  # atno 17321 bound_to 7965
  140.1273  143.4558  152.2276 LP  0  0  0  0  0  0  0  0  0  0  0  0  # atno 17342 bound_to 10162
  139.5685  144.7449  151.3954 LP  0  0  0  0  0  0  0  0  0  0  0  0  # atno 17343 bound_to 10162
  157.2992  131.0642  151.2080 LP  0  0  0  0  0  0  0  0  0  0  0  0  # atno 17370 bound_to 10713
  157.3065  130.6869  149.6192 LP  0  0  0  0  0  0  0  0  0  0  0  0  # atno 17371 bound_to 10713
  141.1069  133.9679  157.2980 LP  0  0  0  0  0  0  0  0  0  0  0  0  # atno 17394 bound_to 11000
  139.9372  135.0195  156.8594 LP  0  0  0  0  0  0  0  0  0  0  0  0  # atno 17395 bound_to 11000

$$$$
