#       Name:                AV-unprocessed.smi:497
#       Creating user name   scv26
#       Creation time:       Thu Mar 26 23:17:23 2020


#       File generated by GOLD software.
#

@<TRIPOS>MOLECULE
AV-unprocessed.smi:497
    46    48     1
SMALL
NO_CHARGES


@<TRIPOS>ATOM
      1 ****        -2.3805   2.4375   1.0526 C.3            1 S1                 0.0000
      2 ****        -2.4605   1.1672   0.4309 O.3            1 S1                 0.0000
      3 ****        -1.2503   0.8029  -0.2100 C.3            1 S1                 0.0000
      4 ****        -1.3752  -0.6347  -0.7339 C.3            1 S1                 0.0000
      5 ****        -0.1033  -1.1260  -1.2690 N.pl3          1 S1                 0.0000
      6 ****         0.8808  -1.8789  -0.6843 C.2            1 S1                 0.0000
      7 ****         0.8387  -2.4014   0.7357 C.3            1 S1                 0.0000
      8 ****         0.9027  -1.3205   1.7187 N.pl3          1 S1                -1.0000
      9 ****        -0.0317  -1.1094   2.6882 C.2            1 S1                 0.0000
     10 ****        -1.0181  -1.7862   2.9975 O.2            1 S1                 0.0000
     11 ****         0.1907   0.1683   3.4025 C.2            1 S1                 0.0000
     12 ****         1.2692   1.0145   3.4575 C.2            1 S1                 0.0000
     13 ****         0.9058   2.0887   4.3156 C.2            1 S1                 0.0000
     14 ****        -0.3654   1.8198   4.7337 C.2            1 S1                 0.0000
     15 ****        -0.8119   0.6544   4.1926 O.3            1 S1                 0.0000
     16 ****         1.9303  -2.1461  -1.4669 N.2            1 S1                 0.0000
     17 ****         1.6113  -1.5147  -2.6514 C.ar           1 S1                 0.0000
     18 ****         2.3265  -1.4291  -3.8675 C.ar           1 S1                 0.0000
     19 ****         1.7934  -0.7153  -4.9606 C.ar           1 S1                 0.0000
     20 ****         0.5402  -0.0785  -4.8531 C.ar           1 S1                 0.0000
     21 ****        -0.1879  -0.1527  -3.6501 C.ar           1 S1                 0.0000
     22 ****         0.3481  -0.8678  -2.5616 C.ar           1 S1                 0.0000
     23 ****        -3.3349   2.6765   1.5216 H              1 S1                 0.0000
     24 ****        -2.1560   3.2187   0.3255 H              1 S1                 0.0000
     25 ****        -1.6133   2.4490   1.8282 H              1 S1                 0.0000
     26 ****        -1.0391   1.4896  -1.0309 H              1 S1                 0.0000
     27 ****        -0.4210   0.8783   0.4937 H              1 S1                 0.0000
     28 ****        -1.7390  -1.2979   0.0504 H              1 S1                 0.0000
     29 ****        -2.1253  -0.6776  -1.5239 H              1 S1                 0.0000
     30 ****        -0.0607  -3.0116   0.8307 H              1 S1                 0.0000
     31 ****         1.6658  -3.0992   0.8730 H              1 S1                 0.0000
     32 ****         2.2063   0.8781   2.9375 H              1 S1                 0.0000
     33 ****         1.4999   2.9467   4.5933 H              1 S1                 0.0000
     34 ****        -1.0647   2.3236   5.3844 H              1 S1                 0.0000
     35 ****         3.2876  -1.9130  -3.9581 H              1 S1                 0.0000
     36 ****         2.3489  -0.6555  -5.8849 H              1 S1                 0.0000
     37 ****         0.1387   0.4676  -5.6940 H              1 S1                 0.0000
     38 ****        -1.1471   0.3356  -3.5638 H              1 S1                 0.0000
     39 ****        -3.1914   1.1888  -0.2512 LP             1 S1                 0.0000
     40 ****        -2.6744   0.4818   1.1269 LP             1 S1                 0.0000
     41 ****         1.6825  -0.6959   1.6768 LP             1 S1                 0.0000
     42 ****        -1.2207  -2.6304   2.5013 LP             1 S1                 0.0000
     43 ****        -1.6137  -1.4898   3.7440 LP             1 S1                 0.0000
     44 ****        -1.0256  -0.0006   4.9174 LP             1 S1                 0.0000
     45 ****        -1.6304   0.8226   3.6434 LP             1 S1                 0.0000
     46 ****         2.7494  -2.6760  -1.2471 LP             1 S1                 0.0000
@<TRIPOS>BOND
    1    1    2 1     
    2    1   23 1     
    3    1   24 1     
    4    1   25 1     
    5    2    3 1     
    6    3    4 1     
    7    3   26 1     
    8    3   27 1     
    9    4    5 1     
   10    4   28 1     
   11    4   29 1     
   12    5   22 1     
   13    5    6 1     
   14    6    7 1     
   15    6   16 2     
   16    7    8 1     
   17    7   30 1     
   18    7   31 1     
   19    8    9 1     
   20    9   10 2     
   21    9   11 1     
   22   11   15 1     
   23   11   12 2     
   24   12   13 1     
   25   12   32 1     
   26   13   14 2     
   27   13   33 1     
   28   14   15 1     
   29   14   34 1     
   30   16   17 1     
   31   17   22 ar    
   32   17   18 ar    
   33   18   19 ar    
   34   18   35 1     
   35   19   20 ar    
   36   19   36 1     
   37   20   21 ar    
   38   20   37 1     
   39   21   22 ar    
   40   21   38 1     
   41    2   39 1     
   42    2   40 1     
   43    8   41 1     
   44   10   42 1     
   45   10   43 1     
   46   15   44 1     
   47   15   45 1     
   48   16   46 1     
@<TRIPOS>SUBSTRUCTURE
      1 S1             1
@<TRIPOS>SET
LONE_PAIRS      STATIC     ATOMS    <user>   **** ""
8 39 40 41 42 43 44 45 46
ATOM$BLUE        STATIC     ATOMS    COLORGROUP SYSTEM
8 39 40 41 42 43 44 45 46
