AV-unprocessed.smi:531|AV-procd|sdf|2846|dock6
  -GOLD-   2262023333D 1   1.00000     0.00000
 Structure written by MMmdl.
 46 48  0  0  0  0  0  0  0  0  1 V2000
  157.8919  141.0249  158.8943 C   0  0  0  0  0  0  0  0  0  0  0  0
  157.1117  139.7765  159.3117 C   0  0  0  0  0  0  0  0  0  0  0  0
  155.7309  140.0933  159.3595 O   0  0  0  0  0  0  0  0  0  0  0  0
  155.0909  139.5747  160.5127 C   0  0  0  0  0  0  0  0  0  0  0  0
  153.7306  140.2623  160.6734 C   0  0  0  0  0  0  0  0  0  0  0  0
  153.0128  140.3283  159.4034 N   0  0  0  0  0  0  0  0  0  0  0  0
  152.5159  141.4226  158.7619 C   0  0  0  0  0  0  0  0  0  0  0  0
  152.6213  142.7128  159.2864 N   0  0  0  0  0  0  0  0  0  0  0  0
  153.0737  143.9096  158.5758 C   0  0  0  0  0  0  0  0  0  0  0  0
  152.0755  145.0716  158.7311 C   0  0  0  0  0  0  0  0  0  0  0  0
  151.8641  145.4007  160.2152 C   0  0  0  0  0  0  0  0  0  0  0  0
  151.5046  144.1255  160.9905 C   0  0  0  0  0  0  0  0  0  0  0  0
  152.5304  143.0112  160.7149 C   0  0  0  0  0  0  0  0  0  0  0  0
  151.9724  141.1668  157.5686 N   0  0  0  0  0  0  0  0  0  0  0  0
  152.1149  139.7941  157.4440 C   0  0  0  0  0  0  0  0  0  0  0  0
  152.7508  139.2743  158.5246 C   0  0  0  0  0  0  0  0  0  0  0  0
  153.0846  137.8462  158.6269 C   0  0  0  0  0  0  0  0  0  0  0  0
  153.6827  137.3533  159.5806 O   0  0  0  0  0  0  0  0  0  0  0  0
  152.6766  137.1259  157.5539 N   0  0  0  0  0  0  0  0  0  0  0  0
  152.0259  137.5853  156.4421 C   0  0  0  0  0  0  0  0  0  0  0  0
  151.7252  136.8047  155.5392 O   0  0  0  0  0  0  0  0  0  0  0  0
  151.7356  138.9242  156.3820 N   0  0  0  0  0  0  0  0  0  0  0  0
  151.0439  139.4744  155.2147 C   0  0  0  0  0  0  0  0  0  0  0  0
  152.8825  136.1378  157.5743 H   0  0  0  0  0  0  0  0  0  0  0  0
  158.9615  140.8189  158.8495 H   0  0  0  0  0  0  0  0  0  0  0  0
  157.7369  141.8388  159.6033 H   0  0  0  0  0  0  0  0  0  0  0  0
  157.5763  141.3720  157.9101 H   0  0  0  0  0  0  0  0  0  0  0  0
  157.2897  138.9718  158.5969 H   0  0  0  0  0  0  0  0  0  0  0  0
  157.4530  139.4330  160.2892 H   0  0  0  0  0  0  0  0  0  0  0  0
  154.9566  138.4968  160.4088 H   0  0  0  0  0  0  0  0  0  0  0  0
  155.7068  139.7479  161.3967 H   0  0  0  0  0  0  0  0  0  0  0  0
  153.1255  139.7427  161.4136 H   0  0  0  0  0  0  0  0  0  0  0  0
  153.8617  141.2597  161.0808 H   0  0  0  0  0  0  0  0  0  0  0  0
  154.0440  144.2061  158.9766 H   0  0  0  0  0  0  0  0  0  0  0  0
  153.2519  143.6864  157.5248 H   0  0  0  0  0  0  0  0  0  0  0  0
  152.4403  145.9523  158.2020 H   0  0  0  0  0  0  0  0  0  0  0  0
  151.1207  144.8084  158.2746 H   0  0  0  0  0  0  0  0  0  0  0  0
  152.7776  145.8319  160.6267 H   0  0  0  0  0  0  0  0  0  0  0  0
  151.0825  146.1518  160.3319 H   0  0  0  0  0  0  0  0  0  0  0  0
  151.4597  144.3376  162.0590 H   0  0  0  0  0  0  0  0  0  0  0  0
  150.5098  143.7860  160.6987 H   0  0  0  0  0  0  0  0  0  0  0  0
  152.2427  142.1114  161.2598 H   0  0  0  0  0  0  0  0  0  0  0  0
  153.5141  143.2983  161.0890 H   0  0  0  0  0  0  0  0  0  0  0  0
  150.1558  138.8884  154.9735 H   0  0  0  0  0  0  0  0  0  0  0  0
  151.7040  139.4676  154.3466 H   0  0  0  0  0  0  0  0  0  0  0  0
  150.7137  140.5012  155.3723 H   0  0  0  0  0  0  0  0  0  0  0  0
  1  2  1  0  0  0  0
  1 25  1  0  0  0  0
  1 26  1  0  0  0  0
  1 27  1  0  0  0  0
  2  3  1  0  0  0  0
  2 28  1  0  0  0  0
  2 29  1  0  0  0  0
  3  4  1  0  0  0  0
  4  5  1  0  0  0  0
  4 30  1  0  0  0  0
  4 31  1  0  0  0  0
  5  6  1  0  0  0  0
  5 32  1  0  0  0  0
  5 33  1  0  0  0  0
  6 16  1  0  0  0  0
  6  7  1  0  0  0  0
  7  8  1  0  0  0  0
  7 14  2  0  0  0  0
  8 13  1  0  0  0  0
  8  9  1  0  0  0  0
  9 10  1  0  0  0  0
  9 34  1  0  0  0  0
  9 35  1  0  0  0  0
 10 11  1  0  0  0  0
 10 36  1  0  0  0  0
 10 37  1  0  0  0  0
 11 12  1  0  0  0  0
 11 38  1  0  0  0  0
 11 39  1  0  0  0  0
 12 13  1  0  0  0  0
 12 40  1  0  0  0  0
 12 41  1  0  0  0  0
 13 42  1  0  0  0  0
 13 43  1  0  0  0  0
 14 15  1  0  0  0  0
 15 22  1  0  0  0  0
 15 16  2  0  0  0  0
 16 17  1  0  0  0  0
 17 18  2  0  0  0  0
 17 19  1  0  0  0  0
 19 24  1  0  0  0  0
 19 20  1  0  0  0  0
 20 21  2  0  0  0  0
 20 22  1  0  0  0  0
 22 23  1  0  0  0  0
 23 44  1  0  0  0  0
 23 45  1  0  0  0  0
 23 46  1  0  0  0  0
M  END
> <s_m_source_file>
AV-unprocessed.smi

> <i_m_source_file_index>
531

> <i_lp_mmshare_version>
43012

> <i_f3d_flags>
0

> <s_epik_input>
W0NIM11uMWMoPU8pW25IXWMoPU8pYyhjMTIpbihbQ0gyXVtDSDJdT1tDSDJdW0NIM10pYyhuMilOM1tDSDJdW0NIMl1bQ0gyXVtDSDJdW0NIMl0z

> <s_epik_cmdline>
J2VwaWtfcHl0aG9uJywgJy1waCcsICc3LjAnLCAnLXRuJywgJzgnLCAnLW1hJywgJzIwMCcsICctbWV0YWxfYmluZGluZycsICctaW1hZScsICc8aW5maWxlLm1hZT4nLCAnLW9tYWUnLCAnPG91dGZpbGUubWFlPic=

> <r_lp_tautomer_probability>
1

> <r_epik_Ionization_Penalty>
0.000274134

> <r_epik_Ionization_Penalty_Charging>
0.000122674

> <r_epik_Ionization_Penalty_Neutral>
0.00015146

> <r_epik_State_Penalty>
-0

> <r_epik_Charging_Adjusted_Penalty>
0.000122674

> <i_epik_Tot_Q>
0

> <i_epik_Tot_abs_Q>
0

> <r_epik_Metal_State_Penalty>
0.0938197

> <b_epik_Metal_Only>
0

> <s_lp_Force_Field>
OPLS_2005

> <r_lp_Energy>
38.5132

> <b_lp_Chiralities_Consistent>
1

> <s_lp_Variant>
AV-unprocessed.smi:531-1

> <Gold.Version>
5.8.1

> <Gold.Id.Protein>
6NUR|6NUR_protein|mol2

> <Gold.PLP.Fitness>
50.0026

> <Gold.PLP.PLP>
-46.1273

> <Gold.PLP.part.hbond>
-2.0000

> <Gold.PLP.part.metal>
0.0000

> <Gold.PLP.part.buried>
-4.3404

> <Gold.PLP.part.nonpolar>
-40.2144

> <Gold.PLP.part.repulsive>
0.2111

> <Gold.PLP.ligand.clash>
0.0070

> <Gold.PLP.ligand.torsion>
1.1004

> <Gold.PLP.Chemscore.Hbond>
1.8720

> <Gold.PLP.Chemscore.CHOScore>
0.0000

> <Gold.PLP.Chemscore.Metal>
0.0000

> <Gold.Chemscore.Hbonds>
donor molecule, donor type, donor heavy atom, donor atom, acceptor molecule, acceptor atom, score
      P1  H  7997  8010       L1     3  0.90
      P1  H 10752 10765       L1    21  0.91

> <Gold.PLP.Chemscore.Internal.Correction>
0.4671

> <Gold.Rescore>
     Score         DG    S(hbond)    S(metal)    S(lipo)     H(rot)  DE(clash)    DE(int)     intcor
     15.49     -18.93       1.54        0.00     106.44       1.62       0.03       3.41       ----

> <Gold.Chemscore.Fitness>
15.4866

> <Gold.Chemscore.DG>
-18.9299

> <Gold.Chemscore.ZeroCoef>
-5.4800

> <Gold.Chemscore.Hbond>
1.5404

> <Gold.Chemscore.Metal>
0.0000

> <Gold.Chemscore.Lipo>
106.4355

> <Gold.Chemscore.Internal_Hbond>
0.0000

> <Gold.Chemscore.DEClash>
0.0330

> <Gold.Chemscore.DEInternal>
3.4103

> <Gold.Chemscore.Rot>
1.6204

> <Gold.Chemscore.Internal.Correction>
   9.000000E+99

> <Gold.Chemscore.Hbonds>
donor molecule, donor type, donor heavy atom, donor atom, acceptor molecule, acceptor atom, score
      P1  H  7997  8010       L1     3  0.21
      P1  H 10752 10765       L1    21  0.85

> <Gold.Chemscore.Hbond.Weighted>
-5.1451

> <Gold.Chemscore.Metal.Weighted>
-0.0000

> <Gold.Chemscore.Lipo.Weighted>
-12.4529

> <Gold.Chemscore.Internal_Hbond.Weighted>
0.0000

> <Gold.Chemscore.DEClash.Weighted>
0.0330

> <Gold.Chemscore.DEInternal.Weighted>
3.4103

> <Gold.Chemscore.Rot.Weighted>
4.1481

> <Gold.Chemscore.Internal.Correction.Weighted>
   9.000000E+99

> <Gold.Protein.RotatedTorsions>
[ 6907 6896 6895 6894 ] final   98.75 input  -60.11 | X-H torsion
[ 7974 7965 7964 7962 ] final  178.42 input  175.53 | X-H torsion
[ 8008 7997 7996 7995 ] final   -9.15 input   59.86 | X-H torsion
[ 10167 10162 10161 10158 ] final  -90.38 input  -65.29 | X-H torsion
[ 10718 10713 10712 10709 ] final -158.46 input   66.30 | X-H torsion
[ 10763 10752 10751 10750 ] final  169.20 input  -60.55 | X-H torsion
[ 11005 11000 10999 10996 ] final   73.71 input  -57.11 | X-H torsion

> <Gold.Protein.ActiveResidues>
 VAL166  LYS551  ARG553  GLY616  TRP617  ASP618  TYR619  PRO620  LYS621  CYS622 
 ASP623  PHE694  ASN695  SER759  ASP760  ASP761  ALA762  ILE779  LEU786  VAL792 
 PHE793  MET794  SER795  GLU796  ALA797  LYS798  CYS799  TRP800  GLU811  SER814 

> <Gold.Protein.RotatedAtoms>
  152.5404  134.0533  159.8119 H   0  0  0  0  0  0  0  0  0  0  0  0  # atno 6907 bound_to 6896
  151.0672  133.5488  159.2637 H   0  0  0  0  0  0  0  0  0  0  0  0  # atno 6908 bound_to 6896
  151.2365  135.0581  159.9062 H   0  0  0  0  0  0  0  0  0  0  0  0  # atno 6909 bound_to 6896
  144.7156  140.0395  143.6437 H   0  0  0  0  0  0  0  0  0  0  0  0  # atno 7974 bound_to 7965
  154.5673  140.2362  155.8244 H   0  0  0  0  0  0  0  0  0  0  0  0  # atno 8008 bound_to 7997
  156.2079  140.3034  155.9625 H   0  0  0  0  0  0  0  0  0  0  0  0  # atno 8009 bound_to 7997
  155.2777  140.0421  157.3003 H   0  0  0  0  0  0  0  0  0  0  0  0  # atno 8010 bound_to 7997
  140.3554  143.2869  151.9677 H   0  0  0  0  0  0  0  0  0  0  0  0  # atno 10167 bound_to 10162
  156.5544  130.8619  151.2790 H   0  0  0  0  0  0  0  0  0  0  0  0  # atno 10718 bound_to 10713
  154.3798  135.2753  155.2218 H   0  0  0  0  0  0  0  0  0  0  0  0  # atno 10763 bound_to 10752
  154.4330  135.5973  153.6084 H   0  0  0  0  0  0  0  0  0  0  0  0  # atno 10764 bound_to 10752
  152.9835  135.6000  154.4039 H   0  0  0  0  0  0  0  0  0  0  0  0  # atno 10765 bound_to 10752
  139.9426  134.7370  156.1059 H   0  0  0  0  0  0  0  0  0  0  0  0  # atno 11005 bound_to 11000
  146.0035  139.3111  143.0913 LP  0  0  0  0  0  0  0  0  0  0  0  0  # atno 17320 bound_to 7965
  145.8765  140.9388  143.0623 LP  0  0  0  0  0  0  0  0  0  0  0  0  # atno 17321 bound_to 7965
  139.4821  144.6039  151.7556 LP  0  0  0  0  0  0  0  0  0  0  0  0  # atno 17342 bound_to 10162
  140.5178  144.0925  150.6013 LP  0  0  0  0  0  0  0  0  0  0  0  0  # atno 17343 bound_to 10162
  157.7381  130.9807  150.2232 LP  0  0  0  0  0  0  0  0  0  0  0  0  # atno 17370 bound_to 10713
  156.2855  130.3739  149.7893 LP  0  0  0  0  0  0  0  0  0  0  0  0  # atno 17371 bound_to 10713
  141.1066  133.6658  156.2879 LP  0  0  0  0  0  0  0  0  0  0  0  0  # atno 17394 bound_to 11000
  140.5913  134.5648  157.5500 LP  0  0  0  0  0  0  0  0  0  0  0  0  # atno 17395 bound_to 11000

$$$$
