#       Name:                AV-unprocessed.smi:1174
#       Creating user name   scv26
#       Creation time:       Fri Mar 27 03:53:32 2020


#       File generated by GOLD software.
#

@<TRIPOS>MOLECULE
AV-unprocessed.smi:1174
    46    47     1
SMALL
NO_CHARGES


@<TRIPOS>ATOM
      1 ****        -3.6614  -0.6923  -1.2372 C.3            1 S1                 0.0000
      2 ****        -2.9595  -0.0950  -0.0079 C.3            1 S1                 0.0000
      3 ****        -3.4379  -0.7626   1.2960 C.3            1 S1                 0.0000
      4 ****        -2.8649  -0.1432   2.4783 N.pl3          1 S1                 0.0000
      5 ****        -1.8331  -0.6013   3.2708 C.2            1 S1                 0.0000
      6 ****        -1.6401   0.3206   4.2591 C.2            1 S1                 0.0000
      7 ****        -2.6156   1.3195   3.9842 C.2            1 S1                 0.0000
      8 ****        -3.3481   1.0383   2.9187 N.2            1 S1                 0.0000
      9 ****        -1.5118  -0.2431  -0.1398 N.am           1 S1                 0.0000
     10 ****        -0.6912   0.6208  -0.7562 C.2            1 S1                 0.0000
     11 ****        -1.0836   1.6407  -1.3234 O.2            1 S1                 0.0000
     12 ****         0.8032   0.2777  -0.7233 C.3            1 S1                 0.0000
     13 ****         1.6221   1.3958  -0.0360 C.3            1 S1                 0.0000
     14 ****         3.1369   1.1262  -0.1183 C.3            1 S1                 0.0000
     15 ****         3.5645   0.8162  -1.5645 C.3            1 S1                 0.0000
     16 ****         2.7690  -0.3201  -2.0598 N.am           1 S1                 0.0000
     17 ****         3.2028  -1.5972  -2.2070 C.2            1 S1                 0.0000
     18 ****         4.5276  -1.7607  -2.1422 N.am           1 S1                 0.0000
     19 ****         2.4582  -2.5522  -2.4222 O.2            1 S1                 0.0000
     20 ****         1.3450   0.0269  -2.1482 C.3            1 S1                 0.0000
     21 ****        -4.7434  -0.5797  -1.1633 H              1 S1                 0.0000
     22 ****        -3.4438  -1.7557  -1.3415 H              1 S1                 0.0000
     23 ****        -3.3434  -0.1953  -2.1542 H              1 S1                 0.0000
     24 ****        -3.2103   0.9663   0.0437 H              1 S1                 0.0000
     25 ****        -4.5246  -0.7034   1.3735 H              1 S1                 0.0000
     26 ****        -3.1832  -1.8234   1.2994 H              1 S1                 0.0000
     27 ****        -1.3260  -1.5327   3.0656 H              1 S1                 0.0000
     28 ****        -0.9130   0.2867   5.0568 H              1 S1                 0.0000
     29 ****        -2.8121   2.2340   4.5241 H              1 S1                 0.0000
     30 ****        -1.0982  -1.0570   0.2913 H              1 S1                 0.0000
     31 ****         0.9321  -0.6398  -0.1454 H              1 S1                 0.0000
     32 ****         1.4134   2.3556  -0.5114 H              1 S1                 0.0000
     33 ****         1.3215   1.4982   1.0076 H              1 S1                 0.0000
     34 ****         3.6895   1.9864   0.2606 H              1 S1                 0.0000
     35 ****         3.3939   0.2841   0.5258 H              1 S1                 0.0000
     36 ****         3.3817   1.6844  -2.1994 H              1 S1                 0.0000
     37 ****         4.6412   0.6525  -1.6040 H              1 S1                 0.0000
     38 ****         4.9274  -2.6823  -2.2410 H              1 S1                 0.0000
     39 ****         5.1230  -0.9592  -1.9926 H              1 S1                 0.0000
     40 ****         0.7603  -0.7476  -2.6481 H              1 S1                 0.0000
     41 ****         1.2332   0.9204  -2.7647 H              1 S1                 0.0000
     42 ****        -4.0925   1.5793   2.5274 LP             1 S1                 0.0000
     43 ****        -2.0592   1.8596  -1.3401 LP             1 S1                 0.0000
     44 ****        -0.4267   2.2500  -1.7674 LP             1 S1                 0.0000
     45 ****         1.4713  -2.4097  -2.4980 LP             1 S1                 0.0000
     46 ****         2.8397  -3.4713  -2.5213 LP             1 S1                 0.0000
@<TRIPOS>BOND
    1    1    2 1     
    2    1   21 1     
    3    1   22 1     
    4    1   23 1     
    5    2    3 1     
    6    2    9 1     
    7    2   24 1     
    8    3    4 1     
    9    3   25 1     
   10    3   26 1     
   11    4    8 1     
   12    4    5 1     
   13    5    6 2     
   14    5   27 1     
   15    6    7 1     
   16    6   28 1     
   17    7    8 2     
   18    7   29 1     
   19    9   10 am    
   20    9   30 1     
   21   10   11 2     
   22   10   12 1     
   23   12   20 1     
   24   12   13 1     
   25   12   31 1     
   26   13   14 1     
   27   13   32 1     
   28   13   33 1     
   29   14   15 1     
   30   14   34 1     
   31   14   35 1     
   32   15   16 1     
   33   15   36 1     
   34   15   37 1     
   35   16   17 am    
   36   16   20 1     
   37   17   18 am    
   38   17   19 2     
   39   18   38 1     
   40   18   39 1     
   41   20   40 1     
   42   20   41 1     
   43    8   42 1     
   44   11   43 1     
   45   11   44 1     
   46   19   45 1     
   47   19   46 1     
@<TRIPOS>SUBSTRUCTURE
      1 S1             1
@<TRIPOS>SET
LONE_PAIRS      STATIC     ATOMS    <user>   **** ""
5 42 43 44 45 46
DONOR_HYDROGENS      STATIC     ATOMS    <user>   **** ""
3 30 38 39
ATOM$BLUE        STATIC     ATOMS    COLORGROUP SYSTEM
5 42 43 44 45 46
ATOM$RED        STATIC     ATOMS    COLORGROUP SYSTEM
3 30 38 39
