AV-unprocessed.smi:1367|AV-procd|sdf|5574|dock3
  -GOLD-   22720 5163D 1   1.00000     0.00000
 Structure written by MMmdl.
 29 29  0  0  0  0  0  0  0  0  2 V2000
  150.7108  135.1094  154.5275 C   0  0  0  0  0  0  0  0  0  0  0  0
  150.8275  136.5902  154.8195 C   0  0  0  0  0  0  0  0  0  0  0  0
  149.8615  137.3677  154.5076 N   0  0  0  0  0  0  0  0  0  0  0  0
  149.9662  138.7431  154.7762 C   0  0  0  0  0  0  0  0  0  0  0  0
  148.7757  139.5924  154.3669 C   0  0  0  0  0  0  0  0  0  0  0  0
  151.0799  139.2641  155.3662 C   0  0  0  0  0  0  0  0  0  0  0  0
  151.2465  140.7537  155.6705 C   0  0  0  0  0  0  0  0  0  0  0  0
  150.9538  141.1757  157.1121 C   0  0  0  0  0  0  0  0  0  0  0  0
  149.8906  141.7322  157.3852 O   0  0  0  0  0  0  0  0  0  0  0  0
  151.8997  140.9029  158.0237 N   0  0  0  0  0  0  0  0  0  0  0  0
  151.8405  141.2632  159.4354 C   0  0  0  0  0  0  0  0  0  0  0  0
  152.9754  142.2231  159.8327 C   0  0  0  0  0  0  0  0  0  0  0  0
  154.1462  141.6155  159.6428 F   0  0  0  0  0  0  0  0  0  0  0  0
  152.9377  143.3212  159.0775 F   0  0  0  0  0  0  0  0  0  0  0  0
  152.8813  142.5703  161.1162 F   0  0  0  0  0  0  0  0  0  0  0  0
  152.1718  138.3344  155.7070 C   0  0  0  0  0  0  0  0  0  0  0  0
  153.2060  138.7548  156.2242 O   0  0  0  0  0  0  0  0  0  0  0  0
  151.9931  137.0145  155.4170 N   0  5  0  0  0  0  0  0  0  0  0  0
  149.8254  134.8954  153.9271 H   0  0  0  0  0  0  0  0  0  0  0  0
  150.6388  134.5465  155.4585 H   0  0  0  0  0  0  0  0  0  0  0  0
  151.5858  134.7599  153.9787 H   0  0  0  0  0  0  0  0  0  0  0  0
  148.3170  140.0533  155.2415 H   0  0  0  0  0  0  0  0  0  0  0  0
  148.0149  138.9916  153.8673 H   0  0  0  0  0  0  0  0  0  0  0  0
  149.0834  140.3797  153.6787 H   0  0  0  0  0  0  0  0  0  0  0  0
  152.2709  141.0410  155.4321 H   0  0  0  0  0  0  0  0  0  0  0  0
  150.6310  141.3582  155.0038 H   0  0  0  0  0  0  0  0  0  0  0  0
  152.7398  140.4398  157.7063 H   0  0  0  0  0  0  0  0  0  0  0  0
  150.8700  141.6981  159.6796 H   0  0  0  0  0  0  0  0  0  0  0  0
  151.9191  140.3436  160.0158 H   0  0  0  0  0  0  0  0  0  0  0  0
  1  2  1  0  0  0  0
  1 19  1  0  0  0  0
  1 20  1  0  0  0  0
  1 21  1  0  0  0  0
  2 18  1  0  0  0  0
  2  3  2  0  0  0  0
  3  4  1  0  0  0  0
  4  5  1  0  0  0  0
  4  6  2  0  0  0  0
  5 22  1  0  0  0  0
  5 23  1  0  0  0  0
  5 24  1  0  0  0  0
  6  7  1  0  0  0  0
  6 16  1  0  0  0  0
  7  8  1  0  0  0  0
  7 25  1  0  0  0  0
  7 26  1  0  0  0  0
  8  9  2  0  0  0  0
  8 10  1  0  0  0  0
 10 11  1  0  0  0  0
 10 27  1  0  0  0  0
 11 12  1  0  0  0  0
 11 28  1  0  0  0  0
 11 29  1  0  0  0  0
 12 13  1  0  0  0  0
 12 14  1  0  0  0  0
 12 15  1  0  0  0  0
 16 17  2  0  0  0  0
 16 18  1  0  0  0  0
M  CHG  1  18  -1
M  END
> <s_m_source_file>
AV-unprocessed.smi

> <i_m_source_file_index>
1367

> <i_lp_mmshare_version>
43012

> <i_f3d_flags>
0

> <s_epik_input>
W0NIM11jMW5jKFtDSDNdKWMoYyg9TylbbkhdMSlbQ0gyXUMoPU8pW05IXVtDSDJdQyhGKShGKUY=

> <s_epik_cmdline>
J2VwaWtfcHl0aG9uJywgJy1waCcsICc3LjAnLCAnLXRuJywgJzgnLCAnLW1hJywgJzIwMCcsICctbWV0YWxfYmluZGluZycsICctaW1hZScsICc8aW5maWxlLm1hZT4nLCAnLW9tYWUnLCAnPG91dGZpbGUubWFlPic=

> <r_lp_tautomer_probability>
0.839158

> <r_epik_Ionization_Penalty>
6.39142

> <r_epik_Ionization_Penalty_Charging>
4.71143e-08

> <r_epik_Ionization_Penalty_Neutral>
6.39142

> <r_epik_State_Penalty>
4.29634

> <r_epik_Charging_Adjusted_Penalty>
4.29634

> <i_epik_Tot_Q>
-1

> <i_epik_Tot_abs_Q>
1

> <r_epik_Metal_State_Penalty>
0.740852

> <b_epik_Metal_Only>
1

> <s_lp_Force_Field>
OPLS_2005

> <r_lp_Energy>
6.28206

> <b_lp_Chiralities_Consistent>
1

> <s_lp_Variant>
AV-unprocessed.smi:1367-3

> <Gold.Version>
5.8.1

> <Gold.Id.Protein>
6NUR|6NUR_protein|mol2

> <Gold.PLP.Fitness>
42.4590

> <Gold.PLP.PLP>
-34.6544

> <Gold.PLP.part.hbond>
-2.0000

> <Gold.PLP.part.metal>
0.0000

> <Gold.PLP.part.buried>
-4.2684

> <Gold.PLP.part.nonpolar>
-30.0070

> <Gold.PLP.part.repulsive>
0.4058

> <Gold.PLP.ligand.clash>
0.0000

> <Gold.PLP.ligand.torsion>
0.5378

> <Gold.PLP.Chemscore.Hbond>
2.9520

> <Gold.PLP.Chemscore.CHOScore>
0.0000

> <Gold.PLP.Chemscore.Metal>
0.0000

> <Gold.Chemscore.Hbonds>
donor molecule, donor type, donor heavy atom, donor atom, acceptor molecule, acceptor atom, score
      P1  H  7997  8009       L1    17  1.00
      P1  H 10752 10763       L1    18  1.50

> <Gold.PLP.Chemscore.Internal.Correction>
0.0242

> <Gold.Rescore>
     Score         DG    S(hbond)    S(metal)    S(lipo)     H(rot)  DE(clash)    DE(int)     intcor
     10.29     -10.93       1.34        0.00      49.17       1.86       0.05       0.59       ----

> <Gold.Chemscore.Fitness>
10.2903

> <Gold.Chemscore.DG>
-10.9285

> <Gold.Chemscore.ZeroCoef>
-5.4800

> <Gold.Chemscore.Hbond>
1.3357

> <Gold.Chemscore.Metal>
0.0000

> <Gold.Chemscore.Lipo>
49.1716

> <Gold.Chemscore.Internal_Hbond>
0.0000

> <Gold.Chemscore.DEClash>
0.0456

> <Gold.Chemscore.DEInternal>
0.5926

> <Gold.Chemscore.Rot>
1.8617

> <Gold.Chemscore.Internal.Correction>
   9.000000E+99

> <Gold.Chemscore.Hbonds>
donor molecule, donor type, donor heavy atom, donor atom, acceptor molecule, acceptor atom, score
      P1  H  7997  8009       L1    17  0.95
      P1  H 10752 10763       L1    18  0.22

> <Gold.Chemscore.Hbond.Weighted>
-4.4614

> <Gold.Chemscore.Metal.Weighted>
-0.0000

> <Gold.Chemscore.Lipo.Weighted>
-5.7531

> <Gold.Chemscore.Internal_Hbond.Weighted>
0.0000

> <Gold.Chemscore.DEClash.Weighted>
0.0456

> <Gold.Chemscore.DEInternal.Weighted>
0.5926

> <Gold.Chemscore.Rot.Weighted>
4.7660

> <Gold.Chemscore.Internal.Correction.Weighted>
   9.000000E+99

> <Gold.Protein.RotatedTorsions>
[ 6907 6896 6895 6894 ] final   26.57 input  -60.11 | X-H torsion
[ 7974 7965 7964 7962 ] final  -98.91 input  175.53 | X-H torsion
[ 8008 7997 7996 7995 ] final -173.80 input   59.86 | X-H torsion
[ 10167 10162 10161 10158 ] final  172.48 input  -65.29 | X-H torsion
[ 10718 10713 10712 10709 ] final  146.62 input   66.30 | X-H torsion
[ 10763 10752 10751 10750 ] final   92.31 input  -60.55 | X-H torsion
[ 11005 11000 10999 10996 ] final   88.78 input  -57.11 | X-H torsion

> <Gold.Protein.ActiveResidues>
 VAL166  LYS551  ARG553  GLY616  TRP617  ASP618  TYR619  PRO620  LYS621  CYS622 
 ASP623  PHE694  ASN695  SER759  ASP760  ASP761  ALA762  ILE779  LEU786  VAL792 
 PHE793  MET794  SER795  GLU796  ALA797  LYS798  CYS799  TRP800  GLU811  SER814 

> <Gold.Protein.RotatedAtoms>
  151.9895  134.9987  160.0560 H   0  0  0  0  0  0  0  0  0  0  0  0  # atno 6907 bound_to 6896
  152.1622  133.4584  159.4875 H   0  0  0  0  0  0  0  0  0  0  0  0  # atno 6908 bound_to 6896
  150.6889  134.1975  159.4352 H   0  0  0  0  0  0  0  0  0  0  0  0  # atno 6909 bound_to 6896
  145.3144  140.9407  143.2751 H   0  0  0  0  0  0  0  0  0  0  0  0  # atno 7974 bound_to 7965
  155.9620  140.1146  157.0887 H   0  0  0  0  0  0  0  0  0  0  0  0  # atno 8008 bound_to 7997
  154.4134  140.1180  156.5258 H   0  0  0  0  0  0  0  0  0  0  0  0  # atno 8009 bound_to 7997
  155.6708  140.3473  155.4820 H   0  0  0  0  0  0  0  0  0  0  0  0  # atno 8010 bound_to 7997
  139.5078  144.3369  152.0056 H   0  0  0  0  0  0  0  0  0  0  0  0  # atno 10167 bound_to 10162
  157.3310  131.0920  151.1162 H   0  0  0  0  0  0  0  0  0  0  0  0  # atno 10718 bound_to 10713
  153.2178  135.4366  155.0454 H   0  0  0  0  0  0  0  0  0  0  0  0  # atno 10763 bound_to 10752
  154.8234  135.3349  154.6972 H   0  0  0  0  0  0  0  0  0  0  0  0  # atno 10764 bound_to 10752
  153.7406  135.7005  153.5024 H   0  0  0  0  0  0  0  0  0  0  0  0  # atno 10765 bound_to 10752
  139.8889  134.8509  156.3048 H   0  0  0  0  0  0  0  0  0  0  0  0  # atno 11005 bound_to 11000
  144.8990  139.4675  143.6642 LP  0  0  0  0  0  0  0  0  0  0  0  0  # atno 17320 bound_to 7965
  146.3106  139.7732  142.9023 LP  0  0  0  0  0  0  0  0  0  0  0  0  # atno 17321 bound_to 7965
  140.2808  144.3862  150.6119 LP  0  0  0  0  0  0  0  0  0  0  0  0  # atno 17342 bound_to 10162
  140.6019  143.2167  151.7055 LP  0  0  0  0  0  0  0  0  0  0  0  0  # atno 17343 bound_to 10162
  157.2411  130.6569  149.5890 LP  0  0  0  0  0  0  0  0  0  0  0  0  # atno 17370 bound_to 10713
  155.9696  130.4568  150.5939 LP  0  0  0  0  0  0  0  0  0  0  0  0  # atno 17371 bound_to 10713
  140.9889  133.7221  156.0784 LP  0  0  0  0  0  0  0  0  0  0  0  0  # atno 17394 bound_to 11000
  140.7651  134.3895  157.5518 LP  0  0  0  0  0  0  0  0  0  0  0  0  # atno 17395 bound_to 11000

$$$$
