AV-unprocessed.smi:1308|AV-procd|sdf|5438|dock4
  -GOLD-   22720 5 03D 1   1.00000     0.00000
 Structure written by MMmdl.
 45 45  0  0  0  0  0  0  0  0  1 V2000
  155.9095  140.1373  163.3237 C   0  0  0  0  0  0  0  0  0  0  0  0
  154.9704  140.7187  162.2887 C   0  0  0  0  0  0  0  0  0  0  0  0
  154.2230  141.7523  162.4935 N   0  0  0  0  0  0  0  0  0  0  0  0
  153.4007  142.2064  161.4534 C   0  0  0  0  0  0  0  0  0  0  0  0
  152.5833  143.4480  161.7640 C   0  0  0  0  0  0  0  0  0  0  0  0
  153.3682  141.5802  160.2400 C   0  0  0  0  0  0  0  0  0  0  0  0
  152.5234  142.0827  159.0677 C   0  0  0  0  0  0  0  0  0  0  0  0
  151.8168  140.9776  158.2823 C   0  0  0  0  0  0  0  0  0  0  0  0
  151.6607  139.8644  158.7827 O   0  0  0  0  0  0  0  0  0  0  0  0
  151.3490  141.3282  157.0741 N   0  0  0  0  0  0  0  0  0  0  0  0
  150.3886  140.5746  156.2736 C   0  0  2  0  0  0  0  0  0  0  0  0
  151.0929  139.3787  155.6187 C   0  0  0  0  0  0  0  0  0  0  0  0
  149.7482  141.5102  155.2278 C   0  0  0  0  0  0  0  0  0  0  0  0
  148.9040  140.7681  154.1700 C   0  0  0  0  0  0  0  0  0  0  0  0
  147.4201  140.5879  154.5441 C   0  0  0  0  0  0  0  0  0  0  0  0
  146.7208  139.5315  153.6712 C   0  0  0  0  0  0  0  0  0  0  0  0
  146.6770  141.9292  154.4479 C   0  0  0  0  0  0  0  0  0  0  0  0
  154.2199  140.3947  160.0211 C   0  0  0  0  0  0  0  0  0  0  0  0
  154.2748  139.7611  158.9686 O   0  0  0  0  0  0  0  0  0  0  0  0
  154.9834  140.0323  161.0761 N   0  0  0  0  0  0  0  0  0  0  0  0
  155.5878  139.2300  160.9745 H   0  0  0  0  0  0  0  0  0  0  0  0
  156.6674  140.8722  163.5959 H   0  0  0  0  0  0  0  0  0  0  0  0
  156.4156  139.2451  162.9524 H   0  0  0  0  0  0  0  0  0  0  0  0
  155.3556  139.8661  164.2226 H   0  0  0  0  0  0  0  0  0  0  0  0
  151.5209  143.2613  161.6084 H   0  0  0  0  0  0  0  0  0  0  0  0
  152.8899  144.2769  161.1259 H   0  0  0  0  0  0  0  0  0  0  0  0
  152.7169  143.7599  162.8006 H   0  0  0  0  0  0  0  0  0  0  0  0
  151.7768  142.8026  159.4045 H   0  0  0  0  0  0  0  0  0  0  0  0
  153.1626  142.6429  158.3851 H   0  0  0  0  0  0  0  0  0  0  0  0
  151.5649  142.2595  156.7482 H   0  0  0  0  0  0  0  0  0  0  0  0
  149.5922  140.1828  156.9085 H   0  0  0  0  0  0  0  0  0  0  0  0
  150.3931  138.7879  155.0270 H   0  0  0  0  0  0  0  0  0  0  0  0
  151.5265  138.7185  156.3706 H   0  0  0  0  0  0  0  0  0  0  0  0
  151.8966  139.7035  154.9570 H   0  0  0  0  0  0  0  0  0  0  0  0
  149.1316  142.2453  155.7454 H   0  0  0  0  0  0  0  0  0  0  0  0
  150.5340  142.0735  154.7233 H   0  0  0  0  0  0  0  0  0  0  0  0
  148.9721  141.3220  153.2328 H   0  0  0  0  0  0  0  0  0  0  0  0
  149.3290  139.7858  153.9664 H   0  0  0  0  0  0  0  0  0  0  0  0
  147.3674  140.2587  155.5827 H   0  0  0  0  0  0  0  0  0  0  0  0
  146.7830  139.7879  152.6132 H   0  0  0  0  0  0  0  0  0  0  0  0
  145.6649  139.4480  153.9297 H   0  0  0  0  0  0  0  0  0  0  0  0
  147.1600  138.5432  153.8018 H   0  0  0  0  0  0  0  0  0  0  0  0
  146.6972  142.3202  153.4298 H   0  0  0  0  0  0  0  0  0  0  0  0
  147.1275  142.6776  155.1004 H   0  0  0  0  0  0  0  0  0  0  0  0
  145.6328  141.8237  154.7435 H   0  0  0  0  0  0  0  0  0  0  0  0
  1  2  1  0  0  0  0
  1 22  1  0  0  0  0
  1 23  1  0  0  0  0
  1 24  1  0  0  0  0
  2 20  1  0  0  0  0
  2  3  2  0  0  0  0
  3  4  1  0  0  0  0
  4  5  1  0  0  0  0
  4  6  2  0  0  0  0
  5 25  1  0  0  0  0
  5 26  1  0  0  0  0
  5 27  1  0  0  0  0
  6  7  1  0  0  0  0
  6 18  1  0  0  0  0
  7  8  1  0  0  0  0
  7 28  1  0  0  0  0
  7 29  1  0  0  0  0
  8  9  2  0  0  0  0
  8 10  1  0  0  0  0
 10 11  1  0  0  0  0
 10 30  1  0  0  0  0
 11 12  1  0  0  0  0
 11 13  1  0  0  0  0
 11 31  1  0  0  0  0
 12 32  1  0  0  0  0
 12 33  1  0  0  0  0
 12 34  1  0  0  0  0
 13 14  1  0  0  0  0
 13 35  1  0  0  0  0
 13 36  1  0  0  0  0
 14 15  1  0  0  0  0
 14 37  1  0  0  0  0
 14 38  1  0  0  0  0
 15 16  1  0  0  0  0
 15 17  1  0  0  0  0
 15 39  1  0  0  0  0
 16 40  1  0  0  0  0
 16 41  1  0  0  0  0
 16 42  1  0  0  0  0
 17 43  1  0  0  0  0
 17 44  1  0  0  0  0
 17 45  1  0  0  0  0
 18 19  2  0  0  0  0
 18 20  1  0  0  0  0
 20 21  1  0  0  0  0
M  END
> <s_m_source_file>
AV-unprocessed.smi

> <i_m_source_file_index>
1308

> <i_lp_mmshare_version>
43012

> <i_f3d_flags>
0

> <s_epik_input>
W0NIM11jMW5jKFtDSDNdKWMoYyg9TylbbkhdMSlbQ0gyXUMoPU8pW05IXVtDQEhdKFtDSDNdKVtDSDJdW0NIMl1bQ0hdKFtDSDNdKVtDSDNd

> <s_epik_cmdline>
J2VwaWtfcHl0aG9uJywgJy1waCcsICc3LjAnLCAnLXRuJywgJzgnLCAnLW1hJywgJzIwMCcsICctbWV0YWxfYmluZGluZycsICctaW1hZScsICc8aW5maWxlLm1hZT4nLCAnLW9tYWUnLCAnPG91dGZpbGUubWFlPic=

> <r_lp_tautomer_probability>
0.839158

> <r_epik_Ionization_Penalty>
0.000390633

> <r_epik_Ionization_Penalty_Charging>
0.00035831

> <r_epik_Ionization_Penalty_Neutral>
3.23235e-05

> <r_epik_State_Penalty>
0.0470222

> <r_epik_Charging_Adjusted_Penalty>
0.0473805

> <i_epik_Tot_Q>
0

> <i_epik_Tot_abs_Q>
0

> <r_epik_Metal_State_Penalty>
0.223807

> <b_epik_Metal_Only>
0

> <s_lp_Force_Field>
OPLS_2005

> <r_lp_Energy>
5.21456

> <b_lp_Chiralities_Consistent>
1

> <s_lp_Variant>
AV-unprocessed.smi:1308-1

> <Gold.Version>
5.8.1

> <Gold.Id.Protein>
6NUR|6NUR_protein|mol2

> <Gold.PLP.Fitness>
42.7350

> <Gold.PLP.PLP>
-41.7052

> <Gold.PLP.part.hbond>
-2.0000

> <Gold.PLP.part.metal>
0.0000

> <Gold.PLP.part.buried>
-0.8296

> <Gold.PLP.part.nonpolar>
-38.0862

> <Gold.PLP.part.repulsive>
0.1136

> <Gold.PLP.ligand.clash>
0.0000

> <Gold.PLP.ligand.torsion>
1.0594

> <Gold.PLP.Chemscore.Hbond>
1.0000

> <Gold.PLP.Chemscore.CHOScore>
0.0000

> <Gold.PLP.Chemscore.Metal>
0.0000

> <Gold.Chemscore.Hbonds>
donor molecule, donor type, donor heavy atom, donor atom, acceptor molecule, acceptor atom, score
      P1  H  7997  8009       L1    19  1.00

> <Gold.PLP.Chemscore.Internal.Correction>
0.1485

> <Gold.Rescore>
     Score         DG    S(hbond)    S(metal)    S(lipo)     H(rot)  DE(clash)    DE(int)     intcor
      9.78     -14.67       1.00        0.00      93.51       1.98       0.03       4.86       ----

> <Gold.Chemscore.Fitness>
9.7806

> <Gold.Chemscore.DG>
-14.6681

> <Gold.Chemscore.ZeroCoef>
-5.4800

> <Gold.Chemscore.Hbond>
0.9955

> <Gold.Chemscore.Metal>
0.0000

> <Gold.Chemscore.Lipo>
93.5125

> <Gold.Chemscore.Internal_Hbond>
0.0000

> <Gold.Chemscore.DEClash>
0.0310

> <Gold.Chemscore.DEInternal>
4.8566

> <Gold.Chemscore.Rot>
1.9835

> <Gold.Chemscore.Internal.Correction>
   9.000000E+99

> <Gold.Chemscore.Hbonds>
donor molecule, donor type, donor heavy atom, donor atom, acceptor molecule, acceptor atom, score
      P1  H  7997  8009       L1    19  0.97

> <Gold.Chemscore.Hbond.Weighted>
-3.3249

> <Gold.Chemscore.Metal.Weighted>
-0.0000

> <Gold.Chemscore.Lipo.Weighted>
-10.9410

> <Gold.Chemscore.Internal_Hbond.Weighted>
0.0000

> <Gold.Chemscore.DEClash.Weighted>
0.0310

> <Gold.Chemscore.DEInternal.Weighted>
4.8566

> <Gold.Chemscore.Rot.Weighted>
5.0778

> <Gold.Chemscore.Internal.Correction.Weighted>
   9.000000E+99

> <Gold.Protein.RotatedTorsions>
[ 6907 6896 6895 6894 ] final -152.72 input  -60.11 | X-H torsion
[ 7974 7965 7964 7962 ] final  152.98 input  175.53 | X-H torsion
[ 8008 7997 7996 7995 ] final  140.65 input   59.86 | X-H torsion
[ 10167 10162 10161 10158 ] final -144.03 input  -65.29 | X-H torsion
[ 10718 10713 10712 10709 ] final  -62.26 input   66.30 | X-H torsion
[ 10763 10752 10751 10750 ] final   84.21 input  -60.55 | X-H torsion
[ 11005 11000 10999 10996 ] final   63.91 input  -57.11 | X-H torsion

> <Gold.Protein.ActiveResidues>
 VAL166  LYS551  ARG553  GLY616  TRP617  ASP618  TYR619  PRO620  LYS621  CYS622 
 ASP623  PHE694  ASN695  SER759  ASP760  ASP761  ALA762  ILE779  LEU786  VAL792 
 PHE793  MET794  SER795  GLU796  ALA797  LYS798  CYS799  TRP800  GLU811  SER814 

> <Gold.Protein.RotatedAtoms>
  151.2320  133.4445  159.2603 H   0  0  0  0  0  0  0  0  0  0  0  0  # atno 6907 bound_to 6896
  151.0786  134.9844  159.8354 H   0  0  0  0  0  0  0  0  0  0  0  0  # atno 6908 bound_to 6896
  152.5421  134.2261  159.8859 H   0  0  0  0  0  0  0  0  0  0  0  0  # atno 6909 bound_to 6896
  144.8185  139.6740  143.6110 H   0  0  0  0  0  0  0  0  0  0  0  0  # atno 7974 bound_to 7965
  156.2976  140.2336  156.4436 H   0  0  0  0  0  0  0  0  0  0  0  0  # atno 8008 bound_to 7997
  154.8164  140.0440  157.1400 H   0  0  0  0  0  0  0  0  0  0  0  0  # atno 8009 bound_to 7997
  154.9365  140.3023  155.5145 H   0  0  0  0  0  0  0  0  0  0  0  0  # atno 8010 bound_to 7997
  139.7937  143.7930  152.2652 H   0  0  0  0  0  0  0  0  0  0  0  0  # atno 10167 bound_to 10162
  156.0867  130.4207  150.1110 H   0  0  0  0  0  0  0  0  0  0  0  0  # atno 10718 bound_to 10713
  153.1361  135.4663  154.9424 H   0  0  0  0  0  0  0  0  0  0  0  0  # atno 10763 bound_to 10752
  154.7707  135.3158  154.8198 H   0  0  0  0  0  0  0  0  0  0  0  0  # atno 10764 bound_to 10752
  153.8730  135.6901  153.4827 H   0  0  0  0  0  0  0  0  0  0  0  0  # atno 10765 bound_to 10752
  139.9993  134.6467  155.9957 H   0  0  0  0  0  0  0  0  0  0  0  0  # atno 11005 bound_to 11000
  146.2490  139.6159  142.9440 LP  0  0  0  0  0  0  0  0  0  0  0  0  # atno 17320 bound_to 7965
  145.5158  141.0434  143.2463 LP  0  0  0  0  0  0  0  0  0  0  0  0  # atno 17321 bound_to 7965
  139.8029  144.7367  150.9800 LP  0  0  0  0  0  0  0  0  0  0  0  0  # atno 17342 bound_to 10162
  140.7820  143.4327  151.0670 LP  0  0  0  0  0  0  0  0  0  0  0  0  # atno 17343 bound_to 10162
  156.9129  130.9657  151.3560 LP  0  0  0  0  0  0  0  0  0  0  0  0  # atno 17370 bound_to 10713
  157.6003  130.8508  149.8792 LP  0  0  0  0  0  0  0  0  0  0  0  0  # atno 17371 bound_to 10713
  141.1629  133.6538  156.4381 LP  0  0  0  0  0  0  0  0  0  0  0  0  # atno 17394 bound_to 11000
  140.4758  134.6711  157.5149 LP  0  0  0  0  0  0  0  0  0  0  0  0  # atno 17395 bound_to 11000

$$$$
