AV-unprocessed.smi:2568|AV-procd|sdf|10096|dock6
  -GOLD-   2272014113D 1   1.00000     0.00000
 Structure written by MMmdl.
 24 25  0  0  0  0  0  0  0  0  1 V2000
  152.7971  138.3989  154.7521 C   0  0  0  0  0  0  0  0  0  0  0  0
  152.0842  139.4971  155.4651 C   0  0  0  0  0  0  0  0  0  0  0  0
  150.9963  140.0661  154.9488 N   0  0  0  0  0  0  0  0  0  0  0  0
  150.6840  140.9792  155.8923 N   0  0  0  0  0  0  0  0  0  0  0  0
  151.5685  140.9074  156.8895 C   0  0  0  0  0  0  0  0  0  0  0  0
  151.4913  141.8066  158.0829 C   0  0  2  0  0  0  0  0  0  0  0  0
  151.5123  143.2988  157.6972 C   0  0  0  0  0  0  0  0  0  0  0  0
  151.5195  144.1310  158.8990 N   0  0  0  0  0  0  0  0  0  0  0  0
  152.6309  143.7756  159.7802 C   0  0  0  0  0  0  0  0  0  0  0  0
  152.5938  142.2722  160.1101 C   0  0  0  0  0  0  0  0  0  0  0  0
  152.6196  141.5166  158.9038 O   0  0  0  0  0  0  0  0  0  0  0  0
  152.4966  139.9786  156.6761 N   0  0  0  0  0  0  0  0  0  0  0  0
  149.8920  141.6016  155.8179 H   0  0  0  0  0  0  0  0  0  0  0  0
  152.4420  138.3062  153.7252 H   0  0  0  0  0  0  0  0  0  0  0  0
  152.6310  137.4502  155.2625 H   0  0  0  0  0  0  0  0  0  0  0  0
  153.8690  138.5970  154.7285 H   0  0  0  0  0  0  0  0  0  0  0  0
  150.5762  141.5737  158.6312 H   0  0  0  0  0  0  0  0  0  0  0  0
  152.3969  143.5123  157.0958 H   0  0  0  0  0  0  0  0  0  0  0  0
  150.6466  143.5402  157.0799 H   0  0  0  0  0  0  0  0  0  0  0  0
  151.5943  145.1085  158.6354 H   0  0  0  0  0  0  0  0  0  0  0  0
  153.5786  144.0205  159.2993 H   0  0  0  0  0  0  0  0  0  0  0  0
  152.5840  144.3630  160.6974 H   0  0  0  0  0  0  0  0  0  0  0  0
  153.4592  142.0002  160.7146 H   0  0  0  0  0  0  0  0  0  0  0  0
  151.7067  142.0212  160.6941 H   0  0  0  0  0  0  0  0  0  0  0  0
  1  2  1  0  0  0  0
  1 14  1  0  0  0  0
  1 15  1  0  0  0  0
  1 16  1  0  0  0  0
  2 12  1  0  0  0  0
  2  3  2  0  0  0  0
  3  4  1  0  0  0  0
  4 13  1  0  0  0  0
  4  5  1  0  0  0  0
  5  6  1  0  0  0  0
  5 12  2  0  0  0  0
  6 11  1  0  0  0  0
  6  7  1  0  0  0  0
  6 17  1  0  0  0  0
  7  8  1  0  0  0  0
  7 18  1  0  0  0  0
  7 19  1  0  0  0  0
  8  9  1  0  0  0  0
  8 20  1  0  0  0  0
  9 10  1  0  0  0  0
  9 21  1  0  0  0  0
  9 22  1  0  0  0  0
 10 11  1  0  0  0  0
 10 23  1  0  0  0  0
 10 24  1  0  0  0  0
M  END
> <s_m_source_file>
AV-unprocessed.smi

> <i_m_source_file_index>
2568

> <i_lp_mmshare_version>
43012

> <i_f3d_flags>
0

> <s_epik_input>
W0NIM11jMW5bbkhdYyhuMSlbQ0BASF0yW0NIMl1bTkhdW0NIMl1bQ0gyXU8y

> <s_epik_cmdline>
J2VwaWtfcHl0aG9uJywgJy1waCcsICc3LjAnLCAnLXRuJywgJzgnLCAnLW1hJywgJzIwMCcsICctbWV0YWxfYmluZGluZycsICctaW1hZScsICc8aW5maWxlLm1hZT4nLCAnLW9tYWUnLCAnPG91dGZpbGUubWFlPic=

> <r_lp_tautomer_probability>
0.948284

> <r_epik_Ionization_Penalty>
0.982563

> <r_epik_Ionization_Penalty_Charging>
0

> <r_epik_Ionization_Penalty_Neutral>
0.982563

> <r_epik_State_Penalty>
2.21233

> <r_epik_Charging_Adjusted_Penalty>
2.21233

> <i_epik_Tot_Q>
0

> <i_epik_Tot_abs_Q>
0

> <r_epik_Metal_State_Penalty>
2.51138

> <b_epik_Metal_Only>
0

> <s_lp_Force_Field>
OPLS_2005

> <r_lp_Energy>
12.795

> <b_lp_Chiralities_Consistent>
1

> <s_lp_Variant>
AV-unprocessed.smi:2568-9

> <Gold.Version>
5.8.1

> <Gold.Id.Protein>
6NUR|6NUR_protein|mol2

> <Gold.PLP.Fitness>
31.7997

> <Gold.PLP.PLP>
-25.8345

> <Gold.PLP.part.hbond>
-2.0000

> <Gold.PLP.part.metal>
0.0000

> <Gold.PLP.part.buried>
-4.4414

> <Gold.PLP.part.nonpolar>
-19.5054

> <Gold.PLP.part.repulsive>
0.1786

> <Gold.PLP.ligand.clash>
0.0000

> <Gold.PLP.ligand.torsion>
0.0179

> <Gold.PLP.Chemscore.Hbond>
2.0000

> <Gold.PLP.Chemscore.CHOScore>
0.0000

> <Gold.PLP.Chemscore.Metal>
0.0000

> <Gold.Chemscore.Hbonds>
donor molecule, donor type, donor heavy atom, donor atom, acceptor molecule, acceptor atom, score
      P1  H  7989  7998       L1     3  1.00
      P1  H  7997  8010       L1    12  1.00

> <Gold.PLP.Chemscore.Internal.Correction>
0.0009

> <Gold.Rescore>
     Score         DG    S(hbond)    S(metal)    S(lipo)     H(rot)  DE(clash)    DE(int)     intcor
     12.04     -12.08       0.93        0.00      51.58       1.00       0.01       0.03       ----

> <Gold.Chemscore.Fitness>
12.0429

> <Gold.Chemscore.DG>
-12.0775

> <Gold.Chemscore.ZeroCoef>
-5.4800

> <Gold.Chemscore.Hbond>
0.9349

> <Gold.Chemscore.Metal>
0.0000

> <Gold.Chemscore.Lipo>
51.5817

> <Gold.Chemscore.Internal_Hbond>
0.0000

> <Gold.Chemscore.DEClash>
0.0075

> <Gold.Chemscore.DEInternal>
0.0271

> <Gold.Chemscore.Rot>
1.0000

> <Gold.Chemscore.Internal.Correction>
   9.000000E+99

> <Gold.Chemscore.Hbonds>
donor molecule, donor type, donor heavy atom, donor atom, acceptor molecule, acceptor atom, score
      P1  H  7989  7998       L1     3  0.26
      P1  H  7997  8010       L1    12  0.45

> <Gold.Chemscore.Hbond.Weighted>
-3.1224

> <Gold.Chemscore.Metal.Weighted>
-0.0000

> <Gold.Chemscore.Lipo.Weighted>
-6.0351

> <Gold.Chemscore.Internal_Hbond.Weighted>
0.0000

> <Gold.Chemscore.DEClash.Weighted>
0.0075

> <Gold.Chemscore.DEInternal.Weighted>
0.0271

> <Gold.Chemscore.Rot.Weighted>
2.5600

> <Gold.Chemscore.Internal.Correction.Weighted>
   9.000000E+99

> <Gold.Protein.RotatedTorsions>
[ 6907 6896 6895 6894 ] final -154.72 input  -60.11 | X-H torsion
[ 7974 7965 7964 7962 ] final  169.28 input  175.53 | X-H torsion
[ 8008 7997 7996 7995 ] final   69.04 input   59.86 | X-H torsion
[ 10167 10162 10161 10158 ] final  126.61 input  -65.29 | X-H torsion
[ 10718 10713 10712 10709 ] final -168.36 input   66.30 | X-H torsion
[ 10763 10752 10751 10750 ] final -176.95 input  -60.55 | X-H torsion
[ 11005 11000 10999 10996 ] final -133.93 input  -57.11 | X-H torsion

> <Gold.Protein.ActiveResidues>
 VAL166  LYS551  ARG553  GLY616  TRP617  ASP618  TYR619  PRO620  LYS621  CYS622 
 ASP623  PHE694  ASN695  SER759  ASP760  ASP761  ALA762  ILE779  LEU786  VAL792 
 PHE793  MET794  SER795  GLU796  ALA797  LYS798  CYS799  TRP800  GLU811  SER814 

> <Gold.Protein.RotatedAtoms>
  151.2618  133.4298  159.2616 H   0  0  0  0  0  0  0  0  0  0  0  0  # atno 6907 bound_to 6896
  151.0524  134.9682  159.8228 H   0  0  0  0  0  0  0  0  0  0  0  0  # atno 6908 bound_to 6896
  152.5385  134.2571  159.8974 H   0  0  0  0  0  0  0  0  0  0  0  0  # atno 6909 bound_to 6896
  144.7360  139.9031  143.6410 H   0  0  0  0  0  0  0  0  0  0  0  0  # atno 7974 bound_to 7965
  155.7175  140.3493  155.5001 H   0  0  0  0  0  0  0  0  0  0  0  0  # atno 8008 bound_to 7997
  155.9300  140.1082  157.1162 H   0  0  0  0  0  0  0  0  0  0  0  0  # atno 8009 bound_to 7997
  154.4083  140.1233  156.4776 H   0  0  0  0  0  0  0  0  0  0  0  0  # atno 8010 bound_to 7997
  139.5622  144.6889  151.4011 H   0  0  0  0  0  0  0  0  0  0  0  0  # atno 10167 bound_to 10162
  156.6957  130.9177  151.3074 H   0  0  0  0  0  0  0  0  0  0  0  0  # atno 10718 bound_to 10713
  154.5661  135.2824  155.0872 H   0  0  0  0  0  0  0  0  0  0  0  0  # atno 10763 bound_to 10752
  154.2262  135.6382  153.5164 H   0  0  0  0  0  0  0  0  0  0  0  0  # atno 10764 bound_to 10752
  153.0043  135.5526  154.6270 H   0  0  0  0  0  0  0  0  0  0  0  0  # atno 10765 bound_to 10752
  140.9036  134.1659  157.4442 H   0  0  0  0  0  0  0  0  0  0  0  0  # atno 11005 bound_to 11000
  146.1056  139.4056  143.0319 LP  0  0  0  0  0  0  0  0  0  0  0  0  # atno 17320 bound_to 7965
  145.7516  140.9970  143.1247 LP  0  0  0  0  0  0  0  0  0  0  0  0  # atno 17321 bound_to 7965
  140.6903  143.7878  150.7245 LP  0  0  0  0  0  0  0  0  0  0  0  0  # atno 17342 bound_to 10162
  140.1358  143.4485  152.2225 LP  0  0  0  0  0  0  0  0  0  0  0  0  # atno 17343 bound_to 10162
  157.6992  130.9314  150.0734 LP  0  0  0  0  0  0  0  0  0  0  0  0  # atno 17370 bound_to 10713
  156.1765  130.3648  149.9093 LP  0  0  0  0  0  0  0  0  0  0  0  0  # atno 17371 bound_to 10713
  139.8746  134.9908  156.5519 LP  0  0  0  0  0  0  0  0  0  0  0  0  # atno 17394 bound_to 11000
  140.8199  133.8362  155.8886 LP  0  0  0  0  0  0  0  0  0  0  0  0  # atno 17395 bound_to 11000

$$$$
