AV-unprocessed.smi:671|AV-procd|sdf|3280|dock5
  -GOLD-   22720 0243D 1   1.00000     0.00000
 Structure written by MMmdl.
 49 50  0  0  0  0  0  0  0  0  1 V2000
  151.6722  140.5918  157.1929 C   0  0  0  0  0  0  0  0  0  0  0  0
  152.2078  141.0457  158.5207 C   0  0  0  0  0  0  0  0  0  0  0  0
  152.9715  140.2265  159.2244 N   0  0  0  0  0  0  0  0  0  0  0  0
  153.2820  140.9168  160.3399 N   0  0  0  0  0  0  0  0  0  0  0  0
  154.1221  140.2968  161.3463 C   0  0  0  0  0  0  0  0  0  0  0  0
  152.7079  142.1731  160.3440 C   0  0  0  0  0  0  0  0  0  0  0  0
  152.8954  143.1343  161.4737 C   0  0  0  0  0  0  0  0  0  0  0  0
  152.0049  142.2960  159.1755 C   0  0  0  0  0  0  0  0  0  0  0  0
  151.2009  143.4735  158.6877 C   0  0  0  0  0  0  0  0  0  0  0  0
  150.6902  144.3563  159.8480 C   0  0  1  0  0  0  0  0  0  0  0  0
  151.6198  145.5459  160.1355 C   0  0  0  0  0  0  0  0  0  0  0  0
  149.3481  144.8656  159.5552 N   0  0  0  0  0  0  0  0  0  0  0  0
  148.2616  144.8514  160.3494 C   0  0  0  0  0  0  0  0  0  0  0  0
  148.2953  144.3872  161.4873 O   0  0  0  0  0  0  0  0  0  0  0  0
  147.1622  145.3958  159.8019 N   0  0  0  0  0  0  0  0  0  0  0  0
  145.8566  145.5067  160.4446 C   0  0  1  0  0  0  0  0  0  0  0  0
  144.8653  146.2146  159.5032 C   0  0  0  0  0  0  0  0  0  0  0  0
  143.9226  145.1257  158.9940 C   0  0  0  0  0  0  0  0  0  0  0  0
  143.8358  144.1462  160.1594 C   0  0  0  0  0  0  0  0  0  0  0  0
  145.2565  144.1109  160.7341 C   0  0  2  0  0  0  0  0  0  0  0  0
  145.2996  143.7158  162.2164 C   0  0  0  0  0  0  0  0  0  0  0  0
  150.6380  140.2605  157.2845 H   0  0  0  0  0  0  0  0  0  0  0  0
  152.2526  139.7631  156.7864 H   0  0  0  0  0  0  0  0  0  0  0  0
  151.6984  141.3994  156.4617 H   0  0  0  0  0  0  0  0  0  0  0  0
  153.5044  139.9543  162.1763 H   0  0  0  0  0  0  0  0  0  0  0  0
  154.8509  141.0175  161.7173 H   0  0  0  0  0  0  0  0  0  0  0  0
  154.6577  139.4445  160.9260 H   0  0  0  0  0  0  0  0  0  0  0  0
  152.2693  144.0171  161.3490 H   0  0  0  0  0  0  0  0  0  0  0  0
  153.9321  143.4662  161.5309 H   0  0  0  0  0  0  0  0  0  0  0  0
  152.6332  142.6727  162.4258 H   0  0  0  0  0  0  0  0  0  0  0  0
  151.7858  144.0859  158.0006 H   0  0  0  0  0  0  0  0  0  0  0  0
  150.3569  143.1162  158.0971 H   0  0  0  0  0  0  0  0  0  0  0  0
  150.6445  143.7578  160.7595 H   0  0  0  0  0  0  0  0  0  0  0  0
  152.6156  145.2124  160.4285 H   0  0  0  0  0  0  0  0  0  0  0  0
  151.2319  146.1583  160.9502 H   0  0  0  0  0  0  0  0  0  0  0  0
  151.7278  146.1870  159.2599 H   0  0  0  0  0  0  0  0  0  0  0  0
  149.2426  145.3271  158.6630 H   0  0  0  0  0  0  0  0  0  0  0  0
  147.2354  145.7567  158.8621 H   0  0  0  0  0  0  0  0  0  0  0  0
  145.9417  146.0949  161.3603 H   0  0  0  0  0  0  0  0  0  0  0  0
  144.2900  146.9444  160.0741 H   0  0  0  0  0  0  0  0  0  0  0  0
  145.3483  146.7571  158.6893 H   0  0  0  0  0  0  0  0  0  0  0  0
  142.9488  145.5169  158.6989 H   0  0  0  0  0  0  0  0  0  0  0  0
  144.3625  144.6305  158.1273 H   0  0  0  0  0  0  0  0  0  0  0  0
  143.1366  144.5307  160.9034 H   0  0  0  0  0  0  0  0  0  0  0  0
  143.4842  143.1609  159.8523 H   0  0  0  0  0  0  0  0  0  0  0  0
  145.8120  143.3610  160.1676 H   0  0  0  0  0  0  0  0  0  0  0  0
  144.7490  144.4264  162.8330 H   0  0  0  0  0  0  0  0  0  0  0  0
  146.3261  143.6836  162.5815 H   0  0  0  0  0  0  0  0  0  0  0  0
  144.8615  142.7295  162.3712 H   0  0  0  0  0  0  0  0  0  0  0  0
  1  2  1  0  0  0  0
  1 22  1  0  0  0  0
  1 23  1  0  0  0  0
  1 24  1  0  0  0  0
  2  8  1  0  0  0  0
  2  3  2  0  0  0  0
  3  4  1  0  0  0  0
  4  5  1  0  0  0  0
  4  6  1  0  0  0  0
  5 25  1  0  0  0  0
  5 26  1  0  0  0  0
  5 27  1  0  0  0  0
  6  7  1  0  0  0  0
  6  8  2  0  0  0  0
  7 28  1  0  0  0  0
  7 29  1  0  0  0  0
  7 30  1  0  0  0  0
  8  9  1  0  0  0  0
  9 10  1  0  0  0  0
  9 31  1  0  0  0  0
  9 32  1  0  0  0  0
 10 11  1  0  0  0  0
 10 12  1  0  0  0  0
 10 33  1  0  0  0  0
 11 34  1  0  0  0  0
 11 35  1  0  0  0  0
 11 36  1  0  0  0  0
 12 13  1  0  0  0  0
 12 37  1  0  0  0  0
 13 14  2  0  0  0  0
 13 15  1  0  0  0  0
 15 16  1  0  0  0  0
 15 38  1  0  0  0  0
 16 20  1  0  0  0  0
 16 17  1  0  0  0  0
 16 39  1  0  0  0  0
 17 18  1  0  0  0  0
 17 40  1  0  0  0  0
 17 41  1  0  0  0  0
 18 19  1  0  0  0  0
 18 42  1  0  0  0  0
 18 43  1  0  0  0  0
 19 20  1  0  0  0  0
 19 44  1  0  0  0  0
 19 45  1  0  0  0  0
 20 21  1  0  0  0  0
 20 46  1  0  0  0  0
 21 47  1  0  0  0  0
 21 48  1  0  0  0  0
 21 49  1  0  0  0  0
M  END
> <s_m_source_file>
AV-unprocessed.smi

> <i_m_source_file_index>
671

> <i_lp_mmshare_version>
43012

> <i_f3d_flags>
0

> <s_epik_input>
W0NIM11jMW5uKFtDSDNdKWMoW0NIM10pYzFbQ0gyXVtDQEhdKFtDSDNdKVtOSF1DKD1PKVtOSF1bQ0BASF0yW0NIMl1bQ0gyXVtDSDJdW0NASF0yW0NIM10=

> <s_epik_cmdline>
J2VwaWtfcHl0aG9uJywgJy1waCcsICc3LjAnLCAnLXRuJywgJzgnLCAnLW1hJywgJzIwMCcsICctbWV0YWxfYmluZGluZycsICctaW1hZScsICc8aW5maWxlLm1hZT4nLCAnLW9tYWUnLCAnPG91dGZpbGUubWFlPic=

> <r_lp_tautomer_probability>
1

> <r_epik_Ionization_Penalty>
0.0126855

> <r_epik_Ionization_Penalty_Charging>
0

> <r_epik_Ionization_Penalty_Neutral>
0.0126855

> <r_epik_State_Penalty>
0.00977547

> <r_epik_Charging_Adjusted_Penalty>
0.00977547

> <i_epik_Tot_Q>
0

> <i_epik_Tot_abs_Q>
0

> <r_epik_Metal_State_Penalty>
0.00957132

> <b_epik_Metal_Only>
0

> <s_lp_Force_Field>
OPLS_2005

> <r_lp_Energy>
22.0213

> <b_lp_Chiralities_Consistent>
1

> <s_lp_Variant>
AV-unprocessed.smi:671-8

> <Gold.Version>
5.8.1

> <Gold.Id.Protein>
6NUR|6NUR_protein|mol2

> <Gold.PLP.Fitness>
50.6968

> <Gold.PLP.PLP>
-44.2485

> <Gold.PLP.part.hbond>
-3.0000

> <Gold.PLP.part.metal>
0.0000

> <Gold.PLP.part.buried>
-8.5904

> <Gold.PLP.part.nonpolar>
-34.2406

> <Gold.PLP.part.repulsive>
0.5222

> <Gold.PLP.ligand.clash>
0.0057

> <Gold.PLP.ligand.torsion>
1.0111

> <Gold.PLP.Chemscore.Hbond>
2.8080

> <Gold.PLP.Chemscore.CHOScore>
0.0000

> <Gold.PLP.Chemscore.Metal>
0.0000

> <Gold.Chemscore.Hbonds>
donor molecule, donor type, donor heavy atom, donor atom, acceptor molecule, acceptor atom, score
      L1  H    12    37       P1  8029  0.90
      L1  H    15    38       P1  8029  1.00
      P1  H  6933  6944       L1    14  0.91

> <Gold.PLP.Chemscore.Internal.Correction>
0.0523

> <Gold.Rescore>
     Score         DG    S(hbond)    S(metal)    S(lipo)     H(rot)  DE(clash)    DE(int)     intcor
     22.09     -24.13       2.69        0.00     114.43       1.45       0.00       2.03       ----

> <Gold.Chemscore.Fitness>
22.0905

> <Gold.Chemscore.DG>
-24.1258

> <Gold.Chemscore.ZeroCoef>
-5.4800

> <Gold.Chemscore.Hbond>
2.6853

> <Gold.Chemscore.Metal>
0.0000

> <Gold.Chemscore.Lipo>
114.4337

> <Gold.Chemscore.Internal_Hbond>
0.0000

> <Gold.Chemscore.DEClash>
0.0021

> <Gold.Chemscore.DEInternal>
2.0331

> <Gold.Chemscore.Rot>
1.4499

> <Gold.Chemscore.Internal.Correction>
   9.000000E+99

> <Gold.Chemscore.Hbonds>
donor molecule, donor type, donor heavy atom, donor atom, acceptor molecule, acceptor atom, score
      L1  H    12    37       P1  8029  0.80
      L1  H    15    38       P1  8029  0.99
      P1  H  6933  6944       L1    14  0.68

> <Gold.Chemscore.Hbond.Weighted>
-8.9689

> <Gold.Chemscore.Metal.Weighted>
-0.0000

> <Gold.Chemscore.Lipo.Weighted>
-13.3887

> <Gold.Chemscore.Internal_Hbond.Weighted>
0.0000

> <Gold.Chemscore.DEClash.Weighted>
0.0021

> <Gold.Chemscore.DEInternal.Weighted>
2.0331

> <Gold.Chemscore.Rot.Weighted>
3.7118

> <Gold.Chemscore.Internal.Correction.Weighted>
   9.000000E+99

> <Gold.Protein.RotatedTorsions>
[ 6907 6896 6895 6894 ] final -148.13 input  -60.11 | X-H torsion
[ 7974 7965 7964 7962 ] final  -68.52 input  175.53 | X-H torsion
[ 8008 7997 7996 7995 ] final   71.45 input   59.86 | X-H torsion
[ 10167 10162 10161 10158 ] final   85.00 input  -65.29 | X-H torsion
[ 10718 10713 10712 10709 ] final  -91.41 input   66.30 | X-H torsion
[ 10763 10752 10751 10750 ] final  175.17 input  -60.55 | X-H torsion
[ 11005 11000 10999 10996 ] final  -36.77 input  -57.11 | X-H torsion

> <Gold.Protein.ActiveResidues>
 VAL166  LYS551  ARG553  GLY616  TRP617  ASP618  TYR619  PRO620  LYS621  CYS622 
 ASP623  PHE694  ASN695  SER759  ASP760  ASP761  ALA762  ILE779  LEU786  VAL792 
 PHE793  MET794  SER795  GLU796  ALA797  LYS798  CYS799  TRP800  GLU811  SER814 

> <Gold.Protein.RotatedAtoms>
  151.1655  133.4817  159.2593 H   0  0  0  0  0  0  0  0  0  0  0  0  # atno 6907 bound_to 6896
  151.1410  135.0179  159.8635 H   0  0  0  0  0  0  0  0  0  0  0  0  # atno 6908 bound_to 6896
  152.5462  134.1549  159.8587 H   0  0  0  0  0  0  0  0  0  0  0  0  # atno 6909 bound_to 6896
  145.7154  140.9061  143.0658 H   0  0  0  0  0  0  0  0  0  0  0  0  # atno 7974 bound_to 7965
  155.7540  140.3488  155.5164 H   0  0  0  0  0  0  0  0  0  0  0  0  # atno 8008 bound_to 7997
  155.8977  140.1029  157.1393 H   0  0  0  0  0  0  0  0  0  0  0  0  # atno 8009 bound_to 7997
  154.4040  140.1292  156.4384 H   0  0  0  0  0  0  0  0  0  0  0  0  # atno 8010 bound_to 7997
  139.9023  144.6322  150.8624 H   0  0  0  0  0  0  0  0  0  0  0  0  # atno 10167 bound_to 10162
  155.9993  130.4947  150.5470 H   0  0  0  0  0  0  0  0  0  0  0  0  # atno 10718 bound_to 10713
  154.4639  135.2768  155.1692 H   0  0  0  0  0  0  0  0  0  0  0  0  # atno 10763 bound_to 10752
  154.3469  135.6158  153.5627 H   0  0  0  0  0  0  0  0  0  0  0  0  # atno 10764 bound_to 10752
  152.9857  135.5802  154.5007 H   0  0  0  0  0  0  0  0  0  0  0  0  # atno 10765 bound_to 10752
  140.9901  133.7010  156.1834 H   0  0  0  0  0  0  0  0  0  0  0  0  # atno 11005 bound_to 11000
  144.6931  139.9131  143.7464 LP  0  0  0  0  0  0  0  0  0  0  0  0  # atno 17320 bound_to 7965
  146.0674  139.3665  143.0544 LP  0  0  0  0  0  0  0  0  0  0  0  0  # atno 17321 bound_to 7965
  140.7704  143.3427  151.2174 LP  0  0  0  0  0  0  0  0  0  0  0  0  # atno 17342 bound_to 10162
  139.7014  143.9526  152.2907 LP  0  0  0  0  0  0  0  0  0  0  0  0  # atno 17343 bound_to 10162
  157.3399  131.0715  151.1796 LP  0  0  0  0  0  0  0  0  0  0  0  0  # atno 17370 bound_to 10713
  157.2648  130.6676  149.5991 LP  0  0  0  0  0  0  0  0  0  0  0  0  # atno 17371 bound_to 10713
  140.7054  134.4519  157.5584 LP  0  0  0  0  0  0  0  0  0  0  0  0  # atno 17394 bound_to 11000
  139.8988  134.8605  156.1986 LP  0  0  0  0  0  0  0  0  0  0  0  0  # atno 17395 bound_to 11000

$$$$
