AV-unprocessed.smi:3349|AV-procd|sdf|12937|dock8
  -GOLD-   2272019373D 1   1.00000     0.00000
 Structure written by MMmdl.
 41 42  0  0  0  0  0  0  0  0  2 V2000
  148.9437  135.0020  155.6000 C   0  0  0  0  0  0  0  0  0  0  0  0
  148.1790  136.2866  155.1976 C   0  0  2  0  0  0  0  0  0  0  0  0
  146.9382  135.9229  154.3313 C   0  0  0  0  0  0  0  0  0  0  0  0
  147.1720  134.7990  153.4283 N   0  0  0  0  0  0  0  0  0  0  0  0
  146.3622  133.7357  153.2964 C   0  0  0  0  0  0  0  0  0  0  0  0
  145.3229  133.6015  153.9432 O   0  0  0  0  0  0  0  0  0  0  0  0
  146.7990  132.6677  152.2821 C   0  0  1  0  0  0  0  0  0  0  0  0
  147.0823  131.3038  152.9439 C   0  0  0  0  0  0  0  0  0  0  0  0
  145.8226  132.5679  151.2044 N   0  0  0  0  0  0  0  0  0  0  0  0
  145.8465  131.8303  150.0920 C   0  0  0  0  0  0  0  0  0  0  0  0
  144.8036  132.0204  149.2962 N   0  0  0  0  0  0  0  0  0  0  0  0
  144.1315  132.9618  150.0227 C   0  0  0  0  0  0  0  0  0  0  0  0
  144.7036  133.3339  151.1675 N   0  0  0  0  0  0  0  0  0  0  0  0
  149.0922  137.2723  154.5268 N   0  3  0  0  0  0  0  0  0  0  0  0
  148.5277  138.6452  154.3939 C   0  0  0  0  0  0  0  0  0  0  0  0
  149.5184  139.6023  153.7090 C   0  0  0  0  0  0  0  0  0  0  0  0
  150.7402  139.6279  154.4285 O   0  0  0  0  0  0  0  0  0  0  0  0
  151.3530  138.3489  154.4419 C   0  0  0  0  0  0  0  0  0  0  0  0
  150.4380  137.3458  155.1630 C   0  0  0  0  0  0  0  0  0  0  0  0
  148.2844  134.2480  156.0288 H   0  0  0  0  0  0  0  0  0  0  0  0
  149.6967  135.1876  156.3640 H   0  0  0  0  0  0  0  0  0  0  0  0
  149.4385  134.5512  154.7393 H   0  0  0  0  0  0  0  0  0  0  0  0
  147.8147  136.7590  156.1113 H   0  0  0  0  0  0  0  0  0  0  0  0
  146.0801  135.6519  154.9462 H   0  0  0  0  0  0  0  0  0  0  0  0
  146.6360  136.7817  153.7311 H   0  0  0  0  0  0  0  0  0  0  0  0
  148.0058  134.8345  152.8595 H   0  0  0  0  0  0  0  0  0  0  0  0
  147.7352  133.0052  151.8340 H   0  0  0  0  0  0  0  0  0  0  0  0
  147.8533  131.3923  153.7099 H   0  0  0  0  0  0  0  0  0  0  0  0
  147.4364  130.5817  152.2076 H   0  0  0  0  0  0  0  0  0  0  0  0
  146.1945  130.8829  153.4172 H   0  0  0  0  0  0  0  0  0  0  0  0
  146.6457  131.1430  149.8570 H   0  0  0  0  0  0  0  0  0  0  0  0
  143.1960  133.3907  149.6948 H   0  0  0  0  0  0  0  0  0  0  0  0
  147.6253  138.6390  153.7849 H   0  0  0  0  0  0  0  0  0  0  0  0
  148.2575  139.0274  155.3796 H   0  0  0  0  0  0  0  0  0  0  0  0
  149.6956  139.3052  152.6738 H   0  0  0  0  0  0  0  0  0  0  0  0
  149.1056  140.6111  153.6820 H   0  0  0  0  0  0  0  0  0  0  0  0
  151.5699  138.0201  153.4241 H   0  0  0  0  0  0  0  0  0  0  0  0
  152.3085  138.4228  154.9615 H   0  0  0  0  0  0  0  0  0  0  0  0
  150.3309  137.6305  156.2109 H   0  0  0  0  0  0  0  0  0  0  0  0
  150.9370  136.3792  155.1419 H   0  0  0  0  0  0  0  0  0  0  0  0
  149.2353  136.9367  153.5849 H   0  0  0  0  0  0  0  0  0  0  0  0
  1  2  1  0  0  0  0
  1 20  1  0  0  0  0
  1 21  1  0  0  0  0
  1 22  1  0  0  0  0
  2  3  1  0  0  0  0
  2 14  1  0  0  0  0
  2 23  1  0  0  0  0
  3  4  1  0  0  0  0
  3 24  1  0  0  0  0
  3 25  1  0  0  0  0
  4  5  1  0  0  0  0
  4 26  1  0  0  0  0
  5  6  2  0  0  0  0
  5  7  1  0  0  0  0
  7  8  1  0  0  0  0
  7  9  1  0  0  0  0
  7 27  1  0  0  0  0
  8 28  1  0  0  0  0
  8 29  1  0  0  0  0
  8 30  1  0  0  0  0
  9 13  1  0  0  0  0
  9 10  1  0  0  0  0
 10 11  2  0  0  0  0
 10 31  1  0  0  0  0
 11 12  1  0  0  0  0
 12 13  2  0  0  0  0
 12 32  1  0  0  0  0
 14 19  1  0  0  0  0
 14 15  1  0  0  0  0
 14 41  1  0  0  0  0
 15 16  1  0  0  0  0
 15 33  1  0  0  0  0
 15 34  1  0  0  0  0
 16 17  1  0  0  0  0
 16 35  1  0  0  0  0
 16 36  1  0  0  0  0
 17 18  1  0  0  0  0
 18 19  1  0  0  0  0
 18 37  1  0  0  0  0
 18 38  1  0  0  0  0
 19 39  1  0  0  0  0
 19 40  1  0  0  0  0
M  CHG  1  14   1
M  END
> <s_m_source_file>
AV-unprocessed.smi

> <i_m_source_file_index>
3349

> <i_lp_mmshare_version>
43012

> <i_f3d_flags>
0

> <s_epik_input>
W0NIMl0xW0NIMl1PW0NIMl1bQ0gyXU4xW0NASF0oW0NIM10pW0NIMl1bTkhdQyg9TylbQ0BIXShbQ0gzXSluMltjSF1uW2NIXW4y

> <s_epik_cmdline>
J2VwaWtfcHl0aG9uJywgJy1waCcsICc3LjAnLCAnLXRuJywgJzgnLCAnLW1hJywgJzIwMCcsICctbWV0YWxfYmluZGluZycsICctaW1hZScsICc8aW5maWxlLm1hZT4nLCAnLW9tYWUnLCAnPG91dGZpbGUubWFlPic=

> <r_lp_tautomer_probability>
1

> <r_epik_Ionization_Penalty>
0.71326

> <r_epik_Ionization_Penalty_Charging>
0.713252

> <r_epik_Ionization_Penalty_Neutral>
8.10337e-06

> <r_epik_State_Penalty>
0.737017

> <r_epik_Charging_Adjusted_Penalty>
1.45027

> <i_epik_Tot_Q>
1

> <i_epik_Tot_abs_Q>
1

> <r_epik_Metal_State_Penalty>
0.73702

> <b_epik_Metal_Only>
0

> <s_lp_Force_Field>
OPLS_2005

> <r_lp_Energy>
26.6465

> <b_lp_Chiralities_Consistent>
1

> <s_lp_Variant>
AV-unprocessed.smi:3349-7

> <Gold.Version>
5.8.1

> <Gold.Id.Protein>
6NUR|6NUR_protein|mol2

> <Gold.PLP.Fitness>
42.9609

> <Gold.PLP.PLP>
-26.7515

> <Gold.PLP.part.hbond>
-3.4825

> <Gold.PLP.part.metal>
0.0000

> <Gold.PLP.part.buried>
-1.1431

> <Gold.PLP.part.nonpolar>
-22.4147

> <Gold.PLP.part.repulsive>
0.5248

> <Gold.PLP.ligand.clash>
0.0000

> <Gold.PLP.ligand.torsion>
0.6203

> <Gold.PLP.Chemscore.Hbond>
3.7680

> <Gold.PLP.Chemscore.CHOScore>
2.0000

> <Gold.PLP.Chemscore.Metal>
0.0000

> <Gold.Chemscore.Hbonds>
donor molecule, donor type, donor heavy atom, donor atom, acceptor molecule, acceptor atom, score
      L1  H     4    26       P1  7948  0.74
      L1  H    14    41       P1  7948  2.00
      P1  H  7989  7998       L1    17  1.00
      L1  C    10    31       P1 10747  1.00
      L1  C    12    32       P1 10186  1.00

> <Gold.PLP.Chemscore.Internal.Correction>
0.1459

> <Gold.Rescore>
     Score         DG    S(hbond)    S(metal)    S(lipo)     H(rot)  DE(clash)    DE(int)     intcor
     11.05     -14.85       3.18        0.00      46.84       2.63       2.00       1.80       ----

> <Gold.Chemscore.Fitness>
11.0509

> <Gold.Chemscore.DG>
-14.8549

> <Gold.Chemscore.ZeroCoef>
-5.4800

> <Gold.Chemscore.Hbond>
3.1840

> <Gold.Chemscore.Metal>
0.0000

> <Gold.Chemscore.Lipo>
46.8426

> <Gold.Chemscore.Internal_Hbond>
0.0000

> <Gold.Chemscore.DEClash>
2.0048

> <Gold.Chemscore.DEInternal>
1.7992

> <Gold.Chemscore.Rot>
2.6329

> <Gold.Chemscore.Internal.Correction>
   9.000000E+99

> <Gold.Chemscore.Hbonds>
donor molecule, donor type, donor heavy atom, donor atom, acceptor molecule, acceptor atom, score
      L1  H     4    26       P1  7948  0.65
      L1  H    14    41       P1  7948  0.98
      P1  H  7989  7998       L1    17  0.23

> <Gold.Chemscore.Hbond.Weighted>
-10.6346

> <Gold.Chemscore.Metal.Weighted>
-0.0000

> <Gold.Chemscore.Lipo.Weighted>
-5.4806

> <Gold.Chemscore.Internal_Hbond.Weighted>
0.0000

> <Gold.Chemscore.DEClash.Weighted>
2.0048

> <Gold.Chemscore.DEInternal.Weighted>
1.7992

> <Gold.Chemscore.Rot.Weighted>
6.7403

> <Gold.Chemscore.Internal.Correction.Weighted>
   9.000000E+99

> <Gold.Protein.RotatedTorsions>
[ 6907 6896 6895 6894 ] final    8.66 input  -60.11 | X-H torsion
[ 7974 7965 7964 7962 ] final  121.34 input  175.53 | X-H torsion
[ 8008 7997 7996 7995 ] final  -55.14 input   59.86 | X-H torsion
[ 10167 10162 10161 10158 ] final  -90.22 input  -65.29 | X-H torsion
[ 10718 10713 10712 10709 ] final  -33.11 input   66.30 | X-H torsion
[ 10763 10752 10751 10750 ] final  -26.17 input  -60.55 | X-H torsion
[ 11005 11000 10999 10996 ] final  161.27 input  -57.11 | X-H torsion

> <Gold.Protein.ActiveResidues>
 VAL166  LYS551  ARG553  GLY616  TRP617  ASP618  TYR619  PRO620  LYS621  CYS622 
 ASP623  PHE694  ASN695  SER759  ASP760  ASP761  ALA762  ILE779  LEU786  VAL792 
 PHE793  MET794  SER795  GLU796  ALA797  LYS798  CYS799  TRP800  GLU811  SER814 

> <Gold.Protein.RotatedAtoms>
  151.7096  135.0915  160.0265 H   0  0  0  0  0  0  0  0  0  0  0  0  # atno 6907 bound_to 6896
  152.3670  133.6365  159.6066 H   0  0  0  0  0  0  0  0  0  0  0  0  # atno 6908 bound_to 6896
  150.7645  133.9249  159.3450 H   0  0  0  0  0  0  0  0  0  0  0  0  # atno 6909 bound_to 6896
  145.1205  139.3392  143.4717 H   0  0  0  0  0  0  0  0  0  0  0  0  # atno 7974 bound_to 7965
  154.4185  140.1160  156.5428 H   0  0  0  0  0  0  0  0  0  0  0  0  # atno 8008 bound_to 7997
  155.6490  140.3496  155.4722 H   0  0  0  0  0  0  0  0  0  0  0  0  # atno 8009 bound_to 7997
  155.9808  140.1160  157.0718 H   0  0  0  0  0  0  0  0  0  0  0  0  # atno 8010 bound_to 7997
  140.3571  143.2861  151.9659 H   0  0  0  0  0  0  0  0  0  0  0  0  # atno 10167 bound_to 10162
  156.3667  130.4332  149.7579 H   0  0  0  0  0  0  0  0  0  0  0  0  # atno 10718 bound_to 10713
  153.7117  135.6950  153.5036 H   0  0  0  0  0  0  0  0  0  0  0  0  # atno 10763 bound_to 10752
  153.2268  135.4351  155.0550 H   0  0  0  0  0  0  0  0  0  0  0  0  # atno 10764 bound_to 10752
  154.8313  135.3474  154.6653 H   0  0  0  0  0  0  0  0  0  0  0  0  # atno 10765 bound_to 10752
  140.2141  134.8245  157.3152 H   0  0  0  0  0  0  0  0  0  0  0  0  # atno 11005 bound_to 11000
  146.3521  140.1162  142.8602 LP  0  0  0  0  0  0  0  0  0  0  0  0  # atno 17320 bound_to 7965
  145.0746  140.9179  143.4861 LP  0  0  0  0  0  0  0  0  0  0  0  0  # atno 17321 bound_to 7965
  139.4819  144.6026  151.7579 LP  0  0  0  0  0  0  0  0  0  0  0  0  # atno 17342 bound_to 10162
  140.5163  144.0947  150.6009 LP  0  0  0  0  0  0  0  0  0  0  0  0  # atno 17343 bound_to 10162
  156.4722  130.8002  151.3019 LP  0  0  0  0  0  0  0  0  0  0  0  0  # atno 17370 bound_to 10713
  157.7479  131.0032  150.3030 LP  0  0  0  0  0  0  0  0  0  0  0  0  # atno 17371 bound_to 10713
  140.1919  134.4361  155.7711 LP  0  0  0  0  0  0  0  0  0  0  0  0  # atno 17394 bound_to 11000
  141.2225  133.7031  156.8041 LP  0  0  0  0  0  0  0  0  0  0  0  0  # atno 17395 bound_to 11000

$$$$
