#       Name:                AV-unprocessed.smi:1687
#       Creating user name   scv26
#       Creation time:       Fri Mar 27 07:52:51 2020


#       File generated by GOLD software.
#

@<TRIPOS>MOLECULE
AV-unprocessed.smi:1687
    48    49     1
SMALL
NO_CHARGES


@<TRIPOS>ATOM
      1 ****        -3.1171  -2.6279   4.7205 C.3            1 S1                 0.0000
      2 ****        -2.7385  -1.9080   3.4186 C.3            1 S1                 0.0000
      3 ****        -1.3556  -2.3385   2.9090 C.3            1 S1                 0.0000
      4 ****        -0.9883  -1.5937   1.6158 C.3            1 S1                 0.0000
      5 ****        -1.0016  -0.1149   1.8081 N.4            1 S1                 1.0000
      6 ****        -0.4511   0.6079   0.6149 C.3            1 S1                 0.0000
      7 ****        -0.9406   2.0703   0.4793 C.3            1 S1                 0.0000
      8 ****         1.0992   0.5666   0.6454 C.3            1 S1                 0.0000
      9 ****         1.7107   1.1405  -0.5497 N.am           1 S1                 0.0000
     10 ****         1.7789   0.5244  -1.7389 C.2            1 S1                 0.0000
     11 ****         1.3117  -0.5965  -1.9440 O.2            1 S1                 0.0000
     12 ****         2.4110   1.2849  -2.6500 N.am           1 S1                 0.0000
     13 ****         2.6920   0.9745  -4.0076 C.ar           1 S1                 0.0000
     14 ****         3.3962   1.9735  -4.7172 C.ar           1 S1                 0.0000
     15 ****         3.7235   1.7618  -6.0706 C.ar           1 S1                 0.0000
     16 ****         3.3374   0.5551  -6.6806 C.ar           1 S1                 0.0000
     17 ****         2.6388  -0.3869  -5.9032 C.ar           1 S1                 0.0000
     18 ****         2.3240  -0.1861  -4.6059 N.ar           1 S1                 0.0000
     19 ****        -2.3405   0.3369   2.2880 C.3            1 S1                 0.0000
     20 ****        -2.7518  -0.3816   3.5854 C.3            1 S1                 0.0000
     21 ****        -2.4137  -2.3989   5.5217 H              1 S1                 0.0000
     22 ****        -3.1241  -3.7096   4.5827 H              1 S1                 0.0000
     23 ****        -4.1118  -2.3334   5.0563 H              1 S1                 0.0000
     24 ****        -3.4793  -2.1757   2.6636 H              1 S1                 0.0000
     25 ****        -0.5985  -2.1462   3.6706 H              1 S1                 0.0000
     26 ****        -1.3446  -3.4139   2.7267 H              1 S1                 0.0000
     27 ****        -0.0088  -1.9370   1.2868 H              1 S1                 0.0000
     28 ****        -1.6886  -1.8619   0.8229 H              1 S1                 0.0000
     29 ****        -0.8032   0.0825  -0.2743 H              1 S1                 0.0000
     30 ****        -0.5016   2.5616  -0.3890 H              1 S1                 0.0000
     31 ****        -0.6758   2.6637   1.3549 H              1 S1                 0.0000
     32 ****        -2.0200   2.1285   0.3377 H              1 S1                 0.0000
     33 ****         1.4632   1.1260   1.5078 H              1 S1                 0.0000
     34 ****         1.4792  -0.4471   0.7685 H              1 S1                 0.0000
     35 ****         2.1185   2.0599  -0.4610 H              1 S1                 0.0000
     36 ****         2.7380   2.1863  -2.3354 H              1 S1                 0.0000
     37 ****         3.6856   2.8953  -4.2337 H              1 S1                 0.0000
     38 ****         4.2610   2.5130  -6.6303 H              1 S1                 0.0000
     39 ****         3.5694   0.3565  -7.7165 H              1 S1                 0.0000
     40 ****         2.3242  -1.3259  -6.3339 H              1 S1                 0.0000
     41 ****        -2.3359   1.4040   2.5070 H              1 S1                 0.0000
     42 ****        -3.0857   0.1674   1.5094 H              1 S1                 0.0000
     43 ****        -3.7460  -0.0492   3.8865 H              1 S1                 0.0000
     44 ****        -2.0741  -0.0922   4.3902 H              1 S1                 0.0000
     45 ****        -0.3643   0.0848   2.5657 H              1 S1                 0.0000
     46 ****         0.8550  -1.0909  -1.2044 LP             1 S1                 0.0000
     47 ****         1.3890  -1.0123  -2.8502 LP             1 S1                 0.0000
     48 ****         1.8255  -0.8844  -4.0922 LP             1 S1                 0.0000
@<TRIPOS>BOND
    1    1    2 1     
    2    1   21 1     
    3    1   22 1     
    4    1   23 1     
    5    2   20 1     
    6    2    3 1     
    7    2   24 1     
    8    3    4 1     
    9    3   25 1     
   10    3   26 1     
   11    4    5 1     
   12    4   27 1     
   13    4   28 1     
   14    5    6 1     
   15    5   19 1     
   16    5   45 1     
   17    6    7 1     
   18    6    8 1     
   19    6   29 1     
   20    7   30 1     
   21    7   31 1     
   22    7   32 1     
   23    8    9 1     
   24    8   33 1     
   25    8   34 1     
   26    9   10 am    
   27    9   35 1     
   28   10   11 2     
   29   10   12 am    
   30   12   13 1     
   31   12   36 1     
   32   13   18 ar    
   33   13   14 ar    
   34   14   15 ar    
   35   14   37 1     
   36   15   16 ar    
   37   15   38 1     
   38   16   17 ar    
   39   16   39 1     
   40   17   18 ar    
   41   17   40 1     
   42   19   20 1     
   43   19   41 1     
   44   19   42 1     
   45   20   43 1     
   46   20   44 1     
   47   11   46 1     
   48   11   47 1     
   49   18   48 1     
@<TRIPOS>SUBSTRUCTURE
      1 S1             1
@<TRIPOS>SET
LONE_PAIRS      STATIC     ATOMS    <user>   **** ""
3 46 47 48
DONOR_HYDROGENS      STATIC     ATOMS    <user>   **** ""
3 45 35 36
ATOM$BLUE        STATIC     ATOMS    COLORGROUP SYSTEM
3 46 47 48
ATOM$RED        STATIC     ATOMS    COLORGROUP SYSTEM
3 45 35 36
