AV-unprocessed.smi:1831|AV-procd|sdf|7459|dock3
  -GOLD-   22720 9153D 1   1.00000     0.00000
 Structure written by MMmdl.
 41 42  0  0  0  0  0  0  0  0  2 V2000
  150.4783  141.9441  156.7288 C   0  0  0  0  0  0  0  0  0  0  0  0
  150.0867  140.8933  155.7472 C   0  0  0  0  0  0  0  0  0  0  0  0
  150.9641  140.0174  155.2418 N   0  0  0  0  0  0  0  0  0  0  0  0
  150.3733  139.1311  154.3509 N   0  0  0  0  0  0  0  0  0  0  0  0
  149.0656  139.3647  154.2081 C   0  0  0  0  0  0  0  0  0  0  0  0
  148.3310  138.5292  153.3301 N   0  0  0  0  0  0  0  0  0  0  0  0
  147.0093  138.5402  153.0925 C   0  0  0  0  0  0  0  0  0  0  0  0
  146.2027  139.3265  153.5888 O   0  0  0  0  0  0  0  0  0  0  0  0
  146.6627  137.5703  152.2337 N   0  0  0  0  0  0  0  0  0  0  0  0
  145.3082  137.3012  151.7597 C   0  0  0  0  0  0  0  0  0  0  0  0
  144.9049  135.8274  151.9609 C   0  0  1  0  0  0  0  0  0  0  0  0
  143.6244  135.6019  152.7620 C   0  0  0  0  0  0  0  0  0  0  0  0
  143.2206  134.1925  152.3473 C   0  0  0  0  0  0  0  0  0  0  0  0
  143.5443  134.1034  150.9057 N   0  3  2  0  0  0  0  0  0  0  0  0
  143.7731  132.7271  150.3805 C   0  0  0  0  0  0  0  0  0  0  0  0
  144.9458  132.0432  151.1091 C   0  0  0  0  0  0  0  0  0  0  0  0
  144.0473  132.7300  148.8638 C   0  0  0  0  0  0  0  0  0  0  0  0
  144.6421  135.0720  150.6481 C   0  0  0  0  0  0  0  0  0  0  0  0
  148.4367  140.7050  155.1663 S   0  0  0  0  0  0  0  0  0  0  0  0
  151.3320  142.5092  156.3540 H   0  0  0  0  0  0  0  0  0  0  0  0
  150.7505  141.4843  157.6789 H   0  0  0  0  0  0  0  0  0  0  0  0
  149.6512  142.6337  156.8978 H   0  0  0  0  0  0  0  0  0  0  0  0
  148.8744  137.8357  152.8373 H   0  0  0  0  0  0  0  0  0  0  0  0
  147.3938  136.9729  151.8755 H   0  0  0  0  0  0  0  0  0  0  0  0
  144.5901  137.9673  152.2414 H   0  0  0  0  0  0  0  0  0  0  0  0
  145.2799  137.5429  150.6969 H   0  0  0  0  0  0  0  0  0  0  0  0
  145.7146  135.3121  152.4811 H   0  0  0  0  0  0  0  0  0  0  0  0
  143.7718  135.6979  153.8381 H   0  0  0  0  0  0  0  0  0  0  0  0
  142.8540  136.3131  152.4597 H   0  0  0  0  0  0  0  0  0  0  0  0
  143.8134  133.4665  152.9065 H   0  0  0  0  0  0  0  0  0  0  0  0
  142.1660  133.9926  152.5394 H   0  0  0  0  0  0  0  0  0  0  0  0
  142.8684  132.1434  150.5584 H   0  0  0  0  0  0  0  0  0  0  0  0
  145.1216  131.0434  150.7114 H   0  0  0  0  0  0  0  0  0  0  0  0
  144.7610  131.9292  152.1769 H   0  0  0  0  0  0  0  0  0  0  0  0
  145.8692  132.6111  150.9909 H   0  0  0  0  0  0  0  0  0  0  0  0
  144.2524  131.7213  148.5039 H   0  0  0  0  0  0  0  0  0  0  0  0
  144.9109  133.3483  148.6172 H   0  0  0  0  0  0  0  0  0  0  0  0
  143.1962  133.0989  148.2916 H   0  0  0  0  0  0  0  0  0  0  0  0
  144.3186  135.7483  149.8560 H   0  0  0  0  0  0  0  0  0  0  0  0
  145.5589  134.5861  150.3121 H   0  0  0  0  0  0  0  0  0  0  0  0
  142.7366  134.4689  150.4217 H   0  0  0  0  0  0  0  0  0  0  0  0
  1  2  1  0  0  0  0
  1 20  1  0  0  0  0
  1 21  1  0  0  0  0
  1 22  1  0  0  0  0
  2 19  1  0  0  0  0
  2  3  2  0  0  0  0
  3  4  1  0  0  0  0
  4  5  2  0  0  0  0
  5  6  1  0  0  0  0
  5 19  1  0  0  0  0
  6  7  1  0  0  0  0
  6 23  1  0  0  0  0
  7  8  2  0  0  0  0
  7  9  1  0  0  0  0
  9 10  1  0  0  0  0
  9 24  1  0  0  0  0
 10 11  1  0  0  0  0
 10 25  1  0  0  0  0
 10 26  1  0  0  0  0
 11 18  1  0  0  0  0
 11 12  1  0  0  0  0
 11 27  1  0  0  0  0
 12 13  1  0  0  0  0
 12 28  1  0  0  0  0
 12 29  1  0  0  0  0
 13 14  1  0  0  0  0
 13 30  1  0  0  0  0
 13 31  1  0  0  0  0
 14 15  1  0  0  0  0
 14 18  1  0  0  0  0
 14 41  1  0  0  0  0
 15 16  1  0  0  0  0
 15 17  1  0  0  0  0
 15 32  1  0  0  0  0
 16 33  1  0  0  0  0
 16 34  1  0  0  0  0
 16 35  1  0  0  0  0
 17 36  1  0  0  0  0
 17 37  1  0  0  0  0
 17 38  1  0  0  0  0
 18 39  1  0  0  0  0
 18 40  1  0  0  0  0
M  CHG  1  14   1
M  END
> <s_m_source_file>
AV-unprocessed.smi

> <i_m_source_file_index>
1831

> <i_lp_mmshare_version>
43012

> <i_f3d_flags>
0

> <s_epik_input>
W0NIM11jMW5uYyhzMSlbTkhdQyg9TylbTkhdW0NIMl1bQ0BASF0yW0NIMl1bQ0gyXU4oW0NIMl0yKVtDSF0oW0NIM10pW0NIM10=

> <s_epik_cmdline>
J2VwaWtfcHl0aG9uJywgJy1waCcsICc3LjAnLCAnLXRuJywgJzgnLCAnLW1hJywgJzIwMCcsICctbWV0YWxfYmluZGluZycsICctaW1hZScsICc8aW5maWxlLm1hZT4nLCAnLW9tYWUnLCAnPG91dGZpbGUubWFlPic=

> <r_lp_tautomer_probability>
1

> <r_epik_Ionization_Penalty>
0.00080807

> <r_epik_Ionization_Penalty_Charging>
0.000218981

> <r_epik_Ionization_Penalty_Neutral>
0.00058909

> <r_epik_State_Penalty>
-0

> <r_epik_Charging_Adjusted_Penalty>
0.000218981

> <i_epik_Tot_Q>
1

> <i_epik_Tot_abs_Q>
1

> <r_epik_Metal_State_Penalty>
0.236062

> <b_epik_Metal_Only>
0

> <s_lp_Force_Field>
OPLS_2005

> <r_lp_Energy>
28.8187

> <b_lp_Chiralities_Consistent>
1

> <s_lp_Variant>
AV-unprocessed.smi:1831-4

> <Gold.Version>
5.8.1

> <Gold.Id.Protein>
6NUR|6NUR_protein|mol2

> <Gold.PLP.Fitness>
47.0507

> <Gold.PLP.PLP>
-35.6734

> <Gold.PLP.part.hbond>
-5.6981

> <Gold.PLP.part.metal>
0.0000

> <Gold.PLP.part.buried>
0.7671

> <Gold.PLP.part.nonpolar>
-32.1570

> <Gold.PLP.part.repulsive>
1.4061

> <Gold.PLP.ligand.clash>
0.0000

> <Gold.PLP.ligand.torsion>
0.7822

> <Gold.PLP.Chemscore.Hbond>
4.3070

> <Gold.PLP.Chemscore.CHOScore>
0.0000

> <Gold.PLP.Chemscore.Metal>
0.0000

> <Gold.Chemscore.Hbonds>
donor molecule, donor type, donor heavy atom, donor atom, acceptor molecule, acceptor atom, score
      L1  H     6    23       P1  7948  1.00
      L1  H     9    24       P1  7948  1.00
      L1  H    14    41       P1 10186  2.00
      P1  H  7989  7998       L1     3  0.09

> <Gold.PLP.Chemscore.Internal.Correction>
0.0206

> <Gold.Rescore>
     Score         DG    S(hbond)    S(metal)    S(lipo)     H(rot)  DE(clash)    DE(int)     intcor
     16.46     -19.51       2.76        0.00      74.82       1.54       1.44       1.61       ----

> <Gold.Chemscore.Fitness>
16.4586

> <Gold.Chemscore.DG>
-19.5085

> <Gold.Chemscore.ZeroCoef>
-5.4800

> <Gold.Chemscore.Hbond>
2.7592

> <Gold.Chemscore.Metal>
0.0000

> <Gold.Chemscore.Lipo>
74.8213

> <Gold.Chemscore.Internal_Hbond>
0.0000

> <Gold.Chemscore.DEClash>
1.4362

> <Gold.Chemscore.DEInternal>
1.6138

> <Gold.Chemscore.Rot>
1.5396

> <Gold.Chemscore.Internal.Correction>
   9.000000E+99

> <Gold.Chemscore.Hbonds>
donor molecule, donor type, donor heavy atom, donor atom, acceptor molecule, acceptor atom, score
      L1  H     6    23       P1  7948  0.95
      L1  H     9    24       P1  7948  0.99
      L1  H    14    41       P1 10186  0.54

> <Gold.Chemscore.Hbond.Weighted>
-9.2157

> <Gold.Chemscore.Metal.Weighted>
-0.0000

> <Gold.Chemscore.Lipo.Weighted>
-8.7541

> <Gold.Chemscore.Internal_Hbond.Weighted>
0.0000

> <Gold.Chemscore.DEClash.Weighted>
1.4362

> <Gold.Chemscore.DEInternal.Weighted>
1.6138

> <Gold.Chemscore.Rot.Weighted>
3.9413

> <Gold.Chemscore.Internal.Correction.Weighted>
   9.000000E+99

> <Gold.Protein.RotatedTorsions>
[ 6907 6896 6895 6894 ] final  101.59 input  -60.11 | X-H torsion
[ 7974 7965 7964 7962 ] final  113.65 input  175.53 | X-H torsion
[ 8008 7997 7996 7995 ] final   48.92 input   59.86 | X-H torsion
[ 10167 10162 10161 10158 ] final -143.86 input  -65.29 | X-H torsion
[ 10718 10713 10712 10709 ] final  -64.03 input   66.30 | X-H torsion
[ 10763 10752 10751 10750 ] final   43.19 input  -60.55 | X-H torsion
[ 11005 11000 10999 10996 ] final   81.36 input  -57.11 | X-H torsion

> <Gold.Protein.ActiveResidues>
 VAL166  LYS551  ARG553  GLY616  TRP617  ASP618  TYR619  PRO620  LYS621  CYS622 
 ASP623  PHE694  ASN695  SER759  ASP760  ASP761  ALA762  ILE779  LEU786  VAL792 
 PHE793  MET794  SER795  GLU796  ALA797  LYS798  CYS799  TRP800  GLU811  SER814 

> <Gold.Protein.RotatedAtoms>
  152.5345  134.0103  159.7934 H   0  0  0  0  0  0  0  0  0  0  0  0  # atno 6907 bound_to 6896
  151.0306  133.5786  159.2668 H   0  0  0  0  0  0  0  0  0  0  0  0  # atno 6908 bound_to 6896
  151.2792  135.0715  159.9216 H   0  0  0  0  0  0  0  0  0  0  0  0  # atno 6909 bound_to 6896
  145.2142  139.2892  143.4252 H   0  0  0  0  0  0  0  0  0  0  0  0  # atno 7974 bound_to 7965
  155.3937  140.3434  155.4253 H   0  0  0  0  0  0  0  0  0  0  0  0  # atno 8008 bound_to 7997
  156.1543  140.1580  156.8751 H   0  0  0  0  0  0  0  0  0  0  0  0  # atno 8009 bound_to 7997
  154.5080  140.0797  156.7915 H   0  0  0  0  0  0  0  0  0  0  0  0  # atno 8010 bound_to 7997
  139.7954  143.7908  152.2654 H   0  0  0  0  0  0  0  0  0  0  0  0  # atno 10167 bound_to 10162
  156.0754  130.4228  150.1362 H   0  0  0  0  0  0  0  0  0  0  0  0  # atno 10718 bound_to 10713
  152.9866  135.6109  154.3072 H   0  0  0  0  0  0  0  0  0  0  0  0  # atno 10763 bound_to 10752
  154.2789  135.2777  155.2707 H   0  0  0  0  0  0  0  0  0  0  0  0  # atno 10764 bound_to 10752
  154.5055  135.5855  153.6621 H   0  0  0  0  0  0  0  0  0  0  0  0  # atno 10765 bound_to 10752
  139.9101  134.7991  156.2032 H   0  0  0  0  0  0  0  0  0  0  0  0  # atno 11005 bound_to 11000
  146.3391  140.2428  142.8596 LP  0  0  0  0  0  0  0  0  0  0  0  0  # atno 17320 bound_to 7965
  144.9826  140.8474  143.5388 LP  0  0  0  0  0  0  0  0  0  0  0  0  # atno 17321 bound_to 7965
  139.8012  144.7373  150.9822 LP  0  0  0  0  0  0  0  0  0  0  0  0  # atno 17342 bound_to 10162
  140.7820  143.4343  151.0646 LP  0  0  0  0  0  0  0  0  0  0  0  0  # atno 17343 bound_to 10162
  156.9404  130.9742  151.3517 LP  0  0  0  0  0  0  0  0  0  0  0  0  # atno 17370 bound_to 10713
  157.5847  130.8401  149.8572 LP  0  0  0  0  0  0  0  0  0  0  0  0  # atno 17371 bound_to 10713
  141.0512  133.6888  156.1775 LP  0  0  0  0  0  0  0  0  0  0  0  0  # atno 17394 bound_to 11000
  140.6807  134.4770  157.5589 LP  0  0  0  0  0  0  0  0  0  0  0  0  # atno 17395 bound_to 11000

$$$$
