AV-unprocessed.smi:1403|AV-procd|sdf|5703|dock7
  -GOLD-   22720 5333D 1   1.00000     0.00000
 Structure written by MMmdl.
 35 36  0  0  0  0  0  0  0  0  2 V2000
  151.4271  141.1739  158.2927 C   0  0  0  0  0  0  0  0  0  0  0  0
  152.7839  141.6421  158.8376 C   0  0  2  0  0  0  0  0  0  0  0  0
  153.1878  140.7476  159.9194 N   0  0  0  0  0  0  0  0  0  0  0  0
  154.3280  140.0383  159.9861 C   0  0  0  0  0  0  0  0  0  0  0  0
  155.1913  140.0747  159.1100 O   0  0  0  0  0  0  0  0  0  0  0  0
  154.5617  139.1579  161.2261 C   0  0  0  0  0  0  0  0  0  0  0  0
  154.7811  137.7282  160.9393 N   0  0  0  0  0  0  0  0  0  0  0  0
  155.8079  137.0754  161.6440 C   0  0  0  0  0  0  0  0  0  0  0  0
  156.0795  135.7699  161.4569 C   0  0  0  0  0  0  0  0  0  0  0  0
  155.2760  135.0291  160.4926 C   0  0  0  0  0  0  0  0  0  0  0  0
  155.5114  133.8369  160.3068 O   0  0  0  0  0  0  0  0  0  0  0  0
  154.2883  135.7059  159.8368 N   0  5  0  0  0  0  0  0  0  0  0  0
  154.0218  137.0335  160.0387 C   0  0  0  0  0  0  0  0  0  0  0  0
  153.1186  137.6223  159.4443 O   0  0  0  0  0  0  0  0  0  0  0  0
  152.7271  143.0985  159.3411 C   0  0  1  0  0  0  0  0  0  0  0  0
  152.2844  144.1276  158.3012 C   0  0  0  0  0  0  0  0  0  0  0  0
  151.7872  145.2834  159.1513 C   0  0  0  0  0  0  0  0  0  0  0  0
  151.4729  144.6380  160.5047 C   0  0  0  0  0  0  0  0  0  0  0  0
  151.7287  143.2488  160.3386 O   0  0  0  0  0  0  0  0  0  0  0  0
  151.1017  141.7954  157.4582 H   0  0  0  0  0  0  0  0  0  0  0  0
  150.6540  141.2163  159.0609 H   0  0  0  0  0  0  0  0  0  0  0  0
  151.4826  140.1457  157.9335 H   0  0  0  0  0  0  0  0  0  0  0  0
  153.5052  141.5850  158.0204 H   0  0  0  0  0  0  0  0  0  0  0  0
  152.5378  140.6478  160.6864 H   0  0  0  0  0  0  0  0  0  0  0  0
  155.4043  139.5665  161.7865 H   0  0  0  0  0  0  0  0  0  0  0  0
  153.7024  139.2744  161.8879 H   0  0  0  0  0  0  0  0  0  0  0  0
  156.3508  137.6945  162.3433 H   0  0  0  0  0  0  0  0  0  0  0  0
  156.8702  135.2829  162.0084 H   0  0  0  0  0  0  0  0  0  0  0  0
  153.6911  143.3930  159.7606 H   0  0  0  0  0  0  0  0  0  0  0  0
  153.0854  144.4156  157.6198 H   0  0  0  0  0  0  0  0  0  0  0  0
  151.4610  143.7295  157.7063 H   0  0  0  0  0  0  0  0  0  0  0  0
  152.5632  146.0409  159.2670 H   0  0  0  0  0  0  0  0  0  0  0  0
  150.9135  145.7612  158.7072 H   0  0  0  0  0  0  0  0  0  0  0  0
  152.1266  145.0369  161.2813 H   0  0  0  0  0  0  0  0  0  0  0  0
  150.4402  144.8017  160.8131 H   0  0  0  0  0  0  0  0  0  0  0  0
  1  2  1  0  0  0  0
  1 20  1  0  0  0  0
  1 21  1  0  0  0  0
  1 22  1  0  0  0  0
  2  3  1  0  0  0  0
  2 15  1  0  0  0  0
  2 23  1  0  0  0  0
  3  4  1  0  0  0  0
  3 24  1  0  0  0  0
  4  5  2  0  0  0  0
  4  6  1  0  0  0  0
  6  7  1  0  0  0  0
  6 25  1  0  0  0  0
  6 26  1  0  0  0  0
  7 13  1  0  0  0  0
  7  8  1  0  0  0  0
  8  9  2  0  0  0  0
  8 27  1  0  0  0  0
  9 10  1  0  0  0  0
  9 28  1  0  0  0  0
 10 11  2  0  0  0  0
 10 12  1  0  0  0  0
 12 13  1  0  0  0  0
 13 14  2  0  0  0  0
 15 19  1  0  0  0  0
 15 16  1  0  0  0  0
 15 29  1  0  0  0  0
 16 17  1  0  0  0  0
 16 30  1  0  0  0  0
 16 31  1  0  0  0  0
 17 18  1  0  0  0  0
 17 32  1  0  0  0  0
 17 33  1  0  0  0  0
 18 19  1  0  0  0  0
 18 34  1  0  0  0  0
 18 35  1  0  0  0  0
M  CHG  1  12  -1
M  END
> <s_m_source_file>
AV-unprocessed.smi

> <i_m_source_file_index>
1403

> <i_lp_mmshare_version>
43012

> <i_f3d_flags>
0

> <s_epik_input>
TzFbQ0gyXVtDSDJdW0NIMl1bQ0BIXTFbQ0BIXShbQ0gzXSlbTkhdQyg9TylbQ0gyXW4yW2NIXVtjSF1jKD1PKVtuSF1jMj1P

> <s_epik_cmdline>
J2VwaWtfcHl0aG9uJywgJy1waCcsICc3LjAnLCAnLXRuJywgJzgnLCAnLW1hJywgJzIwMCcsICctbWV0YWxfYmluZGluZycsICctaW1hZScsICc8aW5maWxlLm1hZT4nLCAnLW9tYWUnLCAnPG91dGZpbGUubWFlPic=

> <r_lp_tautomer_probability>
0.999537

> <r_epik_Ionization_Penalty>
3.07438

> <r_epik_Ionization_Penalty_Charging>
2.82466e-08

> <r_epik_Ionization_Penalty_Neutral>
3.07438

> <r_epik_State_Penalty>
3.07341

> <r_epik_Charging_Adjusted_Penalty>
3.07341

> <i_epik_Tot_Q>
-1

> <i_epik_Tot_abs_Q>
1

> <r_epik_Metal_State_Penalty>
0.45947

> <b_epik_Metal_Only>
1

> <s_lp_Force_Field>
OPLS_2005

> <r_lp_Energy>
26.9379

> <b_lp_Chiralities_Consistent>
1

> <s_lp_Variant>
AV-unprocessed.smi:1403-7

> <Gold.Version>
5.8.1

> <Gold.Id.Protein>
6NUR|6NUR_protein|mol2

> <Gold.PLP.Fitness>
42.8983

> <Gold.PLP.PLP>
-34.3700

> <Gold.PLP.part.hbond>
-2.0000

> <Gold.PLP.part.metal>
0.0000

> <Gold.PLP.part.buried>
-5.4259

> <Gold.PLP.part.nonpolar>
-26.8660

> <Gold.PLP.part.repulsive>
0.1590

> <Gold.PLP.ligand.clash>
0.0000

> <Gold.PLP.ligand.torsion>
0.2487

> <Gold.PLP.Chemscore.Hbond>
3.0000

> <Gold.PLP.Chemscore.CHOScore>
0.0000

> <Gold.PLP.Chemscore.Metal>
0.0000

> <Gold.Chemscore.Hbonds>
donor molecule, donor type, donor heavy atom, donor atom, acceptor molecule, acceptor atom, score
      P1  H  6896  6907       L1    12  1.53
      P1  H  7997  8008       L1     5  0.94

> <Gold.PLP.Chemscore.Internal.Correction>
0.0257

> <Gold.Rescore>
     Score         DG    S(hbond)    S(metal)    S(lipo)     H(rot)  DE(clash)    DE(int)     intcor
     14.51     -16.01       1.91        0.00      78.98       1.99       0.02       1.47       ----

> <Gold.Chemscore.Fitness>
14.5147

> <Gold.Chemscore.DG>
-16.0069

> <Gold.Chemscore.ZeroCoef>
-5.4800

> <Gold.Chemscore.Hbond>
1.9133

> <Gold.Chemscore.Metal>
0.0000

> <Gold.Chemscore.Lipo>
78.9833

> <Gold.Chemscore.Internal_Hbond>
0.0000

> <Gold.Chemscore.DEClash>
0.0230

> <Gold.Chemscore.DEInternal>
1.4692

> <Gold.Chemscore.Rot>
1.9940

> <Gold.Chemscore.Internal.Correction>
   9.000000E+99

> <Gold.Chemscore.Hbonds>
donor molecule, donor type, donor heavy atom, donor atom, acceptor molecule, acceptor atom, score
      P1  H  6896  6907       L1    12  0.31
      P1  H  7997  8008       L1     5  0.91

> <Gold.Chemscore.Hbond.Weighted>
-6.3906

> <Gold.Chemscore.Metal.Weighted>
-0.0000

> <Gold.Chemscore.Lipo.Weighted>
-9.2410

> <Gold.Chemscore.Internal_Hbond.Weighted>
0.0000

> <Gold.Chemscore.DEClash.Weighted>
0.0230

> <Gold.Chemscore.DEInternal.Weighted>
1.4692

> <Gold.Chemscore.Rot.Weighted>
5.1047

> <Gold.Chemscore.Internal.Correction.Weighted>
   9.000000E+99

> <Gold.Protein.RotatedTorsions>
[ 6907 6896 6895 6894 ] final   54.12 input  -60.11 | X-H torsion
[ 7974 7965 7964 7962 ] final  -74.79 input  175.53 | X-H torsion
[ 8008 7997 7996 7995 ] final -120.68 input   59.86 | X-H torsion
[ 10167 10162 10161 10158 ] final  -13.97 input  -65.29 | X-H torsion
[ 10718 10713 10712 10709 ] final -116.18 input   66.30 | X-H torsion
[ 10763 10752 10751 10750 ] final -108.49 input  -60.55 | X-H torsion
[ 11005 11000 10999 10996 ] final   49.94 input  -57.11 | X-H torsion

> <Gold.Protein.ActiveResidues>
 VAL166  LYS551  ARG553  GLY616  TRP617  ASP618  TYR619  PRO620  LYS621  CYS622 
 ASP623  PHE694  ASN695  SER759  ASP760  ASP761  ALA762  ILE779  LEU786  VAL792 
 PHE793  MET794  SER795  GLU796  ALA797  LYS798  CYS799  TRP800  GLU811  SER814 

> <Gold.Protein.RotatedAtoms>
  152.3407  134.7139  160.0264 H   0  0  0  0  0  0  0  0  0  0  0  0  # atno 6907 bound_to 6896
  151.7525  133.3323  159.3403 H   0  0  0  0  0  0  0  0  0  0  0  0  # atno 6908 bound_to 6896
  150.7478  134.6112  159.6131 H   0  0  0  0  0  0  0  0  0  0  0  0  # atno 6909 bound_to 6896
  145.6345  140.9328  143.1069 H   0  0  0  0  0  0  0  0  0  0  0  0  # atno 7974 bound_to 7965
  155.1357  140.0401  157.2786 H   0  0  0  0  0  0  0  0  0  0  0  0  # atno 8008 bound_to 7997
  154.6509  140.2569  155.7188 H   0  0  0  0  0  0  0  0  0  0  0  0  # atno 8009 bound_to 7997
  156.2577  140.2836  156.0943 H   0  0  0  0  0  0  0  0  0  0  0  0  # atno 8010 bound_to 7997
  140.7192  143.5371  150.9452 H   0  0  0  0  0  0  0  0  0  0  0  0  # atno 10167 bound_to 10162
  156.0946  130.6121  150.9003 H   0  0  0  0  0  0  0  0  0  0  0  0  # atno 10718 bound_to 10713
  154.8138  135.4636  154.0589 H   0  0  0  0  0  0  0  0  0  0  0  0  # atno 10763 bound_to 10752
  153.1998  135.6867  153.8252 H   0  0  0  0  0  0  0  0  0  0  0  0  # atno 10764 bound_to 10752
  153.7741  135.3266  155.3333 H   0  0  0  0  0  0  0  0  0  0  0  0  # atno 10765 bound_to 10752
  140.1060  134.5017  155.8719 H   0  0  0  0  0  0  0  0  0  0  0  0  # atno 11005 bound_to 11000
  144.7181  139.8126  143.7391 LP  0  0  0  0  0  0  0  0  0  0  0  0  # atno 17320 bound_to 7965
  146.1330  139.4370  143.0156 LP  0  0  0  0  0  0  0  0  0  0  0  0  # atno 17321 bound_to 7965
  139.9092  143.6740  152.3118 LP  0  0  0  0  0  0  0  0  0  0  0  0  # atno 17342 bound_to 10162
  139.7118  144.7619  151.1100 LP  0  0  0  0  0  0  0  0  0  0  0  0  # atno 17343 bound_to 10162
  157.6104  131.0936  150.8805 LP  0  0  0  0  0  0  0  0  0  0  0  0  # atno 17370 bound_to 10713
  156.8946  130.5225  149.5285 LP  0  0  0  0  0  0  0  0  0  0  0  0  # atno 17371 bound_to 10713
  141.2118  133.6711  156.6612 LP  0  0  0  0  0  0  0  0  0  0  0  0  # atno 17394 bound_to 11000
  140.3155  134.8051  157.4210 LP  0  0  0  0  0  0  0  0  0  0  0  0  # atno 17395 bound_to 11000

$$$$
