AV-unprocessed.smi:317|AV-procd|sdf|2327|dock1
  -GOLD-   2262022233D 1   1.00000     0.00000
 Structure written by MMmdl.
 39 40  0  0  0  0  0  0  0  0  1 V2000
  151.5573  145.0511  159.1244 C   0  0  0  0  0  0  0  0  0  0  0  0
  150.6506  143.8470  159.4179 C   0  0  1  0  0  0  0  0  0  0  0  0
  149.4244  144.2582  160.2611 C   0  0  0  0  0  0  0  0  0  0  0  0
  148.8476  145.4423  159.7535 O   0  0  0  0  0  0  0  0  0  0  0  0
  150.2204  143.2800  158.1427 N   0  0  0  0  0  0  0  0  0  0  0  0
  150.6062  142.0941  157.6514 C   0  0  0  0  0  0  0  0  0  0  0  0
  151.3887  141.3372  158.2258 O   0  0  0  0  0  0  0  0  0  0  0  0
  150.0119  141.8431  156.4732 N   0  0  0  0  0  0  0  0  0  0  0  0
  150.1326  140.6796  155.6627 C   0  0  0  0  0  0  0  0  0  0  0  0
  151.3724  140.0121  155.5107 C   0  0  0  0  0  0  0  0  0  0  0  0
  151.4612  138.9110  154.6419 C   0  0  0  0  0  0  0  0  0  0  0  0
  150.3074  138.5235  153.9407 C   0  0  0  0  0  0  0  0  0  0  0  0
  149.1233  139.1558  154.0645 N   0  0  0  0  0  0  0  0  0  0  0  0
  149.0176  140.2108  154.9100 C   0  0  0  0  0  0  0  0  0  0  0  0
  147.7469  140.8226  155.0126 N   0  0  0  0  0  0  0  0  0  0  0  0
  147.1729  141.5303  153.8729 C   0  0  0  0  0  0  0  0  0  0  0  0
  145.6961  141.7005  154.2171 C   0  0  0  0  0  0  0  0  0  0  0  0
  145.3851  140.4084  154.9663 C   0  0  0  0  0  0  0  0  0  0  0  0
  146.6893  140.0929  155.7065 C   0  0  0  0  0  0  0  0  0  0  0  0
  151.9339  145.4933  160.0473 H   0  0  0  0  0  0  0  0  0  0  0  0
  151.0231  145.8285  158.5767 H   0  0  0  0  0  0  0  0  0  0  0  0
  152.4214  144.7560  158.5283 H   0  0  0  0  0  0  0  0  0  0  0  0
  151.2549  143.1217  159.9671 H   0  0  0  0  0  0  0  0  0  0  0  0
  148.6533  143.4886  160.2139 H   0  0  0  0  0  0  0  0  0  0  0  0
  149.6780  144.3834  161.3144 H   0  0  0  0  0  0  0  0  0  0  0  0
  148.1736  145.2080  159.1343 H   0  0  0  0  0  0  0  0  0  0  0  0
  149.5727  143.8301  157.5980 H   0  0  0  0  0  0  0  0  0  0  0  0
  149.3154  142.5094  156.1734 H   0  0  0  0  0  0  0  0  0  0  0  0
  152.2609  140.3419  156.0274 H   0  0  0  0  0  0  0  0  0  0  0  0
  152.3950  138.3857  154.5067 H   0  0  0  0  0  0  0  0  0  0  0  0
  150.3365  137.6881  153.2572 H   0  0  0  0  0  0  0  0  0  0  0  0
  147.6650  142.4898  153.7115 H   0  0  0  0  0  0  0  0  0  0  0  0
  147.2664  140.9385  152.9613 H   0  0  0  0  0  0  0  0  0  0  0  0
  145.5624  142.5573  154.8791 H   0  0  0  0  0  0  0  0  0  0  0  0
  145.0687  141.8476  153.3377 H   0  0  0  0  0  0  0  0  0  0  0  0
  144.5298  140.4993  155.6364 H   0  0  0  0  0  0  0  0  0  0  0  0
  145.1684  139.6144  154.2504 H   0  0  0  0  0  0  0  0  0  0  0  0
  146.8805  139.0189  155.7342 H   0  0  0  0  0  0  0  0  0  0  0  0
  146.6285  140.4521  156.7342 H   0  0  0  0  0  0  0  0  0  0  0  0
  1  2  1  0  0  0  0
  1 20  1  0  0  0  0
  1 21  1  0  0  0  0
  1 22  1  0  0  0  0
  2  3  1  0  0  0  0
  2  5  1  0  0  0  0
  2 23  1  0  0  0  0
  3  4  1  0  0  0  0
  3 24  1  0  0  0  0
  3 25  1  0  0  0  0
  4 26  1  0  0  0  0
  5  6  1  0  0  0  0
  5 27  1  0  0  0  0
  6  7  2  0  0  0  0
  6  8  1  0  0  0  0
  8  9  1  0  0  0  0
  8 28  1  0  0  0  0
  9 14  1  0  0  0  0
  9 10  2  0  0  0  0
 10 11  1  0  0  0  0
 10 29  1  0  0  0  0
 11 12  2  0  0  0  0
 11 30  1  0  0  0  0
 12 13  1  0  0  0  0
 12 31  1  0  0  0  0
 13 14  2  0  0  0  0
 14 15  1  0  0  0  0
 15 19  1  0  0  0  0
 15 16  1  0  0  0  0
 16 17  1  0  0  0  0
 16 32  1  0  0  0  0
 16 33  1  0  0  0  0
 17 18  1  0  0  0  0
 17 34  1  0  0  0  0
 17 35  1  0  0  0  0
 18 19  1  0  0  0  0
 18 36  1  0  0  0  0
 18 37  1  0  0  0  0
 19 38  1  0  0  0  0
 19 39  1  0  0  0  0
M  END
> <s_m_source_file>
AV-unprocessed.smi

> <i_m_source_file_index>
317

> <i_lp_mmshare_version>
43012

> <i_f3d_flags>
0

> <s_epik_input>
W09IXVtDSDJdW0NAQEhdKFtDSDNdKVtOSF1DKD1PKVtOSF1jMVtjSF1bY0hdW2NIXW5jMU4yW0NIMl1bQ0gyXVtDSDJdW0NIMl0y

> <s_epik_cmdline>
J2VwaWtfcHl0aG9uJywgJy1waCcsICc3LjAnLCAnLXRuJywgJzgnLCAnLW1hJywgJzIwMCcsICctbWV0YWxfYmluZGluZycsICctaW1hZScsICc8aW5maWxlLm1hZT4nLCAnLW9tYWUnLCAnPG91dGZpbGUubWFlPic=

> <r_lp_tautomer_probability>
1

> <r_epik_Ionization_Penalty>
0.098371

> <r_epik_Ionization_Penalty_Charging>
0

> <r_epik_Ionization_Penalty_Neutral>
0.098371

> <r_epik_State_Penalty>
0.0879016

> <r_epik_Charging_Adjusted_Penalty>
0.0879016

> <i_epik_Tot_Q>
0

> <i_epik_Tot_abs_Q>
0

> <r_epik_Metal_State_Penalty>
0.0753294

> <b_epik_Metal_Only>
0

> <s_lp_Force_Field>
OPLS_2005

> <r_lp_Energy>
32.3253

> <b_lp_Chiralities_Consistent>
1

> <s_lp_Variant>
AV-unprocessed.smi:317-2

> <Gold.Version>
5.8.1

> <Gold.Id.Protein>
6NUR|6NUR_protein|mol2

> <Gold.PLP.Fitness>
42.7850

> <Gold.PLP.PLP>
-34.0779

> <Gold.PLP.part.hbond>
-3.8475

> <Gold.PLP.part.metal>
0.0000

> <Gold.PLP.part.buried>
-1.8606

> <Gold.PLP.part.nonpolar>
-29.5449

> <Gold.PLP.part.repulsive>
0.4267

> <Gold.PLP.ligand.clash>
0.0000

> <Gold.PLP.ligand.torsion>
0.6055

> <Gold.PLP.Chemscore.Hbond>
2.0888

> <Gold.PLP.Chemscore.CHOScore>
1.1037

> <Gold.PLP.Chemscore.Metal>
0.0000

> <Gold.Chemscore.Hbonds>
donor molecule, donor type, donor heavy atom, donor atom, acceptor molecule, acceptor atom, score
      L1  H     4    26       P1  8029  0.56
      L1  H     5    27       P1  8028  0.54
      L1  H     8    28       P1  8028  0.28
      L1  C    12    31       P1  7948  0.79
      L1  C    12    31       P1  7949  0.30

> <Gold.PLP.Chemscore.Internal.Correction>
0.3408

> <Gold.Rescore>
     Score         DG    S(hbond)    S(metal)    S(lipo)     H(rot)  DE(clash)    DE(int)     intcor
     10.10     -12.77       0.87        0.00      82.89       2.08       0.75       1.91       ----

> <Gold.Chemscore.Fitness>
10.1033

> <Gold.Chemscore.DG>
-12.7651

> <Gold.Chemscore.ZeroCoef>
-5.4800

> <Gold.Chemscore.Hbond>
0.8699

> <Gold.Chemscore.Metal>
0.0000

> <Gold.Chemscore.Lipo>
82.8852

> <Gold.Chemscore.Internal_Hbond>
0.0000

> <Gold.Chemscore.DEClash>
0.7491

> <Gold.Chemscore.DEInternal>
1.9127

> <Gold.Chemscore.Rot>
2.0773

> <Gold.Chemscore.Internal.Correction>
   9.000000E+99

> <Gold.Chemscore.Hbonds>
donor molecule, donor type, donor heavy atom, donor atom, acceptor molecule, acceptor atom, score
      L1  H     4    26       P1  8029  0.53
      L1  H     5    27       P1  8028  0.20
      L1  H     8    28       P1  8028  0.28

> <Gold.Chemscore.Hbond.Weighted>
-2.9053

> <Gold.Chemscore.Metal.Weighted>
-0.0000

> <Gold.Chemscore.Lipo.Weighted>
-9.6976

> <Gold.Chemscore.Internal_Hbond.Weighted>
0.0000

> <Gold.Chemscore.DEClash.Weighted>
0.7491

> <Gold.Chemscore.DEInternal.Weighted>
1.9127

> <Gold.Chemscore.Rot.Weighted>
5.3178

> <Gold.Chemscore.Internal.Correction.Weighted>
   9.000000E+99

> <Gold.Protein.RotatedTorsions>
[ 6907 6896 6895 6894 ] final -153.44 input  -60.11 | X-H torsion
[ 7974 7965 7964 7962 ] final  144.27 input  175.53 | X-H torsion
[ 8008 7997 7996 7995 ] final   -6.52 input   59.86 | X-H torsion
[ 10167 10162 10161 10158 ] final  100.15 input  -65.29 | X-H torsion
[ 10718 10713 10712 10709 ] final   82.94 input   66.30 | X-H torsion
[ 10763 10752 10751 10750 ] final  -92.40 input  -60.55 | X-H torsion
[ 11005 11000 10999 10996 ] final   56.17 input  -57.11 | X-H torsion

> <Gold.Protein.ActiveResidues>
 VAL166  LYS551  ARG553  GLY616  TRP617  ASP618  TYR619  PRO620  LYS621  CYS622 
 ASP623  PHE694  ASN695  SER759  ASP760  ASP761  ALA762  ILE779  LEU786  VAL792 
 PHE793  MET794  SER795  GLU796  ALA797  LYS798  CYS799  TRP800  GLU811  SER814 

> <Gold.Protein.RotatedAtoms>
  151.2427  133.4391  159.2607 H   0  0  0  0  0  0  0  0  0  0  0  0  # atno 6907 bound_to 6896
  151.0691  134.9787  159.8309 H   0  0  0  0  0  0  0  0  0  0  0  0  # atno 6908 bound_to 6896
  152.5409  134.2373  159.8901 H   0  0  0  0  0  0  0  0  0  0  0  0  # atno 6909 bound_to 6896
  144.8850  139.5643  143.5825 H   0  0  0  0  0  0  0  0  0  0  0  0  # atno 7974 bound_to 7965
  154.5929  140.2430  155.7896 H   0  0  0  0  0  0  0  0  0  0  0  0  # atno 8008 bound_to 7997
  156.2259  140.2982  156.0020 H   0  0  0  0  0  0  0  0  0  0  0  0  # atno 8009 bound_to 7997
  155.2343  140.0405  157.2957 H   0  0  0  0  0  0  0  0  0  0  0  0  # atno 8010 bound_to 7997
  139.7553  144.6971  151.0371 H   0  0  0  0  0  0  0  0  0  0  0  0  # atno 10167 bound_to 10162
  157.6868  131.0069  150.2449 H   0  0  0  0  0  0  0  0  0  0  0  0  # atno 10718 bound_to 10713
  154.6858  135.5232  153.8324 H   0  0  0  0  0  0  0  0  0  0  0  0  # atno 10763 bound_to 10752
  153.0596  135.6563  154.0504 H   0  0  0  0  0  0  0  0  0  0  0  0  # atno 10764 bound_to 10752
  154.0385  135.2979  155.3338 H   0  0  0  0  0  0  0  0  0  0  0  0  # atno 10765 bound_to 10752
  140.0550  134.5683  155.9218 H   0  0  0  0  0  0  0  0  0  0  0  0  # atno 11005 bound_to 11000
  146.3018  139.7452  142.9085 LP  0  0  0  0  0  0  0  0  0  0  0  0  # atno 17320 bound_to 7965
  145.3886  141.0369  143.3137 LP  0  0  0  0  0  0  0  0  0  0  0  0  # atno 17321 bound_to 7965
  140.7802  143.4760  151.0082 LP  0  0  0  0  0  0  0  0  0  0  0  0  # atno 17342 bound_to 10162
  139.8447  143.7517  152.3179 LP  0  0  0  0  0  0  0  0  0  0  0  0  # atno 17343 bound_to 10162
  156.3057  130.3764  149.7708 LP  0  0  0  0  0  0  0  0  0  0  0  0  # atno 17370 bound_to 10713
  156.5325  130.8264  151.3242 LP  0  0  0  0  0  0  0  0  0  0  0  0  # atno 17371 bound_to 10713
  141.1948  133.6584  156.5611 LP  0  0  0  0  0  0  0  0  0  0  0  0  # atno 17394 bound_to 11000
  140.3858  134.7483  157.4690 LP  0  0  0  0  0  0  0  0  0  0  0  0  # atno 17395 bound_to 11000

$$$$
