AV-unprocessed.smi:3047|AV-procd|sdf|11621|dock6
  -GOLD-   2272017 03D 1   1.00000     0.00000
 Structure written by MMmdl.
 38 39  0  0  0  0  0  0  0  0  2 V2000
  151.0778  133.9860  155.9244 C   0  0  0  0  0  0  0  0  0  0  0  0
  151.4360  132.2507  156.4158 S   0  0  0  0  0  0  0  0  0  0  0  0
  152.7680  131.8924  155.9046 O   0  0  0  0  0  0  0  0  0  0  0  0
  151.1280  132.0788  157.8437 O   0  0  0  0  0  0  0  0  0  0  0  0
  150.2710  131.3461  155.5110 N   0  0  0  0  0  0  0  0  0  0  0  0
  150.1509  129.9021  155.7550 C   0  0  0  0  0  0  0  0  0  0  0  0
  149.5584  129.3160  154.4761 C   0  0  0  0  0  0  0  0  0  0  0  0
  150.0856  130.2489  153.3946 C   0  0  0  0  0  0  0  0  0  0  0  0
  150.1212  131.6291  154.0742 C   0  0  1  0  0  0  0  0  0  0  0  0
  148.8886  132.4921  153.7692 C   0  0  0  0  0  0  0  0  0  0  0  0
  148.7007  133.5544  154.3634 O   0  0  0  0  0  0  0  0  0  0  0  0
  148.0588  132.0270  152.8227 N   0  0  0  0  0  0  0  0  0  0  0  0
  146.8564  132.7060  152.3561 C   0  0  0  0  0  0  0  0  0  0  0  0
  146.9747  133.1256  150.8814 C   0  0  0  0  0  0  0  0  0  0  0  0
  145.6823  133.0613  150.1973 N   0  0  0  0  0  0  0  0  0  0  0  0
  145.3365  132.2379  149.1567 C   0  0  0  0  0  0  0  0  0  0  0  0
  144.0318  132.5257  148.8480 C   0  0  0  0  0  0  0  0  0  0  0  0
  143.6372  133.5117  149.7128 N   0  3  0  0  0  0  0  0  0  0  0  0
  144.6424  133.8356  150.5330 C   0  0  0  0  0  0  0  0  0  0  0  0
  151.7911  134.6527  156.4081 H   0  0  0  0  0  0  0  0  0  0  0  0
  150.0680  134.2547  156.2332 H   0  0  0  0  0  0  0  0  0  0  0  0
  151.1663  134.0843  154.8428 H   0  0  0  0  0  0  0  0  0  0  0  0
  151.1403  129.4805  155.9359 H   0  0  0  0  0  0  0  0  0  0  0  0
  149.5301  129.7060  156.6295 H   0  0  0  0  0  0  0  0  0  0  0  0
  149.8445  128.2763  154.3152 H   0  0  0  0  0  0  0  0  0  0  0  0
  148.4693  129.3642  154.5134 H   0  0  0  0  0  0  0  0  0  0  0  0
  151.0978  129.9532  153.1147 H   0  0  0  0  0  0  0  0  0  0  0  0
  149.4785  130.2174  152.4886 H   0  0  0  0  0  0  0  0  0  0  0  0
  151.0059  132.1600  153.7179 H   0  0  0  0  0  0  0  0  0  0  0  0
  148.2963  131.1538  152.3735 H   0  0  0  0  0  0  0  0  0  0  0  0
  145.9878  132.0619  152.5043 H   0  0  0  0  0  0  0  0  0  0  0  0
  146.7007  133.5851  152.9822 H   0  0  0  0  0  0  0  0  0  0  0  0
  147.3624  134.1420  150.7954 H   0  0  0  0  0  0  0  0  0  0  0  0
  147.6632  132.4728  150.3427 H   0  0  0  0  0  0  0  0  0  0  0  0
  146.0265  131.5262  148.7257 H   0  0  0  0  0  0  0  0  0  0  0  0
  143.3724  132.1135  148.0981 H   0  0  0  0  0  0  0  0  0  0  0  0
  144.6171  134.5763  151.3127 H   0  0  0  0  0  0  0  0  0  0  0  0
  142.7177  133.9354  149.7315 H   0  0  0  0  0  0  0  0  0  0  0  0
  1  2  1  0  0  0  0
  1 20  1  0  0  0  0
  1 21  1  0  0  0  0
  1 22  1  0  0  0  0
  2  3  2  0  0  0  0
  2  4  2  0  0  0  0
  2  5  1  0  0  0  0
  5  9  1  0  0  0  0
  5  6  1  0  0  0  0
  6  7  1  0  0  0  0
  6 23  1  0  0  0  0
  6 24  1  0  0  0  0
  7  8  1  0  0  0  0
  7 25  1  0  0  0  0
  7 26  1  0  0  0  0
  8  9  1  0  0  0  0
  8 27  1  0  0  0  0
  8 28  1  0  0  0  0
  9 10  1  0  0  0  0
  9 29  1  0  0  0  0
 10 11  2  0  0  0  0
 10 12  1  0  0  0  0
 12 13  1  0  0  0  0
 12 30  1  0  0  0  0
 13 14  1  0  0  0  0
 13 31  1  0  0  0  0
 13 32  1  0  0  0  0
 14 15  1  0  0  0  0
 14 33  1  0  0  0  0
 14 34  1  0  0  0  0
 15 19  1  0  0  0  0
 15 16  1  0  0  0  0
 16 17  2  0  0  0  0
 16 35  1  0  0  0  0
 17 18  1  0  0  0  0
 17 36  1  0  0  0  0
 18 19  2  0  0  0  0
 18 38  1  0  0  0  0
 19 37  1  0  0  0  0
M  CHG  1  18   1
M  END
> <s_m_source_file>
AV-unprocessed.smi

> <i_m_source_file_index>
3047

> <i_lp_mmshare_version>
43012

> <i_f3d_flags>
0

> <s_epik_input>
W0NIM11TKD1PKSg9TylOMVtDSDJdW0NIMl1bQ0gyXVtDQEhdMUMoPU8pW05IXVtDSDJdW0NIMl1uMltjSF1bY0hdbltjSF0y

> <s_epik_cmdline>
J2VwaWtfcHl0aG9uJywgJy1waCcsICc3LjAnLCAnLXRuJywgJzgnLCAnLW1hJywgJzIwMCcsICctbWV0YWxfYmluZGluZycsICctaW1hZScsICc8aW5maWxlLm1hZT4nLCAnLW9tYWUnLCAnPG91dGZpbGUubWFlPic=

> <r_lp_tautomer_probability>
1

> <r_epik_Ionization_Penalty>
0.281738

> <r_epik_Ionization_Penalty_Charging>
0

> <r_epik_Ionization_Penalty_Neutral>
0.281738

> <r_epik_State_Penalty>
0.274352

> <r_epik_Charging_Adjusted_Penalty>
0.274352

> <i_epik_Tot_Q>
1

> <i_epik_Tot_abs_Q>
1

> <r_epik_Metal_State_Penalty>
0.555562

> <b_epik_Metal_Only>
0

> <s_lp_Force_Field>
OPLS_2005

> <r_lp_Energy>
11.1573

> <b_lp_Chiralities_Consistent>
1

> <s_lp_Variant>
AV-unprocessed.smi:3047-1

> <Gold.Version>
5.8.1

> <Gold.Id.Protein>
6NUR|6NUR_protein|mol2

> <Gold.PLP.Fitness>
38.8614

> <Gold.PLP.PLP>
-30.6204

> <Gold.PLP.part.hbond>
-2.3178

> <Gold.PLP.part.metal>
0.0000

> <Gold.PLP.part.buried>
-4.1324

> <Gold.PLP.part.nonpolar>
-24.1635

> <Gold.PLP.part.repulsive>
0.1531

> <Gold.PLP.ligand.clash>
0.0000

> <Gold.PLP.ligand.torsion>
0.6623

> <Gold.PLP.Chemscore.Hbond>
3.0000

> <Gold.PLP.Chemscore.CHOScore>
0.0000

> <Gold.PLP.Chemscore.Metal>
0.0000

> <Gold.Chemscore.Hbonds>
donor molecule, donor type, donor heavy atom, donor atom, acceptor molecule, acceptor atom, score
      L1  H    12    30       P1 10747  0.31
      L1  H    18    38       P1 10186  2.00
      P1  H  6896  6909       L1     4  1.00

> <Gold.PLP.Chemscore.Internal.Correction>
0.5656

> <Gold.Rescore>
     Score         DG    S(hbond)    S(metal)    S(lipo)     H(rot)  DE(clash)    DE(int)     intcor
     10.90     -13.06       1.99        0.00      61.90       2.47       0.12       2.04       ----

> <Gold.Chemscore.Fitness>
10.9022

> <Gold.Chemscore.DG>
-13.0632

> <Gold.Chemscore.ZeroCoef>
-5.4800

> <Gold.Chemscore.Hbond>
1.9945

> <Gold.Chemscore.Metal>
0.0000

> <Gold.Chemscore.Lipo>
61.8985

> <Gold.Chemscore.Internal_Hbond>
0.0000

> <Gold.Chemscore.DEClash>
0.1242

> <Gold.Chemscore.DEInternal>
2.0367

> <Gold.Chemscore.Rot>
2.4689

> <Gold.Chemscore.Internal.Correction>
   9.000000E+99

> <Gold.Chemscore.Hbonds>
donor molecule, donor type, donor heavy atom, donor atom, acceptor molecule, acceptor atom, score
      L1  H    12    30       P1 10747  0.30
      L1  H    18    38       P1 10186  1.00
      P1  H  6896  6909       L1     4  1.00

> <Gold.Chemscore.Hbond.Weighted>
-6.6615

> <Gold.Chemscore.Metal.Weighted>
-0.0000

> <Gold.Chemscore.Lipo.Weighted>
-7.2421

> <Gold.Chemscore.Internal_Hbond.Weighted>
0.0000

> <Gold.Chemscore.DEClash.Weighted>
0.1242

> <Gold.Chemscore.DEInternal.Weighted>
2.0367

> <Gold.Chemscore.Rot.Weighted>
6.3204

> <Gold.Chemscore.Internal.Correction.Weighted>
   9.000000E+99

> <Gold.Protein.RotatedTorsions>
[ 6907 6896 6895 6894 ] final  -46.67 input  -60.11 | X-H torsion
[ 7974 7965 7964 7962 ] final -116.50 input  175.53 | X-H torsion
[ 8008 7997 7996 7995 ] final  -16.68 input   59.86 | X-H torsion
[ 10167 10162 10161 10158 ] final  104.45 input  -65.29 | X-H torsion
[ 10718 10713 10712 10709 ] final   69.22 input   66.30 | X-H torsion
[ 10763 10752 10751 10750 ] final  -43.71 input  -60.55 | X-H torsion
[ 11005 11000 10999 10996 ] final  -93.48 input  -57.11 | X-H torsion

> <Gold.Protein.ActiveResidues>
 VAL166  LYS551  ARG553  GLY616  TRP617  ASP618  TYR619  PRO620  LYS621  CYS622 
 ASP623  PHE694  ASN695  SER759  ASP760  ASP761  ALA762  ILE779  LEU786  VAL792 
 PHE793  MET794  SER795  GLU796  ALA797  LYS798  CYS799  TRP800  GLU811  SER814 

> <Gold.Protein.RotatedAtoms>
  150.9088  134.8504  159.7410 H   0  0  0  0  0  0  0  0  0  0  0  0  # atno 6907 bound_to 6896
  152.4933  134.4390  159.9547 H   0  0  0  0  0  0  0  0  0  0  0  0  # atno 6908 bound_to 6896
  151.4434  133.3597  159.2820 H   0  0  0  0  0  0  0  0  0  0  0  0  # atno 6909 bound_to 6896
  145.0960  140.8521  143.3954 H   0  0  0  0  0  0  0  0  0  0  0  0  # atno 7974 bound_to 7965
  154.5034  140.2163  155.9299 H   0  0  0  0  0  0  0  0  0  0  0  0  # atno 8008 bound_to 7997
  156.1463  140.3170  155.8543 H   0  0  0  0  0  0  0  0  0  0  0  0  # atno 8009 bound_to 7997
  155.4024  140.0485  157.3027 H   0  0  0  0  0  0  0  0  0  0  0  0  # atno 8010 bound_to 7997
  139.7176  144.7065  151.0924 H   0  0  0  0  0  0  0  0  0  0  0  0  # atno 10167 bound_to 10162
  157.6334  130.9414  150.0484 H   0  0  0  0  0  0  0  0  0  0  0  0  # atno 10718 bound_to 10713
  154.0000  135.6694  153.4758 H   0  0  0  0  0  0  0  0  0  0  0  0  # atno 10763 bound_to 10752
  153.0666  135.4997  154.8211 H   0  0  0  0  0  0  0  0  0  0  0  0  # atno 10764 bound_to 10752
  154.7058  135.3087  154.9235 H   0  0  0  0  0  0  0  0  0  0  0  0  # atno 10765 bound_to 10752
  141.1496  133.7890  157.0165 H   0  0  0  0  0  0  0  0  0  0  0  0  # atno 11005 bound_to 11000
  145.1010  139.2822  143.5686 LP  0  0  0  0  0  0  0  0  0  0  0  0  # atno 17320 bound_to 7965
  146.3530  140.0577  142.8631 LP  0  0  0  0  0  0  0  0  0  0  0  0  # atno 17321 bound_to 7965
  140.7747  143.5209  150.9538 LP  0  0  0  0  0  0  0  0  0  0  0  0  # atno 17342 bound_to 10162
  139.8895  143.6971  152.3147 LP  0  0  0  0  0  0  0  0  0  0  0  0  # atno 17343 bound_to 10162
  156.1554  130.3643  149.9377 LP  0  0  0  0  0  0  0  0  0  0  0  0  # atno 17370 bound_to 10713
  156.7388  130.9071  151.3631 LP  0  0  0  0  0  0  0  0  0  0  0  0  # atno 17371 bound_to 10713
  140.0844  134.9629  157.1676 LP  0  0  0  0  0  0  0  0  0  0  0  0  # atno 17394 bound_to 11000
  140.3532  134.2575  155.7196 LP  0  0  0  0  0  0  0  0  0  0  0  0  # atno 17395 bound_to 11000

$$$$
