AV-unprocessed.smi:1648|AV-procd|sdf|6629|dock3
  -GOLD-   22720 7323D 1   1.00000     0.00000
 Structure written by MMmdl.
 42 42  0  0  0  0  0  0  0  0  2 V2000
  150.0190  134.5301  154.9589 C   0  0  0  0  0  0  0  0  0  0  0  0
  149.2526  135.8010  155.3302 C   0  0  0  0  0  0  0  0  0  0  0  0
  148.9467  136.0003  156.5034 O   0  0  0  0  0  0  0  0  0  0  0  0
  148.9230  136.6771  154.3652 N   0  0  0  0  0  0  0  0  0  0  0  0
  148.1963  137.9405  154.5185 C   0  0  2  0  0  0  0  0  0  0  0  0
  146.9061  137.8687  153.6795 C   0  0  0  0  0  0  0  0  0  0  0  0
  146.0815  138.7835  153.7174 O   0  0  0  0  0  0  0  0  0  0  0  0
  146.7373  136.7593  152.9428 N   0  0  0  0  0  0  0  0  0  0  0  0
  145.5824  136.4784  152.0958 C   0  0  1  0  0  0  0  0  0  0  0  0
  145.9812  136.6553  150.6220 C   0  0  0  0  0  0  0  0  0  0  0  0
  145.0259  135.0726  152.4112 C   0  0  0  0  0  0  0  0  0  0  0  0
  145.5696  134.0303  151.5362 N   0  0  0  0  0  0  0  0  0  0  0  0
  144.8845  133.2498  150.6404 C   0  0  0  0  0  0  0  0  0  0  0  0
  145.8107  132.4285  150.0503 C   0  0  0  0  0  0  0  0  0  0  0  0
  147.0208  132.7455  150.6068 N   0  3  0  0  0  0  0  0  0  0  0  0
  146.8724  133.7212  151.5087 C   0  0  0  0  0  0  0  0  0  0  0  0
  149.0974  139.1013  154.0019 C   0  0  0  0  0  0  0  0  0  0  0  0
  150.4563  139.1388  154.7291 C   0  0  0  0  0  0  0  0  0  0  0  0
  148.4272  140.4870  154.1169 C   0  0  0  0  0  0  0  0  0  0  0  0
  149.4278  133.9053  154.2889 H   0  0  0  0  0  0  0  0  0  0  0  0
  150.2437  133.9440  155.8507 H   0  0  0  0  0  0  0  0  0  0  0  0
  150.9640  134.7723  154.4725 H   0  0  0  0  0  0  0  0  0  0  0  0
  149.1855  136.4330  153.4210 H   0  0  0  0  0  0  0  0  0  0  0  0
  147.9548  138.1174  155.5679 H   0  0  0  0  0  0  0  0  0  0  0  0
  147.4635  136.0579  152.9720 H   0  0  0  0  0  0  0  0  0  0  0  0
  144.8081  137.2170  152.3125 H   0  0  0  0  0  0  0  0  0  0  0  0
  145.1251  136.5337  149.9583 H   0  0  0  0  0  0  0  0  0  0  0  0
  146.7392  135.9296  150.3257 H   0  0  0  0  0  0  0  0  0  0  0  0
  146.3871  137.6517  150.4442 H   0  0  0  0  0  0  0  0  0  0  0  0
  145.2497  134.7946  153.4423 H   0  0  0  0  0  0  0  0  0  0  0  0
  143.9398  135.0526  152.3085 H   0  0  0  0  0  0  0  0  0  0  0  0
  143.8171  133.3330  150.4942 H   0  0  0  0  0  0  0  0  0  0  0  0
  145.7021  131.6641  149.2944 H   0  0  0  0  0  0  0  0  0  0  0  0
  147.6512  134.1705  152.0993 H   0  0  0  0  0  0  0  0  0  0  0  0
  149.3081  138.9318  152.9443 H   0  0  0  0  0  0  0  0  0  0  0  0
  150.3254  139.2774  155.8027 H   0  0  0  0  0  0  0  0  0  0  0  0
  151.0749  139.9586  154.3626 H   0  0  0  0  0  0  0  0  0  0  0  0
  151.0269  138.2220  154.5795 H   0  0  0  0  0  0  0  0  0  0  0  0
  148.1415  140.7024  155.1469 H   0  0  0  0  0  0  0  0  0  0  0  0
  147.5332  140.5666  153.4985 H   0  0  0  0  0  0  0  0  0  0  0  0
  149.1038  141.2772  153.7902 H   0  0  0  0  0  0  0  0  0  0  0  0
  147.9025  132.3079  150.3694 H   0  0  0  0  0  0  0  0  0  0  0  0
  1  2  1  0  0  0  0
  1 20  1  0  0  0  0
  1 21  1  0  0  0  0
  1 22  1  0  0  0  0
  2  3  2  0  0  0  0
  2  4  1  0  0  0  0
  4  5  1  0  0  0  0
  4 23  1  0  0  0  0
  5  6  1  0  0  0  0
  5 17  1  0  0  0  0
  5 24  1  0  0  0  0
  6  7  2  0  0  0  0
  6  8  1  0  0  0  0
  8  9  1  0  0  0  0
  8 25  1  0  0  0  0
  9 10  1  0  0  0  0
  9 11  1  0  0  0  0
  9 26  1  0  0  0  0
 10 27  1  0  0  0  0
 10 28  1  0  0  0  0
 10 29  1  0  0  0  0
 11 12  1  0  0  0  0
 11 30  1  0  0  0  0
 11 31  1  0  0  0  0
 12 16  1  0  0  0  0
 12 13  1  0  0  0  0
 13 14  2  0  0  0  0
 13 32  1  0  0  0  0
 14 15  1  0  0  0  0
 14 33  1  0  0  0  0
 15 16  2  0  0  0  0
 15 42  1  0  0  0  0
 16 34  1  0  0  0  0
 17 18  1  0  0  0  0
 17 19  1  0  0  0  0
 17 35  1  0  0  0  0
 18 36  1  0  0  0  0
 18 37  1  0  0  0  0
 18 38  1  0  0  0  0
 19 39  1  0  0  0  0
 19 40  1  0  0  0  0
 19 41  1  0  0  0  0
M  CHG  1  15   1
M  END
> <s_m_source_file>
AV-unprocessed.smi

> <i_m_source_file_index>
1648

> <i_lp_mmshare_version>
43012

> <i_f3d_flags>
0

> <s_epik_input>
W0NIM11DKD1PKVtOSF1bQ0BASF0oW0NIXShbQ0gzXSlbQ0gzXSlDKD1PKVtOSF1bQ0BIXShbQ0gzXSlbQ0gyXW4xW2NIXVtjSF1uW2NIXTE=

> <s_epik_cmdline>
J2VwaWtfcHl0aG9uJywgJy1waCcsICc3LjAnLCAnLXRuJywgJzgnLCAnLW1hJywgJzIwMCcsICctbWV0YWxfYmluZGluZycsICctaW1hZScsICc8aW5maWxlLm1hZT4nLCAnLW9tYWUnLCAnPG91dGZpbGUubWFlPic=

> <r_lp_tautomer_probability>
1

> <r_epik_Ionization_Penalty>
0.251562

> <r_epik_Ionization_Penalty_Charging>
0

> <r_epik_Ionization_Penalty_Neutral>
0.251562

> <r_epik_State_Penalty>
0.242926

> <r_epik_Charging_Adjusted_Penalty>
0.242926

> <i_epik_Tot_Q>
1

> <i_epik_Tot_abs_Q>
1

> <r_epik_Metal_State_Penalty>
0.53388

> <b_epik_Metal_Only>
0

> <s_lp_Force_Field>
OPLS_2005

> <r_lp_Energy>
11.8238

> <b_lp_Chiralities_Consistent>
1

> <s_lp_Variant>
AV-unprocessed.smi:1648-3

> <Gold.Version>
5.8.1

> <Gold.Id.Protein>
6NUR|6NUR_protein|mol2

> <Gold.PLP.Fitness>
37.7055

> <Gold.PLP.PLP>
-28.6870

> <Gold.PLP.part.hbond>
-3.0000

> <Gold.PLP.part.metal>
0.0000

> <Gold.PLP.part.buried>
-2.3883

> <Gold.PLP.part.nonpolar>
-23.7657

> <Gold.PLP.part.repulsive>
0.3122

> <Gold.PLP.ligand.clash>
0.0000

> <Gold.PLP.ligand.torsion>
0.6228

> <Gold.PLP.Chemscore.Hbond>
2.4000

> <Gold.PLP.Chemscore.CHOScore>
1.0000

> <Gold.PLP.Chemscore.Metal>
0.0000

> <Gold.Chemscore.Hbonds>
donor molecule, donor type, donor heavy atom, donor atom, acceptor molecule, acceptor atom, score
      L1  H     4    23       P1  7948  1.00
      L1  H     8    25       P1  7948  0.40
      L1  H    15    42       P1 10747  1.00
      L1  C    16    34       P1  7948  1.00

> <Gold.PLP.Chemscore.Internal.Correction>
0.0642

> <Gold.Rescore>
     Score         DG    S(hbond)    S(metal)    S(lipo)     H(rot)  DE(clash)    DE(int)     intcor
     11.92     -13.95       2.35        0.00      62.52       2.61       0.16       1.87       ----

> <Gold.Chemscore.Fitness>
11.9155

> <Gold.Chemscore.DG>
-13.9473

> <Gold.Chemscore.ZeroCoef>
-5.4800

> <Gold.Chemscore.Hbond>
2.3481

> <Gold.Chemscore.Metal>
0.0000

> <Gold.Chemscore.Lipo>
62.5233

> <Gold.Chemscore.Internal_Hbond>
0.0000

> <Gold.Chemscore.DEClash>
0.1612

> <Gold.Chemscore.DEInternal>
1.8706

> <Gold.Chemscore.Rot>
2.6135

> <Gold.Chemscore.Internal.Correction>
   9.000000E+99

> <Gold.Chemscore.Hbonds>
donor molecule, donor type, donor heavy atom, donor atom, acceptor molecule, acceptor atom, score
      L1  H     4    23       P1  7948  0.92
      L1  H     8    25       P1  7948  0.40
      L1  H    15    42       P1 10747  0.96

> <Gold.Chemscore.Hbond.Weighted>
-7.8427

> <Gold.Chemscore.Metal.Weighted>
-0.0000

> <Gold.Chemscore.Lipo.Weighted>
-7.3152

> <Gold.Chemscore.Internal_Hbond.Weighted>
0.0000

> <Gold.Chemscore.DEClash.Weighted>
0.1612

> <Gold.Chemscore.DEInternal.Weighted>
1.8706

> <Gold.Chemscore.Rot.Weighted>
6.6906

> <Gold.Chemscore.Internal.Correction.Weighted>
   9.000000E+99

> <Gold.Protein.RotatedTorsions>
[ 6907 6896 6895 6894 ] final -165.74 input  -60.11 | X-H torsion
[ 7974 7965 7964 7962 ] final -129.26 input  175.53 | X-H torsion
[ 8008 7997 7996 7995 ] final   -8.55 input   59.86 | X-H torsion
[ 10167 10162 10161 10158 ] final  104.84 input  -65.29 | X-H torsion
[ 10718 10713 10712 10709 ] final  -69.92 input   66.30 | X-H torsion
[ 10763 10752 10751 10750 ] final   58.97 input  -60.55 | X-H torsion
[ 11005 11000 10999 10996 ] final   55.53 input  -57.11 | X-H torsion

> <Gold.Protein.ActiveResidues>
 VAL166  LYS551  ARG553  GLY616  TRP617  ASP618  TYR619  PRO620  LYS621  CYS622 
 ASP623  PHE694  ASN695  SER759  ASP760  ASP761  ALA762  ILE779  LEU786  VAL792 
 PHE793  MET794  SER795  GLU796  ALA797  LYS798  CYS799  TRP800  GLU811  SER814 

> <Gold.Protein.RotatedAtoms>
  151.4325  133.3666  159.2770 H   0  0  0  0  0  0  0  0  0  0  0  0  # atno 6907 bound_to 6896
  150.9215  134.8634  159.7503 H   0  0  0  0  0  0  0  0  0  0  0  0  # atno 6908 bound_to 6896
  152.4984  134.4263  159.9549 H   0  0  0  0  0  0  0  0  0  0  0  0  # atno 6909 bound_to 6896
  144.9590  140.7426  143.4741 H   0  0  0  0  0  0  0  0  0  0  0  0  # atno 7974 bound_to 7965
  154.5730  140.2378  155.8164 H   0  0  0  0  0  0  0  0  0  0  0  0  # atno 8008 bound_to 7997
  156.2121  140.3023  155.9714 H   0  0  0  0  0  0  0  0  0  0  0  0  # atno 8009 bound_to 7997
  155.2678  140.0417  157.2994 H   0  0  0  0  0  0  0  0  0  0  0  0  # atno 8010 bound_to 7997
  139.7143  144.7071  151.0975 H   0  0  0  0  0  0  0  0  0  0  0  0  # atno 10167 bound_to 10162
  156.0432  130.4321  150.2218 H   0  0  0  0  0  0  0  0  0  0  0  0  # atno 10718 bound_to 10713
  152.9883  135.5588  154.5638 H   0  0  0  0  0  0  0  0  0  0  0  0  # atno 10763 bound_to 10752
  154.5052  135.2799  155.1390 H   0  0  0  0  0  0  0  0  0  0  0  0  # atno 10764 bound_to 10752
  154.2804  135.6346  153.5398 H   0  0  0  0  0  0  0  0  0  0  0  0  # atno 10765 bound_to 10752
  140.0600  134.5616  155.9163 H   0  0  0  0  0  0  0  0  0  0  0  0  # atno 11005 bound_to 11000
  145.2729  139.1947  143.4832 LP  0  0  0  0  0  0  0  0  0  0  0  0  # atno 17320 bound_to 7965
  146.3347  140.2678  142.8604 LP  0  0  0  0  0  0  0  0  0  0  0  0  # atno 17321 bound_to 7965
  140.7740  143.5250  150.9490 LP  0  0  0  0  0  0  0  0  0  0  0  0  # atno 17342 bound_to 10162
  139.8936  143.6923  152.3142 LP  0  0  0  0  0  0  0  0  0  0  0  0  # atno 17343 bound_to 10162
  157.0311  131.0007  151.3312 LP  0  0  0  0  0  0  0  0  0  0  0  0  # atno 17370 bound_to 10713
  157.5277  130.8038  149.7880 LP  0  0  0  0  0  0  0  0  0  0  0  0  # atno 17371 bound_to 10713
  141.1969  133.6593  156.5714 LP  0  0  0  0  0  0  0  0  0  0  0  0  # atno 17394 bound_to 11000
  140.3785  134.7544  157.4645 LP  0  0  0  0  0  0  0  0  0  0  0  0  # atno 17395 bound_to 11000

$$$$
