AV-unprocessed.smi:210|AV-procd|sdf|1614|dock2
  -GOLD-   2262019533D 1   1.00000     0.00000
 Structure written by MMmdl.
 57 61  0  0  0  0  0  0  0  0  1 V2000
  141.3120  143.1866  155.2071 C   0  0  0  0  0  0  0  0  0  0  0  0
  142.0320  142.5952  156.2743 O   0  0  0  0  0  0  0  0  0  0  0  0
  142.6546  141.3761  155.9008 C   0  0  1  0  0  0  0  0  0  0  0  0
  143.2845  140.5984  157.0636 C   0  0  0  0  0  0  0  0  0  0  0  0
  142.7415  139.3014  156.4303 C   0  0  2  0  0  0  0  0  0  0  0  0
  143.7226  138.6842  155.5251 N   0  0  0  0  0  0  0  0  0  0  0  0
  144.9516  138.1922  156.1400 C   0  0  0  0  0  0  0  0  0  0  0  0
  143.2226  137.7418  154.6950 C   0  0  0  0  0  0  0  0  0  0  0  0
  141.9508  137.2907  154.8615 N   0  0  0  0  0  0  0  0  0  0  0  0
  141.4613  136.3617  154.0347 C   0  0  0  0  0  0  0  0  0  0  0  0
  142.0588  135.7654  153.0002 N   0  0  0  0  0  0  0  0  0  0  0  0
  143.3362  136.2161  152.8363 C   0  0  0  0  0  0  0  0  0  0  0  0
  143.9939  137.1869  153.6411 C   0  0  0  0  0  0  0  0  0  0  0  0
  145.2921  137.3840  153.1897 N   0  0  0  0  0  0  0  0  0  0  0  0
  145.3978  136.5710  152.1737 C   0  0  0  0  0  0  0  0  0  0  0  0
  144.2606  135.8546  151.8718 N   0  0  0  0  0  0  0  0  0  0  0  0
  144.1092  134.8766  150.8347 C   0  0  0  0  0  0  0  0  0  0  0  0
  143.8521  133.4017  151.1627 C   0  0  0  0  0  0  0  0  0  0  0  0
  144.6592  132.9944  149.9081 C   0  0  0  0  0  0  0  0  0  0  0  0
  145.5761  131.7631  150.0483 C   0  0  0  0  0  0  0  0  0  0  0  0
  146.4481  131.8572  151.1571 O   0  0  0  0  0  0  0  0  0  0  0  0
  143.7994  132.7815  148.6474 C   0  0  0  0  0  0  0  0  0  0  0  0
  143.4617  134.0094  148.0344 O   0  0  0  0  0  0  0  0  0  0  0  0
  145.3187  134.3874  150.0324 C   0  0  0  0  0  0  0  0  0  0  0  0
  141.6771  140.1979  155.7397 C   0  0  0  0  0  0  0  0  0  0  0  0
  140.2609  140.2913  156.3368 C   0  0  0  0  0  0  0  0  0  0  0  0
  139.7461  140.6039  154.9289 C   0  0  0  0  0  0  0  0  0  0  0  0
  140.9970  139.9065  154.3883 C   0  0  0  0  0  0  0  0  0  0  0  0
  140.8537  144.1156  155.5453 H   0  0  0  0  0  0  0  0  0  0  0  0
  140.5171  142.5272  154.8563 H   0  0  0  0  0  0  0  0  0  0  0  0
  141.9677  143.4215  154.3679 H   0  0  0  0  0  0  0  0  0  0  0  0
  143.3203  141.4706  155.0401 H   0  0  0  0  0  0  0  0  0  0  0  0
  144.3673  140.6965  157.1337 H   0  0  0  0  0  0  0  0  0  0  0  0
  142.8104  140.8212  158.0210 H   0  0  0  0  0  0  0  0  0  0  0  0
  142.3236  138.6143  157.1672 H   0  0  0  0  0  0  0  0  0  0  0  0
  145.5012  137.5217  155.4770 H   0  0  0  0  0  0  0  0  0  0  0  0
  144.7318  137.6527  157.0619 H   0  0  0  0  0  0  0  0  0  0  0  0
  145.6174  139.0205  156.3798 H   0  0  0  0  0  0  0  0  0  0  0  0
  140.4440  136.0543  154.2271 H   0  0  0  0  0  0  0  0  0  0  0  0
  146.3137  136.4793  151.6081 H   0  0  0  0  0  0  0  0  0  0  0  0
  143.3370  135.2638  150.1678 H   0  0  0  0  0  0  0  0  0  0  0  0
  144.3178  133.1003  152.1022 H   0  0  0  0  0  0  0  0  0  0  0  0
  142.8003  133.1142  151.1441 H   0  0  0  0  0  0  0  0  0  0  0  0
  144.9873  130.8526  150.1633 H   0  0  0  0  0  0  0  0  0  0  0  0
  146.1928  131.6295  149.1589 H   0  0  0  0  0  0  0  0  0  0  0  0
  147.3375  131.7823  150.8469 H   0  0  0  0  0  0  0  0  0  0  0  0
  144.3192  132.1583  147.9189 H   0  0  0  0  0  0  0  0  0  0  0  0
  142.8706  132.2622  148.8841 H   0  0  0  0  0  0  0  0  0  0  0  0
  144.2596  134.4648  147.8129 H   0  0  0  0  0  0  0  0  0  0  0  0
  145.4721  134.9124  149.0889 H   0  0  0  0  0  0  0  0  0  0  0  0
  146.2340  134.3869  150.6266 H   0  0  0  0  0  0  0  0  0  0  0  0
  139.8996  139.3319  156.7102 H   0  0  0  0  0  0  0  0  0  0  0  0
  140.1080  141.0853  157.0681 H   0  0  0  0  0  0  0  0  0  0  0  0
  138.8037  140.1215  154.6683 H   0  0  0  0  0  0  0  0  0  0  0  0
  139.7299  141.6731  154.7116 H   0  0  0  0  0  0  0  0  0  0  0  0
  141.4569  140.3916  153.5268 H   0  0  0  0  0  0  0  0  0  0  0  0
  140.8106  138.8485  154.2037 H   0  0  0  0  0  0  0  0  0  0  0  0
  1  2  1  0  0  0  0
  1 29  1  0  0  0  0
  1 30  1  0  0  0  0
  1 31  1  0  0  0  0
  2  3  1  0  0  0  0
  3 25  1  0  0  0  0
  3  4  1  0  0  0  0
  3 32  1  0  0  0  0
  4  5  1  0  0  0  0
  4 33  1  0  0  0  0
  4 34  1  0  0  0  0
  5  6  1  0  0  0  0
  5 25  1  0  0  0  0
  5 35  1  0  0  0  0
  6  7  1  0  0  0  0
  6  8  1  0  0  0  0
  7 36  1  0  0  0  0
  7 37  1  0  0  0  0
  7 38  1  0  0  0  0
  8 13  1  0  0  0  0
  8  9  2  0  0  0  0
  9 10  1  0  0  0  0
 10 11  2  0  0  0  0
 10 39  1  0  0  0  0
 11 12  1  0  0  0  0
 12 16  1  0  0  0  0
 12 13  2  0  0  0  0
 13 14  1  0  0  0  0
 14 15  2  0  0  0  0
 15 16  1  0  0  0  0
 15 40  1  0  0  0  0
 16 17  1  0  0  0  0
 17 24  1  0  0  0  0
 17 18  1  0  0  0  0
 17 41  1  0  0  0  0
 18 19  1  0  0  0  0
 18 42  1  0  0  0  0
 18 43  1  0  0  0  0
 19 20  1  0  0  0  0
 19 22  1  0  0  0  0
 19 24  1  0  0  0  0
 20 21  1  0  0  0  0
 20 44  1  0  0  0  0
 20 45  1  0  0  0  0
 21 46  1  0  0  0  0
 22 23  1  0  0  0  0
 22 47  1  0  0  0  0
 22 48  1  0  0  0  0
 23 49  1  0  0  0  0
 24 50  1  0  0  0  0
 24 51  1  0  0  0  0
 25 28  1  0  0  0  0
 25 26  1  0  0  0  0
 26 27  1  0  0  0  0
 26 52  1  0  0  0  0
 26 53  1  0  0  0  0
 27 28  1  0  0  0  0
 27 54  1  0  0  0  0
 27 55  1  0  0  0  0
 28 56  1  0  0  0  0
 28 57  1  0  0  0  0
M  END
> <s_m_source_file>
AV-unprocessed.smi

> <i_m_source_file_index>
210

> <i_lp_mmshare_version>
43012

> <i_f3d_flags>
0

> <s_epik_input>
W0NIMl0xW0NIMl1bQ0gyXUMxMltDQEhdKE9bQ0gzXSlbQ0gyXVtDQEhdMk4oW0NIM10pYyhuW2NIXW4zKWMoYzM0KW5bY0hdbjRbQ0hdKFtDSDJdNSlbQ0gyXUM1KFtDSDJdW09IXSlbQ0gyXVtPSF0=

> <s_epik_cmdline>
J2VwaWtfcHl0aG9uJywgJy1waCcsICc3LjAnLCAnLXRuJywgJzgnLCAnLW1hJywgJzIwMCcsICctbWV0YWxfYmluZGluZycsICctaW1hZScsICc8aW5maWxlLm1hZT4nLCAnLW9tYWUnLCAnPG91dGZpbGUubWFlPic=

> <r_lp_tautomer_probability>
1

> <r_epik_Ionization_Penalty>
0.00313676

> <r_epik_Ionization_Penalty_Charging>
0

> <r_epik_Ionization_Penalty_Neutral>
0.00313676

> <r_epik_State_Penalty>
0.00199132

> <r_epik_Charging_Adjusted_Penalty>
0.00199132

> <i_epik_Tot_Q>
0

> <i_epik_Tot_abs_Q>
0

> <r_epik_Metal_State_Penalty>
-0

> <b_epik_Metal_Only>
0

> <s_lp_Force_Field>
OPLS_2005

> <r_lp_Energy>
61.1908

> <b_lp_Chiralities_Consistent>
1

> <s_lp_Variant>
AV-unprocessed.smi:210-4

> <Gold.Version>
5.8.1

> <Gold.Id.Protein>
6NUR|6NUR_protein|mol2

> <Gold.PLP.Fitness>
43.9583

> <Gold.PLP.PLP>
-33.6109

> <Gold.PLP.part.hbond>
-4.7842

> <Gold.PLP.part.metal>
0.0000

> <Gold.PLP.part.buried>
-2.8110

> <Gold.PLP.part.nonpolar>
-26.3825

> <Gold.PLP.part.repulsive>
0.5619

> <Gold.PLP.ligand.clash>
0.0000

> <Gold.PLP.ligand.torsion>
1.0852

> <Gold.PLP.Chemscore.Hbond>
2.9913

> <Gold.PLP.Chemscore.CHOScore>
0.7942

> <Gold.PLP.Chemscore.Metal>
0.0000

> <Gold.Chemscore.Hbonds>
donor molecule, donor type, donor heavy atom, donor atom, acceptor molecule, acceptor atom, score
      L1  H    21    46       P1 10747  1.00
      L1  H    23    49       P1  7921  1.00
      P1  H 10192 10197       L1    23  0.96
      L1  C    15    40       P1  7948  0.74

> <Gold.PLP.Chemscore.Internal.Correction>
1.1616

> <Gold.Rescore>
     Score         DG    S(hbond)    S(metal)    S(lipo)     H(rot)  DE(clash)    DE(int)     intcor
      9.06     -14.22       2.89        0.00      70.48       3.57       1.92       3.25       ----

> <Gold.Chemscore.Fitness>
9.0558

> <Gold.Chemscore.DG>
-14.2243

> <Gold.Chemscore.ZeroCoef>
-5.4800

> <Gold.Chemscore.Hbond>
2.8864

> <Gold.Chemscore.Metal>
0.0000

> <Gold.Chemscore.Lipo>
70.4795

> <Gold.Chemscore.Internal_Hbond>
0.0000

> <Gold.Chemscore.DEClash>
1.9160

> <Gold.Chemscore.DEInternal>
3.2524

> <Gold.Chemscore.Rot>
3.5712

> <Gold.Chemscore.Internal.Correction>
   9.000000E+99

> <Gold.Chemscore.Hbonds>
donor molecule, donor type, donor heavy atom, donor atom, acceptor molecule, acceptor atom, score
      L1  H    21    46       P1 10747  0.97
      L1  H    23    49       P1  7921  0.99
      P1  H 10192 10197       L1    23  0.36

> <Gold.Chemscore.Hbond.Weighted>
-9.6405

> <Gold.Chemscore.Metal.Weighted>
-0.0000

> <Gold.Chemscore.Lipo.Weighted>
-8.2461

> <Gold.Chemscore.Internal_Hbond.Weighted>
0.0000

> <Gold.Chemscore.DEClash.Weighted>
1.9160

> <Gold.Chemscore.DEInternal.Weighted>
3.2524

> <Gold.Chemscore.Rot.Weighted>
9.1423

> <Gold.Chemscore.Internal.Correction.Weighted>
   9.000000E+99

> <Gold.Protein.RotatedTorsions>
[ 6907 6896 6895 6894 ] final  135.76 input  -60.11 | X-H torsion
[ 7974 7965 7964 7962 ] final   22.35 input  175.53 | X-H torsion
[ 8008 7997 7996 7995 ] final -167.98 input   59.86 | X-H torsion
[ 10167 10162 10161 10158 ] final  -85.12 input  -65.29 | X-H torsion
[ 10718 10713 10712 10709 ] final -158.96 input   66.30 | X-H torsion
[ 10763 10752 10751 10750 ] final  175.32 input  -60.55 | X-H torsion
[ 11005 11000 10999 10996 ] final -150.87 input  -57.11 | X-H torsion

> <Gold.Protein.ActiveResidues>
 VAL166  LYS551  ARG553  GLY616  TRP617  ASP618  TYR619  PRO620  LYS621  CYS622 
 ASP623  PHE694  ASN695  SER759  ASP760  ASP761  ALA762  ILE779  LEU786  VAL792 
 PHE793  MET794  SER795  GLU796  ALA797  LYS798  CYS799  TRP800  GLU811  SER814 

> <Gold.Protein.RotatedAtoms>
  152.2968  133.5616  159.5592 H   0  0  0  0  0  0  0  0  0  0  0  0  # atno 6907 bound_to 6896
  150.7259  134.0349  159.3755 H   0  0  0  0  0  0  0  0  0  0  0  0  # atno 6908 bound_to 6896
  151.8251  135.0639  160.0481 H   0  0  0  0  0  0  0  0  0  0  0  0  # atno 6909 bound_to 6896
  146.2032  139.7897  142.8745 H   0  0  0  0  0  0  0  0  0  0  0  0  # atno 7974 bound_to 7965
  155.8851  140.1015  157.1458 H   0  0  0  0  0  0  0  0  0  0  0  0  # atno 8008 bound_to 7997
  154.4009  140.1321  156.4309 H   0  0  0  0  0  0  0  0  0  0  0  0  # atno 8009 bound_to 7997
  155.7598  140.3463  155.5195 H   0  0  0  0  0  0  0  0  0  0  0  0  # atno 8010 bound_to 7997
  140.4068  143.2639  151.9071 H   0  0  0  0  0  0  0  0  0  0  0  0  # atno 10167 bound_to 10162
  156.5615  130.8649  151.2811 H   0  0  0  0  0  0  0  0  0  0  0  0  # atno 10718 bound_to 10713
  154.4659  135.2769  155.1678 H   0  0  0  0  0  0  0  0  0  0  0  0  # atno 10763 bound_to 10752
  154.3447  135.6163  153.5617 H   0  0  0  0  0  0  0  0  0  0  0  0  # atno 10764 bound_to 10752
  152.9859  135.5797  154.5031 H   0  0  0  0  0  0  0  0  0  0  0  0  # atno 10765 bound_to 10752
  140.7356  134.3572  157.5158 H   0  0  0  0  0  0  0  0  0  0  0  0  # atno 11005 bound_to 11000
  145.3410  141.0287  143.3392 LP  0  0  0  0  0  0  0  0  0  0  0  0  # atno 17320 bound_to 7965
  144.8732  139.5008  143.6758 LP  0  0  0  0  0  0  0  0  0  0  0  0  # atno 17321 bound_to 7965
  139.4783  144.5578  151.8286 LP  0  0  0  0  0  0  0  0  0  0  0  0  # atno 17342 bound_to 10162
  140.4681  144.1626  150.5914 LP  0  0  0  0  0  0  0  0  0  0  0  0  # atno 17343 bound_to 10162
  157.7367  130.9784  150.2154 LP  0  0  0  0  0  0  0  0  0  0  0  0  # atno 17370 bound_to 10713
  156.2795  130.3731  149.7950 LP  0  0  0  0  0  0  0  0  0  0  0  0  # atno 17371 bound_to 10713
  139.8817  134.9047  156.2883 LP  0  0  0  0  0  0  0  0  0  0  0  0  # atno 17394 bound_to 11000
  140.9882  133.7225  156.0774 LP  0  0  0  0  0  0  0  0  0  0  0  0  # atno 17395 bound_to 11000

$$$$
