#       Name:                AV-unprocessed.smi:697
#       Creating user name   scv26
#       Creation time:       Fri Mar 27 00:37:01 2020


#       File generated by GOLD software.
#

@<TRIPOS>MOLECULE
AV-unprocessed.smi:697
    50    51     1
SMALL
NO_CHARGES


@<TRIPOS>ATOM
      1 ****        -3.9634  -3.3598   2.1115 C.3            1 S1                 0.0000
      2 ****        -3.3961  -2.7754   0.9463 O.3            1 S1                 0.0000
      3 ****        -3.1287  -1.3734   1.0072 C.3            1 S1                 0.0000
      4 ****        -4.4490  -0.5902   1.0810 C.3            1 S1                 0.0000
      5 ****        -2.0305  -1.0316   2.0310 C.3            1 S1                 0.0000
      6 ****        -1.4625  -0.0883   0.9729 C.3            1 S1                 0.0000
      7 ****        -0.0041  -0.0530   0.9742 N.am           1 S1                 0.0000
      8 ****         0.7330   0.7573   0.2032 C.2            1 S1                 0.0000
      9 ****         0.2431   1.5644  -0.5863 O.2            1 S1                 0.0000
     10 ****         2.0462   0.5709   0.4295 N.am           1 S1                 0.0000
     11 ****         3.1517   1.1978  -0.1703 C.2            1 S1                 0.0000
     12 ****         3.1109   1.9070  -1.3287 C.2            1 S1                 0.0000
     13 ****         4.2980   2.5220  -1.8993 C.2            1 S1                 0.0000
     14 ****         4.2279   3.3771  -3.1549 C.3            1 S1                 0.0000
     15 ****         5.1579   4.3329  -3.1417 F              1 S1                 0.0000
     16 ****         4.4293   2.6177  -4.2308 F              1 S1                 0.0000
     17 ****         3.0335   3.9569  -3.2738 F              1 S1                 0.0000
     18 ****         5.4447   2.3638  -1.2131 C.2            1 S1                 0.0000
     19 ****         5.4993   1.6191  -0.0330 N.am           1 S1                 0.0000
     20 ****         4.4308   1.0180   0.5366 C.2            1 S1                 0.0000
     21 ****         4.5623   0.3738   1.5768 O.2            1 S1                 0.0000
     22 ****        -2.0927  -1.0068  -0.1052 C.3            1 S1                 0.0000
     23 ****        -1.2185  -2.1647  -0.6286 C.3            1 S1                 0.0000
     24 ****        -2.6363  -0.2985  -1.3499 C.3            1 S1                 0.0000
     25 ****         6.4011   1.5319   0.4130 H              1 S1                 0.0000
     26 ****        -4.0349  -4.4380   1.9692 H              1 S1                 0.0000
     27 ****        -4.9709  -2.9916   2.3025 H              1 S1                 0.0000
     28 ****        -3.3512  -3.1845   2.9963 H              1 S1                 0.0000
     29 ****        -4.2894   0.4840   0.9901 H              1 S1                 0.0000
     30 ****        -4.9607  -0.7431   2.0306 H              1 S1                 0.0000
     31 ****        -5.1314  -0.8872   0.2844 H              1 S1                 0.0000
     32 ****        -2.3861  -0.5351   2.9343 H              1 S1                 0.0000
     33 ****        -1.3744  -1.8710   2.2692 H              1 S1                 0.0000
     34 ****        -1.9279   0.8989   1.0193 H              1 S1                 0.0000
     35 ****         0.4711  -0.6853   1.6015 H              1 S1                 0.0000
     36 ****         2.2845  -0.0858   1.1586 H              1 S1                 0.0000
     37 ****         2.1911   2.0206  -1.8783 H              1 S1                 0.0000
     38 ****         6.3927   2.7901  -1.5064 H              1 S1                 0.0000
     39 ****        -0.4014  -1.8025  -1.2534 H              1 S1                 0.0000
     40 ****        -1.8004  -2.8614  -1.2330 H              1 S1                 0.0000
     41 ****        -0.7695  -2.7428   0.1789 H              1 S1                 0.0000
     42 ****        -1.8333  -0.0069  -2.0275 H              1 S1                 0.0000
     43 ****        -3.1769   0.6135  -1.0981 H              1 S1                 0.0000
     44 ****        -3.3202  -0.9399  -1.9065 H              1 S1                 0.0000
     45 ****        -4.0288  -2.9322   0.1880 LP             1 S1                 0.0000
     46 ****        -2.5315  -3.2427   0.7612 LP             1 S1                 0.0000
     47 ****        -0.7503   1.6375  -0.6745 LP             1 S1                 0.0000
     48 ****         0.8385   2.1470  -1.1395 LP             1 S1                 0.0000
     49 ****         3.7688  -0.0686   1.9947 LP             1 S1                 0.0000
     50 ****         5.4627   0.2926   2.0042 LP             1 S1                 0.0000
@<TRIPOS>BOND
    1    1    2 1     
    2    1   26 1     
    3    1   27 1     
    4    1   28 1     
    5    2    3 1     
    6    3   22 1     
    7    3    4 1     
    8    3    5 1     
    9    4   29 1     
   10    4   30 1     
   11    4   31 1     
   12    5    6 1     
   13    5   32 1     
   14    5   33 1     
   15    6    7 1     
   16    6   22 1     
   17    6   34 1     
   18    7    8 am    
   19    7   35 1     
   20    8    9 2     
   21    8   10 am    
   22   10   11 1     
   23   10   36 1     
   24   11   20 1     
   25   11   12 2     
   26   12   13 1     
   27   12   37 1     
   28   13   14 1     
   29   13   18 2     
   30   14   15 1     
   31   14   16 1     
   32   14   17 1     
   33   18   19 1     
   34   18   38 1     
   35   19   25 1     
   36   19   20 am    
   37   20   21 2     
   38   22   23 1     
   39   22   24 1     
   40   23   39 1     
   41   23   40 1     
   42   23   41 1     
   43   24   42 1     
   44   24   43 1     
   45   24   44 1     
   46    2   45 1     
   47    2   46 1     
   48    9   47 1     
   49    9   48 1     
   50   21   49 1     
   51   21   50 1     
@<TRIPOS>SUBSTRUCTURE
      1 S1             1
@<TRIPOS>SET
LONE_PAIRS      STATIC     ATOMS    <user>   **** ""
6 45 46 47 48 49 50
DONOR_HYDROGENS      STATIC     ATOMS    <user>   **** ""
3 35 36 25
ATOM$BLUE        STATIC     ATOMS    COLORGROUP SYSTEM
6 45 46 47 48 49 50
ATOM$RED        STATIC     ATOMS    COLORGROUP SYSTEM
3 35 36 25
