AV-unprocessed.smi:3323|AV-procd|sdf|12778|dock9
  -GOLD-   2272019123D 1   1.00000     0.00000
 Structure written by MMmdl.
 37 38  0  0  0  0  0  0  0  0  1 V2000
  144.9582  133.1715  150.8775 C   0  0  0  0  0  0  0  0  0  0  0  0
  146.1790  132.4081  151.4030 C   0  0  1  0  0  0  0  0  0  0  0  0
  146.8982  133.1719  152.5307 C   0  0  0  0  0  0  0  0  0  0  0  0
  148.0738  132.3491  153.0892 C   0  0  1  0  0  0  0  0  0  0  0  0
  148.7805  133.0400  154.2739 C   0  0  0  0  0  0  0  0  0  0  0  0
  149.1413  134.4231  153.9795 N   0  0  0  0  0  0  0  0  0  0  0  0
  149.9796  135.1738  154.7073 C   0  0  0  0  0  0  0  0  0  0  0  0
  150.5366  134.7714  155.7282 O   0  0  0  0  0  0  0  0  0  0  0  0
  150.1097  136.4021  154.1768 N   0  0  0  0  0  0  0  0  0  0  0  0
  150.8744  137.5042  154.6478 C   0  0  0  0  0  0  0  0  0  0  0  0
  151.9803  137.4003  155.5266 C   0  0  0  0  0  0  0  0  0  0  0  0
  152.6571  138.5746  155.9087 C   0  0  0  0  0  0  0  0  0  0  0  0
  152.2104  139.8071  155.3946 C   0  0  0  0  0  0  0  0  0  0  0  0
  151.1672  139.9201  154.5460 N   0  0  0  0  0  0  0  0  0  0  0  0
  150.5232  138.7900  154.1843 C   0  0  0  0  0  0  0  0  0  0  0  0
  147.5578  130.9562  153.4829 C   0  0  0  0  0  0  0  0  0  0  0  0
  146.8026  130.3022  152.3150 C   0  0  0  0  0  0  0  0  0  0  0  0
  145.7366  131.1454  151.8923 O   0  0  0  0  0  0  0  0  0  0  0  0
  145.2455  134.1452  150.4801 H   0  0  0  0  0  0  0  0  0  0  0  0
  144.2241  133.3349  151.6671 H   0  0  0  0  0  0  0  0  0  0  0  0
  144.4682  132.6182  150.0761 H   0  0  0  0  0  0  0  0  0  0  0  0
  146.8691  132.2462  150.5730 H   0  0  0  0  0  0  0  0  0  0  0  0
  147.2516  134.1314  152.1517 H   0  0  0  0  0  0  0  0  0  0  0  0
  146.1919  133.3937  153.3320 H   0  0  0  0  0  0  0  0  0  0  0  0
  148.8031  132.2169  152.2883 H   0  0  0  0  0  0  0  0  0  0  0  0
  148.1268  133.0428  155.1466 H   0  0  0  0  0  0  0  0  0  0  0  0
  149.6723  132.4811  154.5620 H   0  0  0  0  0  0  0  0  0  0  0  0
  148.7244  134.8359  153.1581 H   0  0  0  0  0  0  0  0  0  0  0  0
  149.5430  136.5910  153.3631 H   0  0  0  0  0  0  0  0  0  0  0  0
  152.3307  136.4536  155.9063 H   0  0  0  0  0  0  0  0  0  0  0  0
  153.5024  138.5307  156.5794 H   0  0  0  0  0  0  0  0  0  0  0  0
  152.7070  140.7264  155.6685 H   0  0  0  0  0  0  0  0  0  0  0  0
  149.6938  138.9182  153.5039 H   0  0  0  0  0  0  0  0  0  0  0  0
  148.3879  130.3193  153.7902 H   0  0  0  0  0  0  0  0  0  0  0  0
  146.8912  131.0372  154.3426 H   0  0  0  0  0  0  0  0  0  0  0  0
  147.4752  130.1000  151.4800 H   0  0  0  0  0  0  0  0  0  0  0  0
  146.3885  129.3437  152.6282 H   0  0  0  0  0  0  0  0  0  0  0  0
  1  2  1  0  0  0  0
  1 19  1  0  0  0  0
  1 20  1  0  0  0  0
  1 21  1  0  0  0  0
  2 18  1  0  0  0  0
  2  3  1  0  0  0  0
  2 22  1  0  0  0  0
  3  4  1  0  0  0  0
  3 23  1  0  0  0  0
  3 24  1  0  0  0  0
  4  5  1  0  0  0  0
  4 16  1  0  0  0  0
  4 25  1  0  0  0  0
  5  6  1  0  0  0  0
  5 26  1  0  0  0  0
  5 27  1  0  0  0  0
  6  7  1  0  0  0  0
  6 28  1  0  0  0  0
  7  8  2  0  0  0  0
  7  9  1  0  0  0  0
  9 10  1  0  0  0  0
  9 29  1  0  0  0  0
 10 15  1  0  0  0  0
 10 11  2  0  0  0  0
 11 12  1  0  0  0  0
 11 30  1  0  0  0  0
 12 13  2  0  0  0  0
 12 31  1  0  0  0  0
 13 14  1  0  0  0  0
 13 32  1  0  0  0  0
 14 15  2  0  0  0  0
 15 33  1  0  0  0  0
 16 17  1  0  0  0  0
 16 34  1  0  0  0  0
 16 35  1  0  0  0  0
 17 18  1  0  0  0  0
 17 36  1  0  0  0  0
 17 37  1  0  0  0  0
M  END
> <s_m_source_file>
AV-unprocessed.smi

> <i_m_source_file_index>
3323

> <i_lp_mmshare_version>
43012

> <i_f3d_flags>
0

> <s_epik_input>
W0NIM11bQ0BASF0xW0NIMl1bQ0BIXShbQ0gyXVtDSDJdTzEpW0NIMl1bTkhdQyg9TylbTkhdYzJbY0hdW2NIXVtjSF1uW2NIXTI=

> <s_epik_cmdline>
J2VwaWtfcHl0aG9uJywgJy1waCcsICc3LjAnLCAnLXRuJywgJzgnLCAnLW1hJywgJzIwMCcsICctbWV0YWxfYmluZGluZycsICctaW1hZScsICc8aW5maWxlLm1hZT4nLCAnLW9tYWUnLCAnPG91dGZpbGUubWFlPic=

> <r_epik_Ionization_Penalty>
0.00485293

> <r_epik_Ionization_Penalty_Charging>
0

> <r_epik_Ionization_Penalty_Neutral>
0.00485293

> <r_epik_State_Penalty>
0.00349083

> <r_epik_Charging_Adjusted_Penalty>
0.00349083

> <i_epik_Tot_Q>
0

> <i_epik_Tot_abs_Q>
0

> <r_epik_Metal_State_Penalty>
-0

> <b_epik_Metal_Only>
0

> <s_lp_Force_Field>
OPLS_2005

> <r_lp_Energy>
10.9361

> <b_lp_Chiralities_Consistent>
1

> <s_lp_Variant>
AV-unprocessed.smi:3323-2

> <Gold.Version>
5.8.1

> <Gold.Id.Protein>
6NUR|6NUR_protein|mol2

> <Gold.PLP.Fitness>
42.5449

> <Gold.PLP.PLP>
-31.2314

> <Gold.PLP.part.hbond>
-3.7216

> <Gold.PLP.part.metal>
0.0000

> <Gold.PLP.part.buried>
-2.5558

> <Gold.PLP.part.nonpolar>
-25.1511

> <Gold.PLP.part.repulsive>
0.3223

> <Gold.PLP.ligand.clash>
0.0000

> <Gold.PLP.ligand.torsion>
0.2092

> <Gold.PLP.Chemscore.Hbond>
2.9190

> <Gold.PLP.Chemscore.CHOScore>
0.9908

> <Gold.PLP.Chemscore.Metal>
0.0000

> <Gold.Chemscore.Hbonds>
donor molecule, donor type, donor heavy atom, donor atom, acceptor molecule, acceptor atom, score
      L1  H     6    28       P1  7948  0.85
      L1  H     9    29       P1  7948  1.00
      P1  H  7989  7998       L1    14  0.89
      L1  C    15    33       P1  7957  0.84

> <Gold.PLP.Chemscore.Internal.Correction>
0.0024

> <Gold.Rescore>
     Score         DG    S(hbond)    S(metal)    S(lipo)     H(rot)  DE(clash)    DE(int)     intcor
     17.53     -18.82       2.30        0.00      75.06       1.23       0.00       1.28       ----

> <Gold.Chemscore.Fitness>
17.5310

> <Gold.Chemscore.DG>
-18.8161

> <Gold.Chemscore.ZeroCoef>
-5.4800

> <Gold.Chemscore.Hbond>
2.3041

> <Gold.Chemscore.Metal>
0.0000

> <Gold.Chemscore.Lipo>
75.0625

> <Gold.Chemscore.Internal_Hbond>
0.0000

> <Gold.Chemscore.DEClash>
0.0029

> <Gold.Chemscore.DEInternal>
1.2822

> <Gold.Chemscore.Rot>
1.2273

> <Gold.Chemscore.Internal.Correction>
   9.000000E+99

> <Gold.Chemscore.Hbonds>
donor molecule, donor type, donor heavy atom, donor atom, acceptor molecule, acceptor atom, score
      L1  H     6    28       P1  7948  0.29
      L1  H     9    29       P1  7948  0.62
      P1  H  7989  7998       L1    14  0.37

> <Gold.Chemscore.Hbond.Weighted>
-7.6956

> <Gold.Chemscore.Metal.Weighted>
-0.0000

> <Gold.Chemscore.Lipo.Weighted>
-8.7823

> <Gold.Chemscore.Internal_Hbond.Weighted>
0.0000

> <Gold.Chemscore.DEClash.Weighted>
0.0029

> <Gold.Chemscore.DEInternal.Weighted>
1.2822

> <Gold.Chemscore.Rot.Weighted>
3.1418

> <Gold.Chemscore.Internal.Correction.Weighted>
   9.000000E+99

> <Gold.Protein.RotatedTorsions>
[ 6907 6896 6895 6894 ] final  137.98 input  -60.11 | X-H torsion
[ 7974 7965 7964 7962 ] final -110.73 input  175.53 | X-H torsion
[ 8008 7997 7996 7995 ] final   85.74 input   59.86 | X-H torsion
[ 10167 10162 10161 10158 ] final   76.28 input  -65.29 | X-H torsion
[ 10718 10713 10712 10709 ] final -177.68 input   66.30 | X-H torsion
[ 10763 10752 10751 10750 ] final  114.88 input  -60.55 | X-H torsion
[ 11005 11000 10999 10996 ] final   -2.80 input  -57.11 | X-H torsion

> <Gold.Protein.ActiveResidues>
 VAL166  LYS551  ARG553  GLY616  TRP617  ASP618  TYR619  PRO620  LYS621  CYS622 
 ASP623  PHE694  ASN695  SER759  ASP760  ASP761  ALA762  ILE779  LEU786  VAL792 
 PHE793  MET794  SER795  GLU796  ALA797  LYS798  CYS799  TRP800  GLU811  SER814 

> <Gold.Protein.RotatedAtoms>
  152.2718  133.5389  159.5443 H   0  0  0  0  0  0  0  0  0  0  0  0  # atno 6907 bound_to 6896
  150.7162  134.0687  159.3865 H   0  0  0  0  0  0  0  0  0  0  0  0  # atno 6908 bound_to 6896
  151.8601  135.0527  160.0519 H   0  0  0  0  0  0  0  0  0  0  0  0  # atno 6909 bound_to 6896
  145.1647  140.8896  143.3570 H   0  0  0  0  0  0  0  0  0  0  0  0  # atno 7974 bound_to 7965
  155.9539  140.3399  155.6431 H   0  0  0  0  0  0  0  0  0  0  0  0  # atno 8008 bound_to 7997
  155.6885  140.0746  157.2476 H   0  0  0  0  0  0  0  0  0  0  0  0  # atno 8009 bound_to 7997
  154.4128  140.1661  156.2047 H   0  0  0  0  0  0  0  0  0  0  0  0  # atno 8010 bound_to 7997
  139.9940  144.5736  150.7794 H   0  0  0  0  0  0  0  0  0  0  0  0  # atno 10167 bound_to 10162
  156.8330  130.9660  151.3105 H   0  0  0  0  0  0  0  0  0  0  0  0  # atno 10718 bound_to 10713
  153.5138  135.3612  155.2599 H   0  0  0  0  0  0  0  0  0  0  0  0  # atno 10763 bound_to 10752
  154.8740  135.4029  154.3338 H   0  0  0  0  0  0  0  0  0  0  0  0  # atno 10764 bound_to 10752
  153.3996  135.7074  153.6503 H   0  0  0  0  0  0  0  0  0  0  0  0  # atno 10765 bound_to 10752
  140.6623  133.9309  155.8444 H   0  0  0  0  0  0  0  0  0  0  0  0  # atno 11005 bound_to 11000
  145.0294  139.3354  143.6032 LP  0  0  0  0  0  0  0  0  0  0  0  0  # atno 17320 bound_to 7965
  146.3477  139.9626  142.8715 LP  0  0  0  0  0  0  0  0  0  0  0  0  # atno 17321 bound_to 7965
  140.7444  143.2860  151.3462 LP  0  0  0  0  0  0  0  0  0  0  0  0  # atno 17342 bound_to 10162
  139.6320  144.0703  152.2484 LP  0  0  0  0  0  0  0  0  0  0  0  0  # atno 17343 bound_to 10162
  157.6396  130.8795  149.9424 LP  0  0  0  0  0  0  0  0  0  0  0  0  # atno 17370 bound_to 10713
  156.0923  130.3662  150.0372 LP  0  0  0  0  0  0  0  0  0  0  0  0  # atno 17371 bound_to 10713
  141.0455  134.0560  157.3849 LP  0  0  0  0  0  0  0  0  0  0  0  0  # atno 17394 bound_to 11000
  139.9009  135.0164  156.7261 LP  0  0  0  0  0  0  0  0  0  0  0  0  # atno 17395 bound_to 11000

$$$$
