AV-unprocessed.smi:1005|AV-procd|sdf|4372|dock3
  -GOLD-   22720 2283D 1   1.00000     0.00000
 Structure written by MMmdl.
 57 59  0  0  0  0  0  0  0  0  3 V2000
  153.0674  143.4494  162.2436 C   0  0  0  0  0  0  0  0  0  0  0  0
  152.5537  142.9968  160.8882 C   0  0  0  0  0  0  0  0  0  0  0  0
  152.7706  141.6607  160.4822 C   0  0  0  0  0  0  0  0  0  0  0  0
  152.3122  141.2014  159.2281 C   0  0  0  0  0  0  0  0  0  0  0  0
  152.4195  139.9565  158.6320 N   0  0  0  0  0  0  0  0  0  0  0  0
  151.8015  140.1596  157.4723 C   0  0  0  0  0  0  0  0  0  0  0  0
  151.3075  141.3917  157.2441 N   0  0  0  0  0  0  0  0  0  0  0  0
  150.6033  141.8436  156.0569 C   0  0  0  0  0  0  0  0  0  0  0  0
  149.7806  140.7209  155.3954 C   0  0  2  0  0  0  0  0  0  0  0  0
  150.6350  139.9089  154.6123 O   0  0  0  0  0  0  0  0  0  0  0  0
  148.6714  141.2882  154.4869 C   0  0  0  0  0  0  0  0  0  0  0  0
  148.1591  140.2924  153.5106 N   0  3  2  0  0  0  0  0  0  0  0  0
  147.1603  140.8715  152.5819 C   0  0  0  0  0  0  0  0  0  0  0  0
  146.7179  139.8228  151.5488 C   0  0  0  0  0  0  0  0  0  0  0  0
  146.2088  138.6766  152.2208 O   0  0  0  0  0  0  0  0  0  0  0  0
  147.1872  138.0515  153.0455 C   0  0  2  0  0  0  0  0  0  0  0  0
  146.5598  136.7855  153.6594 C   0  0  0  0  0  0  0  0  0  0  0  0
  146.5271  135.6388  152.7150 N   0  3  0  0  0  0  0  0  0  0  0  0
  146.2017  134.3478  153.3652 C   0  0  0  0  0  0  0  0  0  0  0  0
  145.6422  135.8977  151.5576 C   0  0  0  0  0  0  0  0  0  0  0  0
  147.6261  139.0544  154.1318 C   0  0  0  0  0  0  0  0  0  0  0  0
  151.6211  142.1213  158.3862 C   0  0  0  0  0  0  0  0  0  0  0  0
  151.3964  143.4522  158.7804 C   0  0  0  0  0  0  0  0  0  0  0  0
  151.8665  143.8965  160.0338 C   0  0  0  0  0  0  0  0  0  0  0  0
  151.6287  145.3388  160.4447 C   0  0  0  0  0  0  0  0  0  0  0  0
  153.5390  142.6290  162.7850 H   0  0  0  0  0  0  0  0  0  0  0  0
  152.2491  143.8272  162.8569 H   0  0  0  0  0  0  0  0  0  0  0  0
  153.8071  144.2416  162.1261 H   0  0  0  0  0  0  0  0  0  0  0  0
  153.2954  140.9757  161.1319 H   0  0  0  0  0  0  0  0  0  0  0  0
  151.7043  139.3670  156.7445 H   0  0  0  0  0  0  0  0  0  0  0  0
  149.9496  142.6688  156.3430 H   0  0  0  0  0  0  0  0  0  0  0  0
  151.3311  142.2540  155.3556 H   0  0  0  0  0  0  0  0  0  0  0  0
  149.3489  140.1026  156.1819 H   0  0  0  0  0  0  0  0  0  0  0  0
  150.5213  139.0085  154.8788 H   0  0  0  0  0  0  0  0  0  0  0  0
  147.8425  141.6688  155.0855 H   0  0  0  0  0  0  0  0  0  0  0  0
  149.0759  142.1454  153.9460 H   0  0  0  0  0  0  0  0  0  0  0  0
  146.2977  141.2279  153.1475 H   0  0  0  0  0  0  0  0  0  0  0  0
  147.5860  141.7340  152.0675 H   0  0  0  0  0  0  0  0  0  0  0  0
  145.9371  140.2336  150.9085 H   0  0  0  0  0  0  0  0  0  0  0  0
  147.5477  139.5405  150.8987 H   0  0  0  0  0  0  0  0  0  0  0  0
  148.0566  137.7846  152.4439 H   0  0  0  0  0  0  0  0  0  0  0  0
  147.0968  136.4906  154.5621 H   0  0  0  0  0  0  0  0  0  0  0  0
  145.5428  137.0264  153.9739 H   0  0  0  0  0  0  0  0  0  0  0  0
  145.2159  134.3815  153.8309 H   0  0  0  0  0  0  0  0  0  0  0  0
  146.9320  134.0861  154.1296 H   0  0  0  0  0  0  0  0  0  0  0  0
  146.2010  133.5396  152.6330 H   0  0  0  0  0  0  0  0  0  0  0  0
  144.6066  136.0227  151.8765 H   0  0  0  0  0  0  0  0  0  0  0  0
  145.6838  135.0714  150.8469 H   0  0  0  0  0  0  0  0  0  0  0  0
  145.9493  136.8003  151.0279 H   0  0  0  0  0  0  0  0  0  0  0  0
  148.3843  138.5897  154.7609 H   0  0  0  0  0  0  0  0  0  0  0  0
  146.7838  139.3051  154.7788 H   0  0  0  0  0  0  0  0  0  0  0  0
  150.8710  144.1270  158.1207 H   0  0  0  0  0  0  0  0  0  0  0  0
  151.1349  145.9020  159.6522 H   0  0  0  0  0  0  0  0  0  0  0  0
  152.5741  145.8348  160.6656 H   0  0  0  0  0  0  0  0  0  0  0  0
  150.9975  145.3838  161.3325 H   0  0  0  0  0  0  0  0  0  0  0  0
  147.4594  135.5514  152.3349 H   0  0  0  0  0  0  0  0  0  0  0  0
  148.9521  140.0258  152.9437 H   0  0  0  0  0  0  0  0  0  0  0  0
  1  2  1  0  0  0  0
  1 26  1  0  0  0  0
  1 27  1  0  0  0  0
  1 28  1  0  0  0  0
  2 24  1  0  0  0  0
  2  3  2  0  0  0  0
  3  4  1  0  0  0  0
  3 29  1  0  0  0  0
  4 22  2  0  0  0  0
  4  5  1  0  0  0  0
  5  6  2  0  0  0  0
  6  7  1  0  0  0  0
  6 30  1  0  0  0  0
  7  8  1  0  0  0  0
  7 22  1  0  0  0  0
  8  9  1  0  0  0  0
  8 31  1  0  0  0  0
  8 32  1  0  0  0  0
  9 10  1  0  0  0  0
  9 11  1  0  0  0  0
  9 33  1  0  0  0  0
 10 34  1  0  0  0  0
 11 12  1  0  0  0  0
 11 35  1  0  0  0  0
 11 36  1  0  0  0  0
 12 21  1  0  0  0  0
 12 13  1  0  0  0  0
 12 57  1  0  0  0  0
 13 14  1  0  0  0  0
 13 37  1  0  0  0  0
 13 38  1  0  0  0  0
 14 15  1  0  0  0  0
 14 39  1  0  0  0  0
 14 40  1  0  0  0  0
 15 16  1  0  0  0  0
 16 17  1  0  0  0  0
 16 21  1  0  0  0  0
 16 41  1  0  0  0  0
 17 18  1  0  0  0  0
 17 42  1  0  0  0  0
 17 43  1  0  0  0  0
 18 19  1  0  0  0  0
 18 20  1  0  0  0  0
 18 56  1  0  0  0  0
 19 44  1  0  0  0  0
 19 45  1  0  0  0  0
 19 46  1  0  0  0  0
 20 47  1  0  0  0  0
 20 48  1  0  0  0  0
 20 49  1  0  0  0  0
 21 50  1  0  0  0  0
 21 51  1  0  0  0  0
 22 23  1  0  0  0  0
 23 24  2  0  0  0  0
 23 52  1  0  0  0  0
 24 25  1  0  0  0  0
 25 53  1  0  0  0  0
 25 54  1  0  0  0  0
 25 55  1  0  0  0  0
M  CHG  1  12   1
M  CHG  1  18   1
M  END
> <s_m_source_file>
AV-unprocessed.smi

> <i_m_source_file_index>
1005

> <i_lp_mmshare_version>
43012

> <i_f3d_flags>
0

> <s_epik_input>
W0NIM11jKFtjSF0xKWMoW0NIM10pW2NIXWMoYzEyKW4oW2NIXW4yKVtDSDJdW0NASF0oW09IXSlbQ0gyXU4zW0NIMl1bQ0gyXU9bQ0BIXShbQ0gyXTMpW0NIMl1OKFtDSDNdKVtDSDNd

> <s_epik_cmdline>
J2VwaWtfcHl0aG9uJywgJy1waCcsICc3LjAnLCAnLXRuJywgJzgnLCAnLW1hJywgJzIwMCcsICctbWV0YWxfYmluZGluZycsICctaW1hZScsICc8aW5maWxlLm1hZT4nLCAnLW9tYWUnLCAnPG91dGZpbGUubWFlPic=

> <r_epik_Ionization_Penalty>
1.0968

> <r_epik_Ionization_Penalty_Charging>
1.0096

> <r_epik_Ionization_Penalty_Neutral>
0.0871956

> <r_epik_State_Penalty>
1.31185

> <r_epik_Charging_Adjusted_Penalty>
2.32145

> <i_epik_Tot_Q>
2

> <i_epik_Tot_abs_Q>
2

> <r_epik_Metal_State_Penalty>
1.22442

> <b_epik_Metal_Only>
0

> <s_lp_Force_Field>
OPLS_2005

> <r_lp_Energy>
33.8105

> <b_lp_Chiralities_Consistent>
1

> <s_lp_Variant>
AV-unprocessed.smi:1005-11

> <Gold.Version>
5.8.1

> <Gold.Id.Protein>
6NUR|6NUR_protein|mol2

> <Gold.PLP.Fitness>
55.3409

> <Gold.PLP.PLP>
-45.5044

> <Gold.PLP.part.hbond>
-3.0000

> <Gold.PLP.part.metal>
0.0000

> <Gold.PLP.part.buried>
-0.6181

> <Gold.PLP.part.nonpolar>
-42.3019

> <Gold.PLP.part.repulsive>
0.7025

> <Gold.PLP.ligand.clash>
0.0000

> <Gold.PLP.ligand.torsion>
0.9565

> <Gold.PLP.Chemscore.Hbond>
3.8160

> <Gold.PLP.Chemscore.CHOScore>
0.0000

> <Gold.PLP.Chemscore.Metal>
0.0000

> <Gold.Chemscore.Hbonds>
donor molecule, donor type, donor heavy atom, donor atom, acceptor molecule, acceptor atom, score
      L1  H    12    57       P1  7957  0.85
      L1  H    18    56       P1  7948  2.00
      P1  H  7989  7998       L1    10  1.00

> <Gold.PLP.Chemscore.Internal.Correction>
0.3013

> <Gold.Rescore>
     Score         DG    S(hbond)    S(metal)    S(lipo)     H(rot)  DE(clash)    DE(int)     intcor
     20.40     -25.71       2.85        0.00     145.78       2.48       4.16       1.16       ----

> <Gold.Chemscore.Fitness>
20.3971

> <Gold.Chemscore.DG>
-25.7134

> <Gold.Chemscore.ZeroCoef>
-5.4800

> <Gold.Chemscore.Hbond>
2.8533

> <Gold.Chemscore.Metal>
0.0000

> <Gold.Chemscore.Lipo>
145.7756

> <Gold.Chemscore.Internal_Hbond>
0.0000

> <Gold.Chemscore.DEClash>
4.1556

> <Gold.Chemscore.DEInternal>
1.1608

> <Gold.Chemscore.Rot>
2.4814

> <Gold.Chemscore.Internal.Correction>
   9.000000E+99

> <Gold.Chemscore.Hbonds>
donor molecule, donor type, donor heavy atom, donor atom, acceptor molecule, acceptor atom, score
      L1  H    12    57       P1  7957  0.83
      L1  H    18    56       P1  7948  0.97
      P1  H  7989  7998       L1    10  0.82

> <Gold.Chemscore.Hbond.Weighted>
-9.5300

> <Gold.Chemscore.Metal.Weighted>
-0.0000

> <Gold.Chemscore.Lipo.Weighted>
-17.0557

> <Gold.Chemscore.Internal_Hbond.Weighted>
0.0000

> <Gold.Chemscore.DEClash.Weighted>
4.1556

> <Gold.Chemscore.DEInternal.Weighted>
1.1608

> <Gold.Chemscore.Rot.Weighted>
6.3524

> <Gold.Chemscore.Internal.Correction.Weighted>
   9.000000E+99

> <Gold.Protein.RotatedTorsions>
[ 6907 6896 6895 6894 ] final   43.00 input  -60.11 | X-H torsion
[ 7974 7965 7964 7962 ] final   53.39 input  175.53 | X-H torsion
[ 8008 7997 7996 7995 ] final    7.90 input   59.86 | X-H torsion
[ 10167 10162 10161 10158 ] final -144.33 input  -65.29 | X-H torsion
[ 10718 10713 10712 10709 ] final -133.95 input   66.30 | X-H torsion
[ 10763 10752 10751 10750 ] final  130.03 input  -60.55 | X-H torsion
[ 11005 11000 10999 10996 ] final   59.42 input  -57.11 | X-H torsion

> <Gold.Protein.ActiveResidues>
 VAL166  LYS551  ARG553  GLY616  TRP617  ASP618  TYR619  PRO620  LYS621  CYS622 
 ASP623  PHE694  ASN695  SER759  ASP760  ASP761  ALA762  ILE779  LEU786  VAL792 
 PHE793  MET794  SER795  GLU796  ALA797  LYS798  CYS799  TRP800  GLU811  SER814 

> <Gold.Protein.RotatedAtoms>
  152.2148  134.8468  160.0492 H   0  0  0  0  0  0  0  0  0  0  0  0  # atno 6907 bound_to 6896
  151.9273  133.3596  159.3926 H   0  0  0  0  0  0  0  0  0  0  0  0  # atno 6908 bound_to 6896
  150.6985  134.4499  159.5375 H   0  0  0  0  0  0  0  0  0  0  0  0  # atno 6909 bound_to 6896
  145.9716  139.4155  143.0186 H   0  0  0  0  0  0  0  0  0  0  0  0  # atno 7974 bound_to 7965
  154.7599  140.2782  155.6223 H   0  0  0  0  0  0  0  0  0  0  0  0  # atno 8008 bound_to 7997
  156.2913  140.2662  156.2301 H   0  0  0  0  0  0  0  0  0  0  0  0  # atno 8009 bound_to 7997
  155.0031  140.0372  157.2358 H   0  0  0  0  0  0  0  0  0  0  0  0  # atno 8010 bound_to 7997
  139.7909  143.7967  152.2650 H   0  0  0  0  0  0  0  0  0  0  0  0  # atno 10167 bound_to 10162
  156.2503  130.7149  151.1045 H   0  0  0  0  0  0  0  0  0  0  0  0  # atno 10718 bound_to 10713
  153.7514  135.3209  155.3322 H   0  0  0  0  0  0  0  0  0  0  0  0  # atno 10763 bound_to 10752
  154.8262  135.4568  154.0928 H   0  0  0  0  0  0  0  0  0  0  0  0  # atno 10764 bound_to 10752
  153.2132  135.6938  153.8171 H   0  0  0  0  0  0  0  0  0  0  0  0  # atno 10765 bound_to 10752
  140.0305  134.6019  155.9513 H   0  0  0  0  0  0  0  0  0  0  0  0  # atno 11005 bound_to 11000
  145.7897  140.9819  143.1055 LP  0  0  0  0  0  0  0  0  0  0  0  0  # atno 17320 bound_to 7965
  144.6838  139.9668  143.7481 LP  0  0  0  0  0  0  0  0  0  0  0  0  # atno 17321 bound_to 7965
  139.8058  144.7356  150.9763 LP  0  0  0  0  0  0  0  0  0  0  0  0  # atno 17342 bound_to 10162
  140.7820  143.4299  151.0710 LP  0  0  0  0  0  0  0  0  0  0  0  0  # atno 17343 bound_to 10162
  157.7212  131.0680  150.6129 LP  0  0  0  0  0  0  0  0  0  0  0  0  # atno 17370 bound_to 10713
  156.6208  130.4405  149.5823 LP  0  0  0  0  0  0  0  0  0  0  0  0  # atno 17371 bound_to 10713
  141.1828  133.6549  156.5091 LP  0  0  0  0  0  0  0  0  0  0  0  0  # atno 17394 bound_to 11000
  140.4233  134.7167  157.4902 LP  0  0  0  0  0  0  0  0  0  0  0  0  # atno 17395 bound_to 11000

$$$$
