AV-unprocessed.smi:1390|AV-procd|sdf|5656|dock1
  -GOLD-   22720 5283D 1   1.00000     0.00000
 Structure written by MMmdl.
 44 45  0  0  0  0  0  0  0  0  1 V2000
  152.2939  143.9376  159.6757 C   0  0  0  0  0  0  0  0  0  0  0  0
  152.3495  142.6953  158.7808 C   0  0  2  0  0  0  0  0  0  0  0  0
  151.0894  142.5549  157.9049 C   0  0  0  0  0  0  0  0  0  0  0  0
  151.1498  141.3167  157.1393 N   0  0  0  0  0  0  0  0  0  0  0  0
  150.0958  141.1709  156.2276 C   0  0  0  0  0  0  0  0  0  0  0  0
  148.8325  141.7653  156.4529 C   0  0  0  0  0  0  0  0  0  0  0  0
  147.8148  141.5712  155.4997 C   0  0  0  0  0  0  0  0  0  0  0  0
  148.0854  140.7901  154.3581 C   0  0  0  0  0  0  0  0  0  0  0  0
  147.0048  140.5710  153.3105 C   0  0  0  0  0  0  0  0  0  0  0  0
  146.4415  139.2266  153.3330 N   0  0  0  0  0  0  0  0  0  0  0  0
  146.3699  138.4024  152.2773 C   0  0  0  0  0  0  0  0  0  0  0  0
  146.7465  138.7134  151.1476 O   0  0  0  0  0  0  0  0  0  0  0  0
  145.7673  137.0204  152.5282 C   0  0  0  0  0  0  0  0  0  0  0  0
  145.8950  136.2341  151.3532 O   0  0  0  0  0  0  0  0  0  0  0  0
  144.7731  135.3960  151.1267 C   0  0  0  0  0  0  0  0  0  0  0  0
  145.1799  133.9321  151.3349 C   0  0  0  0  0  0  0  0  0  0  0  0
  144.1483  133.1430  151.0372 F   0  0  0  0  0  0  0  0  0  0  0  0
  146.2019  133.6191  150.5389 F   0  0  0  0  0  0  0  0  0  0  0  0
  145.5229  133.7265  152.6064 F   0  0  0  0  0  0  0  0  0  0  0  0
  149.3841  140.2493  154.2213 C   0  0  0  0  0  0  0  0  0  0  0  0
  150.3648  140.4299  155.1309 N   0  0  0  0  0  0  0  0  0  0  0  0
  151.3545  140.1451  157.9806 C   0  0  0  0  0  0  0  0  0  0  0  0
  152.5996  140.3418  158.8616 C   0  0  0  0  0  0  0  0  0  0  0  0
  152.4658  141.5442  159.6147 O   0  0  0  0  0  0  0  0  0  0  0  0
  152.2232  144.8475  159.0791 H   0  0  0  0  0  0  0  0  0  0  0  0
  153.1901  144.0137  160.2920 H   0  0  0  0  0  0  0  0  0  0  0  0
  151.4319  143.9058  160.3425 H   0  0  0  0  0  0  0  0  0  0  0  0
  153.2334  142.7651  158.1442 H   0  0  0  0  0  0  0  0  0  0  0  0
  150.1976  142.5577  158.5332 H   0  0  0  0  0  0  0  0  0  0  0  0
  151.0079  143.4033  157.2240 H   0  0  0  0  0  0  0  0  0  0  0  0
  148.6427  142.3567  157.3367 H   0  0  0  0  0  0  0  0  0  0  0  0
  146.8409  142.0144  155.6474 H   0  0  0  0  0  0  0  0  0  0  0  0
  146.1978  141.2888  153.4633 H   0  0  0  0  0  0  0  0  0  0  0  0
  147.4389  140.7806  152.3314 H   0  0  0  0  0  0  0  0  0  0  0  0
  146.1004  138.8873  154.2210 H   0  0  0  0  0  0  0  0  0  0  0  0
  146.2907  136.5510  153.3623 H   0  0  0  0  0  0  0  0  0  0  0  0
  144.7164  137.1217  152.8047 H   0  0  0  0  0  0  0  0  0  0  0  0
  143.9666  135.6580  151.8136 H   0  0  0  0  0  0  0  0  0  0  0  0
  144.3986  135.5391  150.1117 H   0  0  0  0  0  0  0  0  0  0  0  0
  149.6529  139.6557  153.3599 H   0  0  0  0  0  0  0  0  0  0  0  0
  150.4793  139.9831  158.6110 H   0  0  0  0  0  0  0  0  0  0  0  0
  151.4726  139.2585  157.3563 H   0  0  0  0  0  0  0  0  0  0  0  0
  152.7108  139.5023  159.5480 H   0  0  0  0  0  0  0  0  0  0  0  0
  153.5052  140.3795  158.2542 H   0  0  0  0  0  0  0  0  0  0  0  0
  1  2  1  0  0  0  0
  1 25  1  0  0  0  0
  1 26  1  0  0  0  0
  1 27  1  0  0  0  0
  2 24  1  0  0  0  0
  2  3  1  0  0  0  0
  2 28  1  0  0  0  0
  3  4  1  0  0  0  0
  3 29  1  0  0  0  0
  3 30  1  0  0  0  0
  4  5  1  0  0  0  0
  4 22  1  0  0  0  0
  5 21  1  0  0  0  0
  5  6  2  0  0  0  0
  6  7  1  0  0  0  0
  6 31  1  0  0  0  0
  7  8  2  0  0  0  0
  7 32  1  0  0  0  0
  8  9  1  0  0  0  0
  8 20  1  0  0  0  0
  9 10  1  0  0  0  0
  9 33  1  0  0  0  0
  9 34  1  0  0  0  0
 10 11  1  0  0  0  0
 10 35  1  0  0  0  0
 11 12  2  0  0  0  0
 11 13  1  0  0  0  0
 13 14  1  0  0  0  0
 13 36  1  0  0  0  0
 13 37  1  0  0  0  0
 14 15  1  0  0  0  0
 15 16  1  0  0  0  0
 15 38  1  0  0  0  0
 15 39  1  0  0  0  0
 16 17  1  0  0  0  0
 16 18  1  0  0  0  0
 16 19  1  0  0  0  0
 20 21  2  0  0  0  0
 20 40  1  0  0  0  0
 22 23  1  0  0  0  0
 22 41  1  0  0  0  0
 22 42  1  0  0  0  0
 23 24  1  0  0  0  0
 23 43  1  0  0  0  0
 23 44  1  0  0  0  0
M  END
> <s_m_source_file>
AV-unprocessed.smi

> <i_m_source_file_index>
1390

> <i_lp_mmshare_version>
43012

> <i_f3d_flags>
0

> <s_epik_input>
W0NIM11bQ0BASF0xW0NIMl1OKFtDSDJdW0NIMl1PMSljMltjSF1bY0hdYyhbY0hdbjIpW0NIMl1bTkhdQyg9TylbQ0gyXU9bQ0gyXUMoRikoRilG

> <s_epik_cmdline>
J2VwaWtfcHl0aG9uJywgJy1waCcsICc3LjAnLCAnLXRuJywgJzgnLCAnLW1hJywgJzIwMCcsICctbWV0YWxfYmluZGluZycsICctaW1hZScsICc8aW5maWxlLm1hZT4nLCAnLW9tYWUnLCAnPG91dGZpbGUubWFlPic=

> <r_lp_tautomer_probability>
1

> <r_epik_Ionization_Penalty>
0.00481831

> <r_epik_Ionization_Penalty_Charging>
0

> <r_epik_Ionization_Penalty_Neutral>
0.00481831

> <r_epik_State_Penalty>
0.00349373

> <r_epik_Charging_Adjusted_Penalty>
0.00349373

> <i_epik_Tot_Q>
0

> <i_epik_Tot_abs_Q>
0

> <r_epik_Metal_State_Penalty>
-0

> <b_epik_Metal_Only>
0

> <s_lp_Force_Field>
OPLS_2005

> <r_lp_Energy>
18.3567

> <b_lp_Chiralities_Consistent>
1

> <s_lp_Variant>
AV-unprocessed.smi:1390-1

> <Gold.Version>
5.8.1

> <Gold.Id.Protein>
6NUR|6NUR_protein|mol2

> <Gold.PLP.Fitness>
48.2449

> <Gold.PLP.PLP>
-43.8966

> <Gold.PLP.part.hbond>
-2.5779

> <Gold.PLP.part.metal>
0.0000

> <Gold.PLP.part.buried>
-3.0698

> <Gold.PLP.part.nonpolar>
-39.0620

> <Gold.PLP.part.repulsive>
1.6122

> <Gold.PLP.ligand.clash>
0.0000

> <Gold.PLP.ligand.torsion>
1.4648

> <Gold.PLP.Chemscore.Hbond>
1.3260

> <Gold.PLP.Chemscore.CHOScore>
1.0000

> <Gold.PLP.Chemscore.Metal>
0.0000

> <Gold.Chemscore.Hbonds>
donor molecule, donor type, donor heavy atom, donor atom, acceptor molecule, acceptor atom, score
      P1  H  7954  7966       L1    12  0.90
      P1  H  7989  7998       L1    21  0.28
      L1  C    20    40       P1  7957  1.00

> <Gold.PLP.Chemscore.Internal.Correction>
0.2999

> <Gold.Rescore>
     Score         DG    S(hbond)    S(metal)    S(lipo)     H(rot)  DE(clash)    DE(int)     intcor
     10.62     -12.17       0.88        0.00      88.07       2.57       0.49       1.06       ----

> <Gold.Chemscore.Fitness>
10.6212

> <Gold.Chemscore.DG>
-12.1698

> <Gold.Chemscore.ZeroCoef>
-5.4800

> <Gold.Chemscore.Hbond>
0.8842

> <Gold.Chemscore.Metal>
0.0000

> <Gold.Chemscore.Lipo>
88.0742

> <Gold.Chemscore.Internal_Hbond>
0.0000

> <Gold.Chemscore.DEClash>
0.4907

> <Gold.Chemscore.DEInternal>
1.0579

> <Gold.Chemscore.Rot>
2.5657

> <Gold.Chemscore.Internal.Correction>
   9.000000E+99

> <Gold.Chemscore.Hbonds>
donor molecule, donor type, donor heavy atom, donor atom, acceptor molecule, acceptor atom, score
      P1  H  7954  7966       L1    12  0.81
      P1  H  7989  7998       L1    21  0.01

> <Gold.Chemscore.Hbond.Weighted>
-2.9533

> <Gold.Chemscore.Metal.Weighted>
-0.0000

> <Gold.Chemscore.Lipo.Weighted>
-10.3047

> <Gold.Chemscore.Internal_Hbond.Weighted>
0.0000

> <Gold.Chemscore.DEClash.Weighted>
0.4907

> <Gold.Chemscore.DEInternal.Weighted>
1.0579

> <Gold.Chemscore.Rot.Weighted>
6.5682

> <Gold.Chemscore.Internal.Correction.Weighted>
   9.000000E+99

> <Gold.Protein.RotatedTorsions>
[ 6907 6896 6895 6894 ] final -166.71 input  -60.11 | X-H torsion
[ 7974 7965 7964 7962 ] final -108.90 input  175.53 | X-H torsion
[ 8008 7997 7996 7995 ] final  122.92 input   59.86 | X-H torsion
[ 10167 10162 10161 10158 ] final   48.62 input  -65.29 | X-H torsion
[ 10718 10713 10712 10709 ] final  126.89 input   66.30 | X-H torsion
[ 10763 10752 10751 10750 ] final  170.82 input  -60.55 | X-H torsion
[ 11005 11000 10999 10996 ] final   89.52 input  -57.11 | X-H torsion

> <Gold.Protein.ActiveResidues>
 VAL166  LYS551  ARG553  GLY616  TRP617  ASP618  TYR619  PRO620  LYS621  CYS622 
 ASP623  PHE694  ASN695  SER759  ASP760  ASP761  ALA762  ILE779  LEU786  VAL792 
 PHE793  MET794  SER795  GLU796  ALA797  LYS798  CYS799  TRP800  GLU811  SER814 

> <Gold.Protein.RotatedAtoms>
  151.4479  133.3625  159.2790 H   0  0  0  0  0  0  0  0  0  0  0  0  # atno 6907 bound_to 6896
  150.9112  134.8530  159.7437 H   0  0  0  0  0  0  0  0  0  0  0  0  # atno 6908 bound_to 6896
  152.4933  134.4408  159.9595 H   0  0  0  0  0  0  0  0  0  0  0  0  # atno 6909 bound_to 6896
  145.1872  140.8998  143.3446 H   0  0  0  0  0  0  0  0  0  0  0  0  # atno 7974 bound_to 7965
  156.2746  140.2774  156.1545 H   0  0  0  0  0  0  0  0  0  0  0  0  # atno 8008 bound_to 7997
  155.0819  140.0388  157.2659 H   0  0  0  0  0  0  0  0  0  0  0  0  # atno 8009 bound_to 7997
  154.6958  140.2638  155.6774 H   0  0  0  0  0  0  0  0  0  0  0  0  # atno 8010 bound_to 7997
  140.2914  144.3041  150.6239 H   0  0  0  0  0  0  0  0  0  0  0  0  # atno 10167 bound_to 10162
  157.5380  131.1097  150.8904 H   0  0  0  0  0  0  0  0  0  0  0  0  # atno 10718 bound_to 10713
  154.4031  135.2755  155.2084 H   0  0  0  0  0  0  0  0  0  0  0  0  # atno 10763 bound_to 10752
  154.4102  135.6024  153.5951 H   0  0  0  0  0  0  0  0  0  0  0  0  # atno 10764 bound_to 10752
  152.9831  135.5947  154.4301 H   0  0  0  0  0  0  0  0  0  0  0  0  # atno 10765 bound_to 10752
  139.8874  134.8556  156.3153 H   0  0  0  0  0  0  0  0  0  0  0  0  # atno 11005 bound_to 11000
  145.0077  139.3538  143.6135 LP  0  0  0  0  0  0  0  0  0  0  0  0  # atno 17320 bound_to 7965
  146.3443  139.9327  142.8751 LP  0  0  0  0  0  0  0  0  0  0  0  0  # atno 17321 bound_to 7965
  140.5729  143.2179  151.7567 LP  0  0  0  0  0  0  0  0  0  0  0  0  # atno 17342 bound_to 10162
  139.4937  144.4191  151.9997 LP  0  0  0  0  0  0  0  0  0  0  0  0  # atno 17343 bound_to 10162
  156.9465  130.5404  149.5281 LP  0  0  0  0  0  0  0  0  0  0  0  0  # atno 17370 bound_to 10713
  156.0474  130.5549  150.8912 LP  0  0  0  0  0  0  0  0  0  0  0  0  # atno 17371 bound_to 10713
  140.9823  133.7260  156.0690 LP  0  0  0  0  0  0  0  0  0  0  0  0  # atno 17394 bound_to 11000
  140.7734  134.3807  157.5503 LP  0  0  0  0  0  0  0  0  0  0  0  0  # atno 17395 bound_to 11000

$$$$
