#       Name:                AV-unprocessed.smi:2552
#       Creating user name   scv26
#       Creation time:       Fri Mar 27 14:06:04 2020


#       File generated by GOLD software.
#

@<TRIPOS>MOLECULE
AV-unprocessed.smi:2552
    40    42     1
SMALL
NO_CHARGES


@<TRIPOS>ATOM
      1 ****        -1.2046   1.1126  -4.5260 C.3            1 S1                 0.0000
      2 ****        -1.4665   1.1595  -3.0894 N.am           1 S1                 0.0000
      3 ****        -2.0649   2.3428  -2.6400 N.2            1 S1                 0.0000
      4 ****        -2.3520   2.5194  -1.3880 C.2            1 S1                 0.0000
      5 ****        -2.0338   1.4484  -0.4488 C.2            1 S1                 0.0000
      6 ****        -2.1777   1.2586   0.9532 C.2            1 S1                 0.0000
      7 ****        -1.7146   0.0736   1.3464 N.2            1 S1                 0.0000
      8 ****        -1.2567  -0.5358   0.2220 N.pl3          1 S1                 0.0000
      9 ****        -0.6581  -1.8591   0.3073 C.3            1 S1                 0.0000
     10 ****         0.8819  -1.8126   0.2402 C.3            1 S1                 0.0000
     11 ****         1.3622  -3.1416   0.2004 O.3            1 S1                 0.0000
     12 ****         1.4884  -1.0114   1.3868 C.ar           1 S1                 0.0000
     13 ****         1.6026  -1.5830   2.6737 C.ar           1 S1                 0.0000
     14 ****         2.1446  -0.8381   3.7386 C.ar           1 S1                 0.0000
     15 ****         2.5747   0.4850   3.5252 C.ar           1 S1                 0.0000
     16 ****         2.4596   1.0632   2.2468 C.ar           1 S1                 0.0000
     17 ****         1.9164   0.3204   1.1803 C.ar           1 S1                 0.0000
     18 ****         1.8008   0.8984  -0.0398 F              1 S1                 0.0000
     19 ****        -1.4555   0.2941  -0.8620 C.2            1 S1                 0.0000
     20 ****        -1.1328   0.0986  -2.2946 C.2            1 S1                 0.0000
     21 ****        -0.6106  -0.9371  -2.7073 O.2            1 S1                 0.0000
     22 ****        -1.7392   0.2809  -4.9873 H              1 S1                 0.0000
     23 ****        -0.1385   0.9825  -4.7179 H              1 S1                 0.0000
     24 ****        -1.5210   2.0278  -5.0292 H              1 S1                 0.0000
     25 ****        -2.8180   3.4412  -1.0401 H              1 S1                 0.0000
     26 ****        -2.5943   1.9303   1.6891 H              1 S1                 0.0000
     27 ****        -0.9854  -2.3384   1.2316 H              1 S1                 0.0000
     28 ****        -1.0566  -2.4634  -0.5082 H              1 S1                 0.0000
     29 ****         1.1840  -1.3593  -0.7037 H              1 S1                 0.0000
     30 ****         2.2939  -3.1183   0.0438 H              1 S1                 0.0000
     31 ****         1.2689  -2.5951   2.8501 H              1 S1                 0.0000
     32 ****         2.2278  -1.2814   4.7200 H              1 S1                 0.0000
     33 ****         2.9897   1.0569   4.3419 H              1 S1                 0.0000
     34 ****         2.7854   2.0798   2.0842 H              1 S1                 0.0000
     35 ****        -2.2751   3.0662  -3.2977 LP             1 S1                 0.0000
     36 ****        -1.7058  -0.2921   2.2771 LP             1 S1                 0.0000
     37 ****         0.9085  -3.6425  -0.5366 LP             1 S1                 0.0000
     38 ****         1.1778  -3.5934   1.0733 LP             1 S1                 0.0000
     39 ****        -0.4047  -1.0398  -3.6804 LP             1 S1                 0.0000
     40 ****        -0.3923  -1.6756  -2.0693 LP             1 S1                 0.0000
@<TRIPOS>BOND
    1    1    2 1     
    2    1   22 1     
    3    1   23 1     
    4    1   24 1     
    5    2   20 am    
    6    2    3 1     
    7    3    4 2     
    8    4    5 1     
    9    4   25 1     
   10    5   19 2     
   11    5    6 1     
   12    6    7 2     
   13    6   26 1     
   14    7    8 1     
   15    8    9 1     
   16    8   19 1     
   17    9   10 1     
   18    9   27 1     
   19    9   28 1     
   20   10   11 1     
   21   10   12 1     
   22   10   29 1     
   23   11   30 1     
   24   12   17 ar    
   25   12   13 ar    
   26   13   14 ar    
   27   13   31 1     
   28   14   15 ar    
   29   14   32 1     
   30   15   16 ar    
   31   15   33 1     
   32   16   17 ar    
   33   16   34 1     
   34   17   18 1     
   35   19   20 1     
   36   20   21 2     
   37    3   35 1     
   38    7   36 1     
   39   11   37 1     
   40   11   38 1     
   41   21   39 1     
   42   21   40 1     
@<TRIPOS>SUBSTRUCTURE
      1 S1             1
@<TRIPOS>SET
LONE_PAIRS      STATIC     ATOMS    <user>   **** ""
6 35 36 37 38 39 40
DONOR_HYDROGENS      STATIC     ATOMS    <user>   **** ""
1 30
ATOM$BLUE        STATIC     ATOMS    COLORGROUP SYSTEM
6 35 36 37 38 39 40
ATOM$RED        STATIC     ATOMS    COLORGROUP SYSTEM
1 30
