#       Name:                AV-unprocessed.smi:2451
#       Creating user name   scv26
#       Creation time:       Fri Mar 27 13:31:40 2020


#       File generated by GOLD software.
#

@<TRIPOS>MOLECULE
AV-unprocessed.smi:2451
    42    43     1
SMALL
NO_CHARGES


@<TRIPOS>ATOM
      1 ****        -1.9436  -3.5127   1.5635 C.3            1 S1                 0.0000
      2 ****        -1.4013  -2.4579   0.5829 C.3            1 S1                 0.0000
      3 ****        -1.9383  -2.7383  -0.8351 C.3            1 S1                 0.0000
      4 ****        -1.4078  -1.7293  -1.8612 C.3            1 S1                 0.0000
      5 ****        -1.7433  -0.2892  -1.4492 C.3            1 S1                 0.0000
      6 ****        -1.2440   0.0363  -0.0272 C.3            1 S1                 0.0000
      7 ****         0.2208   0.1603  -0.0021 N.3            1 S1                 0.0000
      8 ****         0.9816   1.5087  -0.7669 S.o2           1 S1                 0.0000
      9 ****         1.3358   1.1007  -2.1349 O.2            1 S1                 0.0000
     10 ****         0.1397   2.6947  -0.5454 O.2            1 S1                 0.0000
     11 ****         2.5252   1.6991   0.2197 C.3            1 S1                 0.0000
     12 ****         3.3428   2.8280  -0.3395 C.2            1 S1                 0.0000
     13 ****         3.1566   4.2271  -0.1618 C.2            1 S1                 0.0000
     14 ****         4.1742   4.7784  -0.8858 C.2            1 S1                 0.0000
     15 ****         4.9298   3.8077  -1.4586 O.3            1 S1                 0.0000
     16 ****         4.3926   2.5657  -1.1019 N.2            1 S1                 0.0000
     17 ****        -1.7306  -1.0028   1.0157 C.3            1 S1                 0.0000
     18 ****        -1.2414  -0.6499   2.4349 C.3            1 S1                 0.0000
     19 ****        -3.0213  -3.4145   1.6967 H              1 S1                 0.0000
     20 ****        -1.4745  -3.4325   2.5438 H              1 S1                 0.0000
     21 ****        -1.7458  -4.5217   1.2009 H              1 S1                 0.0000
     22 ****        -0.3163  -2.5688   0.5555 H              1 S1                 0.0000
     23 ****        -1.6610  -3.7462  -1.1465 H              1 S1                 0.0000
     24 ****        -3.0289  -2.7087  -0.8292 H              1 S1                 0.0000
     25 ****        -0.3278  -1.8420  -1.9637 H              1 S1                 0.0000
     26 ****        -1.8325  -1.9410  -2.8429 H              1 S1                 0.0000
     27 ****        -1.3411   0.4154  -2.1773 H              1 S1                 0.0000
     28 ****        -2.8259  -0.1596  -1.4797 H              1 S1                 0.0000
     29 ****        -1.6581   1.0043   0.2573 H              1 S1                 0.0000
     30 ****         0.6650  -0.7146  -0.2795 H              1 S1                 0.0000
     31 ****         2.2491   1.8919   1.2561 H              1 S1                 0.0000
     32 ****         3.0713   0.7558   0.1903 H              1 S1                 0.0000
     33 ****         2.3942   4.7433   0.4025 H              1 S1                 0.0000
     34 ****         4.4802   5.7956  -1.0807 H              1 S1                 0.0000
     35 ****        -2.8184  -0.9211   1.0416 H              1 S1                 0.0000
     36 ****        -0.1714  -0.8265   2.5470 H              1 S1                 0.0000
     37 ****        -1.7561  -1.2366   3.1954 H              1 S1                 0.0000
     38 ****        -1.4302   0.3993   2.6641 H              1 S1                 0.0000
     39 ****         0.3790   0.3731   0.9622 LP             1 S1                 0.0000
     40 ****         5.8723   3.8753  -1.1311 LP             1 S1                 0.0000
     41 ****         4.9144   3.9099  -2.4532 LP             1 S1                 0.0000
     42 ****         4.7325   1.6639  -1.3686 LP             1 S1                 0.0000
@<TRIPOS>BOND
    1    1    2 1     
    2    1   19 1     
    3    1   20 1     
    4    1   21 1     
    5    2   17 1     
    6    2    3 1     
    7    2   22 1     
    8    3    4 1     
    9    3   23 1     
   10    3   24 1     
   11    4    5 1     
   12    4   25 1     
   13    4   26 1     
   14    5    6 1     
   15    5   27 1     
   16    5   28 1     
   17    6    7 1     
   18    6   17 1     
   19    6   29 1     
   20    7    8 1     
   21    7   30 1     
   22    8    9 2     
   23    8   10 2     
   24    8   11 1     
   25   11   12 1     
   26   11   31 1     
   27   11   32 1     
   28   12   16 2     
   29   12   13 1     
   30   13   14 2     
   31   13   33 1     
   32   14   15 1     
   33   14   34 1     
   34   15   16 1     
   35   17   18 1     
   36   17   35 1     
   37   18   36 1     
   38   18   37 1     
   39   18   38 1     
   40    7   39 1     
   41   15   40 1     
   42   15   41 1     
   43   16   42 1     
@<TRIPOS>SUBSTRUCTURE
      1 S1             1
@<TRIPOS>SET
LONE_PAIRS      STATIC     ATOMS    <user>   **** ""
6 39 9 10 40 41 42
DONOR_HYDROGENS      STATIC     ATOMS    <user>   **** ""
1 30
ATOM$BLUE        STATIC     ATOMS    COLORGROUP SYSTEM
6 39 9 10 40 41 42
ATOM$RED        STATIC     ATOMS    COLORGROUP SYSTEM
1 30
