AV-unprocessed.smi:2273|AV-procd|sdf|9165|dock8
  -GOLD-   2272012373D 1   1.00000     0.00000
 Structure written by MMmdl.
 53 54  0  0  0  0  0  0  0  0  1 V2000
  152.0787  144.6798  159.6470 C   0  0  0  0  0  0  0  0  0  0  0  0
  152.5835  143.4563  158.8669 C   0  0  0  0  0  0  0  0  0  0  0  0
  152.0053  142.1029  159.3526 C   0  0  0  0  0  0  0  0  0  0  0  0
  152.9239  141.4458  160.4131 C   0  0  0  0  0  0  0  0  0  0  0  0
  153.1715  142.3036  161.6635 C   0  0  0  0  0  0  0  0  0  0  0  0
  151.7173  141.1327  158.1766 C   0  0  1  0  0  0  0  0  0  0  0  0
  150.7903  139.9518  158.5352 C   0  0  0  0  0  0  0  0  0  0  0  0
  150.5880  139.0388  157.3129 C   0  0  1  0  0  0  0  0  0  0  0  0
  149.6162  137.9815  157.5991 N   0  0  0  0  0  0  0  0  0  0  0  0
  149.4205  137.3208  158.7548 C   0  0  0  0  0  0  0  0  0  0  0  0
  150.1109  137.5467  159.7475 O   0  0  0  0  0  0  0  0  0  0  0  0
  148.4424  136.3936  158.7072 N   0  0  0  0  0  0  0  0  0  0  0  0
  148.0674  135.5254  159.7436 C   0  0  0  0  0  0  0  0  0  0  0  0
  148.0038  134.1912  159.4928 C   0  0  0  0  0  0  0  0  0  0  0  0
  148.3655  133.6134  158.1336 C   0  0  0  0  0  0  0  0  0  0  0  0
  147.6024  133.2937  160.5559 C   0  0  0  0  0  0  0  0  0  0  0  0
  147.2931  133.7942  161.7593 C   0  0  0  0  0  0  0  0  0  0  0  0
  147.3318  135.1721  162.0161 N   0  0  0  0  0  0  0  0  0  0  0  0
  146.9570  135.6223  163.3591 C   0  0  0  0  0  0  0  0  0  0  0  0
  147.6685  136.0833  161.0584 C   0  0  0  0  0  0  0  0  0  0  0  0
  147.6171  137.2930  161.2920 O   0  0  0  0  0  0  0  0  0  0  0  0
  150.0985  139.8897  156.1319 C   0  0  0  0  0  0  0  0  0  0  0  0
  151.0397  141.0817  155.8936 C   0  0  0  0  0  0  0  0  0  0  0  0
  151.1626  141.8583  157.0811 O   0  0  0  0  0  0  0  0  0  0  0  0
  152.4379  145.6006  159.1870 H   0  0  0  0  0  0  0  0  0  0  0  0
  152.4251  144.6822  160.6795 H   0  0  0  0  0  0  0  0  0  0  0  0
  150.9892  144.7195  159.6559 H   0  0  0  0  0  0  0  0  0  0  0  0
  152.3227  143.6229  157.8239 H   0  0  0  0  0  0  0  0  0  0  0  0
  153.6733  143.4278  158.8974 H   0  0  0  0  0  0  0  0  0  0  0  0
  151.0506  142.3140  159.8365 H   0  0  0  0  0  0  0  0  0  0  0  0
  152.5198  140.4766  160.7075 H   0  0  0  0  0  0  0  0  0  0  0  0
  153.9002  141.2370  159.9791 H   0  0  0  0  0  0  0  0  0  0  0  0
  153.9056  141.8270  162.3137 H   0  0  0  0  0  0  0  0  0  0  0  0
  152.2665  142.4447  162.2530 H   0  0  0  0  0  0  0  0  0  0  0  0
  153.5586  143.2871  161.3964 H   0  0  0  0  0  0  0  0  0  0  0  0
  152.6624  140.6980  157.8525 H   0  0  0  0  0  0  0  0  0  0  0  0
  151.2163  139.3900  159.3657 H   0  0  0  0  0  0  0  0  0  0  0  0
  149.8176  140.3100  158.8697 H   0  0  0  0  0  0  0  0  0  0  0  0
  151.5432  138.5921  157.0307 H   0  0  0  0  0  0  0  0  0  0  0  0
  149.0265  137.7106  156.8253 H   0  0  0  0  0  0  0  0  0  0  0  0
  148.0239  136.2113  157.8071 H   0  0  0  0  0  0  0  0  0  0  0  0
  148.2788  132.5267  158.1301 H   0  0  0  0  0  0  0  0  0  0  0  0
  149.3925  133.8678  157.8699 H   0  0  0  0  0  0  0  0  0  0  0  0
  147.7008  134.0050  157.3629 H   0  0  0  0  0  0  0  0  0  0  0  0
  147.5582  132.2274  160.3881 H   0  0  0  0  0  0  0  0  0  0  0  0
  146.9899  133.1747  162.5907 H   0  0  0  0  0  0  0  0  0  0  0  0
  147.7319  136.2632  163.7829 H   0  0  0  0  0  0  0  0  0  0  0  0
  146.8101  134.7949  164.0542 H   0  0  0  0  0  0  0  0  0  0  0  0
  146.0268  136.1911  163.3233 H   0  0  0  0  0  0  0  0  0  0  0  0
  150.0312  139.2823  155.2286 H   0  0  0  0  0  0  0  0  0  0  0  0
  149.0933  140.2628  156.3337 H   0  0  0  0  0  0  0  0  0  0  0  0
  152.0235  140.7406  155.5678 H   0  0  0  0  0  0  0  0  0  0  0  0
  150.6462  141.7160  155.0992 H   0  0  0  0  0  0  0  0  0  0  0  0
  1  2  1  0  0  0  0
  1 25  1  0  0  0  0
  1 26  1  0  0  0  0
  1 27  1  0  0  0  0
  2  3  1  0  0  0  0
  2 28  1  0  0  0  0
  2 29  1  0  0  0  0
  3  4  1  0  0  0  0
  3  6  1  0  0  0  0
  3 30  1  0  0  0  0
  4  5  1  0  0  0  0
  4 31  1  0  0  0  0
  4 32  1  0  0  0  0
  5 33  1  0  0  0  0
  5 34  1  0  0  0  0
  5 35  1  0  0  0  0
  6 24  1  0  0  0  0
  6  7  1  0  0  0  0
  6 36  1  0  0  0  0
  7  8  1  0  0  0  0
  7 37  1  0  0  0  0
  7 38  1  0  0  0  0
  8  9  1  0  0  0  0
  8 22  1  0  0  0  0
  8 39  1  0  0  0  0
  9 10  1  0  0  0  0
  9 40  1  0  0  0  0
 10 11  2  0  0  0  0
 10 12  1  0  0  0  0
 12 13  1  0  0  0  0
 12 41  1  0  0  0  0
 13 20  1  0  0  0  0
 13 14  2  0  0  0  0
 14 15  1  0  0  0  0
 14 16  1  0  0  0  0
 15 42  1  0  0  0  0
 15 43  1  0  0  0  0
 15 44  1  0  0  0  0
 16 17  2  0  0  0  0
 16 45  1  0  0  0  0
 17 18  1  0  0  0  0
 17 46  1  0  0  0  0
 18 19  1  0  0  0  0
 18 20  1  0  0  0  0
 19 47  1  0  0  0  0
 19 48  1  0  0  0  0
 19 49  1  0  0  0  0
 20 21  2  0  0  0  0
 22 23  1  0  0  0  0
 22 50  1  0  0  0  0
 22 51  1  0  0  0  0
 23 24  1  0  0  0  0
 23 52  1  0  0  0  0
 23 53  1  0  0  0  0
M  END
> <s_m_source_file>
AV-unprocessed.smi

> <i_m_source_file_index>
2273

> <i_lp_mmshare_version>
43012

> <i_f3d_flags>
0

> <s_epik_input>
W0NIM11bQ0gyXVtDSF0oW0NIMl1bQ0gzXSlbQ0BASF0xW0NIMl1bQ0BIXShbQ0gyXVtDSDJdTzEpW05IXUMoPU8pW05IXWMyYyhbQ0gzXSlbY0hdW2NIXW4oW0NIM10pYzI9Tw==

> <s_epik_cmdline>
J2VwaWtfcHl0aG9uJywgJy1waCcsICc3LjAnLCAnLXRuJywgJzgnLCAnLW1hJywgJzIwMCcsICctbWV0YWxfYmluZGluZycsICctaW1hZScsICc8aW5maWxlLm1hZT4nLCAnLW9tYWUnLCAnPG91dGZpbGUubWFlPic=

> <r_lp_tautomer_probability>
1

> <r_epik_Ionization_Penalty>
2.66245e-05

> <r_epik_Ionization_Penalty_Charging>
6.91055e-06

> <r_epik_Ionization_Penalty_Neutral>
1.97139e-05

> <r_epik_State_Penalty>
-0

> <r_epik_Charging_Adjusted_Penalty>
6.91055e-06

> <i_epik_Tot_Q>
0

> <i_epik_Tot_abs_Q>
0

> <r_epik_Metal_State_Penalty>
-0

> <b_epik_Metal_Only>
0

> <s_lp_Force_Field>
OPLS_2005

> <r_lp_Energy>
39.8716

> <b_lp_Chiralities_Consistent>
1

> <s_lp_Variant>
AV-unprocessed.smi:2273-2

> <Gold.Version>
5.8.1

> <Gold.Id.Protein>
6NUR|6NUR_protein|mol2

> <Gold.PLP.Fitness>
50.1807

> <Gold.PLP.PLP>
-47.2577

> <Gold.PLP.part.hbond>
-3.0000

> <Gold.PLP.part.metal>
0.0000

> <Gold.PLP.part.buried>
-5.1165

> <Gold.PLP.part.nonpolar>
-39.8880

> <Gold.PLP.part.repulsive>
0.2180

> <Gold.PLP.ligand.clash>
0.0000

> <Gold.PLP.ligand.torsion>
1.5515

> <Gold.PLP.Chemscore.Hbond>
1.7760

> <Gold.PLP.Chemscore.CHOScore>
0.0000

> <Gold.PLP.Chemscore.Metal>
0.0000

> <Gold.Chemscore.Hbonds>
donor molecule, donor type, donor heavy atom, donor atom, acceptor molecule, acceptor atom, score
      P1  H  6931  6943       L1    21  0.90
      P1  H  6934  6947       L1    21  0.85

> <Gold.PLP.Chemscore.Internal.Correction>
0.6980

> <Gold.Rescore>
     Score         DG    S(hbond)    S(metal)    S(lipo)     H(rot)  DE(clash)    DE(int)     intcor
     18.00     -21.24       1.78        0.00     115.00       1.42       0.10       3.14       ----

> <Gold.Chemscore.Fitness>
17.9950

> <Gold.Chemscore.DG>
-21.2390

> <Gold.Chemscore.ZeroCoef>
-5.4800

> <Gold.Chemscore.Hbond>
1.7811

> <Gold.Chemscore.Metal>
0.0000

> <Gold.Chemscore.Lipo>
114.9985

> <Gold.Chemscore.Internal_Hbond>
0.0000

> <Gold.Chemscore.DEClash>
0.1046

> <Gold.Chemscore.DEInternal>
3.1394

> <Gold.Chemscore.Rot>
1.4236

> <Gold.Chemscore.Internal.Correction>
   9.000000E+99

> <Gold.Chemscore.Hbonds>
donor molecule, donor type, donor heavy atom, donor atom, acceptor molecule, acceptor atom, score
      P1  H  6931  6943       L1    21  0.88
      P1  H  6934  6947       L1    21  0.85

> <Gold.Chemscore.Hbond.Weighted>
-5.9487

> <Gold.Chemscore.Metal.Weighted>
-0.0000

> <Gold.Chemscore.Lipo.Weighted>
-13.4548

> <Gold.Chemscore.Internal_Hbond.Weighted>
0.0000

> <Gold.Chemscore.DEClash.Weighted>
0.1046

> <Gold.Chemscore.DEInternal.Weighted>
3.1394

> <Gold.Chemscore.Rot.Weighted>
3.6445

> <Gold.Chemscore.Internal.Correction.Weighted>
   9.000000E+99

> <Gold.Protein.RotatedTorsions>
[ 6907 6896 6895 6894 ] final -118.49 input  -60.11 | X-H torsion
[ 7974 7965 7964 7962 ] final  167.81 input  175.53 | X-H torsion
[ 8008 7997 7996 7995 ] final  -91.29 input   59.86 | X-H torsion
[ 10167 10162 10161 10158 ] final  -74.65 input  -65.29 | X-H torsion
[ 10718 10713 10712 10709 ] final  135.05 input   66.30 | X-H torsion
[ 10763 10752 10751 10750 ] final  -27.73 input  -60.55 | X-H torsion
[ 11005 11000 10999 10996 ] final  105.88 input  -57.11 | X-H torsion

> <Gold.Protein.ActiveResidues>
 VAL166  LYS551  ARG553  GLY616  TRP617  ASP618  TYR619  PRO620  LYS621  CYS622 
 ASP623  PHE694  ASN695  SER759  ASP760  ASP761  ALA762  ILE779  LEU786  VAL792 
 PHE793  MET794  SER795  GLU796  ALA797  LYS798  CYS799  TRP800  GLU811  SER814 

> <Gold.Protein.RotatedAtoms>
  150.8224  133.8230  159.3133 H   0  0  0  0  0  0  0  0  0  0  0  0  # atno 6907 bound_to 6896
  151.5984  135.1047  160.0064 H   0  0  0  0  0  0  0  0  0  0  0  0  # atno 6908 bound_to 6896
  152.4312  133.7240  159.6606 H   0  0  0  0  0  0  0  0  0  0  0  0  # atno 6909 bound_to 6896
  144.7411  139.8815  143.6396 H   0  0  0  0  0  0  0  0  0  0  0  0  # atno 7974 bound_to 7965
  154.7090  140.0521  157.0532 H   0  0  0  0  0  0  0  0  0  0  0  0  # atno 8008 bound_to 7997
  155.0581  140.3186  155.4651 H   0  0  0  0  0  0  0  0  0  0  0  0  # atno 8009 bound_to 7997
  156.2783  140.2104  156.5707 H   0  0  0  0  0  0  0  0  0  0  0  0  # atno 8010 bound_to 7997
  140.5009  143.2361  151.7754 H   0  0  0  0  0  0  0  0  0  0  0  0  # atno 10167 bound_to 10162
  157.4610  131.1073  150.9919 H   0  0  0  0  0  0  0  0  0  0  0  0  # atno 10718 bound_to 10713
  153.7368  135.6935  153.4976 H   0  0  0  0  0  0  0  0  0  0  0  0  # atno 10763 bound_to 10752
  153.2097  135.4407  155.0363 H   0  0  0  0  0  0  0  0  0  0  0  0  # atno 10764 bound_to 10752
  154.8234  135.3433  154.6896 H   0  0  0  0  0  0  0  0  0  0  0  0  # atno 10765 bound_to 10752
  139.8807  134.9351  156.5581 H   0  0  0  0  0  0  0  0  0  0  0  0  # atno 11005 bound_to 11000
  146.1208  139.4225  143.0230 LP  0  0  0  0  0  0  0  0  0  0  0  0  # atno 17320 bound_to 7965
  145.7308  141.0043  143.1353 LP  0  0  0  0  0  0  0  0  0  0  0  0  # atno 17321 bound_to 7965
  139.4872  144.4523  151.9639 LP  0  0  0  0  0  0  0  0  0  0  0  0  # atno 17342 bound_to 10162
  140.3612  144.2970  150.5933 LP  0  0  0  0  0  0  0  0  0  0  0  0  # atno 17343 bound_to 10162
  157.0716  130.5866  149.5403 LP  0  0  0  0  0  0  0  0  0  0  0  0  # atno 17370 bound_to 10713
  156.0029  130.5111  150.7727 LP  0  0  0  0  0  0  0  0  0  0  0  0  # atno 17371 bound_to 10713
  140.8189  133.8369  155.8878 LP  0  0  0  0  0  0  0  0  0  0  0  0  # atno 17394 bound_to 11000
  140.9436  134.1869  157.4779 LP  0  0  0  0  0  0  0  0  0  0  0  0  # atno 17395 bound_to 11000

$$$$
