AV-unprocessed.smi:243|AV-procd|sdf|1850|dock5
  -GOLD-   2262020473D 1   1.00000     0.00000
 Structure written by MMmdl.
 58 61  0  0  0  0  0  0  0  0  2 V2000
  147.6808  130.4717  154.0402 C   0  0  0  0  0  0  0  0  0  0  0  0
  146.6116  131.1001  153.1355 C   0  0  0  0  0  0  0  0  0  0  0  0
  147.1966  131.9298  152.0481 N   0  3  2  0  0  0  0  0  0  0  0  0
  147.9351  133.1177  152.5429 C   0  0  0  0  0  0  0  0  0  0  0  0
  146.9768  134.2059  153.0505 C   0  0  0  0  0  0  0  0  0  0  0  0
  145.9662  134.6273  151.9588 C   0  0  2  0  0  0  0  0  0  0  0  0
  145.0661  135.6980  152.4146 N   0  0  0  0  0  0  0  0  0  0  0  0
  144.4062  136.4889  151.3820 C   0  0  0  0  0  0  0  0  0  0  0  0
  145.4431  136.4152  153.5029 C   0  0  0  0  0  0  0  0  0  0  0  0
  145.1758  135.8912  154.7252 N   0  0  0  0  0  0  0  0  0  0  0  0
  145.5190  136.5550  155.8327 C   0  0  0  0  0  0  0  0  0  0  0  0
  146.1231  137.7396  155.9414 N   0  0  0  0  0  0  0  0  0  0  0  0
  146.3855  138.2772  154.7159 C   0  0  0  0  0  0  0  0  0  0  0  0
  146.0839  137.6876  153.4556 C   0  0  0  0  0  0  0  0  0  0  0  0
  146.5163  138.5212  152.4306 N   0  0  0  0  0  0  0  0  0  0  0  0
  147.0360  139.5459  153.0487 C   0  0  0  0  0  0  0  0  0  0  0  0
  146.9897  139.4878  154.4234 N   0  0  0  0  0  0  0  0  0  0  0  0
  147.4871  140.4874  155.3568 C   0  0  0  0  0  0  0  0  0  0  0  0
  148.9511  140.9108  155.0883 C   0  0  1  0  0  0  0  0  0  0  0  0
  148.9556  142.0633  154.2635 O   0  0  0  0  0  0  0  0  0  0  0  0
  149.7200  141.2299  156.3635 C   0  0  0  0  0  0  0  0  0  0  0  0
  151.1589  140.9179  155.9738 C   0  0  0  0  0  0  0  0  0  0  0  0
  151.0306  139.7498  155.1806 O   0  0  0  0  0  0  0  0  0  0  0  0
  149.8270  139.8302  154.4216 C   0  0  0  0  0  0  0  0  0  0  0  0
  145.2340  133.3835  151.3845 C   0  0  1  0  0  0  0  0  0  0  0  0
  144.3445  133.7438  150.1806 C   0  0  0  0  0  0  0  0  0  0  0  0
  146.2526  132.2994  150.9602 C   0  0  0  0  0  0  0  0  0  0  0  0
  147.2151  129.9686  154.8877 H   0  0  0  0  0  0  0  0  0  0  0  0
  148.3574  131.2289  154.4374 H   0  0  0  0  0  0  0  0  0  0  0  0
  148.2769  129.7269  153.5137 H   0  0  0  0  0  0  0  0  0  0  0  0
  145.9556  130.3287  152.7324 H   0  0  0  0  0  0  0  0  0  0  0  0
  145.9829  131.7353  153.7606 H   0  0  0  0  0  0  0  0  0  0  0  0
  148.6351  132.8281  153.3275 H   0  0  0  0  0  0  0  0  0  0  0  0
  148.5407  133.5160  151.7278 H   0  0  0  0  0  0  0  0  0  0  0  0
  146.4547  133.8364  153.9331 H   0  0  0  0  0  0  0  0  0  0  0  0
  147.5593  135.0666  153.3795 H   0  0  0  0  0  0  0  0  0  0  0  0
  146.5470  135.0541  151.1396 H   0  0  0  0  0  0  0  0  0  0  0  0
  143.7716  137.2609  151.8199 H   0  0  0  0  0  0  0  0  0  0  0  0
  143.7705  135.8466  150.7721 H   0  0  0  0  0  0  0  0  0  0  0  0
  145.1279  136.9705  150.7227 H   0  0  0  0  0  0  0  0  0  0  0  0
  145.2722  136.0687  156.7651 H   0  0  0  0  0  0  0  0  0  0  0  0
  147.4687  140.3785  152.5136 H   0  0  0  0  0  0  0  0  0  0  0  0
  146.8297  141.3569  155.3125 H   0  0  0  0  0  0  0  0  0  0  0  0
  147.3920  140.0844  156.3659 H   0  0  0  0  0  0  0  0  0  0  0  0
  148.9819  142.8288  154.8170 H   0  0  0  0  0  0  0  0  0  0  0  0
  149.5821  142.2528  156.7160 H   0  0  0  0  0  0  0  0  0  0  0  0
  149.4155  140.5576  157.1670 H   0  0  0  0  0  0  0  0  0  0  0  0
  151.5857  141.7233  155.3738 H   0  0  0  0  0  0  0  0  0  0  0  0
  151.8044  140.7497  156.8361 H   0  0  0  0  0  0  0  0  0  0  0  0
  149.3567  138.8479  154.4472 H   0  0  0  0  0  0  0  0  0  0  0  0
  150.0479  140.0595  153.3779 H   0  0  0  0  0  0  0  0  0  0  0  0
  144.5932  132.9543  152.1539 H   0  0  0  0  0  0  0  0  0  0  0  0
  144.9326  134.1714  149.3680 H   0  0  0  0  0  0  0  0  0  0  0  0
  143.5752  134.4686  150.4445 H   0  0  0  0  0  0  0  0  0  0  0  0
  143.8354  132.8613  149.7924 H   0  0  0  0  0  0  0  0  0  0  0  0
  146.8434  132.6689  150.1207 H   0  0  0  0  0  0  0  0  0  0  0  0
  145.7362  131.4154  150.5879 H   0  0  0  0  0  0  0  0  0  0  0  0
  147.8961  131.3395  151.6209 H   0  0  0  0  0  0  0  0  0  0  0  0
  1  2  1  0  0  0  0
  1 28  1  0  0  0  0
  1 29  1  0  0  0  0
  1 30  1  0  0  0  0
  2  3  1  0  0  0  0
  2 31  1  0  0  0  0
  2 32  1  0  0  0  0
  3 27  1  0  0  0  0
  3  4  1  0  0  0  0
  3 58  1  0  0  0  0
  4  5  1  0  0  0  0
  4 33  1  0  0  0  0
  4 34  1  0  0  0  0
  5  6  1  0  0  0  0
  5 35  1  0  0  0  0
  5 36  1  0  0  0  0
  6  7  1  0  0  0  0
  6 25  1  0  0  0  0
  6 37  1  0  0  0  0
  7  8  1  0  0  0  0
  7  9  1  0  0  0  0
  8 38  1  0  0  0  0
  8 39  1  0  0  0  0
  8 40  1  0  0  0  0
  9 14  1  0  0  0  0
  9 10  2  0  0  0  0
 10 11  1  0  0  0  0
 11 12  2  0  0  0  0
 11 41  1  0  0  0  0
 12 13  1  0  0  0  0
 13 17  1  0  0  0  0
 13 14  2  0  0  0  0
 14 15  1  0  0  0  0
 15 16  2  0  0  0  0
 16 17  1  0  0  0  0
 16 42  1  0  0  0  0
 17 18  1  0  0  0  0
 18 19  1  0  0  0  0
 18 43  1  0  0  0  0
 18 44  1  0  0  0  0
 19 24  1  0  0  0  0
 19 20  1  0  0  0  0
 19 21  1  0  0  0  0
 20 45  1  0  0  0  0
 21 22  1  0  0  0  0
 21 46  1  0  0  0  0
 21 47  1  0  0  0  0
 22 23  1  0  0  0  0
 22 48  1  0  0  0  0
 22 49  1  0  0  0  0
 23 24  1  0  0  0  0
 24 50  1  0  0  0  0
 24 51  1  0  0  0  0
 25 26  1  0  0  0  0
 25 27  1  0  0  0  0
 25 52  1  0  0  0  0
 26 53  1  0  0  0  0
 26 54  1  0  0  0  0
 26 55  1  0  0  0  0
 27 56  1  0  0  0  0
 27 57  1  0  0  0  0
M  CHG  1   3   1
M  END
> <s_m_source_file>
AV-unprocessed.smi

> <i_m_source_file_index>
243

> <i_lp_mmshare_version>
43012

> <i_f3d_flags>
0

> <s_epik_input>
W0NIM11bQ0gyXU4xW0NIMl1bQ0gyXVtDQEhdKFtDQEBIXShbQ0gzXSlbQ0gyXTEpTihbQ0gzXSljKG5bY0hdbjIpYyhjMjMpbltjSF1uM1tDSDJdW0NAQF00KFtPSF0pW0NIMl1bQ0gyXU9bQ0gyXTQ=

> <s_epik_cmdline>
J2VwaWtfcHl0aG9uJywgJy1waCcsICc3LjAnLCAnLXRuJywgJzgnLCAnLW1hJywgJzIwMCcsICctbWV0YWxfYmluZGluZycsICctaW1hZScsICc8aW5maWxlLm1hZT4nLCAnLW9tYWUnLCAnPG91dGZpbGUubWFlPic=

> <r_lp_tautomer_probability>
1

> <r_epik_Ionization_Penalty>
0.00253099

> <r_epik_Ionization_Penalty_Charging>
0.00137877

> <r_epik_Ionization_Penalty_Neutral>
0.00115221

> <r_epik_State_Penalty>
-0

> <r_epik_Charging_Adjusted_Penalty>
0.00137877

> <i_epik_Tot_Q>
1

> <i_epik_Tot_abs_Q>
1

> <r_epik_Metal_State_Penalty>
-0

> <b_epik_Metal_Only>
0

> <s_lp_Force_Field>
OPLS_2005

> <r_lp_Energy>
49.0604

> <b_lp_Chiralities_Consistent>
1

> <s_lp_Variant>
AV-unprocessed.smi:243-3

> <Gold.Version>
5.8.1

> <Gold.Id.Protein>
6NUR|6NUR_protein|mol2

> <Gold.PLP.Fitness>
38.2760

> <Gold.PLP.PLP>
-32.8934

> <Gold.PLP.part.hbond>
-3.9448

> <Gold.PLP.part.metal>
0.0000

> <Gold.PLP.part.buried>
-0.2992

> <Gold.PLP.part.nonpolar>
-28.6037

> <Gold.PLP.part.repulsive>
0.4729

> <Gold.PLP.ligand.clash>
0.9216

> <Gold.PLP.ligand.torsion>
1.9606

> <Gold.PLP.Chemscore.Hbond>
2.3322

> <Gold.PLP.Chemscore.CHOScore>
0.8021

> <Gold.PLP.Chemscore.Metal>
0.0000

> <Gold.Chemscore.Hbonds>
donor molecule, donor type, donor heavy atom, donor atom, acceptor molecule, acceptor atom, score
      L1  H     3    58       P1 10747  1.00
      L1  H    20    45       P1  8028  0.94
      P1  H  8011  8017       L1    20  0.27
      L1  C    16    42       P1  7957  0.80

> <Gold.PLP.Chemscore.Internal.Correction>
0.8226

> <Gold.Rescore>
     Score         DG    S(hbond)    S(metal)    S(lipo)     H(rot)  DE(clash)    DE(int)     intcor
     10.50     -16.30       2.19        0.00      85.22       2.53       1.61       4.19       ----

> <Gold.Chemscore.Fitness>
10.5023

> <Gold.Chemscore.DG>
-16.2959

> <Gold.Chemscore.ZeroCoef>
-5.4800

> <Gold.Chemscore.Hbond>
2.1925

> <Gold.Chemscore.Metal>
0.0000

> <Gold.Chemscore.Lipo>
85.2202

> <Gold.Chemscore.Internal_Hbond>
0.0000

> <Gold.Chemscore.DEClash>
1.6056

> <Gold.Chemscore.DEInternal>
4.1881

> <Gold.Chemscore.Rot>
2.5305

> <Gold.Chemscore.Internal.Correction>
   9.000000E+99

> <Gold.Chemscore.Hbonds>
donor molecule, donor type, donor heavy atom, donor atom, acceptor molecule, acceptor atom, score
      L1  H     3    58       P1 10747  0.98
      L1  H    20    45       P1  8028  0.90
      P1  H  8011  8017       L1    20  0.23

> <Gold.Chemscore.Hbond.Weighted>
-7.3231

> <Gold.Chemscore.Metal.Weighted>
-0.0000

> <Gold.Chemscore.Lipo.Weighted>
-9.9708

> <Gold.Chemscore.Internal_Hbond.Weighted>
0.0000

> <Gold.Chemscore.DEClash.Weighted>
1.6056

> <Gold.Chemscore.DEInternal.Weighted>
4.1881

> <Gold.Chemscore.Rot.Weighted>
6.4780

> <Gold.Chemscore.Internal.Correction.Weighted>
   9.000000E+99

> <Gold.Protein.RotatedTorsions>
[ 6907 6896 6895 6894 ] final -141.87 input  -60.11 | X-H torsion
[ 7974 7965 7964 7962 ] final -114.75 input  175.53 | X-H torsion
[ 8008 7997 7996 7995 ] final   77.01 input   59.86 | X-H torsion
[ 10167 10162 10161 10158 ] final  152.91 input  -65.29 | X-H torsion
[ 10718 10713 10712 10709 ] final  113.88 input   66.30 | X-H torsion
[ 10763 10752 10751 10750 ] final  -28.94 input  -60.55 | X-H torsion
[ 11005 11000 10999 10996 ] final   24.26 input  -57.11 | X-H torsion

> <Gold.Protein.ActiveResidues>
 VAL166  LYS551  ARG553  GLY616  TRP617  ASP618  TYR619  PRO620  LYS621  CYS622 
 ASP623  PHE694  ASN695  SER759  ASP760  ASP761  ALA762  ILE779  LEU786  VAL792 
 PHE793  MET794  SER795  GLU796  ALA797  LYS798  CYS799  TRP800  GLU811  SER814 

> <Gold.Protein.RotatedAtoms>
  151.0795  133.5402  159.2621 H   0  0  0  0  0  0  0  0  0  0  0  0  # atno 6907 bound_to 6896
  151.2311  135.0554  159.8997 H   0  0  0  0  0  0  0  0  0  0  0  0  # atno 6908 bound_to 6896
  152.5422  134.0583  159.8194 H   0  0  0  0  0  0  0  0  0  0  0  0  # atno 6909 bound_to 6896
  145.1165  140.8643  143.3839 H   0  0  0  0  0  0  0  0  0  0  0  0  # atno 7974 bound_to 7965
  155.8355  140.3464  155.5599 H   0  0  0  0  0  0  0  0  0  0  0  0  # atno 8008 bound_to 7997
  155.8197  140.0911  157.1876 H   0  0  0  0  0  0  0  0  0  0  0  0  # atno 8009 bound_to 7997
  154.4004  140.1432  156.3472 H   0  0  0  0  0  0  0  0  0  0  0  0  # atno 8010 bound_to 7997
  139.4830  144.5318  151.7711 H   0  0  0  0  0  0  0  0  0  0  0  0  # atno 10167 bound_to 10162
  157.6313  131.0990  150.7105 H   0  0  0  0  0  0  0  0  0  0  0  0  # atno 10718 bound_to 10713
  153.7564  135.6922  153.4934 H   0  0  0  0  0  0  0  0  0  0  0  0  # atno 10763 bound_to 10752
  153.1968  135.4451  155.0216 H   0  0  0  0  0  0  0  0  0  0  0  0  # atno 10764 bound_to 10752
  154.8169  135.3403  154.7082 H   0  0  0  0  0  0  0  0  0  0  0  0  # atno 10765 bound_to 10752
  140.3606  134.2129  155.7672 H   0  0  0  0  0  0  0  0  0  0  0  0  # atno 11005 bound_to 11000
  145.0788  139.2975  143.5794 LP  0  0  0  0  0  0  0  0  0  0  0  0  # atno 17320 bound_to 7965
  146.3523  140.0287  142.8652 LP  0  0  0  0  0  0  0  0  0  0  0  0  # atno 17321 bound_to 7965
  140.4845  144.1401  150.5938 LP  0  0  0  0  0  0  0  0  0  0  0  0  # atno 17342 bound_to 10162
  140.4241  143.2598  151.9679 LP  0  0  0  0  0  0  0  0  0  0  0  0  # atno 17343 bound_to 10162
  156.7444  130.4749  149.5470 LP  0  0  0  0  0  0  0  0  0  0  0  0  # atno 17370 bound_to 10713
  156.1519  130.6315  151.0606 LP  0  0  0  0  0  0  0  0  0  0  0  0  # atno 17371 bound_to 10713
  141.1985  133.8034  157.0579 LP  0  0  0  0  0  0  0  0  0  0  0  0  # atno 17394 bound_to 11000
  140.0629  134.9745  157.1336 LP  0  0  0  0  0  0  0  0  0  0  0  0  # atno 17395 bound_to 11000

$$$$
