AV-unprocessed.smi:2832|AV-procd|sdf|10913|dock9
  -GOLD-   2272015363D 1   1.00000     0.00000
 Structure written by MMmdl.
 33 33  0  0  0  0  0  0  0  0  2 V2000
  147.4157  140.1395  153.2261 C   0  0  0  0  0  0  0  0  0  0  0  0
  148.4672  140.3154  154.3271 C   0  0  0  0  0  0  0  0  0  0  0  0
  149.6419  139.3219  154.1809 C   0  0  0  0  0  0  0  0  0  0  0  0
  150.7674  139.4178  155.2525 C   0  0  2  0  0  0  0  0  0  0  0  0
  150.3506  138.5896  156.4943 C   0  0  0  0  0  0  0  0  0  0  0  0
  151.0270  140.8403  155.5360 N   0  0  0  0  0  0  0  0  0  0  0  0
  151.0220  141.5422  156.6844 C   0  0  0  0  0  0  0  0  0  0  0  0
  150.6564  141.1103  157.7766 O   0  0  0  0  0  0  0  0  0  0  0  0
  151.5153  142.9854  156.5727 C   0  0  0  0  0  0  0  0  0  0  0  0
  151.6781  143.5885  157.8856 N   0  0  0  0  0  0  0  0  0  0  0  0
  151.0313  144.6875  158.4154 C   0  0  0  0  0  0  0  0  0  0  0  0
  151.5079  144.8701  159.6816 C   0  0  0  0  0  0  0  0  0  0  0  0
  152.4508  143.8171  159.8425 C   0  0  0  0  0  0  0  0  0  0  0  0
  152.5465  143.0489  158.7693 N   0  0  0  0  0  0  0  0  0  0  0  0
  152.1036  138.8081  154.7600 C   0  0  0  0  0  0  0  0  0  0  0  0
  153.1020  139.5550  154.6549 O   0  0  0  0  0  0  0  0  0  0  0  0
  152.1040  137.5896  154.4714 O   0  5  0  0  0  0  0  0  0  0  0  0
  146.5953  140.8453  153.3571 H   0  0  0  0  0  0  0  0  0  0  0  0
  146.9956  139.1335  153.2401 H   0  0  0  0  0  0  0  0  0  0  0  0
  147.8475  140.3105  152.2396 H   0  0  0  0  0  0  0  0  0  0  0  0
  148.8275  141.3434  154.3050 H   0  0  0  0  0  0  0  0  0  0  0  0
  147.9827  140.1824  155.2946 H   0  0  0  0  0  0  0  0  0  0  0  0
  149.2290  138.3124  154.2039 H   0  0  0  0  0  0  0  0  0  0  0  0
  150.0758  139.4260  153.1852 H   0  0  0  0  0  0  0  0  0  0  0  0
  150.2816  137.5275  156.2546 H   0  0  0  0  0  0  0  0  0  0  0  0
  149.3704  138.8862  156.8683 H   0  0  0  0  0  0  0  0  0  0  0  0
  151.0654  138.6891  157.3127 H   0  0  0  0  0  0  0  0  0  0  0  0
  151.3434  141.3552  154.7274 H   0  0  0  0  0  0  0  0  0  0  0  0
  152.4733  143.0180  156.0517 H   0  0  0  0  0  0  0  0  0  0  0  0
  150.8096  143.5727  155.9824 H   0  0  0  0  0  0  0  0  0  0  0  0
  150.2977  145.2455  157.8513 H   0  0  0  0  0  0  0  0  0  0  0  0
  151.2261  145.6399  160.3846 H   0  0  0  0  0  0  0  0  0  0  0  0
  153.0633  143.5885  160.7024 H   0  0  0  0  0  0  0  0  0  0  0  0
  1  2  1  0  0  0  0
  1 18  1  0  0  0  0
  1 19  1  0  0  0  0
  1 20  1  0  0  0  0
  2  3  1  0  0  0  0
  2 21  1  0  0  0  0
  2 22  1  0  0  0  0
  3  4  1  0  0  0  0
  3 23  1  0  0  0  0
  3 24  1  0  0  0  0
  4  5  1  0  0  0  0
  4  6  1  0  0  0  0
  4 15  1  0  0  0  0
  5 25  1  0  0  0  0
  5 26  1  0  0  0  0
  5 27  1  0  0  0  0
  6  7  1  0  0  0  0
  6 28  1  0  0  0  0
  7  8  2  0  0  0  0
  7  9  1  0  0  0  0
  9 10  1  0  0  0  0
  9 29  1  0  0  0  0
  9 30  1  0  0  0  0
 10 14  1  0  0  0  0
 10 11  1  0  0  0  0
 11 12  2  0  0  0  0
 11 31  1  0  0  0  0
 12 13  1  0  0  0  0
 12 32  1  0  0  0  0
 13 14  2  0  0  0  0
 13 33  1  0  0  0  0
 15 16  2  0  0  0  0
 15 17  1  0  0  0  0
M  CHG  1  17  -1
M  END
> <s_m_source_file>
AV-unprocessed.smi

> <i_m_source_file_index>
2832

> <i_lp_mmshare_version>
43012

> <i_f3d_flags>
0

> <s_epik_input>
W0NIM11bQ0gyXVtDSDJdW0NAXShbQ0gzXSkoQyg9TylbT0hdKVtOSF1DKD1PKVtDSDJdbjFbY0hdW2NIXVtjSF1uMQ==

> <s_epik_cmdline>
J2VwaWtfcHl0aG9uJywgJy1waCcsICc3LjAnLCAnLXRuJywgJzgnLCAnLW1hJywgJzIwMCcsICctbWV0YWxfYmluZGluZycsICctaW1hZScsICc8aW5maWxlLm1hZT4nLCAnLW9tYWUnLCAnPG91dGZpbGUubWFlPic=

> <r_lp_tautomer_probability>
1

> <r_epik_Ionization_Penalty>
0.000287256

> <r_epik_Ionization_Penalty_Charging>
0.00026921

> <r_epik_Ionization_Penalty_Neutral>
1.80463e-05

> <r_epik_State_Penalty>
-0

> <r_epik_Charging_Adjusted_Penalty>
0.00026921

> <i_epik_Tot_Q>
-1

> <i_epik_Tot_abs_Q>
1

> <r_epik_Metal_State_Penalty>
-0

> <b_epik_Metal_Only>
0

> <s_lp_Force_Field>
OPLS_2005

> <r_lp_Energy>
2.74442

> <b_lp_Chiralities_Consistent>
1

> <s_lp_Variant>
AV-unprocessed.smi:2832-2

> <Gold.Version>
5.8.1

> <Gold.Id.Protein>
6NUR|6NUR_protein|mol2

> <Gold.PLP.Fitness>
47.1532

> <Gold.PLP.PLP>
-34.1243

> <Gold.PLP.part.hbond>
-3.0000

> <Gold.PLP.part.metal>
0.0000

> <Gold.PLP.part.buried>
-7.1368

> <Gold.PLP.part.nonpolar>
-26.1861

> <Gold.PLP.part.repulsive>
0.6358

> <Gold.PLP.ligand.clash>
0.0000

> <Gold.PLP.ligand.torsion>
0.4710

> <Gold.PLP.Chemscore.Hbond>
3.7196

> <Gold.PLP.Chemscore.CHOScore>
0.9197

> <Gold.PLP.Chemscore.Metal>
0.0000

> <Gold.Chemscore.Hbonds>
donor molecule, donor type, donor heavy atom, donor atom, acceptor molecule, acceptor atom, score
      P1  H  7989  7998       L1    16  0.03
      P1  H  7997  8009       L1    16  2.00
      P1  H 10752 10765       L1    17  1.35
      L1  C    11    31       P1  8028  0.33
      L1  C    11    31       P1  8029  0.54

> <Gold.PLP.Chemscore.Internal.Correction>
0.0527

> <Gold.Rescore>
     Score         DG    S(hbond)    S(metal)    S(lipo)     H(rot)  DE(clash)    DE(int)     intcor
      9.71     -13.79       1.77        0.00      74.55       2.47       1.22       2.87       ----

> <Gold.Chemscore.Fitness>
9.7097

> <Gold.Chemscore.DG>
-13.7911

> <Gold.Chemscore.ZeroCoef>
-5.4800

> <Gold.Chemscore.Hbond>
1.7722

> <Gold.Chemscore.Metal>
0.0000

> <Gold.Chemscore.Lipo>
74.5450

> <Gold.Chemscore.Internal_Hbond>
0.0000

> <Gold.Chemscore.DEClash>
1.2159

> <Gold.Chemscore.DEInternal>
2.8655

> <Gold.Chemscore.Rot>
2.4726

> <Gold.Chemscore.Internal.Correction>
   9.000000E+99

> <Gold.Chemscore.Hbonds>
donor molecule, donor type, donor heavy atom, donor atom, acceptor molecule, acceptor atom, score
      P1  H  7997  8009       L1    16  1.00
      P1  H 10752 10765       L1    17  0.67

> <Gold.Chemscore.Hbond.Weighted>
-5.9191

> <Gold.Chemscore.Metal.Weighted>
-0.0000

> <Gold.Chemscore.Lipo.Weighted>
-8.7218

> <Gold.Chemscore.Internal_Hbond.Weighted>
0.0000

> <Gold.Chemscore.DEClash.Weighted>
1.2159

> <Gold.Chemscore.DEInternal.Weighted>
2.8655

> <Gold.Chemscore.Rot.Weighted>
6.3297

> <Gold.Chemscore.Internal.Correction.Weighted>
   9.000000E+99

> <Gold.Protein.RotatedTorsions>
[ 6907 6896 6895 6894 ] final   29.92 input  -60.11 | X-H torsion
[ 7974 7965 7964 7962 ] final  -75.71 input  175.53 | X-H torsion
[ 8008 7997 7996 7995 ] final -128.37 input   59.86 | X-H torsion
[ 10167 10162 10161 10158 ] final -163.55 input  -65.29 | X-H torsion
[ 10718 10713 10712 10709 ] final  -72.62 input   66.30 | X-H torsion
[ 10763 10752 10751 10750 ] final  162.31 input  -60.55 | X-H torsion
[ 11005 11000 10999 10996 ] final -155.30 input  -57.11 | X-H torsion

> <Gold.Protein.ActiveResidues>
 VAL166  LYS551  ARG553  GLY616  TRP617  ASP618  TYR619  PRO620  LYS621  CYS622 
 ASP623  PHE694  ASN695  SER759  ASP760  ASP761  ALA762  ILE779  LEU786  VAL792 
 PHE793  MET794  SER795  GLU796  ALA797  LYS798  CYS799  TRP800  GLU811  SER814 

> <Gold.Protein.RotatedAtoms>
  152.0385  134.9725  160.0573 H   0  0  0  0  0  0  0  0  0  0  0  0  # atno 6907 bound_to 6896
  152.1174  133.4329  159.4667 H   0  0  0  0  0  0  0  0  0  0  0  0  # atno 6908 bound_to 6896
  150.6847  134.2495  159.4548 H   0  0  0  0  0  0  0  0  0  0  0  0  # atno 6909 bound_to 6896
  145.6225  140.9359  143.1130 H   0  0  0  0  0  0  0  0  0  0  0  0  # atno 7974 bound_to 7965
  155.2615  140.0436  157.2998 H   0  0  0  0  0  0  0  0  0  0  0  0  # atno 8008 bound_to 7997
  154.5707  140.2373  155.8164 H   0  0  0  0  0  0  0  0  0  0  0  0  # atno 8009 bound_to 7997
  156.2120  140.2996  155.9763 H   0  0  0  0  0  0  0  0  0  0  0  0  # atno 8010 bound_to 7997
  139.6312  144.0435  152.2017 H   0  0  0  0  0  0  0  0  0  0  0  0  # atno 10167 bound_to 10162
  156.0313  130.4376  150.2620 H   0  0  0  0  0  0  0  0  0  0  0  0  # atno 10718 bound_to 10713
  154.2764  135.2764  155.2716 H   0  0  0  0  0  0  0  0  0  0  0  0  # atno 10763 bound_to 10752
  154.5256  135.5744  153.6720 H   0  0  0  0  0  0  0  0  0  0  0  0  # atno 10764 bound_to 10752
  152.9936  135.6215  154.2921 H   0  0  0  0  0  0  0  0  0  0  0  0  # atno 10765 bound_to 10752
  140.6880  134.4073  157.5221 H   0  0  0  0  0  0  0  0  0  0  0  0  # atno 11005 bound_to 11000
  144.7225  139.7981  143.7376 LP  0  0  0  0  0  0  0  0  0  0  0  0  # atno 17320 bound_to 7965
  146.1420  139.4480  143.0103 LP  0  0  0  0  0  0  0  0  0  0  0  0  # atno 17321 bound_to 7965
  140.0101  144.6230  150.7654 LP  0  0  0  0  0  0  0  0  0  0  0  0  # atno 17342 bound_to 10162
  140.7440  143.2854  151.3477 LP  0  0  0  0  0  0  0  0  0  0  0  0  # atno 17343 bound_to 10162
  157.0722  131.0120  151.3186 LP  0  0  0  0  0  0  0  0  0  0  0  0  # atno 17370 bound_to 10713
  157.4990  130.7868  149.7585 LP  0  0  0  0  0  0  0  0  0  0  0  0  # atno 17371 bound_to 10713
  139.8932  134.8737  156.2235 LP  0  0  0  0  0  0  0  0  0  0  0  0  # atno 17394 bound_to 11000
  141.0265  133.7012  156.1356 LP  0  0  0  0  0  0  0  0  0  0  0  0  # atno 17395 bound_to 11000

$$$$
