AV-unprocessed.smi:2628|AV-procd|sdf|10243|dock3
  -GOLD-   2272014253D 1   1.00000     0.00000
 Structure written by MMmdl.
 38 38  0  0  0  0  0  0  0  0  1 V2000
  145.6654  129.0013  152.0385 C   0  0  0  0  0  0  0  0  0  0  0  0
  145.8540  130.5137  151.8794 C   0  0  0  0  0  0  0  0  0  0  0  0
  146.6393  131.1354  153.0458 C   0  0  0  0  0  0  0  0  0  0  0  0
  148.1229  130.7182  153.1131 C   0  0  0  0  0  0  0  0  0  0  0  0
  148.8900  131.4192  154.1284 N   0  0  0  0  0  0  0  0  0  0  0  0
  149.1276  132.7961  154.0913 C   0  0  0  0  0  0  0  0  0  0  0  0
  148.6055  133.5149  153.0253 N   0  0  0  0  0  0  0  0  0  0  0  0
  149.8522  133.4415  155.0522 C   0  0  0  0  0  0  0  0  0  0  0  0
  150.0678  134.8183  154.9716 N   0  0  0  0  0  0  0  0  0  0  0  0
  150.7918  135.7243  155.8507 C   0  0  0  0  0  0  0  0  0  0  0  0
  150.9588  137.1060  155.2093 C   0  0  0  0  0  0  0  0  0  0  0  0
  152.3402  137.3808  155.0422 O   0  0  0  0  0  0  0  0  0  0  0  0
  152.5849  138.7269  154.6746 C   0  0  0  0  0  0  0  0  0  0  0  0
  150.4205  132.6778  156.1769 C   0  0  0  0  0  0  0  0  0  0  0  0
  151.0922  133.1242  157.1055 O   0  0  0  0  0  0  0  0  0  0  0  0
  150.1565  131.3106  156.1527 N   0  0  0  0  0  0  0  0  0  0  0  0
  149.4235  130.6400  155.1822 C   0  0  0  0  0  0  0  0  0  0  0  0
  149.2793  129.4204  155.2738 O   0  0  0  0  0  0  0  0  0  0  0  0
  150.5373  130.7568  156.9060 H   0  0  0  0  0  0  0  0  0  0  0  0
  145.1059  128.5900  151.1981 H   0  0  0  0  0  0  0  0  0  0  0  0
  145.1156  128.7670  152.9504 H   0  0  0  0  0  0  0  0  0  0  0  0
  146.6254  128.4866  152.0834 H   0  0  0  0  0  0  0  0  0  0  0  0
  146.3719  130.7153  150.9411 H   0  0  0  0  0  0  0  0  0  0  0  0
  144.8731  130.9827  151.7997 H   0  0  0  0  0  0  0  0  0  0  0  0
  146.5646  132.2219  152.9911 H   0  0  0  0  0  0  0  0  0  0  0  0
  146.1611  130.8505  153.9834 H   0  0  0  0  0  0  0  0  0  0  0  0
  148.2161  129.6581  153.3501 H   0  0  0  0  0  0  0  0  0  0  0  0
  148.6178  130.8296  152.1475 H   0  0  0  0  0  0  0  0  0  0  0  0
  148.0700  133.0692  152.2945 H   0  0  0  0  0  0  0  0  0  0  0  0
  148.6666  134.5220  152.9839 H   0  0  0  0  0  0  0  0  0  0  0  0
  149.6485  135.2789  154.1773 H   0  0  0  0  0  0  0  0  0  0  0  0
  150.2325  135.8345  156.7801 H   0  0  0  0  0  0  0  0  0  0  0  0
  151.7656  135.3021  156.1009 H   0  0  0  0  0  0  0  0  0  0  0  0
  150.4362  137.1482  154.2521 H   0  0  0  0  0  0  0  0  0  0  0  0
  150.5156  137.8640  155.8569 H   0  0  0  0  0  0  0  0  0  0  0  0
  153.6566  138.8853  154.5543 H   0  0  0  0  0  0  0  0  0  0  0  0
  152.2262  139.4159  155.4404 H   0  0  0  0  0  0  0  0  0  0  0  0
  152.1005  138.9713  153.7283 H   0  0  0  0  0  0  0  0  0  0  0  0
  1  2  1  0  0  0  0
  1 20  1  0  0  0  0
  1 21  1  0  0  0  0
  1 22  1  0  0  0  0
  2  3  1  0  0  0  0
  2 23  1  0  0  0  0
  2 24  1  0  0  0  0
  3  4  1  0  0  0  0
  3 25  1  0  0  0  0
  3 26  1  0  0  0  0
  4  5  1  0  0  0  0
  4 27  1  0  0  0  0
  4 28  1  0  0  0  0
  5 17  1  0  0  0  0
  5  6  1  0  0  0  0
  6  7  1  0  0  0  0
  6  8  2  0  0  0  0
  7 29  1  0  0  0  0
  7 30  1  0  0  0  0
  8  9  1  0  0  0  0
  8 14  1  0  0  0  0
  9 10  1  0  0  0  0
  9 31  1  0  0  0  0
 10 11  1  0  0  0  0
 10 32  1  0  0  0  0
 10 33  1  0  0  0  0
 11 12  1  0  0  0  0
 11 34  1  0  0  0  0
 11 35  1  0  0  0  0
 12 13  1  0  0  0  0
 13 36  1  0  0  0  0
 13 37  1  0  0  0  0
 13 38  1  0  0  0  0
 14 15  2  0  0  0  0
 14 16  1  0  0  0  0
 16 19  1  0  0  0  0
 16 17  1  0  0  0  0
 17 18  2  0  0  0  0
M  END
> <s_m_source_file>
AV-unprocessed.smi

> <i_m_source_file_index>
2628

> <i_lp_mmshare_version>
43012

> <i_f3d_flags>
0

> <s_epik_input>
W0NIM11bQ0gyXVtDSDJdW0NIMl1uMWMoW05IMl0pYyhjKD1PKVtuSF1jMT1PKVtOSF1bQ0gyXVtDSDJdT1tDSDNd

> <s_epik_cmdline>
J2VwaWtfcHl0aG9uJywgJy1waCcsICc3LjAnLCAnLXRuJywgJzgnLCAnLW1hJywgJzIwMCcsICctbWV0YWxfYmluZGluZycsICctaW1hZScsICc8aW5maWxlLm1hZT4nLCAnLW9tYWUnLCAnPG91dGZpbGUubWFlPic=

> <r_lp_tautomer_probability>
1

> <r_epik_Ionization_Penalty>
1.09794e-05

> <r_epik_Ionization_Penalty_Charging>
2.75876e-06

> <r_epik_Ionization_Penalty_Neutral>
8.2206e-06

> <r_epik_State_Penalty>
-0

> <r_epik_Charging_Adjusted_Penalty>
2.75876e-06

> <i_epik_Tot_Q>
0

> <i_epik_Tot_abs_Q>
0

> <r_epik_Metal_State_Penalty>
-0

> <b_epik_Metal_Only>
0

> <s_epik_Chemistry_Notes>
This compound has an imine and may undergo hydrolysis.

> <s_lp_Force_Field>
OPLS_2005

> <r_lp_Energy>
18.1798

> <b_lp_Chiralities_Consistent>
1

> <s_lp_Variant>
AV-unprocessed.smi:2628-1

> <Gold.Version>
5.8.1

> <Gold.Id.Protein>
6NUR|6NUR_protein|mol2

> <Gold.PLP.Fitness>
36.1763

> <Gold.PLP.PLP>
-29.6582

> <Gold.PLP.part.hbond>
-3.0000

> <Gold.PLP.part.metal>
0.0000

> <Gold.PLP.part.buried>
-3.0785

> <Gold.PLP.part.nonpolar>
-23.9493

> <Gold.PLP.part.repulsive>
0.1290

> <Gold.PLP.ligand.clash>
0.0000

> <Gold.PLP.ligand.torsion>
0.4945

> <Gold.PLP.Chemscore.Hbond>
2.4883

> <Gold.PLP.Chemscore.CHOScore>
0.0000

> <Gold.PLP.Chemscore.Metal>
0.0000

> <Gold.Chemscore.Hbonds>
donor molecule, donor type, donor heavy atom, donor atom, acceptor molecule, acceptor atom, score
      L1  H     7    30       P1  7948  0.80
      P1  H  6896  6907       L1    15  0.69
      P1  H 10752 10765       L1    12  0.70

> <Gold.PLP.Chemscore.Internal.Correction>
0.0422

> <Gold.Rescore>
     Score         DG    S(hbond)    S(metal)    S(lipo)     H(rot)  DE(clash)    DE(int)     intcor
     10.85     -12.61       2.11        0.00      52.02       2.35       0.00       1.76       ----

> <Gold.Chemscore.Fitness>
10.8475

> <Gold.Chemscore.DG>
-12.6092

> <Gold.Chemscore.ZeroCoef>
-5.4800

> <Gold.Chemscore.Hbond>
2.1124

> <Gold.Chemscore.Metal>
0.0000

> <Gold.Chemscore.Lipo>
52.0166

> <Gold.Chemscore.Internal_Hbond>
0.0000

> <Gold.Chemscore.DEClash>
0.0036

> <Gold.Chemscore.DEInternal>
1.7581

> <Gold.Chemscore.Rot>
2.3484

> <Gold.Chemscore.Internal.Correction>
   9.000000E+99

> <Gold.Chemscore.Hbonds>
donor molecule, donor type, donor heavy atom, donor atom, acceptor molecule, acceptor atom, score
      L1  H     7    30       P1  7948  0.13
      P1  H  6896  6907       L1    15  0.68
      P1  H 10752 10765       L1    12  0.18

> <Gold.Chemscore.Hbond.Weighted>
-7.0553

> <Gold.Chemscore.Metal.Weighted>
-0.0000

> <Gold.Chemscore.Lipo.Weighted>
-6.0859

> <Gold.Chemscore.Internal_Hbond.Weighted>
0.0000

> <Gold.Chemscore.DEClash.Weighted>
0.0036

> <Gold.Chemscore.DEInternal.Weighted>
1.7581

> <Gold.Chemscore.Rot.Weighted>
6.0120

> <Gold.Chemscore.Internal.Correction.Weighted>
   9.000000E+99

> <Gold.Protein.RotatedTorsions>
[ 6907 6896 6895 6894 ] final -150.23 input  -60.11 | X-H torsion
[ 7974 7965 7964 7962 ] final   49.00 input  175.53 | X-H torsion
[ 8008 7997 7996 7995 ] final  -65.47 input   59.86 | X-H torsion
[ 10167 10162 10161 10158 ] final  159.70 input  -65.29 | X-H torsion
[ 10718 10713 10712 10709 ] final  -88.22 input   66.30 | X-H torsion
[ 10763 10752 10751 10750 ] final -178.00 input  -60.55 | X-H torsion
[ 11005 11000 10999 10996 ] final  143.17 input  -57.11 | X-H torsion

> <Gold.Protein.ActiveResidues>
 VAL166  LYS551  ARG553  GLY616  TRP617  ASP618  TYR619  PRO620  LYS621  CYS622 
 ASP623  PHE694  ASN695  SER759  ASP760  ASP761  ALA762  ILE779  LEU786  VAL792 
 PHE793  MET794  SER795  GLU796  ALA797  LYS798  CYS799  TRP800  GLU811  SER814 

> <Gold.Protein.RotatedAtoms>
  151.1955  133.4642  159.2595 H   0  0  0  0  0  0  0  0  0  0  0  0  # atno 6907 bound_to 6896
  151.1121  135.0032  159.8509 H   0  0  0  0  0  0  0  0  0  0  0  0  # atno 6908 bound_to 6896
  152.5451  134.1873  159.8713 H   0  0  0  0  0  0  0  0  0  0  0  0  # atno 6909 bound_to 6896
  146.0151  139.4587  142.9932 H   0  0  0  0  0  0  0  0  0  0  0  0  # atno 7974 bound_to 7965
  154.4674  140.0932  156.7056 H   0  0  0  0  0  0  0  0  0  0  0  0  # atno 8008 bound_to 7997
  155.4820  140.3468  155.4323 H   0  0  0  0  0  0  0  0  0  0  0  0  # atno 8009 bound_to 7997
  156.0980  140.1414  156.9494 H   0  0  0  0  0  0  0  0  0  0  0  0  # atno 8010 bound_to 7997
  139.4834  144.4704  151.8583 H   0  0  0  0  0  0  0  0  0  0  0  0  # atno 10167 bound_to 10162
  155.9984  130.4828  150.4987 H   0  0  0  0  0  0  0  0  0  0  0  0  # atno 10718 bound_to 10713
  154.5532  135.2814  155.0989 H   0  0  0  0  0  0  0  0  0  0  0  0  # atno 10763 bound_to 10752
  154.2427  135.6354  153.5216 H   0  0  0  0  0  0  0  0  0  0  0  0  # atno 10764 bound_to 10752
  153.0008  135.5563  154.6104 H   0  0  0  0  0  0  0  0  0  0  0  0  # atno 10765 bound_to 10752
  140.0533  134.9244  157.1056 H   0  0  0  0  0  0  0  0  0  0  0  0  # atno 11005 bound_to 11000
  145.7281  141.0052  143.1366 LP  0  0  0  0  0  0  0  0  0  0  0  0  # atno 17320 bound_to 7965
  144.6968  139.8952  143.7455 LP  0  0  0  0  0  0  0  0  0  0  0  0  # atno 17321 bound_to 7965
  140.4173  144.2290  150.5887 LP  0  0  0  0  0  0  0  0  0  0  0  0  # atno 17342 bound_to 10162
  140.4908  143.2348  151.8821 LP  0  0  0  0  0  0  0  0  0  0  0  0  # atno 17343 bound_to 10162
  157.2973  131.0638  151.2092 LP  0  0  0  0  0  0  0  0  0  0  0  0  # atno 17370 bound_to 10713
  157.3084  130.6877  149.6202 LP  0  0  0  0  0  0  0  0  0  0  0  0  # atno 17371 bound_to 10713
  140.3883  134.2212  155.7167 LP  0  0  0  0  0  0  0  0  0  0  0  0  # atno 17394 bound_to 11000
  141.1940  133.8137  157.0773 LP  0  0  0  0  0  0  0  0  0  0  0  0  # atno 17395 bound_to 11000

$$$$
