AV-unprocessed.smi:2061|AV-procd|sdf|8366|dock10
  -GOLD-   2272011 43D 1   1.00000     0.00000
 Structure written by MMmdl.
 46 47  0  0  0  0  0  0  0  0  2 V2000
  152.7983  141.0567  159.3872 C   0  0  0  0  0  0  0  0  0  0  0  0
  152.2652  140.4100  158.1550 C   0  0  0  0  0  0  0  0  0  0  0  0
  151.2090  140.6960  157.3370 C   0  0  0  0  0  0  0  0  0  0  0  0
  151.2799  139.6671  156.3529 C   0  0  0  0  0  0  0  0  0  0  0  0
  150.3942  139.4888  155.2590 N   0  0  0  0  0  0  0  0  0  0  0  0
  149.0915  139.8074  155.1820 C   0  0  0  0  0  0  0  0  0  0  0  0
  148.4377  140.3613  156.0661 O   0  0  0  0  0  0  0  0  0  0  0  0
  148.5690  139.4445  154.0016 N   0  0  0  0  0  0  0  0  0  0  0  0
  147.1758  139.6455  153.6142 C   0  0  0  0  0  0  0  0  0  0  0  0
  146.3684  138.3219  153.5380 C   0  0  2  0  0  0  0  0  0  0  0  0
  146.4014  137.7638  152.0942 C   0  0  0  0  0  0  0  0  0  0  0  0
  144.9820  138.5288  154.0703 N   0  3  1  0  0  0  0  0  0  0  0  0
  144.0762  137.3501  153.9893 C   0  0  0  0  0  0  0  0  0  0  0  0
  142.6702  137.6950  154.5174 C   0  0  1  0  0  0  0  0  0  0  0  0
  141.7379  136.4784  154.5168 C   0  0  0  0  0  0  0  0  0  0  0  0
  142.7723  138.1736  155.8519 O   0  0  0  0  0  0  0  0  0  0  0  0
  143.5498  139.3600  155.9402 C   0  0  1  0  0  0  0  0  0  0  0  0
  143.5180  139.8432  157.3944 C   0  0  0  0  0  0  0  0  0  0  0  0
  144.9809  139.0542  155.4627 C   0  0  0  0  0  0  0  0  0  0  0  0
  152.2830  138.8339  156.5589 N   0  0  0  0  0  0  0  0  0  0  0  0
  152.9228  139.3047  157.7115 O   0  0  0  0  0  0  0  0  0  0  0  0
  152.1820  141.9074  159.6788 H   0  0  0  0  0  0  0  0  0  0  0  0
  153.8154  141.4147  159.2269 H   0  0  0  0  0  0  0  0  0  0  0  0
  152.8139  140.3507  160.2177 H   0  0  0  0  0  0  0  0  0  0  0  0
  150.5088  141.5107  157.4434 H   0  0  0  0  0  0  0  0  0  0  0  0
  150.8028  139.0616  154.4406 H   0  0  0  0  0  0  0  0  0  0  0  0
  149.1733  138.9983  153.3266 H   0  0  0  0  0  0  0  0  0  0  0  0
  146.7349  140.3570  154.3113 H   0  0  0  0  0  0  0  0  0  0  0  0
  147.1673  140.1369  152.6409 H   0  0  0  0  0  0  0  0  0  0  0  0
  146.8499  137.5747  154.1711 H   0  0  0  0  0  0  0  0  0  0  0  0
  147.4216  137.6553  151.7265 H   0  0  0  0  0  0  0  0  0  0  0  0
  145.8738  138.4196  151.4008 H   0  0  0  0  0  0  0  0  0  0  0  0
  145.9596  136.7692  152.0298 H   0  0  0  0  0  0  0  0  0  0  0  0
  143.9651  137.0181  152.9575 H   0  0  0  0  0  0  0  0  0  0  0  0
  144.5037  136.5220  154.5576 H   0  0  0  0  0  0  0  0  0  0  0  0
  142.2246  138.4702  153.8913 H   0  0  0  0  0  0  0  0  0  0  0  0
  141.6223  136.0725  153.5114 H   0  0  0  0  0  0  0  0  0  0  0  0
  140.7464  136.7478  154.8812 H   0  0  0  0  0  0  0  0  0  0  0  0
  142.1232  135.6840  155.1566 H   0  0  0  0  0  0  0  0  0  0  0  0
  143.1067  140.1323  155.3089 H   0  0  0  0  0  0  0  0  0  0  0  0
  144.0941  140.7610  157.5166 H   0  0  0  0  0  0  0  0  0  0  0  0
  143.9347  139.0945  158.0687 H   0  0  0  0  0  0  0  0  0  0  0  0
  142.4963  140.0484  157.7149 H   0  0  0  0  0  0  0  0  0  0  0  0
  145.4447  138.3215  156.1255 H   0  0  0  0  0  0  0  0  0  0  0  0
  145.5742  139.9632  155.5397 H   0  0  0  0  0  0  0  0  0  0  0  0
  144.5602  139.2374  153.4872 H   0  0  0  0  0  0  0  0  0  0  0  0
  1  2  1  0  0  0  0
  1 22  1  0  0  0  0
  1 23  1  0  0  0  0
  1 24  1  0  0  0  0
  2 21  1  0  0  0  0
  2  3  2  0  0  0  0
  3  4  1  0  0  0  0
  3 25  1  0  0  0  0
  4  5  1  0  0  0  0
  4 20  2  0  0  0  0
  5  6  1  0  0  0  0
  5 26  1  0  0  0  0
  6  7  2  0  0  0  0
  6  8  1  0  0  0  0
  8  9  1  0  0  0  0
  8 27  1  0  0  0  0
  9 10  1  0  0  0  0
  9 28  1  0  0  0  0
  9 29  1  0  0  0  0
 10 11  1  0  0  0  0
 10 12  1  0  0  0  0
 10 30  1  0  0  0  0
 11 31  1  0  0  0  0
 11 32  1  0  0  0  0
 11 33  1  0  0  0  0
 12 19  1  0  0  0  0
 12 13  1  0  0  0  0
 12 46  1  0  0  0  0
 13 14  1  0  0  0  0
 13 34  1  0  0  0  0
 13 35  1  0  0  0  0
 14 15  1  0  0  0  0
 14 16  1  0  0  0  0
 14 36  1  0  0  0  0
 15 37  1  0  0  0  0
 15 38  1  0  0  0  0
 15 39  1  0  0  0  0
 16 17  1  0  0  0  0
 17 18  1  0  0  0  0
 17 19  1  0  0  0  0
 17 40  1  0  0  0  0
 18 41  1  0  0  0  0
 18 42  1  0  0  0  0
 18 43  1  0  0  0  0
 19 44  1  0  0  0  0
 19 45  1  0  0  0  0
 20 21  1  0  0  0  0
M  CHG  1  12   1
M  END
> <s_m_source_file>
AV-unprocessed.smi

> <i_m_source_file_index>
2061

> <i_lp_mmshare_version>
43012

> <i_f3d_flags>
0

> <s_epik_input>
W0NIM11jMVtjSF1jKG5vMSlbTkhdQyg9TylbTkhdW0NIMl1bQ0BIXShbQ0gzXSlOMltDSDJdW0NAQEhdKFtDSDNdKU9bQ0BASF0oW0NIM10pW0NIMl0y

> <s_epik_cmdline>
J2VwaWtfcHl0aG9uJywgJy1waCcsICc3LjAnLCAnLXRuJywgJzgnLCAnLW1hJywgJzIwMCcsICctbWV0YWxfYmluZGluZycsICctaW1hZScsICc8aW5maWxlLm1hZT4nLCAnLW9tYWUnLCAnPG91dGZpbGUubWFlPic=

> <r_epik_Ionization_Penalty>
0.707076

> <r_epik_Ionization_Penalty_Charging>
0.707039

> <r_epik_Ionization_Penalty_Neutral>
3.6548e-05

> <r_epik_State_Penalty>
0.730276

> <r_epik_Charging_Adjusted_Penalty>
1.43732

> <i_epik_Tot_Q>
1

> <i_epik_Tot_abs_Q>
1

> <r_epik_Metal_State_Penalty>
0.743132

> <b_epik_Metal_Only>
0

> <s_lp_Force_Field>
OPLS_2005

> <r_lp_Energy>
18.102

> <b_lp_Chiralities_Consistent>
1

> <s_lp_Variant>
AV-unprocessed.smi:2061-7

> <Gold.Version>
5.8.1

> <Gold.Id.Protein>
6NUR|6NUR_protein|mol2

> <Gold.PLP.Fitness>
39.0335

> <Gold.PLP.PLP>
-28.4786

> <Gold.PLP.part.hbond>
-3.8685

> <Gold.PLP.part.metal>
0.0000

> <Gold.PLP.part.buried>
-0.9612

> <Gold.PLP.part.nonpolar>
-24.8132

> <Gold.PLP.part.repulsive>
1.5981

> <Gold.PLP.ligand.clash>
0.0000

> <Gold.PLP.ligand.torsion>
0.7490

> <Gold.PLP.Chemscore.Hbond>
4.0000

> <Gold.PLP.Chemscore.CHOScore>
0.0000

> <Gold.PLP.Chemscore.Metal>
0.0000

> <Gold.Chemscore.Hbonds>
donor molecule, donor type, donor heavy atom, donor atom, acceptor molecule, acceptor atom, score
      L1  H    12    46       P1 10175  2.00
      P1  H  7997  8008       L1    21  0.85

> <Gold.PLP.Chemscore.Internal.Correction>
0.0529

> <Gold.Rescore>
     Score         DG    S(hbond)    S(metal)    S(lipo)     H(rot)  DE(clash)    DE(int)     intcor
     15.75     -17.92       2.77        0.00      61.77       1.58       1.21       0.96       ----

> <Gold.Chemscore.Fitness>
15.7514

> <Gold.Chemscore.DG>
-17.9190

> <Gold.Chemscore.ZeroCoef>
-5.4800

> <Gold.Chemscore.Hbond>
2.7740

> <Gold.Chemscore.Metal>
0.0000

> <Gold.Chemscore.Lipo>
61.7732

> <Gold.Chemscore.Internal_Hbond>
0.0000

> <Gold.Chemscore.DEClash>
1.2097

> <Gold.Chemscore.DEInternal>
0.9579

> <Gold.Chemscore.Rot>
1.5834

> <Gold.Chemscore.Internal.Correction>
   9.000000E+99

> <Gold.Chemscore.Hbonds>
donor molecule, donor type, donor heavy atom, donor atom, acceptor molecule, acceptor atom, score
      L1  H     8    27       P1  7957  0.03
      L1  H    12    46       P1 10175  1.00
      P1  H  7997  8008       L1    21  0.06

> <Gold.Chemscore.Hbond.Weighted>
-9.2650

> <Gold.Chemscore.Metal.Weighted>
-0.0000

> <Gold.Chemscore.Lipo.Weighted>
-7.2275

> <Gold.Chemscore.Internal_Hbond.Weighted>
0.0000

> <Gold.Chemscore.DEClash.Weighted>
1.2097

> <Gold.Chemscore.DEInternal.Weighted>
0.9579

> <Gold.Chemscore.Rot.Weighted>
4.0535

> <Gold.Chemscore.Internal.Correction.Weighted>
   9.000000E+99

> <Gold.Protein.RotatedTorsions>
[ 6907 6896 6895 6894 ] final -157.78 input  -60.11 | X-H torsion
[ 7974 7965 7964 7962 ] final    8.53 input  175.53 | X-H torsion
[ 8008 7997 7996 7995 ] final  -72.79 input   59.86 | X-H torsion
[ 10167 10162 10161 10158 ] final   21.44 input  -65.29 | X-H torsion
[ 10718 10713 10712 10709 ] final  -85.77 input   66.30 | X-H torsion
[ 10763 10752 10751 10750 ] final  118.72 input  -60.55 | X-H torsion
[ 11005 11000 10999 10996 ] final  168.72 input  -57.11 | X-H torsion

> <Gold.Protein.ActiveResidues>
 VAL166  LYS551  ARG553  GLY616  TRP617  ASP618  TYR619  PRO620  LYS621  CYS622 
 ASP623  PHE694  ASN695  SER759  ASP760  ASP761  ALA762  ILE779  LEU786  VAL792 
 PHE793  MET794  SER795  GLU796  ALA797  LYS798  CYS799  TRP800  GLU811  SER814 

> <Gold.Protein.RotatedAtoms>
  151.3080  133.4093  159.2644 H   0  0  0  0  0  0  0  0  0  0  0  0  # atno 6907 bound_to 6896
  151.0138  134.9418  159.8032 H   0  0  0  0  0  0  0  0  0  0  0  0  # atno 6908 bound_to 6896
  152.5307  134.3044  159.9143 H   0  0  0  0  0  0  0  0  0  0  0  0  # atno 6909 bound_to 6896
  146.2415  139.9919  142.8425 H   0  0  0  0  0  0  0  0  0  0  0  0  # atno 7974 bound_to 7965
  154.5195  140.0791  156.8144 H   0  0  0  0  0  0  0  0  0  0  0  0  # atno 8008 bound_to 7997
  155.3607  140.3418  155.4222 H   0  0  0  0  0  0  0  0  0  0  0  0  # atno 8009 bound_to 7997
  156.1665  140.1605  156.8509 H   0  0  0  0  0  0  0  0  0  0  0  0  # atno 8010 bound_to 7997
  140.5427  143.9649  150.6529 H   0  0  0  0  0  0  0  0  0  0  0  0  # atno 10167 bound_to 10162
  155.9994  130.4742  150.4613 H   0  0  0  0  0  0  0  0  0  0  0  0  # atno 10718 bound_to 10713
  153.5720  135.3500  155.2841 H   0  0  0  0  0  0  0  0  0  0  0  0  # atno 10763 bound_to 10752
  154.8680  135.4161  154.2714 H   0  0  0  0  0  0  0  0  0  0  0  0  # atno 10764 bound_to 10752
  153.3482  135.7053  153.6880 H   0  0  0  0  0  0  0  0  0  0  0  0  # atno 10765 bound_to 10752
  140.2902  134.7679  157.3832 H   0  0  0  0  0  0  0  0  0  0  0  0  # atno 11005 bound_to 11000
  145.1495  140.9615  143.4441 LP  0  0  0  0  0  0  0  0  0  0  0  0  # atno 17320 bound_to 7965
  145.0219  139.3417  143.6068 LP  0  0  0  0  0  0  0  0  0  0  0  0  # atno 17321 bound_to 7965
  140.3054  143.3233  152.0931 LP  0  0  0  0  0  0  0  0  0  0  0  0  # atno 17342 bound_to 10162
  139.4995  144.6670  151.6332 LP  0  0  0  0  0  0  0  0  0  0  0  0  # atno 17343 bound_to 10162
  157.2637  131.0572  151.2304 LP  0  0  0  0  0  0  0  0  0  0  0  0  # atno 17370 bound_to 10713
  157.3409  130.7033  149.6381 LP  0  0  0  0  0  0  0  0  0  0  0  0  # atno 17371 bound_to 10713
  140.1202  134.5230  155.8190 LP  0  0  0  0  0  0  0  0  0  0  0  0  # atno 17394 bound_to 11000
  141.2147  133.6754  156.6852 LP  0  0  0  0  0  0  0  0  0  0  0  0  # atno 17395 bound_to 11000

$$$$
