#       Name:                AV-unprocessed.smi:3200
#       Creating user name   scv26
#       Creation time:       Fri Mar 27 18:07:07 2020


#       File generated by GOLD software.
#

@<TRIPOS>MOLECULE
AV-unprocessed.smi:3200
    42    43     1
SMALL
NO_CHARGES


@<TRIPOS>ATOM
      1 ****        -6.1245   2.2833  -0.8828 C.3            1 S1                 0.0000
      2 ****        -4.8882   2.0669  -0.0783 C.2            1 S1                 0.0000
      3 ****        -4.9490   1.7479   1.2089 N.2            1 S1                 0.0000
      4 ****        -3.6012   1.6329   1.5782 O.3            1 S1                 0.0000
      5 ****        -2.8879   1.9200   0.4632 C.2            1 S1                 0.0000
      6 ****        -1.3997   1.8320   0.5169 C.3            1 S1                 0.0000
      7 ****        -0.8923   0.4048   0.2776 C.3            1 S1                 0.0000
      8 ****         0.5826   0.3502   0.3314 N.4            1 S1                 1.0000
      9 ****         1.1611  -0.9978   0.1333 C.3            1 S1                 0.0000
     10 ****         0.9919  -1.5315  -1.2967 C.3            1 S1                 0.0000
     11 ****         2.1462  -2.5205  -1.5054 C.3            1 S1                 0.0000
     12 ****         3.0513  -2.3943  -0.2712 C.3            1 S1                 0.0000
     13 ****         2.6789  -1.0641   0.4080 C.3            1 S1                 0.0000
     14 ****         3.4602   0.0975  -0.2495 C.3            1 S1                 0.0000
     15 ****         2.9884  -1.1049   1.9162 C.3            1 S1                 0.0000
     16 ****        -3.6377   2.1795  -0.6047 N.2            1 S1                 0.0000
     17 ****        -6.9782   1.7832  -0.4241 H              1 S1                 0.0000
     18 ****        -5.9969   1.8871  -1.8906 H              1 S1                 0.0000
     19 ****        -6.3439   3.3488  -0.9545 H              1 S1                 0.0000
     20 ****        -0.9849   2.5095  -0.2305 H              1 S1                 0.0000
     21 ****        -1.0649   2.1945   1.4897 H              1 S1                 0.0000
     22 ****        -1.3053  -0.2684   1.0303 H              1 S1                 0.0000
     23 ****        -1.2356   0.0511  -0.6953 H              1 S1                 0.0000
     24 ****         0.9617   0.9691  -0.3711 H              1 S1                 0.0000
     25 ****         0.6598  -1.6882   0.8148 H              1 S1                 0.0000
     26 ****         0.0195  -2.0025  -1.4445 H              1 S1                 0.0000
     27 ****         1.0738  -0.7205  -2.0218 H              1 S1                 0.0000
     28 ****         1.7844  -3.5430  -1.6188 H              1 S1                 0.0000
     29 ****         2.6953  -2.2673  -2.4130 H              1 S1                 0.0000
     30 ****         2.8372  -3.2261   0.4016 H              1 S1                 0.0000
     31 ****         4.1099  -2.4599  -0.5253 H              1 S1                 0.0000
     32 ****         4.5358  -0.0420  -0.1368 H              1 S1                 0.0000
     33 ****         3.2144   1.0573   0.2055 H              1 S1                 0.0000
     34 ****         3.2560   0.1779  -1.3173 H              1 S1                 0.0000
     35 ****         4.0548  -1.2476   2.0947 H              1 S1                 0.0000
     36 ****         2.4620  -1.9201   2.4141 H              1 S1                 0.0000
     37 ****         2.6936  -0.1765   2.4062 H              1 S1                 0.0000
     38 ****         0.8722   0.6811   1.2407 H              1 S1                 0.0000
     39 ****        -5.7610   1.6203   1.7784 LP             1 S1                 0.0000
     40 ****        -3.4032   0.7032   1.8886 LP             1 S1                 0.0000
     41 ****        -3.3834   2.2813   2.3077 LP             1 S1                 0.0000
     42 ****        -3.3587   2.3979  -1.5398 LP             1 S1                 0.0000
@<TRIPOS>BOND
    1    1    2 1     
    2    1   17 1     
    3    1   18 1     
    4    1   19 1     
    5    2   16 1     
    6    2    3 2     
    7    3    4 1     
    8    4    5 1     
    9    5    6 1     
   10    5   16 2     
   11    6    7 1     
   12    6   20 1     
   13    6   21 1     
   14    7    8 1     
   15    7   22 1     
   16    7   23 1     
   17    8    9 1     
   18    8   24 1     
   19    8   38 1     
   20    9   13 1     
   21    9   10 1     
   22    9   25 1     
   23   10   11 1     
   24   10   26 1     
   25   10   27 1     
   26   11   12 1     
   27   11   28 1     
   28   11   29 1     
   29   12   13 1     
   30   12   30 1     
   31   12   31 1     
   32   13   14 1     
   33   13   15 1     
   34   14   32 1     
   35   14   33 1     
   36   14   34 1     
   37   15   35 1     
   38   15   36 1     
   39   15   37 1     
   40    3   39 1     
   41    4   40 1     
   42    4   41 1     
   43   16   42 1     
@<TRIPOS>SUBSTRUCTURE
      1 S1             1
@<TRIPOS>SET
LONE_PAIRS      STATIC     ATOMS    <user>   **** ""
4 39 40 41 42
DONOR_HYDROGENS      STATIC     ATOMS    <user>   **** ""
2 24 38
ATOM$BLUE        STATIC     ATOMS    COLORGROUP SYSTEM
4 39 40 41 42
ATOM$RED        STATIC     ATOMS    COLORGROUP SYSTEM
2 24 38
