#       Name:                AV-unprocessed.smi:692
#       Creating user name   scv26
#       Creation time:       Fri Mar 27 00:34:47 2020


#       File generated by GOLD software.
#

@<TRIPOS>MOLECULE
AV-unprocessed.smi:692
    42    43     1
SMALL
NO_CHARGES


@<TRIPOS>ATOM
      1 ****        -5.7259   1.0154  -2.0083 C.3            1 S1                 0.0000
      2 ****        -5.6191   0.2405  -0.6901 C.3            1 S1                 0.0000
      3 ****        -4.5750  -0.8331  -0.7432 C.2            1 S1                 0.0000
      4 ****        -4.7846  -2.1774  -0.9331 C.2            1 S1                 0.0000
      5 ****        -3.2921  -3.0781  -0.9392 S.3            1 S1                 0.0000
      6 ****        -2.4275  -1.5718  -0.6761 C.2            1 S1                 0.0000
      7 ****        -1.0129  -1.5271  -0.5668 N.am           1 S1                 0.0000
      8 ****        -0.2307  -0.4586  -0.3333 C.2            1 S1                 0.0000
      9 ****        -0.6309   0.6928  -0.1586 O.2            1 S1                 0.0000
     10 ****         1.0650  -0.8028  -0.3065 N.am           1 S1                 0.0000
     11 ****         2.1740   0.1155  -0.0652 C.3            1 S1                 0.0000
     12 ****         3.4600  -0.4521  -0.6683 C.3            1 S1                 0.0000
     13 ****         4.6255   0.5215  -0.4558 C.3            1 S1                 0.0000
     14 ****         4.7315   1.0528   0.9819 C.2            1 S1                 0.0000
     15 ****         5.8027   1.5426   1.3413 O.2            1 S1                 0.0000
     16 ****         3.6474   0.9973   1.7930 N.am           1 S1                 0.0000
     17 ****         3.7167   1.5299   3.1549 C.3            1 S1                 0.0000
     18 ****         2.3697   0.3559   1.4445 C.3            1 S1                 0.0000
     19 ****        -3.2245  -0.5001  -0.5976 N.2            1 S1                 0.0000
     20 ****        -6.4946   1.7858  -1.9445 H              1 S1                 0.0000
     21 ****        -5.9854   0.3529  -2.8346 H              1 S1                 0.0000
     22 ****        -4.7835   1.5058  -2.2547 H              1 S1                 0.0000
     23 ****        -5.3961   0.9375   0.1185 H              1 S1                 0.0000
     24 ****        -6.5901  -0.1942  -0.4506 H              1 S1                 0.0000
     25 ****        -5.7248  -2.6902  -1.0723 H              1 S1                 0.0000
     26 ****        -0.5419  -2.4129  -0.6779 H              1 S1                 0.0000
     27 ****         1.3031  -1.7717  -0.4604 H              1 S1                 0.0000
     28 ****         1.9626   1.0684  -0.5551 H              1 S1                 0.0000
     29 ****         3.6963  -1.4159  -0.2142 H              1 S1                 0.0000
     30 ****         3.3278  -0.6349  -1.7354 H              1 S1                 0.0000
     31 ****         5.5645   0.0428  -0.7357 H              1 S1                 0.0000
     32 ****         4.5060   1.3812  -1.1159 H              1 S1                 0.0000
     33 ****         3.8724   2.6094   3.1350 H              1 S1                 0.0000
     34 ****         4.5405   1.0755   3.7077 H              1 S1                 0.0000
     35 ****         2.8032   1.3377   3.7193 H              1 S1                 0.0000
     36 ****         1.5408   0.9567   1.8220 H              1 S1                 0.0000
     37 ****         2.3306  -0.5962   1.9761 H              1 S1                 0.0000
     38 ****        -1.6107   0.8910  -0.1849 LP             1 S1                 0.0000
     39 ****         0.0239   1.4296   0.0095 LP             1 S1                 0.0000
     40 ****         6.5717   1.5858   0.7035 LP             1 S1                 0.0000
     41 ****         5.9035   1.8971   2.2709 LP             1 S1                 0.0000
     42 ****        -2.8927   0.4319  -0.4516 LP             1 S1                 0.0000
@<TRIPOS>BOND
    1    1    2 1     
    2    1   20 1     
    3    1   21 1     
    4    1   22 1     
    5    2    3 1     
    6    2   23 1     
    7    2   24 1     
    8    3   19 1     
    9    3    4 2     
   10    4    5 1     
   11    4   25 1     
   12    5    6 1     
   13    6    7 1     
   14    6   19 2     
   15    7    8 am    
   16    7   26 1     
   17    8    9 2     
   18    8   10 am    
   19   10   11 1     
   20   10   27 1     
   21   11   18 1     
   22   11   12 1     
   23   11   28 1     
   24   12   13 1     
   25   12   29 1     
   26   12   30 1     
   27   13   14 1     
   28   13   31 1     
   29   13   32 1     
   30   14   15 2     
   31   14   16 am    
   32   16   17 1     
   33   16   18 1     
   34   17   33 1     
   35   17   34 1     
   36   17   35 1     
   37   18   36 1     
   38   18   37 1     
   39    9   38 1     
   40    9   39 1     
   41   15   40 1     
   42   15   41 1     
   43   19   42 1     
@<TRIPOS>SUBSTRUCTURE
      1 S1             1
@<TRIPOS>SET
LONE_PAIRS      STATIC     ATOMS    <user>   **** ""
5 38 39 40 41 42
DONOR_HYDROGENS      STATIC     ATOMS    <user>   **** ""
2 26 27
ATOM$BLUE        STATIC     ATOMS    COLORGROUP SYSTEM
5 38 39 40 41 42
ATOM$RED        STATIC     ATOMS    COLORGROUP SYSTEM
2 26 27
