#       Name:                AV-unprocessed.smi:100
#       Creating user name   scv26
#       Creation time:       Thu Mar 26 17:40:41 2020


#       File generated by GOLD software.
#

@<TRIPOS>MOLECULE
AV-unprocessed.smi:100
    40    42     1
SMALL
NO_CHARGES


@<TRIPOS>ATOM
      1 ****        -5.0334   0.6540  -0.2740 N.pl3          1 S1                 0.0000
      2 ****        -3.7072   0.8207  -0.1748 C.ar           1 S1                 0.0000
      3 ****        -3.2151   2.0813  -0.1925 N.ar           1 S1                 0.0000
      4 ****        -1.8958   2.2732  -0.0969 C.ar           1 S1                 0.0000
      5 ****        -0.9261   1.3626   0.0226 N.ar           1 S1                 0.0000
      6 ****        -1.4217   0.0907   0.0404 C.ar           1 S1                 0.0000
      7 ****        -2.7977  -0.2602  -0.0536 C.ar           1 S1                 0.0000
      8 ****        -2.9391  -1.6394  -0.0042 N.2            1 S1                 0.0000
      9 ****        -1.7134  -2.0755   0.1078 C.2            1 S1                 0.0000
     10 ****        -0.7359  -1.1044   0.1518 N.pl3          1 S1                 0.0000
     11 ****         0.7434  -1.3204   0.2596 C.3            1 S1                 0.0000
     12 ****         1.3541  -0.7419  -0.8582 O.3            1 S1                 0.0000
     13 ****         2.2149   0.3243  -0.4582 C.3            1 S1                 0.0000
     14 ****         3.3809   0.4877  -1.4461 C.3            1 S1                 0.0000
     15 ****         2.9759   1.2675  -2.5508 O.3            1 S1                 0.0000
     16 ****         2.6369  -0.0934   0.9507 C.3            1 S1                 0.0000
     17 ****         3.5613  -1.0551   0.8604 F              1 S1                 0.0000
     18 ****         1.3339  -0.6452   1.5067 C.3            1 S1                 0.0000
     19 ****         1.5835  -1.5368   2.5752 O.3            1 S1                 0.0000
     20 ****        -5.4250  -0.2768  -0.2640 H              1 S1                 0.0000
     21 ****        -5.6367   1.4584  -0.3648 H              1 S1                 0.0000
     22 ****        -1.5697   3.3025  -0.1190 H              1 S1                 0.0000
     23 ****        -1.4874  -3.1307   0.1627 H              1 S1                 0.0000
     24 ****         0.8863  -2.4019   0.2321 H              1 S1                 0.0000
     25 ****         1.6511   1.2543  -0.3895 H              1 S1                 0.0000
     26 ****         4.2090   1.0092  -0.9655 H              1 S1                 0.0000
     27 ****         3.7566  -0.4792  -1.7824 H              1 S1                 0.0000
     28 ****         3.7104   1.3619  -3.1377 H              1 S1                 0.0000
     29 ****         3.0538   0.7222   1.5420 H              1 S1                 0.0000
     30 ****         0.6944   0.1713   1.8419 H              1 S1                 0.0000
     31 ****         0.7568  -1.8810   2.8770 H              1 S1                 0.0000
     32 ****        -3.8334   2.8627  -0.2764 LP             1 S1                 0.0000
     33 ****         0.0463   1.5857   0.0909 LP             1 S1                 0.0000
     34 ****        -3.7828  -2.1747  -0.0448 LP             1 S1                 0.0000
     35 ****         0.6492  -0.3843  -1.4707 LP             1 S1                 0.0000
     36 ****         1.8907  -1.4367  -1.3371 LP             1 S1                 0.0000
     37 ****         2.6779   2.1687  -2.2361 LP             1 S1                 0.0000
     38 ****         2.2215   0.8138  -3.0251 LP             1 S1                 0.0000
     39 ****         2.0392  -1.0507   3.3210 LP             1 S1                 0.0000
     40 ****         2.1663  -2.2860   2.2605 LP             1 S1                 0.0000
@<TRIPOS>BOND
    1    1    2 1     
    2    1   20 1     
    3    1   21 1     
    4    2    7 ar    
    5    2    3 ar    
    6    3    4 ar    
    7    4    5 ar    
    8    4   22 1     
    9    5    6 ar    
   10    6   10 1     
   11    6    7 ar    
   12    7    8 1     
   13    8    9 2     
   14    9   10 1     
   15    9   23 1     
   16   10   11 1     
   17   11   18 1     
   18   11   12 1     
   19   11   24 1     
   20   12   13 1     
   21   13   14 1     
   22   13   16 1     
   23   13   25 1     
   24   14   15 1     
   25   14   26 1     
   26   14   27 1     
   27   15   28 1     
   28   16   17 1     
   29   16   18 1     
   30   16   29 1     
   31   18   19 1     
   32   18   30 1     
   33   19   31 1     
   34    3   32 1     
   35    5   33 1     
   36    8   34 1     
   37   12   35 1     
   38   12   36 1     
   39   15   37 1     
   40   15   38 1     
   41   19   39 1     
   42   19   40 1     
@<TRIPOS>SUBSTRUCTURE
      1 S1             1
@<TRIPOS>SET
LONE_PAIRS      STATIC     ATOMS    <user>   **** ""
9 32 33 34 35 36 37 38 39 40
DONOR_HYDROGENS      STATIC     ATOMS    <user>   **** ""
4 20 21 28 31
ATOM$BLUE        STATIC     ATOMS    COLORGROUP SYSTEM
9 32 33 34 35 36 37 38 39 40
ATOM$RED        STATIC     ATOMS    COLORGROUP SYSTEM
4 20 21 28 31
