AV-unprocessed.smi:1174|AV-procd|sdf|4948|dock8
  -GOLD-   22720 3533D 1   1.00000     0.00000
 Structure written by MMmdl.
 41 42  0  0  0  0  0  0  0  0  1 V2000
  145.7244  142.7273  157.2907 C   0  0  0  0  0  0  0  0  0  0  0  0
  146.9841  142.4397  158.1185 C   0  0  2  0  0  0  0  0  0  0  0  0
  147.2491  143.5612  159.1466 C   0  0  0  0  0  0  0  0  0  0  0  0
  146.3166  143.5354  160.2600 N   0  0  0  0  0  0  0  0  0  0  0  0
  146.0988  144.5034  161.2180 C   0  0  0  0  0  0  0  0  0  0  0  0
  145.1504  144.0220  162.0739 C   0  0  0  0  0  0  0  0  0  0  0  0
  144.8399  142.7378  161.5452 C   0  0  0  0  0  0  0  0  0  0  0  0
  145.5366  142.4511  160.4573 N   0  0  0  0  0  0  0  0  0  0  0  0
  148.1220  142.2873  157.2122 N   0  0  0  0  0  0  0  0  0  0  0  0
  148.8835  141.1882  157.0868 C   0  0  0  0  0  0  0  0  0  0  0  0
  148.6713  140.1511  157.7153 O   0  0  0  0  0  0  0  0  0  0  0  0
  150.0817  141.2959  156.1251 C   0  0  1  0  0  0  0  0  0  0  0  0
  151.1264  140.1809  156.3774 C   0  0  0  0  0  0  0  0  0  0  0  0
  150.7379  138.8269  155.7505 C   0  0  0  0  0  0  0  0  0  0  0  0
  150.3325  138.9996  154.2769 C   0  0  0  0  0  0  0  0  0  0  0  0
  149.2317  139.9752  154.1876 N   0  0  0  0  0  0  0  0  0  0  0  0
  147.9579  139.7199  153.7928 C   0  0  0  0  0  0  0  0  0  0  0  0
  147.7841  138.5781  153.1198 N   0  0  0  0  0  0  0  0  0  0  0  0
  147.0066  140.4628  154.0292 O   0  0  0  0  0  0  0  0  0  0  0  0
  149.6584  141.3112  154.6345 C   0  0  0  0  0  0  0  0  0  0  0  0
  144.8468  142.8165  157.9315 H   0  0  0  0  0  0  0  0  0  0  0  0
  145.5302  141.9242  156.5788 H   0  0  0  0  0  0  0  0  0  0  0  0
  145.8213  143.6565  156.7278 H   0  0  0  0  0  0  0  0  0  0  0  0
  146.8088  141.5052  158.6550 H   0  0  0  0  0  0  0  0  0  0  0  0
  148.2642  143.4884  159.5396 H   0  0  0  0  0  0  0  0  0  0  0  0
  147.1729  144.5374  158.6657 H   0  0  0  0  0  0  0  0  0  0  0  0
  146.6400  145.4381  161.2172 H   0  0  0  0  0  0  0  0  0  0  0  0
  144.7430  144.5108  162.9461 H   0  0  0  0  0  0  0  0  0  0  0  0
  144.1342  142.0101  161.9178 H   0  0  0  0  0  0  0  0  0  0  0  0
  148.3668  143.0933  156.6557 H   0  0  0  0  0  0  0  0  0  0  0  0
  150.5700  142.2496  156.3325 H   0  0  0  0  0  0  0  0  0  0  0  0
  152.0796  140.4986  155.9533 H   0  0  0  0  0  0  0  0  0  0  0  0
  151.3056  140.0554  157.4463 H   0  0  0  0  0  0  0  0  0  0  0  0
  151.5747  138.1323  155.8278 H   0  0  0  0  0  0  0  0  0  0  0  0
  149.9164  138.3747  156.3066 H   0  0  0  0  0  0  0  0  0  0  0  0
  151.1815  139.3719  153.7019 H   0  0  0  0  0  0  0  0  0  0  0  0
  150.0996  138.0257  153.8474 H   0  0  0  0  0  0  0  0  0  0  0  0
  146.8654  138.3246  152.7880 H   0  0  0  0  0  0  0  0  0  0  0  0
  148.5762  137.9784  152.9411 H   0  0  0  0  0  0  0  0  0  0  0  0
  148.8918  142.0718  154.4773 H   0  0  0  0  0  0  0  0  0  0  0  0
  150.5021  141.6284  154.0202 H   0  0  0  0  0  0  0  0  0  0  0  0
  1  2  1  0  0  0  0
  1 21  1  0  0  0  0
  1 22  1  0  0  0  0
  1 23  1  0  0  0  0
  2  3  1  0  0  0  0
  2  9  1  0  0  0  0
  2 24  1  0  0  0  0
  3  4  1  0  0  0  0
  3 25  1  0  0  0  0
  3 26  1  0  0  0  0
  4  8  1  0  0  0  0
  4  5  1  0  0  0  0
  5  6  2  0  0  0  0
  5 27  1  0  0  0  0
  6  7  1  0  0  0  0
  6 28  1  0  0  0  0
  7  8  2  0  0  0  0
  7 29  1  0  0  0  0
  9 10  1  0  0  0  0
  9 30  1  0  0  0  0
 10 11  2  0  0  0  0
 10 12  1  0  0  0  0
 12 20  1  0  0  0  0
 12 13  1  0  0  0  0
 12 31  1  0  0  0  0
 13 14  1  0  0  0  0
 13 32  1  0  0  0  0
 13 33  1  0  0  0  0
 14 15  1  0  0  0  0
 14 34  1  0  0  0  0
 14 35  1  0  0  0  0
 15 16  1  0  0  0  0
 15 36  1  0  0  0  0
 15 37  1  0  0  0  0
 16 17  1  0  0  0  0
 16 20  1  0  0  0  0
 17 18  1  0  0  0  0
 17 19  2  0  0  0  0
 18 38  1  0  0  0  0
 18 39  1  0  0  0  0
 20 40  1  0  0  0  0
 20 41  1  0  0  0  0
M  END
> <s_m_source_file>
AV-unprocessed.smi

> <i_m_source_file_index>
1174

> <i_lp_mmshare_version>
43012

> <i_f3d_flags>
0

> <s_epik_input>
bjFbY0hdW2NIXVtjSF1uMVtDSDJdW0NAQEhdKFtDSDNdKVtOSF1DKD1PKVtDQEBIXTJbQ0gyXVtDSDJdW0NIMl1OKFtDSDJdMilDKD1PKVtOSDJd

> <s_epik_cmdline>
J2VwaWtfcHl0aG9uJywgJy1waCcsICc3LjAnLCAnLXRuJywgJzgnLCAnLW1hJywgJzIwMCcsICctbWV0YWxfYmluZGluZycsICctaW1hZScsICc8aW5maWxlLm1hZT4nLCAnLW9tYWUnLCAnPG91dGZpbGUubWFlPic=

> <r_lp_tautomer_probability>
1

> <r_epik_Ionization_Penalty>
0.000372452

> <r_epik_Ionization_Penalty_Charging>
0

> <r_epik_Ionization_Penalty_Neutral>
0.000372452

> <r_epik_State_Penalty>
-0

> <r_epik_Charging_Adjusted_Penalty>
0

> <i_epik_Tot_Q>
0

> <i_epik_Tot_abs_Q>
0

> <r_epik_Metal_State_Penalty>
-0

> <b_epik_Metal_Only>
0

> <s_lp_Force_Field>
OPLS_2005

> <r_lp_Energy>
23.1922

> <b_lp_Chiralities_Consistent>
1

> <s_lp_Variant>
AV-unprocessed.smi:1174-3

> <Gold.Version>
5.8.1

> <Gold.Id.Protein>
6NUR|6NUR_protein|mol2

> <Gold.PLP.Fitness>
39.1001

> <Gold.PLP.PLP>
-32.4085

> <Gold.PLP.part.hbond>
-3.9410

> <Gold.PLP.part.metal>
0.0000

> <Gold.PLP.part.buried>
-1.4282

> <Gold.PLP.part.nonpolar>
-28.1078

> <Gold.PLP.part.repulsive>
0.2136

> <Gold.PLP.ligand.clash>
0.0000

> <Gold.PLP.ligand.torsion>
0.7349

> <Gold.PLP.Chemscore.Hbond>
2.7056

> <Gold.PLP.Chemscore.CHOScore>
0.0000

> <Gold.PLP.Chemscore.Metal>
0.0000

> <Gold.Chemscore.Hbonds>
donor molecule, donor type, donor heavy atom, donor atom, acceptor molecule, acceptor atom, score
      L1  H     9    30       P1  8028  1.00
      L1  H    18    39       P1  7948  0.68
      P1  H  6934  6946       L1     8  0.80

> <Gold.PLP.Chemscore.Internal.Correction>
0.0445

> <Gold.Rescore>
     Score         DG    S(hbond)    S(metal)    S(lipo)     H(rot)  DE(clash)    DE(int)     intcor
     14.63     -16.17       2.56        0.00      58.06       1.82       0.57       0.98       ----

> <Gold.Chemscore.Fitness>
14.6260

> <Gold.Chemscore.DG>
-16.1747

> <Gold.Chemscore.ZeroCoef>
-5.4800

> <Gold.Chemscore.Hbond>
2.5634

> <Gold.Chemscore.Metal>
0.0000

> <Gold.Chemscore.Lipo>
58.0639

> <Gold.Chemscore.Internal_Hbond>
0.0000

> <Gold.Chemscore.DEClash>
0.5714

> <Gold.Chemscore.DEInternal>
0.9773

> <Gold.Chemscore.Rot>
1.8206

> <Gold.Chemscore.Internal.Correction>
   9.000000E+99

> <Gold.Chemscore.Hbonds>
donor molecule, donor type, donor heavy atom, donor atom, acceptor molecule, acceptor atom, score
      L1  H     9    30       P1  8028  0.54
      L1  H    18    39       P1  7948  0.66
      P1  H  6934  6946       L1     8  0.34

> <Gold.Chemscore.Hbond.Weighted>
-8.5619

> <Gold.Chemscore.Metal.Weighted>
-0.0000

> <Gold.Chemscore.Lipo.Weighted>
-6.7935

> <Gold.Chemscore.Internal_Hbond.Weighted>
0.0000

> <Gold.Chemscore.DEClash.Weighted>
0.5714

> <Gold.Chemscore.DEInternal.Weighted>
0.9773

> <Gold.Chemscore.Rot.Weighted>
4.6607

> <Gold.Chemscore.Internal.Correction.Weighted>
   9.000000E+99

> <Gold.Protein.RotatedTorsions>
[ 6907 6896 6895 6894 ] final   24.75 input  -60.11 | X-H torsion
[ 7974 7965 7964 7962 ] final  -96.07 input  175.53 | X-H torsion
[ 8008 7997 7996 7995 ] final  144.76 input   59.86 | X-H torsion
[ 10167 10162 10161 10158 ] final   20.23 input  -65.29 | X-H torsion
[ 10718 10713 10712 10709 ] final  -53.10 input   66.30 | X-H torsion
[ 10763 10752 10751 10750 ] final  125.39 input  -60.55 | X-H torsion
[ 11005 11000 10999 10996 ] final   16.62 input  -57.11 | X-H torsion

> <Gold.Protein.ActiveResidues>
 VAL166  LYS551  ARG553  GLY616  TRP617  ASP618  TYR619  PRO620  LYS621  CYS622 
 ASP623  PHE694  ASN695  SER759  ASP760  ASP761  ALA762  ILE779  LEU786  VAL792 
 PHE793  MET794  SER795  GLU796  ALA797  LYS798  CYS799  TRP800  GLU811  SER814 

> <Gold.Protein.RotatedAtoms>
  151.9621  135.0118  160.0547 H   0  0  0  0  0  0  0  0  0  0  0  0  # atno 6907 bound_to 6896
  152.1859  133.4734  159.4990 H   0  0  0  0  0  0  0  0  0  0  0  0  # atno 6908 bound_to 6896
  150.6926  134.1692  159.4248 H   0  0  0  0  0  0  0  0  0  0  0  0  # atno 6909 bound_to 6896
  145.3517  140.9477  143.2550 H   0  0  0  0  0  0  0  0  0  0  0  0  # atno 7974 bound_to 7965
  156.2900  140.2227  156.5106 H   0  0  0  0  0  0  0  0  0  0  0  0  # atno 8008 bound_to 7997
  154.7612  140.0473  157.0996 H   0  0  0  0  0  0  0  0  0  0  0  0  # atno 8009 bound_to 7997
  154.9989  140.3099  155.4879 H   0  0  0  0  0  0  0  0  0  0  0  0  # atno 8010 bound_to 7997
  140.5519  143.9493  150.6584 H   0  0  0  0  0  0  0  0  0  0  0  0  # atno 10167 bound_to 10162
  156.1564  130.4150  149.9862 H   0  0  0  0  0  0  0  0  0  0  0  0  # atno 10718 bound_to 10713
  153.6766  135.3321  155.3167 H   0  0  0  0  0  0  0  0  0  0  0  0  # atno 10763 bound_to 10752
  154.8477  135.4399  154.1650 H   0  0  0  0  0  0  0  0  0  0  0  0  # atno 10764 bound_to 10752
  153.2655  135.6995  153.7611 H   0  0  0  0  0  0  0  0  0  0  0  0  # atno 10765 bound_to 10752
  140.4451  134.1282  155.7695 H   0  0  0  0  0  0  0  0  0  0  0  0  # atno 11005 bound_to 11000
  144.8712  139.5035  143.6766 LP  0  0  0  0  0  0  0  0  0  0  0  0  # atno 17320 bound_to 7965
  146.2965  139.7294  142.9123 LP  0  0  0  0  0  0  0  0  0  0  0  0  # atno 17321 bound_to 7965
  140.2921  143.3317  152.1052 LP  0  0  0  0  0  0  0  0  0  0  0  0  # atno 17342 bound_to 10162
  139.5031  144.6749  151.6154 LP  0  0  0  0  0  0  0  0  0  0  0  0  # atno 17343 bound_to 10162
  156.7705  130.9184  151.3644 LP  0  0  0  0  0  0  0  0  0  0  0  0  # atno 17370 bound_to 10713
  157.6698  130.9041  150.0015 LP  0  0  0  0  0  0  0  0  0  0  0  0  # atno 17371 bound_to 10713
  141.1689  133.8649  157.1632 LP  0  0  0  0  0  0  0  0  0  0  0  0  # atno 17394 bound_to 11000
  140.0044  135.0014  157.0260 LP  0  0  0  0  0  0  0  0  0  0  0  0  # atno 17395 bound_to 11000

$$$$
