AV-unprocessed.smi:1047|AV-procd|sdf|4590|dock10
  -GOLD-   22720 3 73D 1   1.00000     0.00000
 Structure written by MMmdl.
 57 59  0  0  0  0  0  0  0  0  3 V2000
  151.1423  129.5776  154.3789 C   0  0  0  0  0  0  0  0  0  0  0  0
  149.6566  129.8856  154.1438 C   0  0  0  0  0  0  0  0  0  0  0  0
  149.3797  131.2214  153.6178 N   0  0  0  0  0  0  0  0  0  0  0  0
  147.9523  131.4598  153.4177 C   0  0  0  0  0  0  0  0  0  0  0  0
  147.6777  132.8798  152.8942 C   0  0  0  0  0  0  0  0  0  0  0  0
  148.2417  133.8354  153.7866 O   0  0  0  0  0  0  0  0  0  0  0  0
  149.6469  133.6718  153.9627 C   0  0  1  0  0  0  0  0  0  0  0  0
  150.1364  134.7555  154.9328 C   0  0  0  0  0  0  0  0  0  0  0  0
  150.4049  136.0213  154.2225 N   0  3  0  0  0  0  0  0  0  0  0  0
  150.0070  137.2283  154.9739 C   0  0  0  0  0  0  0  0  0  0  0  0
  150.6119  138.5061  154.3599 C   0  0  1  0  0  0  0  0  0  0  0  0
  149.8968  138.8398  153.1872 O   0  0  0  0  0  0  0  0  0  0  0  0
  150.5518  139.7348  155.2906 C   0  0  0  0  0  0  0  0  0  0  0  0
  151.4980  139.6605  156.4130 N   0  0  0  0  0  0  0  0  0  0  0  0
  152.2914  138.6274  156.8075 C   0  0  0  0  0  0  0  0  0  0  0  0
  153.0044  139.0459  157.8894 N   0  3  0  0  0  0  0  0  0  0  0  0
  152.6652  140.3668  158.1889 C   0  0  0  0  0  0  0  0  0  0  0  0
  153.1192  141.2173  159.1899 C   0  0  0  0  0  0  0  0  0  0  0  0
  152.5727  142.5198  159.2271 C   0  0  0  0  0  0  0  0  0  0  0  0
  153.0500  143.4759  160.3074 C   0  0  0  0  0  0  0  0  0  0  0  0
  151.6002  142.9301  158.2789 C   0  0  0  0  0  0  0  0  0  0  0  0
  151.0169  144.3322  158.3292 C   0  0  0  0  0  0  0  0  0  0  0  0
  151.1512  142.0500  157.2684 C   0  0  0  0  0  0  0  0  0  0  0  0
  151.7010  140.7699  157.2440 C   0  0  0  0  0  0  0  0  0  0  0  0
  149.9125  132.2522  154.5017 C   0  0  0  0  0  0  0  0  0  0  0  0
  151.2587  128.6125  154.8724 H   0  0  0  0  0  0  0  0  0  0  0  0
  151.6053  130.3321  155.0156 H   0  0  0  0  0  0  0  0  0  0  0  0
  151.7021  129.5319  153.4453 H   0  0  0  0  0  0  0  0  0  0  0  0
  149.2289  129.1298  153.4832 H   0  0  0  0  0  0  0  0  0  0  0  0
  149.1450  129.7711  155.1003 H   0  0  0  0  0  0  0  0  0  0  0  0
  147.5438  130.7417  152.7071 H   0  0  0  0  0  0  0  0  0  0  0  0
  147.4164  131.3113  154.3566 H   0  0  0  0  0  0  0  0  0  0  0  0
  148.0984  133.0116  151.8959 H   0  0  0  0  0  0  0  0  0  0  0  0
  146.6045  133.0543  152.8154 H   0  0  0  0  0  0  0  0  0  0  0  0
  150.1503  133.7934  153.0015 H   0  0  0  0  0  0  0  0  0  0  0  0
  149.3957  134.9215  155.7164 H   0  0  0  0  0  0  0  0  0  0  0  0
  151.0548  134.4276  155.4212 H   0  0  0  0  0  0  0  0  0  0  0  0
  151.3927  136.0748  154.0182 H   0  0  0  0  0  0  0  0  0  0  0  0
  148.9187  137.3013  155.0072 H   0  0  0  0  0  0  0  0  0  0  0  0
  150.3512  137.1055  156.0007 H   0  0  0  0  0  0  0  0  0  0  0  0
  151.6514  138.3234  154.0837 H   0  0  0  0  0  0  0  0  0  0  0  0
  149.5856  138.0468  152.7784 H   0  0  0  0  0  0  0  0  0  0  0  0
  150.8032  140.6358  154.7287 H   0  0  0  0  0  0  0  0  0  0  0  0
  149.5440  139.8926  155.6751 H   0  0  0  0  0  0  0  0  0  0  0  0
  152.3497  137.6536  156.3425 H   0  0  0  0  0  0  0  0  0  0  0  0
  153.8596  140.8975  159.9086 H   0  0  0  0  0  0  0  0  0  0  0  0
  153.4819  144.3730  159.8630 H   0  0  0  0  0  0  0  0  0  0  0  0
  153.8131  143.0173  160.9373 H   0  0  0  0  0  0  0  0  0  0  0  0
  152.2207  143.7721  160.9506 H   0  0  0  0  0  0  0  0  0  0  0  0
  150.2675  144.4812  157.5514 H   0  0  0  0  0  0  0  0  0  0  0  0
  151.7994  145.0775  158.1846 H   0  0  0  0  0  0  0  0  0  0  0  0
  150.5377  144.5144  159.2914 H   0  0  0  0  0  0  0  0  0  0  0  0
  150.4105  142.3670  156.5495 H   0  0  0  0  0  0  0  0  0  0  0  0
  149.4701  132.1512  155.4941 H   0  0  0  0  0  0  0  0  0  0  0  0
  150.9869  132.1093  154.6249 H   0  0  0  0  0  0  0  0  0  0  0  0
  149.8949  136.0057  153.3504 H   0  0  0  0  0  0  0  0  0  0  0  0
  153.6784  138.4724  158.3809 H   0  0  0  0  0  0  0  0  0  0  0  0
  1  2  1  0  0  0  0
  1 26  1  0  0  0  0
  1 27  1  0  0  0  0
  1 28  1  0  0  0  0
  2  3  1  0  0  0  0
  2 29  1  0  0  0  0
  2 30  1  0  0  0  0
  3 25  1  0  0  0  0
  3  4  1  0  0  0  0
  4  5  1  0  0  0  0
  4 31  1  0  0  0  0
  4 32  1  0  0  0  0
  5  6  1  0  0  0  0
  5 33  1  0  0  0  0
  5 34  1  0  0  0  0
  6  7  1  0  0  0  0
  7  8  1  0  0  0  0
  7 25  1  0  0  0  0
  7 35  1  0  0  0  0
  8  9  1  0  0  0  0
  8 36  1  0  0  0  0
  8 37  1  0  0  0  0
  9 10  1  0  0  0  0
  9 38  1  0  0  0  0
  9 56  1  0  0  0  0
 10 11  1  0  0  0  0
 10 39  1  0  0  0  0
 10 40  1  0  0  0  0
 11 12  1  0  0  0  0
 11 13  1  0  0  0  0
 11 41  1  0  0  0  0
 12 42  1  0  0  0  0
 13 14  1  0  0  0  0
 13 43  1  0  0  0  0
 13 44  1  0  0  0  0
 14 24  1  0  0  0  0
 14 15  1  0  0  0  0
 15 16  2  0  0  0  0
 15 45  1  0  0  0  0
 16 17  1  0  0  0  0
 16 57  1  0  0  0  0
 17 24  2  0  0  0  0
 17 18  1  0  0  0  0
 18 19  2  0  0  0  0
 18 46  1  0  0  0  0
 19 20  1  0  0  0  0
 19 21  1  0  0  0  0
 20 47  1  0  0  0  0
 20 48  1  0  0  0  0
 20 49  1  0  0  0  0
 21 22  1  0  0  0  0
 21 23  2  0  0  0  0
 22 50  1  0  0  0  0
 22 51  1  0  0  0  0
 22 52  1  0  0  0  0
 23 24  1  0  0  0  0
 23 53  1  0  0  0  0
 25 54  1  0  0  0  0
 25 55  1  0  0  0  0
M  CHG  1   9   1
M  CHG  1  16   1
M  END
> <s_m_source_file>
AV-unprocessed.smi

> <i_m_source_file_index>
1047

> <i_lp_mmshare_version>
43012

> <i_f3d_flags>
0

> <s_epik_input>
W0NIM11bQ0gyXU4xW0NIMl1bQ0gyXU9bQ0BIXShbQ0gyXTEpW0NIMl1bTkhdW0NIMl1bQ0BIXShbT0hdKVtDSDJdbihbY0hdbjIpYyhjMjMpW2NIXWMoW0NIM10pYyhbY0hdMylbQ0gzXQ==

> <s_epik_cmdline>
J2VwaWtfcHl0aG9uJywgJy1waCcsICc3LjAnLCAnLXRuJywgJzgnLCAnLW1hJywgJzIwMCcsICctbWV0YWxfYmluZGluZycsICctaW1hZScsICc8aW5maWxlLm1hZT4nLCAnLW9tYWUnLCAnPG91dGZpbGUubWFlPic=

> <r_epik_Ionization_Penalty>
1.75732

> <r_epik_Ionization_Penalty_Charging>
1.18089

> <r_epik_Ionization_Penalty_Neutral>
0.576429

> <r_epik_State_Penalty>
1.69377

> <r_epik_Charging_Adjusted_Penalty>
2.87466

> <i_epik_Tot_Q>
2

> <i_epik_Tot_abs_Q>
2

> <r_epik_Metal_State_Penalty>
5.70174

> <b_epik_Metal_Only>
0

> <s_lp_Force_Field>
OPLS_2005

> <r_lp_Energy>
42.3107

> <b_lp_Chiralities_Consistent>
1

> <s_lp_Variant>
AV-unprocessed.smi:1047-31

> <Gold.Version>
5.8.1

> <Gold.Id.Protein>
6NUR|6NUR_protein|mol2

> <Gold.PLP.Fitness>
54.0701

> <Gold.PLP.PLP>
-47.8775

> <Gold.PLP.part.hbond>
-3.7353

> <Gold.PLP.part.metal>
0.0000

> <Gold.PLP.part.buried>
-5.0776

> <Gold.PLP.part.nonpolar>
-40.5012

> <Gold.PLP.part.repulsive>
0.3767

> <Gold.PLP.ligand.clash>
0.0000

> <Gold.PLP.ligand.torsion>
0.8390

> <Gold.PLP.Chemscore.Hbond>
2.6000

> <Gold.PLP.Chemscore.CHOScore>
0.0000

> <Gold.PLP.Chemscore.Metal>
0.0000

> <Gold.Chemscore.Hbonds>
donor molecule, donor type, donor heavy atom, donor atom, acceptor molecule, acceptor atom, score
      L1  H     9    56       P1  7948  1.10
      L1  H    12    42       P1  7948  0.86

> <Gold.PLP.Chemscore.Internal.Correction>
0.0706

> <Gold.Rescore>
     Score         DG    S(hbond)    S(metal)    S(lipo)     H(rot)  DE(clash)    DE(int)     intcor
     17.86     -18.74       1.81        0.00     120.45       2.69       0.02       0.85       ----

> <Gold.Chemscore.Fitness>
17.8629

> <Gold.Chemscore.DG>
-18.7425

> <Gold.Chemscore.ZeroCoef>
-5.4800

> <Gold.Chemscore.Hbond>
1.8146

> <Gold.Chemscore.Metal>
0.0000

> <Gold.Chemscore.Lipo>
120.4486

> <Gold.Chemscore.Internal_Hbond>
0.0000

> <Gold.Chemscore.DEClash>
0.0248

> <Gold.Chemscore.DEInternal>
0.8548

> <Gold.Chemscore.Rot>
2.6917

> <Gold.Chemscore.Internal.Correction>
   9.000000E+99

> <Gold.Chemscore.Hbonds>
donor molecule, donor type, donor heavy atom, donor atom, acceptor molecule, acceptor atom, score
      L1  H     9    56       P1  7948  0.03
      L1  H    12    42       P1  7948  0.59

> <Gold.Chemscore.Hbond.Weighted>
-6.0607

> <Gold.Chemscore.Metal.Weighted>
-0.0000

> <Gold.Chemscore.Lipo.Weighted>
-14.0925

> <Gold.Chemscore.Internal_Hbond.Weighted>
0.0000

> <Gold.Chemscore.DEClash.Weighted>
0.0248

> <Gold.Chemscore.DEInternal.Weighted>
0.8548

> <Gold.Chemscore.Rot.Weighted>
6.8907

> <Gold.Chemscore.Internal.Correction.Weighted>
   9.000000E+99

> <Gold.Protein.RotatedTorsions>
[ 6907 6896 6895 6894 ] final -153.77 input  -60.11 | X-H torsion
[ 7974 7965 7964 7962 ] final   97.50 input  175.53 | X-H torsion
[ 8008 7997 7996 7995 ] final  130.54 input   59.86 | X-H torsion
[ 10167 10162 10161 10158 ] final   86.06 input  -65.29 | X-H torsion
[ 10718 10713 10712 10709 ] final  154.80 input   66.30 | X-H torsion
[ 10763 10752 10751 10750 ] final -135.67 input  -60.55 | X-H torsion
[ 11005 11000 10999 10996 ] final   90.44 input  -57.11 | X-H torsion

> <Gold.Protein.ActiveResidues>
 VAL166  LYS551  ARG553  GLY616  TRP617  ASP618  TYR619  PRO620  LYS621  CYS622 
 ASP623  PHE694  ASN695  SER759  ASP760  ASP761  ALA762  ILE779  LEU786  VAL792 
 PHE793  MET794  SER795  GLU796  ALA797  LYS798  CYS799  TRP800  GLU811  SER814 

> <Gold.Protein.RotatedAtoms>
  151.2475  133.4367  159.2609 H   0  0  0  0  0  0  0  0  0  0  0  0  # atno 6907 bound_to 6896
  151.0648  134.9760  159.8289 H   0  0  0  0  0  0  0  0  0  0  0  0  # atno 6908 bound_to 6896
  152.5403  134.2424  159.8920 H   0  0  0  0  0  0  0  0  0  0  0  0  # atno 6909 bound_to 6896
  145.4247  139.2317  143.3177 H   0  0  0  0  0  0  0  0  0  0  0  0  # atno 7974 bound_to 7965
  156.2956  140.2593  156.2779 H   0  0  0  0  0  0  0  0  0  0  0  0  # atno 8008 bound_to 7997
  154.9631  140.0392  157.2218 H   0  0  0  0  0  0  0  0  0  0  0  0  # atno 8009 bound_to 7997
  154.7928  140.2815  155.5983 H   0  0  0  0  0  0  0  0  0  0  0  0  # atno 8010 bound_to 7997
  139.8913  144.6383  150.8735 H   0  0  0  0  0  0  0  0  0  0  0  0  # atno 10167 bound_to 10162
  157.2268  131.0730  151.1878 H   0  0  0  0  0  0  0  0  0  0  0  0  # atno 10718 bound_to 10713
  154.8698  135.3696  154.4936 H   0  0  0  0  0  0  0  0  0  0  0  0  # atno 10763 bound_to 10752
  153.5581  135.7023  153.5565 H   0  0  0  0  0  0  0  0  0  0  0  0  # atno 10764 bound_to 10752
  153.3653  135.4035  155.1712 H   0  0  0  0  0  0  0  0  0  0  0  0  # atno 10765 bound_to 10752
  139.8856  134.8613  156.3285 H   0  0  0  0  0  0  0  0  0  0  0  0  # atno 11005 bound_to 11000
  146.2638  140.4976  142.8842 LP  0  0  0  0  0  0  0  0  0  0  0  0  # atno 17320 bound_to 7965
  144.8222  140.6569  143.6345 LP  0  0  0  0  0  0  0  0  0  0  0  0  # atno 17321 bound_to 7965
  140.7726  143.3508  151.2019 LP  0  0  0  0  0  0  0  0  0  0  0  0  # atno 17342 bound_to 10162
  139.7107  143.9382  152.2946 LP  0  0  0  0  0  0  0  0  0  0  0  0  # atno 17343 bound_to 10162
  157.3520  130.7087  149.6446 LP  0  0  0  0  0  0  0  0  0  0  0  0  # atno 17370 bound_to 10713
  155.9678  130.4250  150.4633 LP  0  0  0  0  0  0  0  0  0  0  0  0  # atno 17371 bound_to 10713
  140.9739  133.7310  156.0574 LP  0  0  0  0  0  0  0  0  0  0  0  0  # atno 17394 bound_to 11000
  140.7836  134.3698  157.5481 LP  0  0  0  0  0  0  0  0  0  0  0  0  # atno 17395 bound_to 11000

$$$$
