AV-unprocessed.smi:1952|AV-procd|sdf|7888|dock1
  -GOLD-   2272010 43D 1   1.00000     0.00000
 Structure written by MMmdl.
 38 39  0  0  0  0  0  0  0  0  2 V2000
  144.0111  143.8316  162.4825 C   0  0  0  0  0  0  0  0  0  0  0  0
  144.8440  143.3812  161.3312 C   0  0  0  0  0  0  0  0  0  0  0  0
  145.5040  144.0561  160.3439 C   0  0  0  0  0  0  0  0  0  0  0  0
  146.1031  143.0150  159.5832 C   0  0  0  0  0  0  0  0  0  0  0  0
  146.8571  143.1746  158.4848 N   0  5  0  0  0  0  0  0  0  0  0  0
  147.6265  142.1570  158.0331 C   0  0  0  0  0  0  0  0  0  0  0  0
  147.5566  140.9769  158.3846 O   0  0  0  0  0  0  0  0  0  0  0  0
  148.5327  142.5314  157.1180 N   0  0  0  0  0  0  0  0  0  0  0  0
  149.5126  141.6641  156.4655 C   0  0  1  0  0  0  0  0  0  0  0  0
  149.1820  141.5320  154.9710 C   0  0  0  0  0  0  0  0  0  0  0  0
  150.9347  142.2233  156.6772 C   0  0  0  0  0  0  0  0  0  0  0  0
  151.2230  142.7372  158.0178 N   0  0  0  0  0  0  0  0  0  0  0  0
  152.1697  141.9033  158.7547 C   0  0  0  0  0  0  0  0  0  0  0  0
  152.4707  142.4755  160.1510 C   0  0  0  0  0  0  0  0  0  0  0  0
  152.9532  143.8097  160.0293 O   0  0  0  0  0  0  0  0  0  0  0  0
  152.0334  144.6647  159.3585 C   0  0  0  0  0  0  0  0  0  0  0  0
  151.7350  144.1015  157.9584 C   0  0  0  0  0  0  0  0  0  0  0  0
  145.8168  141.8138  160.0567 N   0  0  0  0  0  0  0  0  0  0  0  0
  145.0157  142.0399  161.1822 O   0  0  0  0  0  0  0  0  0  0  0  0
  143.1762  144.4417  162.1385 H   0  0  0  0  0  0  0  0  0  0  0  0
  144.6037  144.4283  163.1760 H   0  0  0  0  0  0  0  0  0  0  0  0
  143.6045  142.9814  163.0309 H   0  0  0  0  0  0  0  0  0  0  0  0
  145.5553  145.1237  160.1914 H   0  0  0  0  0  0  0  0  0  0  0  0
  148.5552  143.5085  156.8655 H   0  0  0  0  0  0  0  0  0  0  0  0
  149.4645  140.6651  156.9000 H   0  0  0  0  0  0  0  0  0  0  0  0
  149.8973  140.8813  154.4678 H   0  0  0  0  0  0  0  0  0  0  0  0
  149.2047  142.5014  154.4721 H   0  0  0  0  0  0  0  0  0  0  0  0
  148.1896  141.1046  154.8237 H   0  0  0  0  0  0  0  0  0  0  0  0
  151.6645  141.4545  156.4187 H   0  0  0  0  0  0  0  0  0  0  0  0
  151.0855  143.0286  155.9566 H   0  0  0  0  0  0  0  0  0  0  0  0
  151.7737  140.8954  158.8741 H   0  0  0  0  0  0  0  0  0  0  0  0
  153.0996  141.8120  158.1917 H   0  0  0  0  0  0  0  0  0  0  0  0
  151.5748  142.4614  160.7736 H   0  0  0  0  0  0  0  0  0  0  0  0
  153.2215  141.8683  160.6563 H   0  0  0  0  0  0  0  0  0  0  0  0
  151.1160  144.7550  159.9424 H   0  0  0  0  0  0  0  0  0  0  0  0
  152.4646  145.6628  159.2824 H   0  0  0  0  0  0  0  0  0  0  0  0
  152.6454  144.1288  157.3575 H   0  0  0  0  0  0  0  0  0  0  0  0
  151.0121  144.7469  157.4584 H   0  0  0  0  0  0  0  0  0  0  0  0
  1  2  1  0  0  0  0
  1 20  1  0  0  0  0
  1 21  1  0  0  0  0
  1 22  1  0  0  0  0
  2 19  1  0  0  0  0
  2  3  2  0  0  0  0
  3  4  1  0  0  0  0
  3 23  1  0  0  0  0
  4  5  1  0  0  0  0
  4 18  2  0  0  0  0
  5  6  1  0  0  0  0
  6  7  2  0  0  0  0
  6  8  1  0  0  0  0
  8  9  1  0  0  0  0
  8 24  1  0  0  0  0
  9 10  1  0  0  0  0
  9 11  1  0  0  0  0
  9 25  1  0  0  0  0
 10 26  1  0  0  0  0
 10 27  1  0  0  0  0
 10 28  1  0  0  0  0
 11 12  1  0  0  0  0
 11 29  1  0  0  0  0
 11 30  1  0  0  0  0
 12 17  1  0  0  0  0
 12 13  1  0  0  0  0
 13 14  1  0  0  0  0
 13 31  1  0  0  0  0
 13 32  1  0  0  0  0
 14 15  1  0  0  0  0
 14 33  1  0  0  0  0
 14 34  1  0  0  0  0
 15 16  1  0  0  0  0
 16 17  1  0  0  0  0
 16 35  1  0  0  0  0
 16 36  1  0  0  0  0
 17 37  1  0  0  0  0
 17 38  1  0  0  0  0
 18 19  1  0  0  0  0
M  CHG  1   5  -1
M  END
> <s_m_source_file>
AV-unprocessed.smi

> <i_m_source_file_index>
1952

> <i_lp_mmshare_version>
43012

> <i_f3d_flags>
0

> <s_epik_input>
W0NIM11jMVtjSF1jKG5vMSlbTkhdQyg9TylbTkhdW0NASF0oW0NIM10pW0NIMl1OMltDSDJdW0NIMl1PW0NIMl1bQ0gyXTI=

> <s_epik_cmdline>
J2VwaWtfcHl0aG9uJywgJy1waCcsICc3LjAnLCAnLXRuJywgJzgnLCAnLW1hJywgJzIwMCcsICctbWV0YWxfYmluZGluZycsICctaW1hZScsICc8aW5maWxlLm1hZT4nLCAnLW9tYWUnLCAnPG91dGZpbGUubWFlPic=

> <r_epik_Ionization_Penalty>
6.81701

> <r_epik_Ionization_Penalty_Charging>
6.50532

> <r_epik_Ionization_Penalty_Neutral>
0.311686

> <r_epik_State_Penalty>
6.70952

> <r_epik_Charging_Adjusted_Penalty>
13.2148

> <i_epik_Tot_Q>
-1

> <i_epik_Tot_abs_Q>
1

> <r_epik_Metal_State_Penalty>
2.64135

> <b_epik_Metal_Only>
1

> <s_lp_Force_Field>
OPLS_2005

> <r_lp_Energy>
19.0911

> <b_lp_Chiralities_Consistent>
1

> <s_lp_Variant>
AV-unprocessed.smi:1952-6

> <Gold.Version>
5.8.1

> <Gold.Id.Protein>
6NUR|6NUR_protein|mol2

> <Gold.PLP.Fitness>
41.4445

> <Gold.PLP.PLP>
-37.6824

> <Gold.PLP.part.hbond>
-3.8158

> <Gold.PLP.part.metal>
0.0000

> <Gold.PLP.part.buried>
-5.4404

> <Gold.PLP.part.nonpolar>
-29.5437

> <Gold.PLP.part.repulsive>
0.2535

> <Gold.PLP.ligand.clash>
0.0000

> <Gold.PLP.ligand.torsion>
1.0000

> <Gold.PLP.Chemscore.Hbond>
1.8940

> <Gold.PLP.Chemscore.CHOScore>
0.0000

> <Gold.PLP.Chemscore.Metal>
0.0000

> <Gold.Chemscore.Hbonds>
donor molecule, donor type, donor heavy atom, donor atom, acceptor molecule, acceptor atom, score
      L1  H     8    24       P1  8028  0.99
      P1  H  6934  6946       L1    18  0.95

> <Gold.PLP.Chemscore.Internal.Correction>
0.0800

> <Gold.Rescore>
     Score         DG    S(hbond)    S(metal)    S(lipo)     H(rot)  DE(clash)    DE(int)     intcor
     12.17     -15.27       1.14        0.00      84.74       1.53       0.24       2.86       ----

> <Gold.Chemscore.Fitness>
12.1717

> <Gold.Chemscore.DG>
-15.2737

> <Gold.Chemscore.ZeroCoef>
-5.4800

> <Gold.Chemscore.Hbond>
1.1377

> <Gold.Chemscore.Metal>
0.0000

> <Gold.Chemscore.Lipo>
84.7424

> <Gold.Chemscore.Internal_Hbond>
0.0000

> <Gold.Chemscore.DEClash>
0.2417

> <Gold.Chemscore.DEInternal>
2.8603

> <Gold.Chemscore.Rot>
1.5317

> <Gold.Chemscore.Internal.Correction>
   9.000000E+99

> <Gold.Chemscore.Hbonds>
donor molecule, donor type, donor heavy atom, donor atom, acceptor molecule, acceptor atom, score
      L1  H     8    24       P1  8028  0.24
      P1  H  6934  6946       L1    18  0.21

> <Gold.Chemscore.Hbond.Weighted>
-3.7999

> <Gold.Chemscore.Metal.Weighted>
-0.0000

> <Gold.Chemscore.Lipo.Weighted>
-9.9149

> <Gold.Chemscore.Internal_Hbond.Weighted>
0.0000

> <Gold.Chemscore.DEClash.Weighted>
0.2417

> <Gold.Chemscore.DEInternal.Weighted>
2.8603

> <Gold.Chemscore.Rot.Weighted>
3.9211

> <Gold.Chemscore.Internal.Correction.Weighted>
   9.000000E+99

> <Gold.Protein.RotatedTorsions>
[ 6907 6896 6895 6894 ] final -117.55 input  -60.11 | X-H torsion
[ 7974 7965 7964 7962 ] final  -34.36 input  175.53 | X-H torsion
[ 8008 7997 7996 7995 ] final -121.33 input   59.86 | X-H torsion
[ 10167 10162 10161 10158 ] final  132.39 input  -65.29 | X-H torsion
[ 10718 10713 10712 10709 ] final  -15.41 input   66.30 | X-H torsion
[ 10763 10752 10751 10750 ] final -165.88 input  -60.55 | X-H torsion
[ 11005 11000 10999 10996 ] final   51.28 input  -57.11 | X-H torsion

> <Gold.Protein.ActiveResidues>
 VAL166  LYS551  ARG553  GLY616  TRP617  ASP618  TYR619  PRO620  LYS621  CYS622 
 ASP623  PHE694  ASN695  SER759  ASP760  ASP761  ALA762  ILE779  LEU786  VAL792 
 PHE793  MET794  SER795  GLU796  ALA797  LYS798  CYS799  TRP800  GLU811  SER814 

> <Gold.Protein.RotatedAtoms>
  150.8146  133.8360  159.3166 H   0  0  0  0  0  0  0  0  0  0  0  0  # atno 6907 bound_to 6896
  151.6136  135.1036  160.0096 H   0  0  0  0  0  0  0  0  0  0  0  0  # atno 6908 bound_to 6896
  152.4238  133.7119  159.6540 H   0  0  0  0  0  0  0  0  0  0  0  0  # atno 6909 bound_to 6896
  146.0835  140.6029  142.8897 H   0  0  0  0  0  0  0  0  0  0  0  0  # atno 7974 bound_to 7965
  155.1462  140.0403  157.2810 H   0  0  0  0  0  0  0  0  0  0  0  0  # atno 8008 bound_to 7997
  154.6437  140.2553  155.7266 H   0  0  0  0  0  0  0  0  0  0  0  0  # atno 8009 bound_to 7997
  156.2544  140.2850  156.0841 H   0  0  0  0  0  0  0  0  0  0  0  0  # atno 8010 bound_to 7997
  139.5342  144.6664  151.4845 H   0  0  0  0  0  0  0  0  0  0  0  0  # atno 10167 bound_to 10162
  156.6022  130.4827  149.6235 H   0  0  0  0  0  0  0  0  0  0  0  0  # atno 10718 bound_to 10713
  154.6888  135.2967  154.9509 H   0  0  0  0  0  0  0  0  0  0  0  0  # atno 10763 bound_to 10752
  154.0479  135.6648  153.4801 H   0  0  0  0  0  0  0  0  0  0  0  0  # atno 10764 bound_to 10752
  153.0597  135.5123  154.7969 H   0  0  0  0  0  0  0  0  0  0  0  0  # atno 10765 bound_to 10752
  140.0946  134.5163  155.8819 H   0  0  0  0  0  0  0  0  0  0  0  0  # atno 11005 bound_to 11000
  144.7310  140.4670  143.6938 LP  0  0  0  0  0  0  0  0  0  0  0  0  # atno 17320 bound_to 7965
  145.6173  139.1520  143.3042 LP  0  0  0  0  0  0  0  0  0  0  0  0  # atno 17321 bound_to 7965
  140.6538  143.8641  150.6814 LP  0  0  0  0  0  0  0  0  0  0  0  0  # atno 17342 bound_to 10162
  140.2014  143.3956  152.1788 LP  0  0  0  0  0  0  0  0  0  0  0  0  # atno 17343 bound_to 10162
  156.2459  130.6879  151.1600 LP  0  0  0  0  0  0  0  0  0  0  0  0  # atno 17370 bound_to 10713
  157.7276  131.0637  150.5856 LP  0  0  0  0  0  0  0  0  0  0  0  0  # atno 17371 bound_to 10713
  141.2088  133.6677  156.6397 LP  0  0  0  0  0  0  0  0  0  0  0  0  # atno 17394 bound_to 11000
  140.3304  134.7933  157.4322 LP  0  0  0  0  0  0  0  0  0  0  0  0  # atno 17395 bound_to 11000

$$$$
