AV-unprocessed.smi:730|AV-procd|sdf|3523|dock3
  -GOLD-   22720 0513D 1   1.00000     0.00000
 Structure written by MMmdl.
 40 41  0  0  0  0  0  0  0  0  1 V2000
  148.9248  123.0452  150.5763 C   0  0  0  0  0  0  0  0  0  0  0  0
  149.0427  124.2531  149.6252 C   0  0  0  0  0  0  0  0  0  0  0  0
  150.5353  124.4974  149.3335 C   0  0  0  0  0  0  0  0  0  0  0  0
  148.3189  123.9080  148.3105 C   0  0  0  0  0  0  0  0  0  0  0  0
  148.4323  125.4806  150.2419 C   0  0  0  0  0  0  0  0  0  0  0  0
  148.2976  126.7770  149.8240 C   0  0  0  0  0  0  0  0  0  0  0  0
  147.6153  127.3979  150.9032 C   0  0  0  0  0  0  0  0  0  0  0  0
  147.2764  128.7738  150.8535 N   0  0  0  0  0  0  0  0  0  0  0  0
  146.1149  129.3448  151.2146 C   0  0  0  0  0  0  0  0  0  0  0  0
  145.1361  128.7450  151.6599 O   0  0  0  0  0  0  0  0  0  0  0  0
  146.1427  130.6705  151.0164 N   0  0  0  0  0  0  0  0  0  0  0  0
  145.0327  131.5855  151.2877 C   0  0  1  0  0  0  0  0  0  0  0  0
  145.3927  132.5228  152.4546 C   0  0  0  0  0  0  0  0  0  0  0  0
  145.6390  133.8942  151.8284 C   0  0  0  0  0  0  0  0  0  0  0  0
  144.6737  133.9392  150.6478 C   0  0  0  0  0  0  0  0  0  0  0  0
  144.6672  132.5094  150.0918 C   0  0  1  0  0  0  0  0  0  0  0  0
  145.5916  132.4335  149.0202 O   0  0  0  0  0  0  0  0  0  0  0  0
  147.3577  126.5621  151.8962 N   0  0  0  0  0  0  0  0  0  0  0  0
  147.8791  125.3326  151.4789 O   0  0  0  0  0  0  0  0  0  0  0  0
  149.3630  122.1482  150.1371 H   0  0  0  0  0  0  0  0  0  0  0  0
  147.8828  122.8192  150.8068 H   0  0  0  0  0  0  0  0  0  0  0  0
  149.4387  123.2302  151.5204 H   0  0  0  0  0  0  0  0  0  0  0  0
  151.0818  124.7403  150.2456 H   0  0  0  0  0  0  0  0  0  0  0  0
  150.6768  125.3248  148.6370 H   0  0  0  0  0  0  0  0  0  0  0  0
  151.0052  123.6173  148.8931 H   0  0  0  0  0  0  0  0  0  0  0  0
  148.7391  123.0145  147.8471 H   0  0  0  0  0  0  0  0  0  0  0  0
  148.3979  124.7189  147.5856 H   0  0  0  0  0  0  0  0  0  0  0  0
  147.2577  123.7224  148.4801 H   0  0  0  0  0  0  0  0  0  0  0  0
  148.6310  127.2102  148.8927 H   0  0  0  0  0  0  0  0  0  0  0  0
  147.9916  129.3883  150.4939 H   0  0  0  0  0  0  0  0  0  0  0  0
  146.9849  131.0796  150.6391 H   0  0  0  0  0  0  0  0  0  0  0  0
  144.1571  131.0031  151.5813 H   0  0  0  0  0  0  0  0  0  0  0  0
  144.5434  132.5903  153.1359 H   0  0  0  0  0  0  0  0  0  0  0  0
  146.2458  132.1791  153.0415 H   0  0  0  0  0  0  0  0  0  0  0  0
  145.4824  134.7122  152.5321 H   0  0  0  0  0  0  0  0  0  0  0  0
  146.6663  133.9557  151.4666 H   0  0  0  0  0  0  0  0  0  0  0  0
  143.6767  134.1882  151.0137 H   0  0  0  0  0  0  0  0  0  0  0  0
  144.9445  134.6934  149.9073 H   0  0  0  0  0  0  0  0  0  0  0  0
  143.6830  132.2580  149.6948 H   0  0  0  0  0  0  0  0  0  0  0  0
  145.7716  133.3117  148.7205 H   0  0  0  0  0  0  0  0  0  0  0  0
  1  2  1  0  0  0  0
  1 20  1  0  0  0  0
  1 21  1  0  0  0  0
  1 22  1  0  0  0  0
  2  3  1  0  0  0  0
  2  4  1  0  0  0  0
  2  5  1  0  0  0  0
  3 23  1  0  0  0  0
  3 24  1  0  0  0  0
  3 25  1  0  0  0  0
  4 26  1  0  0  0  0
  4 27  1  0  0  0  0
  4 28  1  0  0  0  0
  5 19  1  0  0  0  0
  5  6  2  0  0  0  0
  6  7  1  0  0  0  0
  6 29  1  0  0  0  0
  7  8  1  0  0  0  0
  7 18  2  0  0  0  0
  8  9  1  0  0  0  0
  8 30  1  0  0  0  0
  9 10  2  0  0  0  0
  9 11  1  0  0  0  0
 11 12  1  0  0  0  0
 11 31  1  0  0  0  0
 12 16  1  0  0  0  0
 12 13  1  0  0  0  0
 12 32  1  0  0  0  0
 13 14  1  0  0  0  0
 13 33  1  0  0  0  0
 13 34  1  0  0  0  0
 14 15  1  0  0  0  0
 14 35  1  0  0  0  0
 14 36  1  0  0  0  0
 15 16  1  0  0  0  0
 15 37  1  0  0  0  0
 15 38  1  0  0  0  0
 16 17  1  0  0  0  0
 16 39  1  0  0  0  0
 17 40  1  0  0  0  0
 18 19  1  0  0  0  0
M  END
> <s_m_source_file>
AV-unprocessed.smi

> <i_m_source_file_index>
730

> <i_lp_mmshare_version>
43012

> <i_f3d_flags>
0

> <s_epik_input>
W0NIM11DKFtDSDNdKShbQ0gzXSljMVtjSF1jKG5vMSlbTkhdQyg9TylbTkhdW0NAQEhdMltDSDJdW0NIMl1bQ0gyXVtDQEhdMltPSF0=

> <s_epik_cmdline>
J2VwaWtfcHl0aG9uJywgJy1waCcsICc3LjAnLCAnLXRuJywgJzgnLCAnLW1hJywgJzIwMCcsICctbWV0YWxfYmluZGluZycsICctaW1hZScsICc8aW5maWxlLm1hZT4nLCAnLW9tYWUnLCAnPG91dGZpbGUubWFlPic=

> <r_lp_tautomer_probability>
1

> <r_epik_Ionization_Penalty>
2.23071e-05

> <r_epik_Ionization_Penalty_Charging>
0

> <r_epik_Ionization_Penalty_Neutral>
2.23071e-05

> <r_epik_State_Penalty>
-0

> <r_epik_Charging_Adjusted_Penalty>
0

> <i_epik_Tot_Q>
0

> <i_epik_Tot_abs_Q>
0

> <r_epik_Metal_State_Penalty>
-0

> <b_epik_Metal_Only>
0

> <s_lp_Force_Field>
OPLS_2005

> <r_lp_Energy>
21.0344

> <b_lp_Chiralities_Consistent>
1

> <s_lp_Variant>
AV-unprocessed.smi:730-2

> <Gold.Version>
5.8.1

> <Gold.Id.Protein>
6NUR|6NUR_protein|mol2

> <Gold.PLP.Fitness>
42.3878

> <Gold.PLP.PLP>
-35.9977

> <Gold.PLP.part.hbond>
-3.4859

> <Gold.PLP.part.metal>
0.0000

> <Gold.PLP.part.buried>
-7.2442

> <Gold.PLP.part.nonpolar>
-24.5273

> <Gold.PLP.part.repulsive>
0.3628

> <Gold.PLP.ligand.clash>
0.0000

> <Gold.PLP.ligand.torsion>
0.4171

> <Gold.PLP.Chemscore.Hbond>
2.4073

> <Gold.PLP.Chemscore.CHOScore>
0.0000

> <Gold.PLP.Chemscore.Metal>
0.0000

> <Gold.Chemscore.Hbonds>
donor molecule, donor type, donor heavy atom, donor atom, acceptor molecule, acceptor atom, score
      L1  H     8    30       P1 10747  1.00
      L1  H    11    31       P1 10747  0.92
      L1  H    17    40       P1  7921  0.50

> <Gold.PLP.Chemscore.Internal.Correction>
0.0024

> <Gold.Rescore>
     Score         DG    S(hbond)    S(metal)    S(lipo)     H(rot)  DE(clash)    DE(int)     intcor
     13.14     -13.73       1.36        0.00      69.22       1.71       0.08       0.51       ----

> <Gold.Chemscore.Fitness>
13.1427

> <Gold.Chemscore.DG>
-13.7333

> <Gold.Chemscore.ZeroCoef>
-5.4800

> <Gold.Chemscore.Hbond>
1.3589

> <Gold.Chemscore.Metal>
0.0000

> <Gold.Chemscore.Lipo>
69.2194

> <Gold.Chemscore.Internal_Hbond>
0.0000

> <Gold.Chemscore.DEClash>
0.0787

> <Gold.Chemscore.DEInternal>
0.5119

> <Gold.Chemscore.Rot>
1.7125

> <Gold.Chemscore.Internal.Correction>
   9.000000E+99

> <Gold.Chemscore.Hbonds>
donor molecule, donor type, donor heavy atom, donor atom, acceptor molecule, acceptor atom, score
      L1  H     8    30       P1 10747  0.50
      L1  H    11    31       P1 10747  0.85
      L1  H    17    40       P1  7921  0.02

> <Gold.Chemscore.Hbond.Weighted>
-4.5387

> <Gold.Chemscore.Metal.Weighted>
-0.0000

> <Gold.Chemscore.Lipo.Weighted>
-8.0987

> <Gold.Chemscore.Internal_Hbond.Weighted>
0.0000

> <Gold.Chemscore.DEClash.Weighted>
0.0787

> <Gold.Chemscore.DEInternal.Weighted>
0.5119

> <Gold.Chemscore.Rot.Weighted>
4.3841

> <Gold.Chemscore.Internal.Correction.Weighted>
   9.000000E+99

> <Gold.Protein.RotatedTorsions>
[ 6907 6896 6895 6894 ] final   73.90 input  -60.11 | X-H torsion
[ 7974 7965 7964 7962 ] final   66.94 input  175.53 | X-H torsion
[ 8008 7997 7996 7995 ] final  -47.82 input   59.86 | X-H torsion
[ 10167 10162 10161 10158 ] final   28.26 input  -65.29 | X-H torsion
[ 10718 10713 10712 10709 ] final  131.31 input   66.30 | X-H torsion
[ 10763 10752 10751 10750 ] final -136.84 input  -60.55 | X-H torsion
[ 11005 11000 10999 10996 ] final  149.62 input  -57.11 | X-H torsion

> <Gold.Protein.ActiveResidues>
 VAL166  LYS551  ARG553  GLY616  TRP617  ASP618  TYR619  PRO620  LYS621  CYS622 
 ASP623  PHE694  ASN695  SER759  ASP760  ASP761  ALA762  ILE779  LEU786  VAL792 
 PHE793  MET794  SER795  GLU796  ALA797  LYS798  CYS799  TRP800  GLU811  SER814 

> <Gold.Protein.RotatedAtoms>
  152.4948  134.4352  159.9524 H   0  0  0  0  0  0  0  0  0  0  0  0  # atno 6907 bound_to 6896
  151.4332  133.3658  159.2779 H   0  0  0  0  0  0  0  0  0  0  0  0  # atno 6908 bound_to 6896
  150.9140  134.8580  159.7504 H   0  0  0  0  0  0  0  0  0  0  0  0  # atno 6909 bound_to 6896
  145.8206  139.3083  143.1045 H   0  0  0  0  0  0  0  0  0  0  0  0  # atno 7974 bound_to 7965
  154.4021  140.1337  156.4238 H   0  0  0  0  0  0  0  0  0  0  0  0  # atno 8008 bound_to 7997
  155.7617  140.3486  155.5181 H   0  0  0  0  0  0  0  0  0  0  0  0  # atno 8009 bound_to 7997
  155.8852  140.0994  157.1447 H   0  0  0  0  0  0  0  0  0  0  0  0  # atno 8010 bound_to 7997
  140.4867  144.0530  150.6283 H   0  0  0  0  0  0  0  0  0  0  0  0  # atno 10167 bound_to 10162
  157.4979  131.1093  150.9467 H   0  0  0  0  0  0  0  0  0  0  0  0  # atno 10718 bound_to 10713
  154.8675  135.3660  154.5125 H   0  0  0  0  0  0  0  0  0  0  0  0  # atno 10763 bound_to 10752
  153.5760  135.7019  153.5489 H   0  0  0  0  0  0  0  0  0  0  0  0  # atno 10764 bound_to 10752
  153.3500  135.4075  155.1601 H   0  0  0  0  0  0  0  0  0  0  0  0  # atno 10765 bound_to 10752
  140.1060  134.8954  157.1867 H   0  0  0  0  0  0  0  0  0  0  0  0  # atno 11005 bound_to 11000
  145.9678  140.8784  143.0178 LP  0  0  0  0  0  0  0  0  0  0  0  0  # atno 17320 bound_to 7965
  144.6748  140.1903  143.7397 LP  0  0  0  0  0  0  0  0  0  0  0  0  # atno 17321 bound_to 7965
  140.3788  143.2814  152.0194 LP  0  0  0  0  0  0  0  0  0  0  0  0  # atno 17342 bound_to 10162
  139.4843  144.6171  151.7325 LP  0  0  0  0  0  0  0  0  0  0  0  0  # atno 17343 bound_to 10162
  157.0147  130.5650  149.5324 LP  0  0  0  0  0  0  0  0  0  0  0  0  # atno 17370 bound_to 10713
  156.0212  130.5306  150.8279 LP  0  0  0  0  0  0  0  0  0  0  0  0  # atno 17371 bound_to 10713
  140.3155  134.2975  155.7257 LP  0  0  0  0  0  0  0  0  0  0  0  0  # atno 17394 bound_to 11000
  141.2118  133.7677  156.9837 LP  0  0  0  0  0  0  0  0  0  0  0  0  # atno 17395 bound_to 11000

$$$$
