AV-unprocessed.smi:598|AV-procd|sdf|3027|dock4
  -GOLD-   2262023533D 1   1.00000     0.00000
 Structure written by MMmdl.
 43 44  0  0  0  0  0  0  0  0  3 V2000
  151.1830  145.6048  160.2178 C   0  0  0  0  0  0  0  0  0  0  0  0
  151.3753  144.0942  160.0048 C   0  0  2  0  0  0  0  0  0  0  0  0
  152.7362  143.6086  160.5437 C   0  0  0  0  0  0  0  0  0  0  0  0
  152.8764  142.0829  160.4230 C   0  0  0  0  0  0  0  0  0  0  0  0
  152.6381  141.6044  158.9832 C   0  0  0  0  0  0  0  0  0  0  0  0
  151.2764  142.0956  158.4484 C   0  0  2  0  0  0  0  0  0  0  0  0
  151.0625  141.6384  157.0794 N   0  0  0  0  0  0  0  0  0  0  0  0
  151.0765  140.3645  156.6526 C   0  0  0  0  0  0  0  0  0  0  0  0
  151.2888  139.4115  157.4010 O   0  0  0  0  0  0  0  0  0  0  0  0
  150.8173  140.1017  155.1584 C   0  0  0  0  0  0  0  0  0  0  0  0
  149.4096  139.8220  154.8179 N   0  0  0  0  0  0  0  0  0  0  0  0
  148.8918  138.5758  155.2228 C   0  0  0  0  0  0  0  0  0  0  0  0
  147.6281  138.2006  154.9442 C   0  0  0  0  0  0  0  0  0  0  0  0
  147.1177  136.9115  155.3561 N   0  3  0  0  0  0  0  0  0  0  0  0
  147.8646  136.1493  155.9614 O   0  0  0  0  0  0  0  0  0  0  0  0
  145.9560  136.6182  155.0898 O   0  5  0  0  0  0  0  0  0  0  0  0
  146.7962  139.1311  154.2060 C   0  0  0  0  0  0  0  0  0  0  0  0
  147.2862  140.3233  153.8131 C   0  0  0  0  0  0  0  0  0  0  0  0
  148.6643  140.7263  154.1110 C   0  0  0  0  0  0  0  0  0  0  0  0
  149.1235  141.8057  153.7386 O   0  0  0  0  0  0  0  0  0  0  0  0
  151.1473  143.6390  158.5385 C   0  0  2  0  0  0  0  0  0  0  0  0
  152.0327  144.3876  157.5129 C   0  0  0  0  0  0  0  0  0  0  0  0
  151.9725  146.1861  159.7413 H   0  0  0  0  0  0  0  0  0  0  0  0
  151.1966  145.8512  161.2798 H   0  0  0  0  0  0  0  0  0  0  0  0
  150.2268  145.9407  159.8160 H   0  0  0  0  0  0  0  0  0  0  0  0
  150.6061  143.6070  160.6065 H   0  0  0  0  0  0  0  0  0  0  0  0
  153.5504  144.0969  160.0073 H   0  0  0  0  0  0  0  0  0  0  0  0
  152.8459  143.8976  161.5895 H   0  0  0  0  0  0  0  0  0  0  0  0
  153.8658  141.7723  160.7594 H   0  0  0  0  0  0  0  0  0  0  0  0
  152.1595  141.5995  161.0879 H   0  0  0  0  0  0  0  0  0  0  0  0
  153.4455  141.9576  158.3412 H   0  0  0  0  0  0  0  0  0  0  0  0
  152.6819  140.5150  158.9551 H   0  0  0  0  0  0  0  0  0  0  0  0
  150.4924  141.6648  159.0745 H   0  0  0  0  0  0  0  0  0  0  0  0
  150.8821  142.3570  156.3937 H   0  0  0  0  0  0  0  0  0  0  0  0
  151.1703  140.9687  154.5981 H   0  0  0  0  0  0  0  0  0  0  0  0
  151.4599  139.2809  154.8351 H   0  0  0  0  0  0  0  0  0  0  0  0
  149.5940  137.9527  155.7582 H   0  0  0  0  0  0  0  0  0  0  0  0
  145.7744  138.8790  153.9632 H   0  0  0  0  0  0  0  0  0  0  0  0
  146.6492  141.0010  153.2638 H   0  0  0  0  0  0  0  0  0  0  0  0
  150.1150  143.8856  158.2846 H   0  0  0  0  0  0  0  0  0  0  0  0
  153.0946  144.2164  157.6856 H   0  0  0  0  0  0  0  0  0  0  0  0
  151.8628  145.4630  157.5483 H   0  0  0  0  0  0  0  0  0  0  0  0
  151.8143  144.0803  156.4900 H   0  0  0  0  0  0  0  0  0  0  0  0
  1  2  1  0  0  0  0
  1 23  1  0  0  0  0
  1 24  1  0  0  0  0
  1 25  1  0  0  0  0
  2 21  1  0  0  0  0
  2  3  1  0  0  0  0
  2 26  1  0  0  0  0
  3  4  1  0  0  0  0
  3 27  1  0  0  0  0
  3 28  1  0  0  0  0
  4  5  1  0  0  0  0
  4 29  1  0  0  0  0
  4 30  1  0  0  0  0
  5  6  1  0  0  0  0
  5 31  1  0  0  0  0
  5 32  1  0  0  0  0
  6  7  1  0  0  0  0
  6 21  1  0  0  0  0
  6 33  1  0  0  0  0
  7  8  1  0  0  0  0
  7 34  1  0  0  0  0
  8  9  2  0  0  0  0
  8 10  1  0  0  0  0
 10 11  1  0  0  0  0
 10 35  1  0  0  0  0
 10 36  1  0  0  0  0
 11 19  1  0  0  0  0
 11 12  1  0  0  0  0
 12 13  2  0  0  0  0
 12 37  1  0  0  0  0
 13 14  1  0  0  0  0
 13 17  1  0  0  0  0
 14 15  2  0  0  0  0
 14 16  1  0  0  0  0
 17 18  2  0  0  0  0
 17 38  1  0  0  0  0
 18 19  1  0  0  0  0
 18 39  1  0  0  0  0
 19 20  2  0  0  0  0
 21 22  1  0  0  0  0
 21 40  1  0  0  0  0
 22 41  1  0  0  0  0
 22 42  1  0  0  0  0
 22 43  1  0  0  0  0
M  CHG  1  14   1
M  CHG  1  16  -1
M  END
> <s_m_source_file>
AV-unprocessed.smi

> <i_m_source_file_index>
598

> <i_lp_mmshare_version>
43012

> <i_f3d_flags>
0

> <s_epik_input>
W0NIM11bQ0BASF0xW0NIMl1bQ0gyXVtDSDJdW0NASF0oW0NASF0xW0NIM10pW05IXUMoPU8pW0NIMl1uMltjSF1jKFtOK10oPU8pW08tXSlbY0hdW2NIXWMyPU8=

> <s_epik_cmdline>
J2VwaWtfcHl0aG9uJywgJy1waCcsICc3LjAnLCAnLXRuJywgJzgnLCAnLW1hJywgJzIwMCcsICctbWV0YWxfYmluZGluZycsICctaW1hZScsICc8aW5maWxlLm1hZT4nLCAnLW9tYWUnLCAnPG91dGZpbGUubWFlPic=

> <r_lp_tautomer_probability>
1

> <r_epik_Ionization_Penalty>
1.91291e-08

> <r_epik_Ionization_Penalty_Charging>
8.21931e-11

> <r_epik_Ionization_Penalty_Neutral>
1.90469e-08

> <r_epik_State_Penalty>
-0

> <r_epik_Charging_Adjusted_Penalty>
8.21931e-11

> <i_epik_Tot_Q>
0

> <i_epik_Tot_abs_Q>
2

> <r_epik_Metal_State_Penalty>
-0

> <b_epik_Metal_Only>
0

> <s_lp_Force_Field>
OPLS_2005

> <r_lp_Energy>
25.0261

> <b_lp_Chiralities_Consistent>
1

> <s_lp_Variant>
AV-unprocessed.smi:598-7

> <Gold.Version>
5.8.1

> <Gold.Id.Protein>
6NUR|6NUR_protein|mol2

> <Gold.PLP.Fitness>
39.6810

> <Gold.PLP.PLP>
-38.6531

> <Gold.PLP.part.hbond>
-1.8867

> <Gold.PLP.part.metal>
0.0000

> <Gold.PLP.part.buried>
-3.8362

> <Gold.PLP.part.nonpolar>
-32.8590

> <Gold.PLP.part.repulsive>
0.4949

> <Gold.PLP.ligand.clash>
0.0000

> <Gold.PLP.ligand.torsion>
0.4792

> <Gold.PLP.Chemscore.Hbond>
0.6560

> <Gold.PLP.Chemscore.CHOScore>
0.0000

> <Gold.PLP.Chemscore.Metal>
0.0000

> <Gold.Chemscore.Hbonds>
donor molecule, donor type, donor heavy atom, donor atom, acceptor molecule, acceptor atom, score
      P1  H  8011  8017       L1    20  0.59

> <Gold.PLP.Chemscore.Internal.Correction>
0.0183

> <Gold.Rescore>
     Score         DG    S(hbond)    S(metal)    S(lipo)     H(rot)  DE(clash)    DE(int)     intcor
     15.50     -16.03       0.66        0.00     104.99       1.54       0.09       0.43       ----

> <Gold.Chemscore.Fitness>
15.5033

> <Gold.Chemscore.DG>
-16.0267

> <Gold.Chemscore.ZeroCoef>
-5.4800

> <Gold.Chemscore.Hbond>
0.6598

> <Gold.Chemscore.Metal>
0.0000

> <Gold.Chemscore.Lipo>
104.9879

> <Gold.Chemscore.Internal_Hbond>
0.0000

> <Gold.Chemscore.DEClash>
0.0897

> <Gold.Chemscore.DEInternal>
0.4337

> <Gold.Chemscore.Rot>
1.5393

> <Gold.Chemscore.Internal.Correction>
   9.000000E+99

> <Gold.Chemscore.Hbonds>
donor molecule, donor type, donor heavy atom, donor atom, acceptor molecule, acceptor atom, score
      P1  H  8011  8017       L1    20  0.60

> <Gold.Chemscore.Hbond.Weighted>
-2.2039

> <Gold.Chemscore.Metal.Weighted>
-0.0000

> <Gold.Chemscore.Lipo.Weighted>
-12.2836

> <Gold.Chemscore.Internal_Hbond.Weighted>
0.0000

> <Gold.Chemscore.DEClash.Weighted>
0.0897

> <Gold.Chemscore.DEInternal.Weighted>
0.4337

> <Gold.Chemscore.Rot.Weighted>
3.9407

> <Gold.Chemscore.Internal.Correction.Weighted>
   9.000000E+99

> <Gold.Protein.RotatedTorsions>
[ 6907 6896 6895 6894 ] final  166.88 input  -60.11 | X-H torsion
[ 7974 7965 7964 7962 ] final  149.55 input  175.53 | X-H torsion
[ 8008 7997 7996 7995 ] final  162.26 input   59.86 | X-H torsion
[ 10167 10162 10161 10158 ] final  135.26 input  -65.29 | X-H torsion
[ 10718 10713 10712 10709 ] final  -35.28 input   66.30 | X-H torsion
[ 10763 10752 10751 10750 ] final -165.66 input  -60.55 | X-H torsion
[ 11005 11000 10999 10996 ] final -138.58 input  -57.11 | X-H torsion

> <Gold.Protein.ActiveResidues>
 VAL166  LYS551  ARG553  GLY616  TRP617  ASP618  TYR619  PRO620  LYS621  CYS622 
 ASP623  PHE694  ASN695  SER759  ASP760  ASP761  ALA762  ILE779  LEU786  VAL792 
 PHE793  MET794  SER795  GLU796  ALA797  LYS798  CYS799  TRP800  GLU811  SER814 

> <Gold.Protein.RotatedAtoms>
  151.8720  133.3477  159.3737 H   0  0  0  0  0  0  0  0  0  0  0  0  # atno 6907 bound_to 6896
  150.7150  134.5103  159.5613 H   0  0  0  0  0  0  0  0  0  0  0  0  # atno 6908 bound_to 6896
  152.2638  134.8006  160.0477 H   0  0  0  0  0  0  0  0  0  0  0  0  # atno 6909 bound_to 6896
  144.8429  139.6295  143.6008 H   0  0  0  0  0  0  0  0  0  0  0  0  # atno 7974 bound_to 7965
  156.2044  140.1755  156.7831 H   0  0  0  0  0  0  0  0  0  0  0  0  # atno 8008 bound_to 7997
  154.5635  140.0695  156.8886 H   0  0  0  0  0  0  0  0  0  0  0  0  # atno 8009 bound_to 7997
  155.2804  140.3348  155.4261 H   0  0  0  0  0  0  0  0  0  0  0  0  # atno 8010 bound_to 7997
  139.5224  144.6526  151.5258 H   0  0  0  0  0  0  0  0  0  0  0  0  # atno 10167 bound_to 10162
  156.3405  130.4293  149.7791 H   0  0  0  0  0  0  0  0  0  0  0  0  # atno 10718 bound_to 10713
  154.6910  135.2970  154.9480 H   0  0  0  0  0  0  0  0  0  0  0  0  # atno 10763 bound_to 10752
  154.0443  135.6653  153.4797 H   0  0  0  0  0  0  0  0  0  0  0  0  # atno 10764 bound_to 10752
  153.0612  135.5114  154.8002 H   0  0  0  0  0  0  0  0  0  0  0  0  # atno 10765 bound_to 10752
  140.8602  134.2178  157.4712 H   0  0  0  0  0  0  0  0  0  0  0  0  # atno 11005 bound_to 11000
  146.2719  139.6656  142.9290 LP  0  0  0  0  0  0  0  0  0  0  0  0  # atno 17320 bound_to 7965
  145.4656  141.0434  143.2727 LP  0  0  0  0  0  0  0  0  0  0  0  0  # atno 17321 bound_to 7965
  140.6337  143.9025  150.6628 LP  0  0  0  0  0  0  0  0  0  0  0  0  # atno 17342 bound_to 10162
  140.2338  143.3715  152.1544 LP  0  0  0  0  0  0  0  0  0  0  0  0  # atno 17343 bound_to 10162
  156.5029  130.8137  151.3139 LP  0  0  0  0  0  0  0  0  0  0  0  0  # atno 17370 bound_to 10713
  157.7446  130.9939  150.2687 LP  0  0  0  0  0  0  0  0  0  0  0  0  # atno 17371 bound_to 10713
  139.8706  134.9726  156.4778 LP  0  0  0  0  0  0  0  0  0  0  0  0  # atno 17394 bound_to 11000
  140.8692  133.8001  155.9346 LP  0  0  0  0  0  0  0  0  0  0  0  0  # atno 17395 bound_to 11000

$$$$
