AV-unprocessed.smi:1980|AV-procd|sdf|8017|dock2
  -GOLD-   2272010213D 1   1.00000     0.00000
 Structure written by MMmdl.
 44 45  0  0  0  0  0  0  0  0  1 V2000
  149.1006  137.6834  158.7323 C   0  0  0  0  0  0  0  0  0  0  0  0
  148.2548  136.4017  158.7767 C   0  0  2  0  0  0  0  0  0  0  0  0
  148.1106  136.0279  160.1447 O   0  0  0  0  0  0  0  0  0  0  0  0
  146.8435  135.4857  160.5044 C   0  0  0  0  0  0  0  0  0  0  0  0
  146.8854  135.0171  161.9637 C   0  0  0  0  0  0  0  0  0  0  0  0
  147.6305  133.9160  162.0488 F   0  0  0  0  0  0  0  0  0  0  0  0
  147.4255  135.9597  162.7354 F   0  0  0  0  0  0  0  0  0  0  0  0
  145.6554  134.7358  162.3932 F   0  0  0  0  0  0  0  0  0  0  0  0
  148.9113  135.2661  157.9744 C   0  0  0  0  0  0  0  0  0  0  0  0
  149.1755  134.1933  158.5176 O   0  0  0  0  0  0  0  0  0  0  0  0
  149.1563  135.5177  156.6789 N   0  0  0  0  0  0  0  0  0  0  0  0
  149.7718  134.5922  155.7342 C   0  0  0  0  0  0  0  0  0  0  0  0
  148.8012  134.1120  154.6701 C   0  0  0  0  0  0  0  0  0  0  0  0
  149.0765  132.9608  153.9073 C   0  0  0  0  0  0  0  0  0  0  0  0
  148.1480  132.5493  152.9323 C   0  0  0  0  0  0  0  0  0  0  0  0
  146.9658  133.3043  152.7403 C   0  0  0  0  0  0  0  0  0  0  0  0
  146.0212  132.9127  151.7657 N   0  0  0  0  0  0  0  0  0  0  0  0
  144.6851  133.5030  151.8292 C   0  0  0  0  0  0  0  0  0  0  0  0
  143.7221  132.7547  150.8918 C   0  0  0  0  0  0  0  0  0  0  0  0
  144.2536  132.7376  149.5712 O   0  0  0  0  0  0  0  0  0  0  0  0
  145.5029  132.0578  149.5137 C   0  0  0  0  0  0  0  0  0  0  0  0
  146.5303  132.7798  150.4025 C   0  0  0  0  0  0  0  0  0  0  0  0
  146.7037  134.4091  153.4825 N   0  0  0  0  0  0  0  0  0  0  0  0
  147.5970  134.7994  154.4159 C   0  0  0  0  0  0  0  0  0  0  0  0
  149.2683  138.0134  157.7063 H   0  0  0  0  0  0  0  0  0  0  0  0
  150.0745  137.5385  159.2017 H   0  0  0  0  0  0  0  0  0  0  0  0
  148.6000  138.4947  159.2610 H   0  0  0  0  0  0  0  0  0  0  0  0
  147.2727  136.6287  158.3571 H   0  0  0  0  0  0  0  0  0  0  0  0
  146.0665  136.2419  160.3833 H   0  0  0  0  0  0  0  0  0  0  0  0
  146.5824  134.6443  159.8618 H   0  0  0  0  0  0  0  0  0  0  0  0
  148.9005  136.4262  156.3200 H   0  0  0  0  0  0  0  0  0  0  0  0
  150.6397  135.0408  155.2478 H   0  0  0  0  0  0  0  0  0  0  0  0
  150.1497  133.7386  156.2975 H   0  0  0  0  0  0  0  0  0  0  0  0
  149.9826  132.3948  154.0672 H   0  0  0  0  0  0  0  0  0  0  0  0
  148.3467  131.6568  152.3582 H   0  0  0  0  0  0  0  0  0  0  0  0
  144.2998  133.4606  152.8487 H   0  0  0  0  0  0  0  0  0  0  0  0
  144.7414  134.5545  151.5443 H   0  0  0  0  0  0  0  0  0  0  0  0
  143.5530  131.7346  151.2408 H   0  0  0  0  0  0  0  0  0  0  0  0
  142.7519  133.2510  150.8773 H   0  0  0  0  0  0  0  0  0  0  0  0
  145.3794  131.0195  149.8263 H   0  0  0  0  0  0  0  0  0  0  0  0
  145.8491  132.0392  148.4802 H   0  0  0  0  0  0  0  0  0  0  0  0
  146.7323  133.7754  150.0052 H   0  0  0  0  0  0  0  0  0  0  0  0
  147.4696  132.2304  150.3709 H   0  0  0  0  0  0  0  0  0  0  0  0
  147.3408  135.6872  154.9748 H   0  0  0  0  0  0  0  0  0  0  0  0
  1  2  1  0  0  0  0
  1 25  1  0  0  0  0
  1 26  1  0  0  0  0
  1 27  1  0  0  0  0
  2  3  1  0  0  0  0
  2  9  1  0  0  0  0
  2 28  1  0  0  0  0
  3  4  1  0  0  0  0
  4  5  1  0  0  0  0
  4 29  1  0  0  0  0
  4 30  1  0  0  0  0
  5  6  1  0  0  0  0
  5  7  1  0  0  0  0
  5  8  1  0  0  0  0
  9 10  2  0  0  0  0
  9 11  1  0  0  0  0
 11 12  1  0  0  0  0
 11 31  1  0  0  0  0
 12 13  1  0  0  0  0
 12 32  1  0  0  0  0
 12 33  1  0  0  0  0
 13 24  1  0  0  0  0
 13 14  2  0  0  0  0
 14 15  1  0  0  0  0
 14 34  1  0  0  0  0
 15 16  2  0  0  0  0
 15 35  1  0  0  0  0
 16 17  1  0  0  0  0
 16 23  1  0  0  0  0
 17 22  1  0  0  0  0
 17 18  1  0  0  0  0
 18 19  1  0  0  0  0
 18 36  1  0  0  0  0
 18 37  1  0  0  0  0
 19 20  1  0  0  0  0
 19 38  1  0  0  0  0
 19 39  1  0  0  0  0
 20 21  1  0  0  0  0
 21 22  1  0  0  0  0
 21 40  1  0  0  0  0
 21 41  1  0  0  0  0
 22 42  1  0  0  0  0
 22 43  1  0  0  0  0
 23 24  2  0  0  0  0
 24 44  1  0  0  0  0
M  END
> <s_m_source_file>
AV-unprocessed.smi

> <i_m_source_file_index>
1980

> <i_lp_mmshare_version>
43012

> <i_f3d_flags>
0

> <s_epik_input>
RkMoRikoRilbQ0gyXU9bQ0BASF0oW0NIM10pQyg9TylbTkhdW0NIMl1jMVtjSF1bY0hdYyhuW2NIXTEpTjJbQ0gyXVtDSDJdT1tDSDJdW0NIMl0y

> <s_epik_cmdline>
J2VwaWtfcHl0aG9uJywgJy1waCcsICc3LjAnLCAnLXRuJywgJzgnLCAnLW1hJywgJzIwMCcsICctbWV0YWxfYmluZGluZycsICctaW1hZScsICc8aW5maWxlLm1hZT4nLCAnLW9tYWUnLCAnPG91dGZpbGUubWFlPic=

> <r_lp_tautomer_probability>
1

> <r_epik_Ionization_Penalty>
0.00436425

> <r_epik_Ionization_Penalty_Charging>
0

> <r_epik_Ionization_Penalty_Neutral>
0.00436425

> <r_epik_State_Penalty>
0.00314317

> <r_epik_Charging_Adjusted_Penalty>
0.00314317

> <i_epik_Tot_Q>
0

> <i_epik_Tot_abs_Q>
0

> <r_epik_Metal_State_Penalty>
-0

> <b_epik_Metal_Only>
0

> <s_lp_Force_Field>
OPLS_2005

> <r_lp_Energy>
19.3234

> <b_lp_Chiralities_Consistent>
1

> <s_lp_Variant>
AV-unprocessed.smi:1980-1

> <Gold.Version>
5.8.1

> <Gold.Id.Protein>
6NUR|6NUR_protein|mol2

> <Gold.PLP.Fitness>
45.3860

> <Gold.PLP.PLP>
-44.1454

> <Gold.PLP.part.hbond>
-1.0000

> <Gold.PLP.part.metal>
0.0000

> <Gold.PLP.part.buried>
-5.6995

> <Gold.PLP.part.nonpolar>
-37.9203

> <Gold.PLP.part.repulsive>
0.4635

> <Gold.PLP.ligand.clash>
0.0000

> <Gold.PLP.ligand.torsion>
1.1083

> <Gold.PLP.Chemscore.Hbond>
1.0000

> <Gold.PLP.Chemscore.CHOScore>
0.0000

> <Gold.PLP.Chemscore.Metal>
0.0000

> <Gold.Chemscore.Hbonds>
donor molecule, donor type, donor heavy atom, donor atom, acceptor molecule, acceptor atom, score
      P1  H  6896  6908       L1    10  1.00

> <Gold.PLP.Chemscore.Internal.Correction>
0.4571

> <Gold.Rescore>
     Score         DG    S(hbond)    S(metal)    S(lipo)     H(rot)  DE(clash)    DE(int)     intcor
     10.52     -11.50       0.99        0.00      77.52       2.49       0.14       0.84       ----

> <Gold.Chemscore.Fitness>
10.5224

> <Gold.Chemscore.DG>
-11.4987

> <Gold.Chemscore.ZeroCoef>
-5.4800

> <Gold.Chemscore.Hbond>
0.9949

> <Gold.Chemscore.Metal>
0.0000

> <Gold.Chemscore.Lipo>
77.5211

> <Gold.Chemscore.Internal_Hbond>
0.0000

> <Gold.Chemscore.DEClash>
0.1401

> <Gold.Chemscore.DEInternal>
0.8362

> <Gold.Chemscore.Rot>
2.4899

> <Gold.Chemscore.Internal.Correction>
   9.000000E+99

> <Gold.Chemscore.Hbonds>
donor molecule, donor type, donor heavy atom, donor atom, acceptor molecule, acceptor atom, score
      P1  H  6896  6908       L1    10  0.98

> <Gold.Chemscore.Hbond.Weighted>
-3.3229

> <Gold.Chemscore.Metal.Weighted>
-0.0000

> <Gold.Chemscore.Lipo.Weighted>
-9.0700

> <Gold.Chemscore.Internal_Hbond.Weighted>
0.0000

> <Gold.Chemscore.DEClash.Weighted>
0.1401

> <Gold.Chemscore.DEInternal.Weighted>
0.8362

> <Gold.Chemscore.Rot.Weighted>
6.3741

> <Gold.Chemscore.Internal.Correction.Weighted>
   9.000000E+99

> <Gold.Protein.RotatedTorsions>
[ 6907 6896 6895 6894 ] final  132.66 input  -60.11 | X-H torsion
[ 7974 7965 7964 7962 ] final   67.97 input  175.53 | X-H torsion
[ 8008 7997 7996 7995 ] final  -91.90 input   59.86 | X-H torsion
[ 10167 10162 10161 10158 ] final  -19.53 input  -65.29 | X-H torsion
[ 10718 10713 10712 10709 ] final  -19.86 input   66.30 | X-H torsion
[ 10763 10752 10751 10750 ] final -106.28 input  -60.55 | X-H torsion
[ 11005 11000 10999 10996 ] final  111.96 input  -57.11 | X-H torsion

> <Gold.Protein.ActiveResidues>
 VAL166  LYS551  ARG553  GLY616  TRP617  ASP618  TYR619  PRO620  LYS621  CYS622 
 ASP623  PHE694  ASN695  SER759  ASP760  ASP761  ALA762  ILE779  LEU786  VAL792 
 PHE793  MET794  SER795  GLU796  ALA797  LYS798  CYS799  TRP800  GLU811  SER814 

> <Gold.Protein.RotatedAtoms>
  152.3301  133.5948  159.5803 H   0  0  0  0  0  0  0  0  0  0  0  0  # atno 6907 bound_to 6896
  150.7418  133.9881  159.3607 H   0  0  0  0  0  0  0  0  0  0  0  0  # atno 6908 bound_to 6896
  151.7757  135.0775  160.0417 H   0  0  0  0  0  0  0  0  0  0  0  0  # atno 6909 bound_to 6896
  145.8082  139.3018  143.1114 H   0  0  0  0  0  0  0  0  0  0  0  0  # atno 7974 bound_to 7965
  154.7165  140.0514  157.0599 H   0  0  0  0  0  0  0  0  0  0  0  0  # atno 8008 bound_to 7997
  155.0485  140.3176  155.4681 H   0  0  0  0  0  0  0  0  0  0  0  0  # atno 8009 bound_to 7997
  156.2804  140.2120  156.5610 H   0  0  0  0  0  0  0  0  0  0  0  0  # atno 8010 bound_to 7997
  140.7269  143.4810  151.0118 H   0  0  0  0  0  0  0  0  0  0  0  0  # atno 10167 bound_to 10162
  156.5399  130.4675  149.6504 H   0  0  0  0  0  0  0  0  0  0  0  0  # atno 10718 bound_to 10713
  154.8002  135.4717  154.0257 H   0  0  0  0  0  0  0  0  0  0  0  0  # atno 10763 bound_to 10752
  153.1769  135.6834  153.8538 H   0  0  0  0  0  0  0  0  0  0  0  0  # atno 10764 bound_to 10752
  153.8101  135.3218  155.3377 H   0  0  0  0  0  0  0  0  0  0  0  0  # atno 10765 bound_to 10752
  139.8916  134.9519  156.6512 H   0  0  0  0  0  0  0  0  0  0  0  0  # atno 11005 bound_to 11000
  145.9805  140.8686  143.0117 LP  0  0  0  0  0  0  0  0  0  0  0  0  # atno 17320 bound_to 7965
  144.6760  140.2073  143.7380 LP  0  0  0  0  0  0  0  0  0  0  0  0  # atno 17321 bound_to 7965
  139.8508  143.7441  152.3178 LP  0  0  0  0  0  0  0  0  0  0  0  0  # atno 17342 bound_to 10162
  139.7622  144.7503  151.0347 LP  0  0  0  0  0  0  0  0  0  0  0  0  # atno 17343 bound_to 10162
  156.2981  130.7162  151.2027 LP  0  0  0  0  0  0  0  0  0  0  0  0  # atno 17370 bound_to 10713
  157.7407  131.0513  150.5147 LP  0  0  0  0  0  0  0  0  0  0  0  0  # atno 17371 bound_to 10713
  140.7519  133.8890  155.8353 LP  0  0  0  0  0  0  0  0  0  0  0  0  # atno 17394 bound_to 11000
  140.9994  134.1171  157.4332 LP  0  0  0  0  0  0  0  0  0  0  0  0  # atno 17395 bound_to 11000

$$$$
