AV-unprocessed.smi:249|AV-procd|sdf|1911|dock9
  -GOLD-   2262021 03D 1   1.00000     0.00000
 Structure written by MMmdl.
 64 67  0  0  0  0  0  0  0  0  2 V2000
  152.8672  142.8507  162.9630 C   0  0  0  0  0  0  0  0  0  0  0  0
  152.1417  143.0392  161.6218 C   0  0  0  0  0  0  0  0  0  0  0  0
  153.0477  142.9187  160.4415 N   0  3  1  0  0  0  0  0  0  0  0  0
  153.9389  141.7242  160.4758 C   0  0  0  0  0  0  0  0  0  0  0  0
  153.1672  140.4201  160.1949 C   0  0  0  0  0  0  0  0  0  0  0  0
  152.4150  140.5056  158.8529 C   0  0  1  0  0  0  0  0  0  0  0  0
  151.6492  139.2887  158.5685 N   0  0  0  0  0  0  0  0  0  0  0  0
  151.8358  138.0806  159.3695 C   0  0  0  0  0  0  0  0  0  0  0  0
  151.0540  139.1626  157.3540 C   0  0  0  0  0  0  0  0  0  0  0  0
  151.5548  139.8605  156.3003 N   0  0  0  0  0  0  0  0  0  0  0  0
  150.9885  139.7652  155.0939 C   0  0  0  0  0  0  0  0  0  0  0  0
  149.9336  139.0377  154.7231 N   0  0  0  0  0  0  0  0  0  0  0  0
  149.4348  138.3222  155.7708 C   0  0  0  0  0  0  0  0  0  0  0  0
  149.9277  138.3248  157.1068 C   0  0  0  0  0  0  0  0  0  0  0  0
  149.1683  137.4604  157.8887 N   0  0  0  0  0  0  0  0  0  0  0  0
  148.2695  136.9896  157.0681 C   0  0  0  0  0  0  0  0  0  0  0  0
  148.3525  137.4602  155.7780 N   0  0  0  0  0  0  0  0  0  0  0  0
  147.4819  137.1060  154.6710 C   0  0  0  0  0  0  0  0  0  0  0  0
  146.4547  138.2095  154.3027 C   0  0  1  0  0  0  0  0  0  0  0  0
  147.1038  139.3861  153.5286 C   0  0  0  0  0  0  0  0  0  0  0  0
  146.2463  140.5066  153.4560 O   0  0  0  0  0  0  0  0  0  0  0  0
  145.2723  137.6034  153.5020 C   0  0  1  0  0  0  0  0  0  0  0  0
  145.6658  136.8850  152.2213 C   0  0  0  0  0  0  0  0  0  0  0  0
  144.4365  136.0311  151.9420 C   0  0  0  0  0  0  0  0  0  0  0  0
  143.9675  135.6308  153.2221 O   0  0  0  0  0  0  0  0  0  0  0  0
  144.5070  136.4857  154.2263 C   0  0  0  0  0  0  0  0  0  0  0  0
  151.5374  141.7706  158.7998 C   0  0  0  0  0  0  0  0  0  0  0  0
  152.3744  143.0287  159.1106 C   0  0  1  0  0  0  0  0  0  0  0  0
  151.5730  144.3305  158.9291 C   0  0  0  0  0  0  0  0  0  0  0  0
  152.2028  143.0968  163.7917 H   0  0  0  0  0  0  0  0  0  0  0  0
  153.7391  143.5013  163.0369 H   0  0  0  0  0  0  0  0  0  0  0  0
  153.1939  141.8226  163.1148 H   0  0  0  0  0  0  0  0  0  0  0  0
  151.3066  142.3432  161.5465 H   0  0  0  0  0  0  0  0  0  0  0  0
  151.7044  144.0352  161.6491 H   0  0  0  0  0  0  0  0  0  0  0  0
  154.7115  141.8526  159.7165 H   0  0  0  0  0  0  0  0  0  0  0  0
  154.4751  141.6542  161.4207 H   0  0  0  0  0  0  0  0  0  0  0  0
  153.8644  139.5815  160.1728 H   0  0  0  0  0  0  0  0  0  0  0  0
  152.4766  140.2174  161.0133 H   0  0  0  0  0  0  0  0  0  0  0  0
  153.1879  140.6233  158.0946 H   0  0  0  0  0  0  0  0  0  0  0  0
  150.9242  137.4821  159.3815 H   0  0  0  0  0  0  0  0  0  0  0  0
  152.0861  138.3215  160.4019 H   0  0  0  0  0  0  0  0  0  0  0  0
  152.6427  137.4712  158.9615 H   0  0  0  0  0  0  0  0  0  0  0  0
  151.4452  140.3578  154.3149 H   0  0  0  0  0  0  0  0  0  0  0  0
  147.5135  136.2848  157.3829 H   0  0  0  0  0  0  0  0  0  0  0  0
  148.0997  136.8646  153.8052 H   0  0  0  0  0  0  0  0  0  0  0  0
  146.9730  136.1834  154.9495 H   0  0  0  0  0  0  0  0  0  0  0  0
  146.0414  138.6075  155.2310 H   0  0  0  0  0  0  0  0  0  0  0  0
  148.0495  139.6776  153.9863 H   0  0  0  0  0  0  0  0  0  0  0  0
  147.3277  139.1093  152.4999 H   0  0  0  0  0  0  0  0  0  0  0  0
  145.5134  140.2847  152.9022 H   0  0  0  0  0  0  0  0  0  0  0  0
  144.5665  138.3954  153.2451 H   0  0  0  0  0  0  0  0  0  0  0  0
  145.8922  137.5617  151.3970 H   0  0  0  0  0  0  0  0  0  0  0  0
  146.5342  136.2465  152.3907 H   0  0  0  0  0  0  0  0  0  0  0  0
  143.6629  136.6263  151.4552 H   0  0  0  0  0  0  0  0  0  0  0  0
  144.6553  135.1723  151.3075 H   0  0  0  0  0  0  0  0  0  0  0  0
  145.1781  135.8933  154.8497 H   0  0  0  0  0  0  0  0  0  0  0  0
  143.7128  136.8745  154.8639 H   0  0  0  0  0  0  0  0  0  0  0  0
  151.0953  141.8599  157.8069 H   0  0  0  0  0  0  0  0  0  0  0  0
  150.7040  141.6976  159.4984 H   0  0  0  0  0  0  0  0  0  0  0  0
  153.1772  143.0741  158.3726 H   0  0  0  0  0  0  0  0  0  0  0  0
  151.2857  144.4596  157.8852 H   0  0  0  0  0  0  0  0  0  0  0  0
  152.1622  145.2022  159.2156 H   0  0  0  0  0  0  0  0  0  0  0  0
  150.6512  144.3338  159.5111 H   0  0  0  0  0  0  0  0  0  0  0  0
  153.6601  143.7200  160.4995 H   0  0  0  0  0  0  0  0  0  0  0  0
  1  2  1  0  0  0  0
  1 30  1  0  0  0  0
  1 31  1  0  0  0  0
  1 32  1  0  0  0  0
  2  3  1  0  0  0  0
  2 33  1  0  0  0  0
  2 34  1  0  0  0  0
  3 28  1  0  0  0  0
  3  4  1  0  0  0  0
  3 64  1  0  0  0  0
  4  5  1  0  0  0  0
  4 35  1  0  0  0  0
  4 36  1  0  0  0  0
  5  6  1  0  0  0  0
  5 37  1  0  0  0  0
  5 38  1  0  0  0  0
  6  7  1  0  0  0  0
  6 27  1  0  0  0  0
  6 39  1  0  0  0  0
  7  8  1  0  0  0  0
  7  9  1  0  0  0  0
  8 40  1  0  0  0  0
  8 41  1  0  0  0  0
  8 42  1  0  0  0  0
  9 14  1  0  0  0  0
  9 10  2  0  0  0  0
 10 11  1  0  0  0  0
 11 12  2  0  0  0  0
 11 43  1  0  0  0  0
 12 13  1  0  0  0  0
 13 17  1  0  0  0  0
 13 14  2  0  0  0  0
 14 15  1  0  0  0  0
 15 16  2  0  0  0  0
 16 17  1  0  0  0  0
 16 44  1  0  0  0  0
 17 18  1  0  0  0  0
 18 19  1  0  0  0  0
 18 45  1  0  0  0  0
 18 46  1  0  0  0  0
 19 20  1  0  0  0  0
 19 22  1  0  0  0  0
 19 47  1  0  0  0  0
 20 21  1  0  0  0  0
 20 48  1  0  0  0  0
 20 49  1  0  0  0  0
 21 50  1  0  0  0  0
 22 26  1  0  0  0  0
 22 23  1  0  0  0  0
 22 51  1  0  0  0  0
 23 24  1  0  0  0  0
 23 52  1  0  0  0  0
 23 53  1  0  0  0  0
 24 25  1  0  0  0  0
 24 54  1  0  0  0  0
 24 55  1  0  0  0  0
 25 26  1  0  0  0  0
 26 56  1  0  0  0  0
 26 57  1  0  0  0  0
 27 28  1  0  0  0  0
 27 58  1  0  0  0  0
 27 59  1  0  0  0  0
 28 29  1  0  0  0  0
 28 60  1  0  0  0  0
 29 61  1  0  0  0  0
 29 62  1  0  0  0  0
 29 63  1  0  0  0  0
M  CHG  1   3   1
M  END
> <s_m_source_file>
AV-unprocessed.smi

> <i_m_source_file_index>
249

> <i_lp_mmshare_version>
43012

> <i_f3d_flags>
0

> <s_epik_input>
W0NIM11bQ0gyXU4xW0NIMl1bQ0gyXVtDQEhdKFtDSDJdW0NASF0xW0NIM10pTihbQ0gzXSljKG5bY0hdbjIpYyhjMjMpbltjSF1uM1tDSDJdW0NASF0oW0NIMl1bT0hdKVtDQEBIXTRbQ0gyXVtDSDJdT1tDSDJdNA==

> <s_epik_cmdline>
J2VwaWtfcHl0aG9uJywgJy1waCcsICc3LjAnLCAnLXRuJywgJzgnLCAnLW1hJywgJzIwMCcsICctbWV0YWxfYmluZGluZycsICctaW1hZScsICc8aW5maWxlLm1hZT4nLCAnLW9tYWUnLCAnPG91dGZpbGUubWFlPic=

> <r_lp_tautomer_probability>
1

> <r_epik_Ionization_Penalty>
0.00294688

> <r_epik_Ionization_Penalty_Charging>
0.00169971

> <r_epik_Ionization_Penalty_Neutral>
0.00124717

> <r_epik_State_Penalty>
-0

> <r_epik_Charging_Adjusted_Penalty>
0.00169971

> <i_epik_Tot_Q>
1

> <i_epik_Tot_abs_Q>
1

> <r_epik_Metal_State_Penalty>
-0

> <b_epik_Metal_Only>
0

> <s_lp_Force_Field>
OPLS_2005

> <r_lp_Energy>
53.8972

> <b_lp_Chiralities_Consistent>
1

> <s_lp_Variant>
AV-unprocessed.smi:249-14

> <Gold.Version>
5.8.1

> <Gold.Id.Protein>
6NUR|6NUR_protein|mol2

> <Gold.PLP.Fitness>
46.3800

> <Gold.PLP.PLP>
-44.9942

> <Gold.PLP.part.hbond>
-1.0000

> <Gold.PLP.part.metal>
0.0000

> <Gold.PLP.part.buried>
-6.4515

> <Gold.PLP.part.nonpolar>
-37.4797

> <Gold.PLP.part.repulsive>
0.2341

> <Gold.PLP.ligand.clash>
0.0000

> <Gold.PLP.ligand.torsion>
1.1209

> <Gold.PLP.Chemscore.Hbond>
1.0000

> <Gold.PLP.Chemscore.CHOScore>
0.0000

> <Gold.PLP.Chemscore.Metal>
0.0000

> <Gold.Chemscore.Hbonds>
donor molecule, donor type, donor heavy atom, donor atom, acceptor molecule, acceptor atom, score
      L1  H    21    50       P1 10175  0.99

> <Gold.PLP.Chemscore.Internal.Correction>
0.6276

> <Gold.Rescore>
     Score         DG    S(hbond)    S(metal)    S(lipo)     H(rot)  DE(clash)    DE(int)     intcor
     13.71     -15.17       0.98        0.00     112.82       2.65       0.02       1.45       ----

> <Gold.Chemscore.Fitness>
13.7059

> <Gold.Chemscore.DG>
-15.1714

> <Gold.Chemscore.ZeroCoef>
-5.4800

> <Gold.Chemscore.Hbond>
0.9819

> <Gold.Chemscore.Metal>
0.0000

> <Gold.Chemscore.Lipo>
112.8196

> <Gold.Chemscore.Internal_Hbond>
0.0000

> <Gold.Chemscore.DEClash>
0.0187

> <Gold.Chemscore.DEInternal>
1.4468

> <Gold.Chemscore.Rot>
2.6515

> <Gold.Chemscore.Internal.Correction>
   9.000000E+99

> <Gold.Chemscore.Hbonds>
donor molecule, donor type, donor heavy atom, donor atom, acceptor molecule, acceptor atom, score
      L1  H    21    50       P1 10175  0.88

> <Gold.Chemscore.Hbond.Weighted>
-3.2795

> <Gold.Chemscore.Metal.Weighted>
-0.0000

> <Gold.Chemscore.Lipo.Weighted>
-13.1999

> <Gold.Chemscore.Internal_Hbond.Weighted>
0.0000

> <Gold.Chemscore.DEClash.Weighted>
0.0187

> <Gold.Chemscore.DEInternal.Weighted>
1.4468

> <Gold.Chemscore.Rot.Weighted>
6.7880

> <Gold.Chemscore.Internal.Correction.Weighted>
   9.000000E+99

> <Gold.Protein.RotatedTorsions>
[ 6907 6896 6895 6894 ] final  -55.78 input  -60.11 | X-H torsion
[ 7974 7965 7964 7962 ] final   62.61 input  175.53 | X-H torsion
[ 8008 7997 7996 7995 ] final   13.14 input   59.86 | X-H torsion
[ 10167 10162 10161 10158 ] final  -36.05 input  -65.29 | X-H torsion
[ 10718 10713 10712 10709 ] final   63.09 input   66.30 | X-H torsion
[ 10763 10752 10751 10750 ] final  -43.16 input  -60.55 | X-H torsion
[ 11005 11000 10999 10996 ] final  137.57 input  -57.11 | X-H torsion

> <Gold.Protein.ActiveResidues>
 VAL166  LYS551  ARG553  GLY616  TRP617  ASP618  TYR619  PRO620  LYS621  CYS622 
 ASP623  PHE694  ASN695  SER759  ASP760  ASP761  ALA762  ILE779  LEU786  VAL792 
 PHE793  MET794  SER795  GLU796  ALA797  LYS798  CYS799  TRP800  GLU811  SER814 

> <Gold.Protein.RotatedAtoms>
  150.8223  134.7436  159.6782 H   0  0  0  0  0  0  0  0  0  0  0  0  # atno 6907 bound_to 6896
  152.4337  134.5725  159.9935 H   0  0  0  0  0  0  0  0  0  0  0  0  # atno 6908 bound_to 6896
  151.5906  133.3329  159.3063 H   0  0  0  0  0  0  0  0  0  0  0  0  # atno 6909 bound_to 6896
  145.8714  139.3380  143.0760 H   0  0  0  0  0  0  0  0  0  0  0  0  # atno 7974 bound_to 7965
  154.8303  140.2898  155.5726 H   0  0  0  0  0  0  0  0  0  0  0  0  # atno 8008 bound_to 7997
  156.3005  140.2533  156.3158 H   0  0  0  0  0  0  0  0  0  0  0  0  # atno 8009 bound_to 7997
  154.9238  140.0385  157.2001 H   0  0  0  0  0  0  0  0  0  0  0  0  # atno 8010 bound_to 7997
  140.7151  143.3435  151.2307 H   0  0  0  0  0  0  0  0  0  0  0  0  # atno 10167 bound_to 10162
  157.5947  130.9086  149.9672 H   0  0  0  0  0  0  0  0  0  0  0  0  # atno 10718 bound_to 10713
  153.9910  135.6705  153.4754 H   0  0  0  0  0  0  0  0  0  0  0  0  # atno 10763 bound_to 10752
  153.0705  135.4977  154.8290 H   0  0  0  0  0  0  0  0  0  0  0  0  # atno 10764 bound_to 10752
  154.7109  135.3097  154.9161 H   0  0  0  0  0  0  0  0  0  0  0  0  # atno 10765 bound_to 10752
  140.0123  134.9433  157.0304 H   0  0  0  0  0  0  0  0  0  0  0  0  # atno 11005 bound_to 11000
  145.9133  140.9165  143.0443 LP  0  0  0  0  0  0  0  0  0  0  0  0  # atno 17320 bound_to 7965
  144.6726  140.1189  143.7451 LP  0  0  0  0  0  0  0  0  0  0  0  0  # atno 17321 bound_to 7965
  139.6948  143.9631  152.2877 LP  0  0  0  0  0  0  0  0  0  0  0  0  # atno 17342 bound_to 10162
  139.9305  144.6744  150.8368 LP  0  0  0  0  0  0  0  0  0  0  0  0  # atno 17343 bound_to 10162
  156.1008  130.3656  150.0222 LP  0  0  0  0  0  0  0  0  0  0  0  0  # atno 17370 bound_to 10713
  156.8338  130.9402  151.3636 LP  0  0  0  0  0  0  0  0  0  0  0  0  # atno 17371 bound_to 10713
  140.4532  134.1561  155.7183 LP  0  0  0  0  0  0  0  0  0  0  0  0  # atno 17394 bound_to 11000
  141.1719  133.8591  157.1542 LP  0  0  0  0  0  0  0  0  0  0  0  0  # atno 17395 bound_to 11000

$$$$
