AV-unprocessed.smi:3267|AV-procd|sdf|12505|dock7
  -GOLD-   2272018413D 1   1.00000     0.00000
 Structure written by MMmdl.
 38 39  0  0  0  0  0  0  0  0  1 V2000
  145.4342  136.5488  150.3469 C   0  0  0  0  0  0  0  0  0  0  0  0
  145.1283  135.9547  151.7315 C   0  0  1  0  0  0  0  0  0  0  0  0
  144.2393  134.6891  151.6733 C   0  0  0  0  0  0  0  0  0  0  0  0
  144.7470  133.6552  150.7859 N   0  0  0  0  0  0  0  0  0  0  0  0
  144.0973  133.0217  149.7471 C   0  0  0  0  0  0  0  0  0  0  0  0
  144.9729  132.1248  149.2057 C   0  0  0  0  0  0  0  0  0  0  0  0
  146.1468  132.2805  149.9945 C   0  0  0  0  0  0  0  0  0  0  0  0
  146.0081  133.1954  150.9401 N   0  0  0  0  0  0  0  0  0  0  0  0
  146.3843  135.6894  152.4297 N   0  0  0  0  0  0  0  0  0  0  0  0
  146.4947  135.2134  153.6776 C   0  0  0  0  0  0  0  0  0  0  0  0
  145.5357  134.9497  154.4034 O   0  0  0  0  0  0  0  0  0  0  0  0
  147.7765  135.0589  154.0360 N   0  0  0  0  0  0  0  0  0  0  0  0
  148.2314  134.5847  155.3376 C   0  0  0  0  0  0  0  0  0  0  0  0
  149.4766  133.6926  155.2051 C   0  0  2  0  0  0  0  0  0  0  0  0
  149.2561  132.4474  154.3465 C   0  0  0  0  0  0  0  0  0  0  0  0
  150.2596  131.4425  154.8949 C   0  0  0  0  0  0  0  0  0  0  0  0
  150.7637  132.0837  156.1903 C   0  0  0  0  0  0  0  0  0  0  0  0
  149.8464  133.1338  156.4558 O   0  0  0  0  0  0  0  0  0  0  0  0
  144.5151  136.7507  149.7965 H   0  0  0  0  0  0  0  0  0  0  0  0
  146.0439  135.8760  149.7430 H   0  0  0  0  0  0  0  0  0  0  0  0
  145.9763  137.4906  150.4378 H   0  0  0  0  0  0  0  0  0  0  0  0
  144.5843  136.7152  152.2947 H   0  0  0  0  0  0  0  0  0  0  0  0
  144.1030  134.2628  152.6685 H   0  0  0  0  0  0  0  0  0  0  0  0
  143.2424  134.9645  151.3271 H   0  0  0  0  0  0  0  0  0  0  0  0
  143.0784  133.2619  149.4810 H   0  0  0  0  0  0  0  0  0  0  0  0
  144.8010  131.4575  148.3743 H   0  0  0  0  0  0  0  0  0  0  0  0
  147.0889  131.7594  149.9092 H   0  0  0  0  0  0  0  0  0  0  0  0
  147.2342  135.8681  151.9153 H   0  0  0  0  0  0  0  0  0  0  0  0
  148.4906  135.2995  153.3644 H   0  0  0  0  0  0  0  0  0  0  0  0
  148.4219  135.4198  156.0140 H   0  0  0  0  0  0  0  0  0  0  0  0
  147.4173  134.0097  155.7794 H   0  0  0  0  0  0  0  0  0  0  0  0
  150.3166  134.2672  154.8099 H   0  0  0  0  0  0  0  0  0  0  0  0
  148.2448  132.0637  154.4878 H   0  0  0  0  0  0  0  0  0  0  0  0
  149.3930  132.6464  153.2832 H   0  0  0  0  0  0  0  0  0  0  0  0
  149.7749  130.4850  155.0883 H   0  0  0  0  0  0  0  0  0  0  0  0
  151.0825  131.2682  154.2010 H   0  0  0  0  0  0  0  0  0  0  0  0
  150.8077  131.3771  157.0194 H   0  0  0  0  0  0  0  0  0  0  0  0
  151.7596  132.5058  156.0484 H   0  0  0  0  0  0  0  0  0  0  0  0
  1  2  1  0  0  0  0
  1 19  1  0  0  0  0
  1 20  1  0  0  0  0
  1 21  1  0  0  0  0
  2  3  1  0  0  0  0
  2  9  1  0  0  0  0
  2 22  1  0  0  0  0
  3  4  1  0  0  0  0
  3 23  1  0  0  0  0
  3 24  1  0  0  0  0
  4  8  1  0  0  0  0
  4  5  1  0  0  0  0
  5  6  2  0  0  0  0
  5 25  1  0  0  0  0
  6  7  1  0  0  0  0
  6 26  1  0  0  0  0
  7  8  2  0  0  0  0
  7 27  1  0  0  0  0
  9 10  1  0  0  0  0
  9 28  1  0  0  0  0
 10 11  2  0  0  0  0
 10 12  1  0  0  0  0
 12 13  1  0  0  0  0
 12 29  1  0  0  0  0
 13 14  1  0  0  0  0
 13 30  1  0  0  0  0
 13 31  1  0  0  0  0
 14 18  1  0  0  0  0
 14 15  1  0  0  0  0
 14 32  1  0  0  0  0
 15 16  1  0  0  0  0
 15 33  1  0  0  0  0
 15 34  1  0  0  0  0
 16 17  1  0  0  0  0
 16 35  1  0  0  0  0
 16 36  1  0  0  0  0
 17 18  1  0  0  0  0
 17 37  1  0  0  0  0
 17 38  1  0  0  0  0
M  END
> <s_m_source_file>
AV-unprocessed.smi

> <i_m_source_file_index>
3267

> <i_lp_mmshare_version>
43012

> <i_f3d_flags>
0

> <s_epik_input>
bjFbY0hdW2NIXVtjSF1uMVtDSDJdW0NAQEhdKFtDSDNdKVtOSF1DKD1PKVtOSF1bQ0gyXVtDQEBIXTJbQ0gyXVtDSDJdW0NIMl1PMg==

> <s_epik_cmdline>
J2VwaWtfcHl0aG9uJywgJy1waCcsICc3LjAnLCAnLXRuJywgJzgnLCAnLW1hJywgJzIwMCcsICctbWV0YWxfYmluZGluZycsICctaW1hZScsICc8aW5maWxlLm1hZT4nLCAnLW9tYWUnLCAnPG91dGZpbGUubWFlPic=

> <r_lp_tautomer_probability>
1

> <r_epik_Ionization_Penalty>
6.24796e-05

> <r_epik_Ionization_Penalty_Charging>
0

> <r_epik_Ionization_Penalty_Neutral>
6.24796e-05

> <r_epik_State_Penalty>
-0

> <r_epik_Charging_Adjusted_Penalty>
0

> <i_epik_Tot_Q>
0

> <i_epik_Tot_abs_Q>
0

> <r_epik_Metal_State_Penalty>
-0

> <b_epik_Metal_Only>
0

> <s_lp_Force_Field>
OPLS_2005

> <r_lp_Energy>
14.7816

> <b_lp_Chiralities_Consistent>
1

> <s_lp_Variant>
AV-unprocessed.smi:3267-2

> <Gold.Version>
5.8.1

> <Gold.Id.Protein>
6NUR|6NUR_protein|mol2

> <Gold.PLP.Fitness>
39.3518

> <Gold.PLP.PLP>
-27.8356

> <Gold.PLP.part.hbond>
-2.0000

> <Gold.PLP.part.metal>
0.0000

> <Gold.PLP.part.buried>
0.5303

> <Gold.PLP.part.nonpolar>
-27.2507

> <Gold.PLP.part.repulsive>
0.2436

> <Gold.PLP.ligand.clash>
0.0000

> <Gold.PLP.ligand.torsion>
0.2558

> <Gold.PLP.Chemscore.Hbond>
1.9920

> <Gold.PLP.Chemscore.CHOScore>
2.0000

> <Gold.PLP.Chemscore.Metal>
0.0000

> <Gold.Chemscore.Hbonds>
donor molecule, donor type, donor heavy atom, donor atom, acceptor molecule, acceptor atom, score
      L1  H     9    28       P1  7948  1.00
      L1  H    12    29       P1  7948  0.99
      L1  C     5    25       P1 10186  1.00
      L1  C     7    27       P1 10747  1.00

> <Gold.PLP.Chemscore.Internal.Correction>
0.0518

> <Gold.Rescore>
     Score         DG    S(hbond)    S(metal)    S(lipo)     H(rot)  DE(clash)    DE(int)     intcor
     13.70     -16.18       1.94        0.00      77.04       1.87       1.64       0.84       ----

> <Gold.Chemscore.Fitness>
13.7031

> <Gold.Chemscore.DG>
-16.1778

> <Gold.Chemscore.ZeroCoef>
-5.4800

> <Gold.Chemscore.Hbond>
1.9393

> <Gold.Chemscore.Metal>
0.0000

> <Gold.Chemscore.Lipo>
77.0410

> <Gold.Chemscore.Internal_Hbond>
0.0000

> <Gold.Chemscore.DEClash>
1.6389

> <Gold.Chemscore.DEInternal>
0.8358

> <Gold.Chemscore.Rot>
1.8724

> <Gold.Chemscore.Internal.Correction>
   9.000000E+99

> <Gold.Chemscore.Hbonds>
donor molecule, donor type, donor heavy atom, donor atom, acceptor molecule, acceptor atom, score
      L1  H     9    28       P1  7948  0.97
      L1  H    12    29       P1  7948  0.88

> <Gold.Chemscore.Hbond.Weighted>
-6.4772

> <Gold.Chemscore.Metal.Weighted>
-0.0000

> <Gold.Chemscore.Lipo.Weighted>
-9.0138

> <Gold.Chemscore.Internal_Hbond.Weighted>
0.0000

> <Gold.Chemscore.DEClash.Weighted>
1.6389

> <Gold.Chemscore.DEInternal.Weighted>
0.8358

> <Gold.Chemscore.Rot.Weighted>
4.7933

> <Gold.Chemscore.Internal.Correction.Weighted>
   9.000000E+99

> <Gold.Protein.RotatedTorsions>
[ 6907 6896 6895 6894 ] final  132.44 input  -60.11 | X-H torsion
[ 7974 7965 7964 7962 ] final -173.11 input  175.53 | X-H torsion
[ 8008 7997 7996 7995 ] final -170.91 input   59.86 | X-H torsion
[ 10167 10162 10161 10158 ] final  -50.63 input  -65.29 | X-H torsion
[ 10718 10713 10712 10709 ] final  -75.68 input   66.30 | X-H torsion
[ 10763 10752 10751 10750 ] final   27.33 input  -60.55 | X-H torsion
[ 11005 11000 10999 10996 ] final  -37.89 input  -57.11 | X-H torsion

> <Gold.Protein.ActiveResidues>
 VAL166  LYS551  ARG553  GLY616  TRP617  ASP618  TYR619  PRO620  LYS621  CYS622 
 ASP623  PHE694  ASN695  SER759  ASP760  ASP761  ALA762  ILE779  LEU786  VAL792 
 PHE793  MET794  SER795  GLU796  ALA797  LYS798  CYS799  TRP800  GLU811  SER814 

> <Gold.Protein.RotatedAtoms>
  152.3323  133.5972  159.5818 H   0  0  0  0  0  0  0  0  0  0  0  0  # atno 6907 bound_to 6896
  150.7430  133.9849  159.3597 H   0  0  0  0  0  0  0  0  0  0  0  0  # atno 6908 bound_to 6896
  151.7722  135.0784  160.0412 H   0  0  0  0  0  0  0  0  0  0  0  0  # atno 6909 bound_to 6896
  144.7140  140.1671  143.6371 H   0  0  0  0  0  0  0  0  0  0  0  0  # atno 7974 bound_to 7965
  155.9246  140.1080  157.1180 H   0  0  0  0  0  0  0  0  0  0  0  0  # atno 8008 bound_to 7997
  154.4060  140.1249  156.4789 H   0  0  0  0  0  0  0  0  0  0  0  0  # atno 8009 bound_to 7997
  155.7154  140.3470  155.4994 H   0  0  0  0  0  0  0  0  0  0  0  0  # atno 8010 bound_to 7997
  140.6628  143.2650  151.4387 H   0  0  0  0  0  0  0  0  0  0  0  0  # atno 10167 bound_to 10162
  156.0199  130.4447  150.3080 H   0  0  0  0  0  0  0  0  0  0  0  0  # atno 10718 bound_to 10713
  153.0563  135.6539  154.0570 H   0  0  0  0  0  0  0  0  0  0  0  0  # atno 10763 bound_to 10752
  154.0248  135.2916  155.3378 H   0  0  0  0  0  0  0  0  0  0  0  0  # atno 10764 bound_to 10752
  154.6879  135.5294  153.8419 H   0  0  0  0  0  0  0  0  0  0  0  0  # atno 10765 bound_to 10752
  140.9986  133.6967  156.1981 H   0  0  0  0  0  0  0  0  0  0  0  0  # atno 11005 bound_to 11000
  145.8977  139.2412  143.1512 LP  0  0  0  0  0  0  0  0  0  0  0  0  # atno 17320 bound_to 7965
  145.9841  140.8658  143.0099 LP  0  0  0  0  0  0  0  0  0  0  0  0  # atno 17321 bound_to 7965
  139.5867  144.1589  152.2038 LP  0  0  0  0  0  0  0  0  0  0  0  0  # atno 17342 bound_to 10162
  140.0931  144.5604  150.7041 LP  0  0  0  0  0  0  0  0  0  0  0  0  # atno 17343 bound_to 10162
  157.1182  131.0239  151.3020 LP  0  0  0  0  0  0  0  0  0  0  0  0  # atno 17370 bound_to 10713
  157.4650  130.7675  149.7270 LP  0  0  0  0  0  0  0  0  0  0  0  0  # atno 17371 bound_to 10713
  140.6925  134.4651  157.5588 LP  0  0  0  0  0  0  0  0  0  0  0  0  # atno 17394 bound_to 11000
  139.9027  134.8518  156.1828 LP  0  0  0  0  0  0  0  0  0  0  0  0  # atno 17395 bound_to 11000

$$$$
