AV-unprocessed.smi:1386|AV-procd|sdf|5639|dock4
  -GOLD-   22720 5253D 1   1.00000     0.00000
 Structure written by MMmdl.
 35 36  0  0  0  0  0  0  0  0  1 V2000
  148.9659  140.8540  157.6273 C   0  0  0  0  0  0  0  0  0  0  0  0
  150.2627  140.9008  156.8086 C   0  0  1  0  0  0  0  0  0  0  0  0
  150.0603  141.6357  155.4677 C   0  0  0  0  0  0  0  0  0  0  0  0
  148.9260  141.1262  154.7175 N   0  0  0  0  0  0  0  0  0  0  0  0
  147.8526  141.8526  154.2186 C   0  0  0  0  0  0  0  0  0  0  0  0
  147.0229  140.9488  153.5943 C   0  0  0  0  0  0  0  0  0  0  0  0
  147.5677  139.6703  153.6863 N   0  0  0  0  0  0  0  0  0  0  0  0
  148.6960  139.8558  154.3584 C   0  0  0  0  0  0  0  0  0  0  0  0
  151.3057  141.5579  157.5958 N   0  0  0  0  0  0  0  0  0  0  0  0
  151.2338  142.7899  158.1309 C   0  0  0  0  0  0  0  0  0  0  0  0
  150.2839  143.5455  157.9203 O   0  0  0  0  0  0  0  0  0  0  0  0
  152.2901  143.1299  158.9118 N   0  0  0  0  0  0  0  0  0  0  0  0
  153.2305  142.1898  159.5437 C   0  0  0  0  0  0  0  0  0  0  0  0
  152.7505  141.8862  160.9730 C   0  0  0  0  0  0  0  0  0  0  0  0
  152.7428  143.3939  161.9929 S   0  0  0  0  0  0  0  0  0  0  0  0
  151.8359  144.5141  160.8807 C   0  0  0  0  0  0  0  0  0  0  0  0
  152.4301  144.4832  159.4619 C   0  0  0  0  0  0  0  0  0  0  0  0
  148.1731  140.3476  157.0760 H   0  0  0  0  0  0  0  0  0  0  0  0
  148.6130  141.8564  157.8724 H   0  0  0  0  0  0  0  0  0  0  0  0
  149.1121  140.3134  158.5629 H   0  0  0  0  0  0  0  0  0  0  0  0
  150.5449  139.8687  156.5944 H   0  0  0  0  0  0  0  0  0  0  0  0
  149.8969  142.6998  155.6424 H   0  0  0  0  0  0  0  0  0  0  0  0
  150.9557  141.5538  154.8495 H   0  0  0  0  0  0  0  0  0  0  0  0
  147.7651  142.9205  154.3546 H   0  0  0  0  0  0  0  0  0  0  0  0
  146.0840  141.1193  153.0886 H   0  0  0  0  0  0  0  0  0  0  0  0
  149.3665  139.0453  154.6044 H   0  0  0  0  0  0  0  0  0  0  0  0
  152.1278  141.0093  157.8014 H   0  0  0  0  0  0  0  0  0  0  0  0
  153.3478  141.2621  158.9833 H   0  0  0  0  0  0  0  0  0  0  0  0
  154.2299  142.6262  159.5725 H   0  0  0  0  0  0  0  0  0  0  0  0
  151.7457  141.4642  160.9562 H   0  0  0  0  0  0  0  0  0  0  0  0
  153.3995  141.1484  161.4445 H   0  0  0  0  0  0  0  0  0  0  0  0
  150.7851  144.2217  160.8605 H   0  0  0  0  0  0  0  0  0  0  0  0
  151.8785  145.5237  161.2895 H   0  0  0  0  0  0  0  0  0  0  0  0
  153.4811  144.7746  159.4862 H   0  0  0  0  0  0  0  0  0  0  0  0
  151.9392  145.2286  158.8342 H   0  0  0  0  0  0  0  0  0  0  0  0
  1  2  1  0  0  0  0
  1 18  1  0  0  0  0
  1 19  1  0  0  0  0
  1 20  1  0  0  0  0
  2  3  1  0  0  0  0
  2  9  1  0  0  0  0
  2 21  1  0  0  0  0
  3  4  1  0  0  0  0
  3 22  1  0  0  0  0
  3 23  1  0  0  0  0
  4  8  1  0  0  0  0
  4  5  1  0  0  0  0
  5  6  2  0  0  0  0
  5 24  1  0  0  0  0
  6  7  1  0  0  0  0
  6 25  1  0  0  0  0
  7  8  2  0  0  0  0
  8 26  1  0  0  0  0
  9 10  1  0  0  0  0
  9 27  1  0  0  0  0
 10 11  2  0  0  0  0
 10 12  1  0  0  0  0
 12 17  1  0  0  0  0
 12 13  1  0  0  0  0
 13 14  1  0  0  0  0
 13 28  1  0  0  0  0
 13 29  1  0  0  0  0
 14 15  1  0  0  0  0
 14 30  1  0  0  0  0
 14 31  1  0  0  0  0
 15 16  1  0  0  0  0
 16 17  1  0  0  0  0
 16 32  1  0  0  0  0
 16 33  1  0  0  0  0
 17 34  1  0  0  0  0
 17 35  1  0  0  0  0
M  END
> <s_m_source_file>
AV-unprocessed.smi

> <i_m_source_file_index>
1386

> <i_lp_mmshare_version>
43012

> <i_f3d_flags>
0

> <s_epik_input>
W2NIXTFuW2NIXVtjSF1uMVtDSDJdW0NAQEhdKFtDSDNdKVtOSF1DKD1PKU4yW0NIMl1bQ0gyXVNbQ0gyXVtDSDJdMg==

> <s_epik_cmdline>
J2VwaWtfcHl0aG9uJywgJy1waCcsICc3LjAnLCAnLXRuJywgJzgnLCAnLW1hJywgJzIwMCcsICctbWV0YWxfYmluZGluZycsICctaW1hZScsICc8aW5maWxlLm1hZT4nLCAnLW9tYWUnLCAnPG91dGZpbGUubWFlPic=

> <r_lp_tautomer_probability>
1

> <r_epik_Ionization_Penalty>
0.622677

> <r_epik_Ionization_Penalty_Charging>
0.62263

> <r_epik_Ionization_Penalty_Neutral>
4.67019e-05

> <r_epik_State_Penalty>
0.63879

> <r_epik_Charging_Adjusted_Penalty>
1.26142

> <i_epik_Tot_Q>
0

> <i_epik_Tot_abs_Q>
0

> <r_epik_Metal_State_Penalty>
0.307117

> <b_epik_Metal_Only>
0

> <s_lp_Force_Field>
OPLS_2005

> <r_lp_Energy>
24.3831

> <b_lp_Chiralities_Consistent>
1

> <s_lp_Variant>
AV-unprocessed.smi:1386-4

> <Gold.Version>
5.8.1

> <Gold.Id.Protein>
6NUR|6NUR_protein|mol2

> <Gold.PLP.Fitness>
45.8064

> <Gold.PLP.PLP>
-40.1878

> <Gold.PLP.part.hbond>
0.0000

> <Gold.PLP.part.metal>
0.0000

> <Gold.PLP.part.buried>
-4.6982

> <Gold.PLP.part.nonpolar>
-37.2305

> <Gold.PLP.part.repulsive>
1.7613

> <Gold.PLP.ligand.clash>
0.0000

> <Gold.PLP.ligand.torsion>
0.1909

> <Gold.PLP.Chemscore.Hbond>
0.0000

> <Gold.PLP.Chemscore.CHOScore>
1.9768

> <Gold.PLP.Chemscore.Metal>
0.0000

> <Gold.Chemscore.Hbonds>
donor molecule, donor type, donor heavy atom, donor atom, acceptor molecule, acceptor atom, score
      L1  C     5    24       P1  8028  1.00
      L1  C     6    25       P1 10175  0.96

> <Gold.PLP.Chemscore.Internal.Correction>
0.0698

> <Gold.Rescore>
     Score         DG    S(hbond)    S(metal)    S(lipo)     H(rot)  DE(clash)    DE(int)     intcor
     10.58     -11.82       0.00        0.00      88.96       1.59       0.06       1.18       ----

> <Gold.Chemscore.Fitness>
10.5778

> <Gold.Chemscore.DG>
-11.8172

> <Gold.Chemscore.ZeroCoef>
-5.4800

> <Gold.Chemscore.Hbond>
0.0000

> <Gold.Chemscore.Metal>
0.0000

> <Gold.Chemscore.Lipo>
88.9556

> <Gold.Chemscore.Internal_Hbond>
0.0000

> <Gold.Chemscore.DEClash>
0.0570

> <Gold.Chemscore.DEInternal>
1.1824

> <Gold.Chemscore.Rot>
1.5901

> <Gold.Chemscore.Internal.Correction>
   9.000000E+99

> <Gold.Chemscore.Hbond.Weighted>
-0.0000

> <Gold.Chemscore.Metal.Weighted>
-0.0000

> <Gold.Chemscore.Lipo.Weighted>
-10.4078

> <Gold.Chemscore.Internal_Hbond.Weighted>
0.0000

> <Gold.Chemscore.DEClash.Weighted>
0.0570

> <Gold.Chemscore.DEInternal.Weighted>
1.1824

> <Gold.Chemscore.Rot.Weighted>
4.0706

> <Gold.Chemscore.Internal.Correction.Weighted>
   9.000000E+99

> <Gold.Protein.RotatedTorsions>
[ 6907 6896 6895 6894 ] final  -42.57 input  -60.11 | X-H torsion
[ 7974 7965 7964 7962 ] final  121.78 input  175.53 | X-H torsion
[ 8008 7997 7996 7995 ] final  -89.24 input   59.86 | X-H torsion
[ 10167 10162 10161 10158 ] final   65.71 input  -65.29 | X-H torsion
[ 10718 10713 10712 10709 ] final  -74.85 input   66.30 | X-H torsion
[ 10763 10752 10751 10750 ] final   56.38 input  -60.55 | X-H torsion
[ 11005 11000 10999 10996 ] final -120.76 input  -57.11 | X-H torsion

> <Gold.Protein.ActiveResidues>
 VAL166  LYS551  ARG553  GLY616  TRP617  ASP618  TYR619  PRO620  LYS621  CYS622 
 ASP623  PHE694  ASN695  SER759  ASP760  ASP761  ALA762  ILE779  LEU786  VAL792 
 PHE793  MET794  SER795  GLU796  ALA797  LYS798  CYS799  TRP800  GLU811  SER814 

> <Gold.Protein.RotatedAtoms>
  150.9537  134.8934  159.7687 H   0  0  0  0  0  0  0  0  0  0  0  0  # atno 6907 bound_to 6896
  152.5130  134.3770  159.9348 H   0  0  0  0  0  0  0  0  0  0  0  0  # atno 6908 bound_to 6896
  151.3785  133.3789  159.2742 H   0  0  0  0  0  0  0  0  0  0  0  0  # atno 6909 bound_to 6896
  145.1153  139.3425  143.4742 H   0  0  0  0  0  0  0  0  0  0  0  0  # atno 7974 bound_to 7965
  154.6842  140.0544  157.0297 H   0  0  0  0  0  0  0  0  0  0  0  0  # atno 8008 bound_to 7997
  155.0908  140.3219  155.4555 H   0  0  0  0  0  0  0  0  0  0  0  0  # atno 8009 bound_to 7997
  156.2705  140.2048  156.6035 H   0  0  0  0  0  0  0  0  0  0  0  0  # atno 8010 bound_to 7997
  140.1083  144.4841  150.6994 H   0  0  0  0  0  0  0  0  0  0  0  0  # atno 10167 bound_to 10162
  156.0228  130.4427  150.2955 H   0  0  0  0  0  0  0  0  0  0  0  0  # atno 10718 bound_to 10713
  152.9831  135.5678  154.5219 H   0  0  0  0  0  0  0  0  0  0  0  0  # atno 10763 bound_to 10752
  154.4706  135.2784  155.1648 H   0  0  0  0  0  0  0  0  0  0  0  0  # atno 10764 bound_to 10752
  154.3197  135.6271  153.5556 H   0  0  0  0  0  0  0  0  0  0  0  0  # atno 10765 bound_to 10752
  141.0120  134.0251  157.3401 H   0  0  0  0  0  0  0  0  0  0  0  0  # atno 11005 bound_to 11000
  146.3524  140.1090  142.8604 LP  0  0  0  0  0  0  0  0  0  0  0  0  # atno 17320 bound_to 7965
  145.0801  140.9215  143.4831 LP  0  0  0  0  0  0  0  0  0  0  0  0  # atno 17321 bound_to 7965
  140.6940  143.2392  151.5053 LP  0  0  0  0  0  0  0  0  0  0  0  0  # atno 17342 bound_to 10162
  139.5633  144.2103  152.1726 LP  0  0  0  0  0  0  0  0  0  0  0  0  # atno 17343 bound_to 10162
  157.1058  131.0208  151.3068 LP  0  0  0  0  0  0  0  0  0  0  0  0  # atno 17370 bound_to 10713
  157.4744  130.7728  149.7354 LP  0  0  0  0  0  0  0  0  0  0  0  0  # atno 17371 bound_to 10713
  139.9095  135.0187  156.7631 LP  0  0  0  0  0  0  0  0  0  0  0  0  # atno 17394 bound_to 11000
  140.6718  133.9552  155.7861 LP  0  0  0  0  0  0  0  0  0  0  0  0  # atno 17395 bound_to 11000

$$$$
