AV-unprocessed.smi:518|AV-procd|sdf|2793|dock3
  -GOLD-   2262023263D 1   1.00000     0.00000
 Structure written by MMmdl.
 40 42  0  0  0  0  0  0  0  0  1 V2000
  154.0696  138.7473  157.7837 O   0  0  0  0  0  0  0  0  0  0  0  0
  152.7388  138.6134  157.3352 C   0  0  0  0  0  0  0  0  0  0  0  0
  151.7884  139.3103  158.3178 C   0  0  0  0  0  0  0  0  0  0  0  0
  151.5491  140.6940  157.9385 N   0  0  0  0  0  0  0  0  0  0  0  0
  151.0937  141.1759  156.7549 C   0  0  0  0  0  0  0  0  0  0  0  0
  150.7516  140.2761  155.6034 C   0  0  0  0  0  0  0  0  0  0  0  0
  149.3526  140.3469  155.1831 N   0  0  0  0  0  0  0  0  0  0  0  0
  149.1147  139.3245  154.1612 C   0  0  0  0  0  0  0  0  0  0  0  0
  147.6289  139.3007  153.7611 C   0  0  0  0  0  0  0  0  0  0  0  0
  147.1860  140.6699  153.2335 C   0  0  0  0  0  0  0  0  0  0  0  0
  147.5443  141.7507  154.2597 C   0  0  0  0  0  0  0  0  0  0  0  0
  149.0333  141.6725  154.6408 C   0  0  0  0  0  0  0  0  0  0  0  0
  150.9766  142.5021  156.6747 N   0  0  0  0  0  0  0  0  0  0  0  0
  151.3910  142.9193  157.9244 C   0  0  0  0  0  0  0  0  0  0  0  0
  151.4962  144.2183  158.4705 C   0  0  0  0  0  0  0  0  0  0  0  0
  151.9583  144.4021  159.7904 C   0  0  0  0  0  0  0  0  0  0  0  0
  152.3214  143.2922  160.5813 C   0  0  0  0  0  0  0  0  0  0  0  0
  152.8869  143.5299  162.1937 Cl  0  0  0  0  0  0  0  0  0  0  0  0
  152.2232  141.9892  160.0561 C   0  0  0  0  0  0  0  0  0  0  0  0
  151.7595  141.8115  158.7392 C   0  0  0  0  0  0  0  0  0  0  0  0
  154.1361  138.3675  158.6464 H   0  0  0  0  0  0  0  0  0  0  0  0
  152.6541  139.0522  156.3403 H   0  0  0  0  0  0  0  0  0  0  0  0
  152.4981  137.5537  157.2478 H   0  0  0  0  0  0  0  0  0  0  0  0
  150.8394  138.7779  158.3779 H   0  0  0  0  0  0  0  0  0  0  0  0
  152.2092  139.2960  159.3239 H   0  0  0  0  0  0  0  0  0  0  0  0
  151.4043  140.5099  154.7606 H   0  0  0  0  0  0  0  0  0  0  0  0
  150.9888  139.2536  155.8996 H   0  0  0  0  0  0  0  0  0  0  0  0
  149.7406  139.5122  153.2871 H   0  0  0  0  0  0  0  0  0  0  0  0
  149.3943  138.3449  154.5511 H   0  0  0  0  0  0  0  0  0  0  0  0
  147.4591  138.5366  153.0021 H   0  0  0  0  0  0  0  0  0  0  0  0
  147.0213  139.0225  154.6234 H   0  0  0  0  0  0  0  0  0  0  0  0
  147.6861  140.8801  152.2874 H   0  0  0  0  0  0  0  0  0  0  0  0
  146.1145  140.6740  153.0324 H   0  0  0  0  0  0  0  0  0  0  0  0
  147.3137  142.7371  153.8566 H   0  0  0  0  0  0  0  0  0  0  0  0
  146.9303  141.6302  155.1533 H   0  0  0  0  0  0  0  0  0  0  0  0
  149.2444  142.4428  155.3824 H   0  0  0  0  0  0  0  0  0  0  0  0
  149.6598  141.8844  153.7726 H   0  0  0  0  0  0  0  0  0  0  0  0
  151.2223  145.0747  157.8724 H   0  0  0  0  0  0  0  0  0  0  0  0
  152.0351  145.4002  160.1963 H   0  0  0  0  0  0  0  0  0  0  0  0
  152.5016  141.1360  160.6569 H   0  0  0  0  0  0  0  0  0  0  0  0
  1  2  1  0  0  0  0
  1 21  1  0  0  0  0
  2  3  1  0  0  0  0
  2 22  1  0  0  0  0
  2 23  1  0  0  0  0
  3  4  1  0  0  0  0
  3 24  1  0  0  0  0
  3 25  1  0  0  0  0
  4 20  1  0  0  0  0
  4  5  1  0  0  0  0
  5  6  1  0  0  0  0
  5 13  2  0  0  0  0
  6  7  1  0  0  0  0
  6 26  1  0  0  0  0
  6 27  1  0  0  0  0
  7 12  1  0  0  0  0
  7  8  1  0  0  0  0
  8  9  1  0  0  0  0
  8 28  1  0  0  0  0
  8 29  1  0  0  0  0
  9 10  1  0  0  0  0
  9 30  1  0  0  0  0
  9 31  1  0  0  0  0
 10 11  1  0  0  0  0
 10 32  1  0  0  0  0
 10 33  1  0  0  0  0
 11 12  1  0  0  0  0
 11 34  1  0  0  0  0
 11 35  1  0  0  0  0
 12 36  1  0  0  0  0
 12 37  1  0  0  0  0
 13 14  1  0  0  0  0
 14 20  2  0  0  0  0
 14 15  1  0  0  0  0
 15 16  2  0  0  0  0
 15 38  1  0  0  0  0
 16 17  1  0  0  0  0
 16 39  1  0  0  0  0
 17 18  1  0  0  0  0
 17 19  2  0  0  0  0
 19 20  1  0  0  0  0
 19 40  1  0  0  0  0
M  END
> <s_m_source_file>
AV-unprocessed.smi

> <i_m_source_file_index>
518

> <i_lp_mmshare_version>
43012

> <i_f3d_flags>
0

> <s_epik_input>
W2NIXTFbY0hdYyhDbClbY0hdYyhjMTIpbihbQ0gyXVtDSDJdW09IXSljKG4yKVtDSDJdTjNbQ0gyXVtDSDJdW0NIMl1bQ0gyXVtDSDJdMw==

> <s_epik_cmdline>
J2VwaWtfcHl0aG9uJywgJy1waCcsICc3LjAnLCAnLXRuJywgJzgnLCAnLW1hJywgJzIwMCcsICctbWV0YWxfYmluZGluZycsICctaW1hZScsICc8aW5maWxlLm1hZT4nLCAnLW9tYWUnLCAnPG91dGZpbGUubWFlPic=

> <r_epik_Ionization_Penalty>
0.921249

> <r_epik_Ionization_Penalty_Charging>
0

> <r_epik_Ionization_Penalty_Neutral>
0.921249

> <r_epik_State_Penalty>
0.872823

> <r_epik_Charging_Adjusted_Penalty>
0.872823

> <i_epik_Tot_Q>
0

> <i_epik_Tot_abs_Q>
0

> <r_epik_Metal_State_Penalty>
0.771629

> <b_epik_Metal_Only>
0

> <s_lp_Force_Field>
OPLS_2005

> <r_lp_Energy>
19.1482

> <b_lp_Chiralities_Consistent>
1

> <s_lp_Variant>
AV-unprocessed.smi:518-2

> <Gold.Version>
5.8.1

> <Gold.Id.Protein>
6NUR|6NUR_protein|mol2

> <Gold.PLP.Fitness>
48.1440

> <Gold.PLP.PLP>
-45.6217

> <Gold.PLP.part.hbond>
-1.0000

> <Gold.PLP.part.metal>
0.0000

> <Gold.PLP.part.buried>
-2.1686

> <Gold.PLP.part.nonpolar>
-41.4924

> <Gold.PLP.part.repulsive>
0.1916

> <Gold.PLP.ligand.clash>
0.0000

> <Gold.PLP.ligand.torsion>
0.2434

> <Gold.PLP.Chemscore.Hbond>
1.0000

> <Gold.PLP.Chemscore.CHOScore>
0.0000

> <Gold.PLP.Chemscore.Metal>
0.0000

> <Gold.Chemscore.Hbonds>
donor molecule, donor type, donor heavy atom, donor atom, acceptor molecule, acceptor atom, score
      P1  H  7997  8009       L1     1  1.00

> <Gold.PLP.Chemscore.Internal.Correction>
0.0090

> <Gold.Rescore>
     Score         DG    S(hbond)    S(metal)    S(lipo)     H(rot)  DE(clash)    DE(int)     intcor
     15.94     -18.22       0.90        0.00     127.36       2.02       0.13       2.14       ----

> <Gold.Chemscore.Fitness>
15.9433

> <Gold.Chemscore.DG>
-18.2196

> <Gold.Chemscore.ZeroCoef>
-5.4800

> <Gold.Chemscore.Hbond>
0.9030

> <Gold.Chemscore.Metal>
0.0000

> <Gold.Chemscore.Lipo>
127.3575

> <Gold.Chemscore.Internal_Hbond>
0.0000

> <Gold.Chemscore.DEClash>
0.1344

> <Gold.Chemscore.DEInternal>
2.1418

> <Gold.Chemscore.Rot>
2.0224

> <Gold.Chemscore.Internal.Correction>
   9.000000E+99

> <Gold.Chemscore.Hbonds>
donor molecule, donor type, donor heavy atom, donor atom, acceptor molecule, acceptor atom, score
      P1  H  7997  8009       L1     1  0.65

> <Gold.Chemscore.Hbond.Weighted>
-3.0162

> <Gold.Chemscore.Metal.Weighted>
-0.0000

> <Gold.Chemscore.Lipo.Weighted>
-14.9008

> <Gold.Chemscore.Internal_Hbond.Weighted>
0.0000

> <Gold.Chemscore.DEClash.Weighted>
0.1344

> <Gold.Chemscore.DEInternal.Weighted>
2.1418

> <Gold.Chemscore.Rot.Weighted>
5.1775

> <Gold.Chemscore.Internal.Correction.Weighted>
   9.000000E+99

> <Gold.Protein.RotatedTorsions>
[ 6907 6896 6895 6894 ] final  -31.07 input  -60.11 | X-H torsion
[ 7974 7965 7964 7962 ] final  144.72 input  175.53 | X-H torsion
[ 8008 7997 7996 7995 ] final  145.94 input   59.86 | X-H torsion
[ 10167 10162 10161 10158 ] final   93.15 input  -65.29 | X-H torsion
[ 10718 10713 10712 10709 ] final  -87.00 input   66.30 | X-H torsion
[ 10763 10752 10751 10750 ] final  148.59 input  -60.55 | X-H torsion
[ 11005 11000 10999 10996 ] final  -34.81 input  -57.11 | X-H torsion

> <Gold.Protein.ActiveResidues>
 VAL166  LYS551  ARG553  GLY616  TRP617  ASP618  TYR619  PRO620  LYS621  CYS622 
 ASP623  PHE694  ASN695  SER759  ASP760  ASP761  ALA762  ILE779  LEU786  VAL792 
 PHE793  MET794  SER795  GLU796  ALA797  LYS798  CYS799  TRP800  GLU811  SER814 

> <Gold.Protein.RotatedAtoms>
  151.0970  134.9950  159.8430 H   0  0  0  0  0  0  0  0  0  0  0  0  # atno 6907 bound_to 6896
  152.5434  134.1996  159.8717 H   0  0  0  0  0  0  0  0  0  0  0  0  # atno 6908 bound_to 6896
  151.2036  133.4552  159.2630 H   0  0  0  0  0  0  0  0  0  0  0  0  # atno 6909 bound_to 6896
  144.8812  139.5697  143.5842 H   0  0  0  0  0  0  0  0  0  0  0  0  # atno 7974 bound_to 7965
  156.2869  140.2195  156.5297 H   0  0  0  0  0  0  0  0  0  0  0  0  # atno 8008 bound_to 7997
  154.7459  140.0484  157.0874 H   0  0  0  0  0  0  0  0  0  0  0  0  # atno 8009 bound_to 7997
  155.0171  140.3119  155.4811 H   0  0  0  0  0  0  0  0  0  0  0  0  # atno 8010 bound_to 7997
  139.8208  144.6732  150.9522 H   0  0  0  0  0  0  0  0  0  0  0  0  # atno 10167 bound_to 10162
  155.9987  130.4784  150.4800 H   0  0  0  0  0  0  0  0  0  0  0  0  # atno 10718 bound_to 10713
  154.0572  135.2877  155.3331 H   0  0  0  0  0  0  0  0  0  0  0  0  # atno 10763 bound_to 10752
  154.6831  135.5255  153.8293 H   0  0  0  0  0  0  0  0  0  0  0  0  # atno 10764 bound_to 10752
  153.0537  135.6586  154.0764 H   0  0  0  0  0  0  0  0  0  0  0  0  # atno 10765 bound_to 10752
  140.9746  133.7090  156.1581 H   0  0  0  0  0  0  0  0  0  0  0  0  # atno 11005 bound_to 11000
  146.2995  139.7383  142.9101 LP  0  0  0  0  0  0  0  0  0  0  0  0  # atno 17320 bound_to 7965
  145.3951  141.0378  143.3102 LP  0  0  0  0  0  0  0  0  0  0  0  0  # atno 17321 bound_to 7965
  140.7813  143.4094  151.1018 LP  0  0  0  0  0  0  0  0  0  0  0  0  # atno 17342 bound_to 10162
  139.7754  143.8432  152.3128 LP  0  0  0  0  0  0  0  0  0  0  0  0  # atno 17343 bound_to 10162
  157.2806  131.0606  151.2200 LP  0  0  0  0  0  0  0  0  0  0  0  0  # atno 17370 bound_to 10713
  157.3247  130.6955  149.6289 LP  0  0  0  0  0  0  0  0  0  0  0  0  # atno 17371 bound_to 10713
  140.7277  134.4288  157.5569 LP  0  0  0  0  0  0  0  0  0  0  0  0  # atno 17394 bound_to 11000
  139.8925  134.8752  156.2265 LP  0  0  0  0  0  0  0  0  0  0  0  0  # atno 17395 bound_to 11000

$$$$
