AV-unprocessed.smi:1231|AV-procd|sdf|5161|dock10
  -GOLD-   22720 4233D 1   1.00000     0.00000
 Structure written by MMmdl.
 42 43  0  0  0  0  0  0  0  0  1 V2000
  150.7605  142.5880  155.9004 C   0  0  0  0  0  0  0  0  0  0  0  0
  150.1869  141.2087  155.5597 C   0  0  1  0  0  0  0  0  0  0  0  0
  149.1562  141.2731  154.4161 C   0  0  0  0  0  0  0  0  0  0  0  0
  148.6726  139.9470  154.0402 N   0  0  0  0  0  0  0  0  0  0  0  0
  147.7111  139.9899  152.9401 C   0  0  0  0  0  0  0  0  0  0  0  0
  146.4862  139.0720  153.1115 C   0  0  0  0  0  0  0  0  0  0  0  0
  146.7360  137.7463  152.5589 N   0  0  0  0  0  0  0  0  0  0  0  0
  145.7971  136.8133  152.3440 C   0  0  0  0  0  0  0  0  0  0  0  0
  144.6032  136.9827  152.5942 O   0  0  0  0  0  0  0  0  0  0  0  0
  146.3338  135.6920  151.8310 N   0  0  0  0  0  0  0  0  0  0  0  0
  145.6726  134.4877  151.4709 C   0  0  0  0  0  0  0  0  0  0  0  0
  146.5267  133.4166  151.1234 C   0  0  0  0  0  0  0  0  0  0  0  0
  145.9687  132.1785  150.7499 C   0  0  0  0  0  0  0  0  0  0  0  0
  144.5691  132.0429  150.7343 C   0  0  0  0  0  0  0  0  0  0  0  0
  143.7908  133.1581  151.0956 C   0  0  0  0  0  0  0  0  0  0  0  0
  144.3235  134.3455  151.4530 N   0  0  0  0  0  0  0  0  0  0  0  0
  149.8154  139.1071  153.6995 C   0  0  0  0  0  0  0  0  0  0  0  0
  150.8438  139.0368  154.8443 C   0  0  1  0  0  0  0  0  0  0  0  0
  152.0816  138.2182  154.4629 C   0  0  0  0  0  0  0  0  0  0  0  0
  151.2628  140.3584  155.1724 O   0  0  0  0  0  0  0  0  0  0  0  0
  149.9742  143.2719  156.2207 H   0  0  0  0  0  0  0  0  0  0  0  0
  151.2601  143.0313  155.0387 H   0  0  0  0  0  0  0  0  0  0  0  0
  151.4889  142.5173  156.7085 H   0  0  0  0  0  0  0  0  0  0  0  0
  149.7151  140.7956  156.4529 H   0  0  0  0  0  0  0  0  0  0  0  0
  148.3251  141.9018  154.7339 H   0  0  0  0  0  0  0  0  0  0  0  0
  149.6046  141.7610  153.5492 H   0  0  0  0  0  0  0  0  0  0  0  0
  147.3792  141.0172  152.7811 H   0  0  0  0  0  0  0  0  0  0  0  0
  148.2225  139.6967  152.0222 H   0  0  0  0  0  0  0  0  0  0  0  0
  146.2114  138.9936  154.1646 H   0  0  0  0  0  0  0  0  0  0  0  0
  145.6199  139.4795  152.5917 H   0  0  0  0  0  0  0  0  0  0  0  0
  147.6925  137.5241  152.3249 H   0  0  0  0  0  0  0  0  0  0  0  0
  147.3317  135.7004  151.6808 H   0  0  0  0  0  0  0  0  0  0  0  0
  147.6002  133.5378  151.1412 H   0  0  0  0  0  0  0  0  0  0  0  0
  146.6044  131.3479  150.4804 H   0  0  0  0  0  0  0  0  0  0  0  0
  144.1040  131.1096  150.4536 H   0  0  0  0  0  0  0  0  0  0  0  0
  142.7125  133.0960  151.0978 H   0  0  0  0  0  0  0  0  0  0  0  0
  149.4732  138.0990  153.4621 H   0  0  0  0  0  0  0  0  0  0  0  0
  150.2994  139.4909  152.7997 H   0  0  0  0  0  0  0  0  0  0  0  0
  150.3818  138.5837  155.7232 H   0  0  0  0  0  0  0  0  0  0  0  0
  151.8108  137.1923  154.2119 H   0  0  0  0  0  0  0  0  0  0  0  0
  152.7931  138.1813  155.2881 H   0  0  0  0  0  0  0  0  0  0  0  0
  152.5918  138.6509  153.6018 H   0  0  0  0  0  0  0  0  0  0  0  0
  1  2  1  0  0  0  0
  1 21  1  0  0  0  0
  1 22  1  0  0  0  0
  1 23  1  0  0  0  0
  2 20  1  0  0  0  0
  2  3  1  0  0  0  0
  2 24  1  0  0  0  0
  3  4  1  0  0  0  0
  3 25  1  0  0  0  0
  3 26  1  0  0  0  0
  4  5  1  0  0  0  0
  4 17  1  0  0  0  0
  5  6  1  0  0  0  0
  5 27  1  0  0  0  0
  5 28  1  0  0  0  0
  6  7  1  0  0  0  0
  6 29  1  0  0  0  0
  6 30  1  0  0  0  0
  7  8  1  0  0  0  0
  7 31  1  0  0  0  0
  8  9  2  0  0  0  0
  8 10  1  0  0  0  0
 10 11  1  0  0  0  0
 10 32  1  0  0  0  0
 11 16  1  0  0  0  0
 11 12  2  0  0  0  0
 12 13  1  0  0  0  0
 12 33  1  0  0  0  0
 13 14  2  0  0  0  0
 13 34  1  0  0  0  0
 14 15  1  0  0  0  0
 14 35  1  0  0  0  0
 15 16  2  0  0  0  0
 15 36  1  0  0  0  0
 17 18  1  0  0  0  0
 17 37  1  0  0  0  0
 17 38  1  0  0  0  0
 18 19  1  0  0  0  0
 18 20  1  0  0  0  0
 18 39  1  0  0  0  0
 19 40  1  0  0  0  0
 19 41  1  0  0  0  0
 19 42  1  0  0  0  0
M  END
> <s_m_source_file>
AV-unprocessed.smi

> <i_m_source_file_index>
1231

> <i_lp_mmshare_version>
43012

> <i_f3d_flags>
0

> <s_epik_input>
W0NIM11bQ0BASF0xW0NIMl1OKFtDSDJdW0NASF0oTzEpW0NIM10pW0NIMl1bQ0gyXVtOSF1DKD1PKVtOSF1jMltjSF1bY0hdW2NIXVtjSF1uMg==

> <s_epik_cmdline>
J2VwaWtfcHl0aG9uJywgJy1waCcsICc3LjAnLCAnLXRuJywgJzgnLCAnLW1hJywgJzIwMCcsICctbWV0YWxfYmluZGluZycsICctaW1hZScsICc8aW5maWxlLm1hZT4nLCAnLW9tYWUnLCAnPG91dGZpbGUubWFlPic=

> <r_epik_Ionization_Penalty>
0.266037

> <r_epik_Ionization_Penalty_Charging>
0

> <r_epik_Ionization_Penalty_Neutral>
0.266037

> <r_epik_State_Penalty>
0.257924

> <r_epik_Charging_Adjusted_Penalty>
0.257924

> <i_epik_Tot_Q>
0

> <i_epik_Tot_abs_Q>
0

> <r_epik_Metal_State_Penalty>
0.257923

> <b_epik_Metal_Only>
0

> <s_lp_Force_Field>
OPLS_2005

> <r_lp_Energy>
20.5827

> <b_lp_Chiralities_Consistent>
1

> <s_lp_Variant>
AV-unprocessed.smi:1231-2

> <Gold.Version>
5.8.1

> <Gold.Id.Protein>
6NUR|6NUR_protein|mol2

> <Gold.PLP.Fitness>
45.5363

> <Gold.PLP.PLP>
-35.6195

> <Gold.PLP.part.hbond>
-3.0000

> <Gold.PLP.part.metal>
0.0000

> <Gold.PLP.part.buried>
-0.5309

> <Gold.PLP.part.nonpolar>
-32.9972

> <Gold.PLP.part.repulsive>
0.6190

> <Gold.PLP.ligand.clash>
0.0000

> <Gold.PLP.ligand.torsion>
0.8570

> <Gold.PLP.Chemscore.Hbond>
2.8760

> <Gold.PLP.Chemscore.CHOScore>
0.9995

> <Gold.PLP.Chemscore.Metal>
0.0000

> <Gold.Chemscore.Hbonds>
donor molecule, donor type, donor heavy atom, donor atom, acceptor molecule, acceptor atom, score
      L1  H     7    31       P1  7948  0.98
      L1  H    10    32       P1  7948  1.00
      P1  H  7989  7998       L1    20  0.85
      L1  C    15    36       P1 10186  0.68

> <Gold.PLP.Chemscore.Internal.Correction>
0.0045

> <Gold.Rescore>
     Score         DG    S(hbond)    S(metal)    S(lipo)     H(rot)  DE(clash)    DE(int)     intcor
     16.63     -18.95       2.10        0.00      88.52       1.52       0.27       2.05       ----

> <Gold.Chemscore.Fitness>
16.6340

> <Gold.Chemscore.DG>
-18.9537

> <Gold.Chemscore.ZeroCoef>
-5.4800

> <Gold.Chemscore.Hbond>
2.0954

> <Gold.Chemscore.Metal>
0.0000

> <Gold.Chemscore.Lipo>
88.5173

> <Gold.Chemscore.Internal_Hbond>
0.0000

> <Gold.Chemscore.DEClash>
0.2712

> <Gold.Chemscore.DEInternal>
2.0485

> <Gold.Chemscore.Rot>
1.5162

> <Gold.Chemscore.Internal.Correction>
   9.000000E+99

> <Gold.Chemscore.Hbonds>
donor molecule, donor type, donor heavy atom, donor atom, acceptor molecule, acceptor atom, score
      L1  H     7    31       P1  7948  0.93
      L1  H    10    32       P1  7948  0.99
      P1  H  7989  7998       L1    20  0.06

> <Gold.Chemscore.Hbond.Weighted>
-6.9986

> <Gold.Chemscore.Metal.Weighted>
-0.0000

> <Gold.Chemscore.Lipo.Weighted>
-10.3565

> <Gold.Chemscore.Internal_Hbond.Weighted>
0.0000

> <Gold.Chemscore.DEClash.Weighted>
0.2712

> <Gold.Chemscore.DEInternal.Weighted>
2.0485

> <Gold.Chemscore.Rot.Weighted>
3.8814

> <Gold.Chemscore.Internal.Correction.Weighted>
   9.000000E+99

> <Gold.Protein.RotatedTorsions>
[ 6907 6896 6895 6894 ] final   82.81 input  -60.11 | X-H torsion
[ 7974 7965 7964 7962 ] final  -75.87 input  175.53 | X-H torsion
[ 8008 7997 7996 7995 ] final  -88.15 input   59.86 | X-H torsion
[ 10167 10162 10161 10158 ] final  107.47 input  -65.29 | X-H torsion
[ 10718 10713 10712 10709 ] final  149.44 input   66.30 | X-H torsion
[ 10763 10752 10751 10750 ] final   41.92 input  -60.55 | X-H torsion
[ 11005 11000 10999 10996 ] final  -76.96 input  -57.11 | X-H torsion

> <Gold.Protein.ActiveResidues>
 VAL166  LYS551  ARG553  GLY616  TRP617  ASP618  TYR619  PRO620  LYS621  CYS622 
 ASP623  PHE694  ASN695  SER759  ASP760  ASP761  ALA762  ILE779  LEU786  VAL792 
 PHE793  MET794  SER795  GLU796  ALA797  LYS798  CYS799  TRP800  GLU811  SER814 

> <Gold.Protein.RotatedAtoms>
  152.5310  134.2992  159.9071 H   0  0  0  0  0  0  0  0  0  0  0  0  # atno 6907 bound_to 6896
  151.2943  133.4144  159.2643 H   0  0  0  0  0  0  0  0  0  0  0  0  # atno 6908 bound_to 6896
  151.0173  134.9459  159.8097 H   0  0  0  0  0  0  0  0  0  0  0  0  # atno 6909 bound_to 6896
  145.6204  140.9364  143.1141 H   0  0  0  0  0  0  0  0  0  0  0  0  # atno 7974 bound_to 7965
  154.6714  140.0557  157.0170 H   0  0  0  0  0  0  0  0  0  0  0  0  # atno 8008 bound_to 7997
  155.1083  140.3235  155.4510 H   0  0  0  0  0  0  0  0  0  0  0  0  # atno 8009 bound_to 7997
  156.2659  140.2019  156.6207 H   0  0  0  0  0  0  0  0  0  0  0  0  # atno 8010 bound_to 7997
  139.6925  144.7106  151.1324 H   0  0  0  0  0  0  0  0  0  0  0  0  # atno 10167 bound_to 10162
  157.2961  131.0862  151.1425 H   0  0  0  0  0  0  0  0  0  0  0  0  # atno 10718 bound_to 10713
  152.9896  135.6147  154.2866 H   0  0  0  0  0  0  0  0  0  0  0  0  # atno 10763 bound_to 10752
  154.2593  135.2783  155.2786 H   0  0  0  0  0  0  0  0  0  0  0  0  # atno 10764 bound_to 10752
  154.5219  135.5812  153.6745 H   0  0  0  0  0  0  0  0  0  0  0  0  # atno 10765 bound_to 10752
  141.1657  133.7004  156.7748 H   0  0  0  0  0  0  0  0  0  0  0  0  # atno 11005 bound_to 11000
  144.7233  139.7956  143.7374 LP  0  0  0  0  0  0  0  0  0  0  0  0  # atno 17320 bound_to 7965
  146.1436  139.4499  143.0093 LP  0  0  0  0  0  0  0  0  0  0  0  0  # atno 17321 bound_to 7965
  140.7687  143.5539  150.9174 LP  0  0  0  0  0  0  0  0  0  0  0  0  # atno 17342 bound_to 10162
  139.9217  143.6598  152.3095 LP  0  0  0  0  0  0  0  0  0  0  0  0  # atno 17343 bound_to 10162
  157.2803  130.6746  149.6062 LP  0  0  0  0  0  0  0  0  0  0  0  0  # atno 17370 bound_to 10713
  155.9669  130.4452  150.5491 LP  0  0  0  0  0  0  0  0  0  0  0  0  # atno 17371 bound_to 10713
  140.2437  134.8593  157.3599 LP  0  0  0  0  0  0  0  0  0  0  0  0  # atno 17394 bound_to 11000
  140.1770  134.4537  155.7795 LP  0  0  0  0  0  0  0  0  0  0  0  0  # atno 17395 bound_to 11000

$$$$
