AV-unprocessed.smi:3298|AV-procd|sdf|12644|dock8
  -GOLD-   2272018573D 1   1.00000     0.00000
 Structure written by MMmdl.
 36 37  0  0  0  0  0  0  0  0  2 V2000
  147.0893  139.3083  152.7894 C   0  0  0  0  0  0  0  0  0  0  0  0
  148.3638  139.3062  153.6071 C   0  0  0  0  0  0  0  0  0  0  0  0
  148.7133  140.3745  154.4605 C   0  0  0  0  0  0  0  0  0  0  0  0
  149.9235  140.3196  155.1865 C   0  0  0  0  0  0  0  0  0  0  0  0
  150.2358  141.4093  156.0422 N   0  0  0  0  0  0  0  0  0  0  0  0
  151.3234  141.5619  156.8168 C   0  0  0  0  0  0  0  0  0  0  0  0
  152.2497  140.7555  156.9030 O   0  0  0  0  0  0  0  0  0  0  0  0
  151.2950  142.7287  157.4758 N   0  0  0  0  0  0  0  0  0  0  0  0
  152.3567  143.2145  158.3504 C   0  0  2  0  0  0  0  0  0  0  0  0
  152.4969  142.3245  159.5546 C   0  0  0  0  0  0  0  0  0  0  0  0
  152.3612  142.9858  160.7016 C   0  0  0  0  0  0  0  0  0  0  0  0
  152.0912  144.4554  160.5021 C   0  0  2  0  0  0  0  0  0  0  0  0
  150.8025  144.9244  161.1998 C   0  0  0  0  0  0  0  0  0  0  0  0
  149.7176  144.0881  160.8566 O   0  0  0  0  0  0  0  0  0  0  0  0
  152.0365  144.6051  158.9601 C   0  0  0  0  0  0  0  0  0  0  0  0
  150.7413  139.1689  155.0590 C   0  0  0  0  0  0  0  0  0  0  0  0
  150.3392  138.1305  154.1952 C   0  0  0  0  0  0  0  0  0  0  0  0
  149.1822  138.2357  153.5071 N   0  3  0  0  0  0  0  0  0  0  0  0
  153.3110  143.2298  157.8210 H   0  0  0  0  0  0  0  0  0  0  0  0
  152.9444  145.0123  160.8921 H   0  0  0  0  0  0  0  0  0  0  0  0
  146.6519  140.3064  152.7493 H   0  0  0  0  0  0  0  0  0  0  0  0
  146.3573  138.6306  153.2292 H   0  0  0  0  0  0  0  0  0  0  0  0
  147.2881  138.9851  151.7671 H   0  0  0  0  0  0  0  0  0  0  0  0
  148.0628  141.2329  154.5488 H   0  0  0  0  0  0  0  0  0  0  0  0
  149.6061  142.1971  155.9968 H   0  0  0  0  0  0  0  0  0  0  0  0
  150.4975  143.3344  157.3489 H   0  0  0  0  0  0  0  0  0  0  0  0
  152.7032  141.2676  159.4686 H   0  0  0  0  0  0  0  0  0  0  0  0
  152.4387  142.5441  161.6843 H   0  0  0  0  0  0  0  0  0  0  0  0
  150.9284  144.8989  162.2824 H   0  0  0  0  0  0  0  0  0  0  0  0
  150.5639  145.9527  160.9259 H   0  0  0  0  0  0  0  0  0  0  0  0
  149.3706  144.3715  160.0245 H   0  0  0  0  0  0  0  0  0  0  0  0
  152.7583  145.3484  158.6197 H   0  0  0  0  0  0  0  0  0  0  0  0
  151.0548  144.9593  158.6410 H   0  0  0  0  0  0  0  0  0  0  0  0
  151.6599  139.0615  155.6159 H   0  0  0  0  0  0  0  0  0  0  0  0
  150.9033  137.2228  154.0391 H   0  0  0  0  0  0  0  0  0  0  0  0
  148.9124  137.4714  152.8873 H   0  0  0  0  0  0  0  0  0  0  0  0
  1  2  1  0  0  0  0
  1 21  1  0  0  0  0
  1 22  1  0  0  0  0
  1 23  1  0  0  0  0
  2 18  1  0  0  0  0
  2  3  2  0  0  0  0
  3  4  1  0  0  0  0
  3 24  1  0  0  0  0
  4  5  1  0  0  0  0
  4 16  2  0  0  0  0
  5  6  1  0  0  0  0
  5 25  1  0  0  0  0
  6  7  2  0  0  0  0
  6  8  1  0  0  0  0
  8  9  1  0  0  0  0
  8 26  1  0  0  0  0
  9 19  1  0  0  0  0
  9 15  1  0  0  0  0
  9 10  1  0  0  0  0
 10 11  2  0  0  0  0
 10 27  1  0  0  0  0
 11 12  1  0  0  0  0
 11 28  1  0  0  0  0
 12 20  1  0  0  0  0
 12 13  1  0  0  0  0
 12 15  1  0  0  0  0
 13 14  1  0  0  0  0
 13 29  1  0  0  0  0
 13 30  1  0  0  0  0
 14 31  1  0  0  0  0
 15 32  1  0  0  0  0
 15 33  1  0  0  0  0
 16 17  1  0  0  0  0
 16 34  1  0  0  0  0
 17 18  2  0  0  0  0
 17 35  1  0  0  0  0
 18 36  1  0  0  0  0
M  CHG  1  18   1
M  END
> <s_m_source_file>
AV-unprocessed.smi

> <i_m_source_file_index>
3298

> <i_lp_mmshare_version>
43012

> <i_f3d_flags>
0

> <s_epik_input>
W0NIM11jMVtjSF1jKFtjSF1bY0hdbjEpW05IXUMoPU8pW05IXVtDQEBIXTJbQ0hdPVtDSF1bQ0BASF0oW0NIMl0yKVtDSDJdW09IXQ==

> <s_epik_cmdline>
J2VwaWtfcHl0aG9uJywgJy1waCcsICc3LjAnLCAnLXRuJywgJzgnLCAnLW1hJywgJzIwMCcsICctbWV0YWxfYmluZGluZycsICctaW1hZScsICc8aW5maWxlLm1hZT4nLCAnLW9tYWUnLCAnPG91dGZpbGUubWFlPic=

> <r_epik_Ionization_Penalty>
0.443901

> <r_epik_Ionization_Penalty_Charging>
0.443881

> <r_epik_Ionization_Penalty_Neutral>
1.94967e-05

> <r_epik_State_Penalty>
0.446172

> <r_epik_Charging_Adjusted_Penalty>
0.890053

> <i_epik_Tot_Q>
1

> <i_epik_Tot_abs_Q>
1

> <r_epik_Metal_State_Penalty>
0.675842

> <b_epik_Metal_Only>
0

> <s_lp_Force_Field>
OPLS_2005

> <r_lp_Energy>
26.7826

> <b_lp_Chiralities_Consistent>
1

> <s_lp_Variant>
AV-unprocessed.smi:3298-5

> <Gold.Version>
5.8.1

> <Gold.Id.Protein>
6NUR|6NUR_protein|mol2

> <Gold.PLP.Fitness>
42.4930

> <Gold.PLP.PLP>
-34.7422

> <Gold.PLP.part.hbond>
-3.8884

> <Gold.PLP.part.metal>
0.0000

> <Gold.PLP.part.buried>
4.5934

> <Gold.PLP.part.nonpolar>
-35.6694

> <Gold.PLP.part.repulsive>
0.1806

> <Gold.PLP.ligand.clash>
0.0000

> <Gold.PLP.ligand.torsion>
0.0439

> <Gold.PLP.Chemscore.Hbond>
2.6079

> <Gold.PLP.Chemscore.CHOScore>
0.0000

> <Gold.PLP.Chemscore.Metal>
0.0000

> <Gold.Chemscore.Hbonds>
donor molecule, donor type, donor heavy atom, donor atom, acceptor molecule, acceptor atom, score
      L1  H    18    36       P1  7948  2.00
      P1  H  6933  6944       L1    14  0.19
      P1  H  7997  8008       L1     7  0.42

> <Gold.PLP.Chemscore.Internal.Correction>
0.0150

> <Gold.Rescore>
     Score         DG    S(hbond)    S(metal)    S(lipo)     H(rot)  DE(clash)    DE(int)     intcor
     15.99     -19.86       1.85        0.00     109.68       1.81       1.79       2.07       ----

> <Gold.Chemscore.Fitness>
15.9914

> <Gold.Chemscore.DG>
-19.8554

> <Gold.Chemscore.ZeroCoef>
-5.4800

> <Gold.Chemscore.Hbond>
1.8462

> <Gold.Chemscore.Metal>
0.0000

> <Gold.Chemscore.Lipo>
109.6806

> <Gold.Chemscore.Internal_Hbond>
0.0000

> <Gold.Chemscore.DEClash>
1.7909

> <Gold.Chemscore.DEInternal>
2.0731

> <Gold.Chemscore.Rot>
1.8061

> <Gold.Chemscore.Internal.Correction>
   9.000000E+99

> <Gold.Chemscore.Hbonds>
donor molecule, donor type, donor heavy atom, donor atom, acceptor molecule, acceptor atom, score
      L1  H    18    36       P1  7948  0.98
      P1  H  6933  6944       L1    14  0.12
      P1  H  7997  8008       L1     7  0.41

> <Gold.Chemscore.Hbond.Weighted>
-6.1665

> <Gold.Chemscore.Metal.Weighted>
-0.0000

> <Gold.Chemscore.Lipo.Weighted>
-12.8326

> <Gold.Chemscore.Internal_Hbond.Weighted>
0.0000

> <Gold.Chemscore.DEClash.Weighted>
1.7909

> <Gold.Chemscore.DEInternal.Weighted>
2.0731

> <Gold.Chemscore.Rot.Weighted>
4.6237

> <Gold.Chemscore.Internal.Correction.Weighted>
   9.000000E+99

> <Gold.Protein.RotatedTorsions>
[ 6907 6896 6895 6894 ] final  177.12 input  -60.11 | X-H torsion
[ 7974 7965 7964 7962 ] final   71.41 input  175.53 | X-H torsion
[ 8008 7997 7996 7995 ] final  -54.67 input   59.86 | X-H torsion
[ 10167 10162 10161 10158 ] final  147.15 input  -65.29 | X-H torsion
[ 10718 10713 10712 10709 ] final  140.44 input   66.30 | X-H torsion
[ 10763 10752 10751 10750 ] final   50.75 input  -60.55 | X-H torsion
[ 11005 11000 10999 10996 ] final   21.20 input  -57.11 | X-H torsion

> <Gold.Protein.ActiveResidues>
 VAL166  LYS551  ARG553  GLY616  TRP617  ASP618  TYR619  PRO620  LYS621  CYS622 
 ASP623  PHE694  ASN695  SER759  ASP760  ASP761  ALA762  ILE779  LEU786  VAL792 
 PHE793  MET794  SER795  GLU796  ALA797  LYS798  CYS799  TRP800  GLU811  SER814 

> <Gold.Protein.RotatedAtoms>
  151.7092  133.3312  159.3286 H   0  0  0  0  0  0  0  0  0  0  0  0  # atno 6907 bound_to 6896
  150.7701  134.6547  159.6317 H   0  0  0  0  0  0  0  0  0  0  0  0  # atno 6908 bound_to 6896
  152.3722  134.6720  160.0224 H   0  0  0  0  0  0  0  0  0  0  0  0  # atno 6909 bound_to 6896
  145.7662  139.2822  143.1348 H   0  0  0  0  0  0  0  0  0  0  0  0  # atno 7974 bound_to 7965
  154.4170  140.1171  156.5352 H   0  0  0  0  0  0  0  0  0  0  0  0  # atno 8008 bound_to 7997
  155.6564  140.3496  155.4747 H   0  0  0  0  0  0  0  0  0  0  0  0  # atno 8009 bound_to 7997
  155.9749  140.1149  157.0768 H   0  0  0  0  0  0  0  0  0  0  0  0  # atno 8010 bound_to 7997
  139.4895  144.5777  151.6934 H   0  0  0  0  0  0  0  0  0  0  0  0  # atno 10167 bound_to 10162
  157.4032  131.1019  151.0530 H   0  0  0  0  0  0  0  0  0  0  0  0  # atno 10718 bound_to 10713
  152.9784  135.5868  154.4304 H   0  0  0  0  0  0  0  0  0  0  0  0  # atno 10763 bound_to 10752
  154.3918  135.2768  155.2152 H   0  0  0  0  0  0  0  0  0  0  0  0  # atno 10764 bound_to 10752
  154.4021  135.6101  153.5958 H   0  0  0  0  0  0  0  0  0  0  0  0  # atno 10765 bound_to 10752
  140.3942  134.1787  155.7663 H   0  0  0  0  0  0  0  0  0  0  0  0  # atno 11005 bound_to 11000
  146.0215  140.8343  142.9921 LP  0  0  0  0  0  0  0  0  0  0  0  0  # atno 17320 bound_to 7965
  144.6821  140.2636  143.7315 LP  0  0  0  0  0  0  0  0  0  0  0  0  # atno 17321 bound_to 7965
  140.5376  144.0631  150.6076 LP  0  0  0  0  0  0  0  0  0  0  0  0  # atno 17342 bound_to 10162
  140.3642  143.2891  152.0350 LP  0  0  0  0  0  0  0  0  0  0  0  0  # atno 17343 bound_to 10162
  157.1522  130.6189  149.5585 LP  0  0  0  0  0  0  0  0  0  0  0  0  # atno 17370 bound_to 10713
  155.9829  130.4845  150.6905 LP  0  0  0  0  0  0  0  0  0  0  0  0  # atno 17371 bound_to 10713
  141.1880  133.8269  157.1011 LP  0  0  0  0  0  0  0  0  0  0  0  0  # atno 17394 bound_to 11000
  140.0384  134.9867  157.0915 LP  0  0  0  0  0  0  0  0  0  0  0  0  # atno 17395 bound_to 11000

$$$$
