AV-unprocessed.smi:2160|AV-procd|sdf|8797|dock7
  -GOLD-   2272011583D 1   1.00000     0.00000
 Structure written by MMmdl.
 43 45  0  0  0  0  0  0  0  0  1 V2000
  142.7405  146.1052  154.4850 C   0  0  0  0  0  0  0  0  0  0  0  0
  143.2570  145.1957  155.4457 O   0  0  0  0  0  0  0  0  0  0  0  0
  144.2398  144.3166  155.0437 C   0  0  0  0  0  0  0  0  0  0  0  0
  144.7412  144.2328  153.7203 C   0  0  0  0  0  0  0  0  0  0  0  0
  145.7482  143.3027  153.3963 C   0  0  0  0  0  0  0  0  0  0  0  0
  146.2750  142.4483  154.3854 C   0  0  0  0  0  0  0  0  0  0  0  0
  147.3455  141.4362  154.0214 C   0  0  0  0  0  0  0  0  0  0  0  0
  148.5294  141.6142  154.7817 O   0  0  0  0  0  0  0  0  0  0  0  0
  149.4901  140.5956  154.5597 C   0  0  0  0  0  0  0  0  0  0  0  0
  150.7090  140.8621  155.4542 C   0  0  2  0  0  0  0  0  0  0  0  0
  151.7381  139.9596  155.0995 O   0  0  0  0  0  0  0  0  0  0  0  0
  150.3825  140.7179  156.9534 C   0  0  0  0  0  0  0  0  0  0  0  0
  150.9537  141.7903  157.7470 N   0  0  0  0  0  0  0  0  0  0  0  0
  150.6610  143.1033  157.6797 C   0  0  0  0  0  0  0  0  0  0  0  0
  151.3110  143.9157  158.5089 N   0  0  0  0  0  0  0  0  0  0  0  0
  152.1198  143.0256  159.1949 C   0  0  0  0  0  0  0  0  0  0  0  0
  153.0627  143.2470  160.2243 C   0  0  0  0  0  0  0  0  0  0  0  0
  153.7809  142.1674  160.7799 C   0  0  0  0  0  0  0  0  0  0  0  0
  153.5686  140.8527  160.3162 C   0  0  0  0  0  0  0  0  0  0  0  0
  152.6345  140.6073  159.2916 C   0  0  0  0  0  0  0  0  0  0  0  0
  151.9202  141.6872  158.7405 C   0  0  0  0  0  0  0  0  0  0  0  0
  145.7730  142.5212  155.7011 C   0  0  0  0  0  0  0  0  0  0  0  0
  144.7663  143.4511  156.0242 C   0  0  0  0  0  0  0  0  0  0  0  0
  141.9795  146.7293  154.9532 H   0  0  0  0  0  0  0  0  0  0  0  0
  142.2696  145.5812  153.6521 H   0  0  0  0  0  0  0  0  0  0  0  0
  143.5190  146.7667  154.1028 H   0  0  0  0  0  0  0  0  0  0  0  0
  144.3682  144.8706  152.9335 H   0  0  0  0  0  0  0  0  0  0  0  0
  146.1158  143.2488  152.3821 H   0  0  0  0  0  0  0  0  0  0  0  0
  146.9415  140.4366  154.1883 H   0  0  0  0  0  0  0  0  0  0  0  0
  147.5779  141.5224  152.9586 H   0  0  0  0  0  0  0  0  0  0  0  0
  149.0656  139.6133  154.7743 H   0  0  0  0  0  0  0  0  0  0  0  0
  149.7862  140.6046  153.5092 H   0  0  0  0  0  0  0  0  0  0  0  0
  151.0760  141.8701  155.2557 H   0  0  0  0  0  0  0  0  0  0  0  0
  151.3430  139.1736  154.7547 H   0  0  0  0  0  0  0  0  0  0  0  0
  149.3027  140.7253  157.1076 H   0  0  0  0  0  0  0  0  0  0  0  0
  150.7444  139.7629  157.3373 H   0  0  0  0  0  0  0  0  0  0  0  0
  149.9278  143.4840  156.9837 H   0  0  0  0  0  0  0  0  0  0  0  0
  153.2334  144.2494  160.5875 H   0  0  0  0  0  0  0  0  0  0  0  0
  154.4987  142.3492  161.5663 H   0  0  0  0  0  0  0  0  0  0  0  0
  154.1230  140.0320  160.7476 H   0  0  0  0  0  0  0  0  0  0  0  0
  152.4672  139.6023  158.9335 H   0  0  0  0  0  0  0  0  0  0  0  0
  146.1561  141.8657  156.4693 H   0  0  0  0  0  0  0  0  0  0  0  0
  144.3923  143.4991  157.0365 H   0  0  0  0  0  0  0  0  0  0  0  0
  1  2  1  0  0  0  0
  1 24  1  0  0  0  0
  1 25  1  0  0  0  0
  1 26  1  0  0  0  0
  2  3  1  0  0  0  0
  3 23  1  0  0  0  0
  3  4  2  0  0  0  0
  4  5  1  0  0  0  0
  4 27  1  0  0  0  0
  5  6  2  0  0  0  0
  5 28  1  0  0  0  0
  6  7  1  0  0  0  0
  6 22  1  0  0  0  0
  7  8  1  0  0  0  0
  7 29  1  0  0  0  0
  7 30  1  0  0  0  0
  8  9  1  0  0  0  0
  9 10  1  0  0  0  0
  9 31  1  0  0  0  0
  9 32  1  0  0  0  0
 10 11  1  0  0  0  0
 10 12  1  0  0  0  0
 10 33  1  0  0  0  0
 11 34  1  0  0  0  0
 12 13  1  0  0  0  0
 12 35  1  0  0  0  0
 12 36  1  0  0  0  0
 13 21  1  0  0  0  0
 13 14  1  0  0  0  0
 14 15  2  0  0  0  0
 14 37  1  0  0  0  0
 15 16  1  0  0  0  0
 16 21  2  0  0  0  0
 16 17  1  0  0  0  0
 17 18  2  0  0  0  0
 17 38  1  0  0  0  0
 18 19  1  0  0  0  0
 18 39  1  0  0  0  0
 19 20  2  0  0  0  0
 19 40  1  0  0  0  0
 20 21  1  0  0  0  0
 20 41  1  0  0  0  0
 22 23  2  0  0  0  0
 22 42  1  0  0  0  0
 23 43  1  0  0  0  0
M  END
> <s_m_source_file>
AV-unprocessed.smi

> <i_m_source_file_index>
2160

> <i_lp_mmshare_version>
43012

> <i_f3d_flags>
0

> <s_epik_input>
W0NIM11PYzFbY0hdW2NIXWMoW2NIXVtjSF0xKVtDSDJdT1tDSDJdW0NASF0oW09IXSlbQ0gyXW4oW2NIXW4yKWMoYzIzKVtjSF1bY0hdW2NIXVtjSF0z

> <s_epik_cmdline>
J2VwaWtfcHl0aG9uJywgJy1waCcsICc3LjAnLCAnLXRuJywgJzgnLCAnLW1hJywgJzIwMCcsICctbWV0YWxfYmluZGluZycsICctaW1hZScsICc8aW5maWxlLm1hZT4nLCAnLW9tYWUnLCAnPG91dGZpbGUubWFlPic=

> <r_lp_tautomer_probability>
1

> <r_epik_Ionization_Penalty>
0.0713119

> <r_epik_Ionization_Penalty_Charging>
0

> <r_epik_Ionization_Penalty_Neutral>
0.0713119

> <r_epik_State_Penalty>
0.06259

> <r_epik_Charging_Adjusted_Penalty>
0.06259

> <i_epik_Tot_Q>
0

> <i_epik_Tot_abs_Q>
0

> <r_epik_Metal_State_Penalty>
6.60119e-05

> <b_epik_Metal_Only>
0

> <s_lp_Force_Field>
OPLS_2005

> <r_lp_Energy>
16.653

> <b_lp_Chiralities_Consistent>
1

> <s_lp_Variant>
AV-unprocessed.smi:2160-1

> <Gold.Version>
5.8.1

> <Gold.Id.Protein>
6NUR|6NUR_protein|mol2

> <Gold.PLP.Fitness>
53.0929

> <Gold.PLP.PLP>
-51.1355

> <Gold.PLP.part.hbond>
-1.0000

> <Gold.PLP.part.metal>
0.0000

> <Gold.PLP.part.buried>
-7.0681

> <Gold.PLP.part.nonpolar>
-42.6548

> <Gold.PLP.part.repulsive>
0.2575

> <Gold.PLP.ligand.clash>
0.0000

> <Gold.PLP.ligand.torsion>
0.6739

> <Gold.PLP.Chemscore.Hbond>
0.0700

> <Gold.PLP.Chemscore.CHOScore>
1.0000

> <Gold.PLP.Chemscore.Metal>
0.0000

> <Gold.Chemscore.Hbonds>
donor molecule, donor type, donor heavy atom, donor atom, acceptor molecule, acceptor atom, score
      P1  H  7989  7998       L1    11  0.11
      L1  C    14    37       P1  8028  1.00

> <Gold.PLP.Chemscore.Internal.Correction>
0.0951

> <Gold.Rescore>
     Score         DG    S(hbond)    S(metal)    S(lipo)     H(rot)  DE(clash)    DE(int)     intcor
     12.61     -13.32       0.00        0.00     124.61       2.63       0.04       0.68       ----

> <Gold.Chemscore.Fitness>
12.6056

> <Gold.Chemscore.DG>
-13.3243

> <Gold.Chemscore.ZeroCoef>
-5.4800

> <Gold.Chemscore.Hbond>
0.0000

> <Gold.Chemscore.Metal>
0.0000

> <Gold.Chemscore.Lipo>
124.6074

> <Gold.Chemscore.Internal_Hbond>
0.0000

> <Gold.Chemscore.DEClash>
0.0385

> <Gold.Chemscore.DEInternal>
0.6802

> <Gold.Chemscore.Rot>
2.6308

> <Gold.Chemscore.Internal.Correction>
   9.000000E+99

> <Gold.Chemscore.Hbond.Weighted>
-0.0000

> <Gold.Chemscore.Metal.Weighted>
-0.0000

> <Gold.Chemscore.Lipo.Weighted>
-14.5791

> <Gold.Chemscore.Internal_Hbond.Weighted>
0.0000

> <Gold.Chemscore.DEClash.Weighted>
0.0385

> <Gold.Chemscore.DEInternal.Weighted>
0.6802

> <Gold.Chemscore.Rot.Weighted>
6.7347

> <Gold.Chemscore.Internal.Correction.Weighted>
   9.000000E+99

> <Gold.Protein.RotatedTorsions>
[ 6907 6896 6895 6894 ] final   92.08 input  -60.11 | X-H torsion
[ 7974 7965 7964 7962 ] final  166.84 input  175.53 | X-H torsion
[ 8008 7997 7996 7995 ] final  -20.82 input   59.86 | X-H torsion
[ 10167 10162 10161 10158 ] final  119.62 input  -65.29 | X-H torsion
[ 10718 10713 10712 10709 ] final -145.57 input   66.30 | X-H torsion
[ 10763 10752 10751 10750 ] final   -0.75 input  -60.55 | X-H torsion
[ 11005 11000 10999 10996 ] final  136.94 input  -57.11 | X-H torsion

> <Gold.Protein.ActiveResidues>
 VAL166  LYS551  ARG553  GLY616  TRP617  ASP618  TYR619  PRO620  LYS621  CYS622 
 ASP623  PHE694  ASN695  SER759  ASP760  ASP761  ALA762  ILE779  LEU786  VAL792 
 PHE793  MET794  SER795  GLU796  ALA797  LYS798  CYS799  TRP800  GLU811  SER814 

> <Gold.Protein.RotatedAtoms>
  152.5452  134.1557  159.8536 H   0  0  0  0  0  0  0  0  0  0  0  0  # atno 6907 bound_to 6896
  151.1580  133.4856  159.2602 H   0  0  0  0  0  0  0  0  0  0  0  0  # atno 6908 bound_to 6896
  151.1402  135.0186  159.8677 H   0  0  0  0  0  0  0  0  0  0  0  0  # atno 6909 bound_to 6896
  144.7447  139.8673  143.6386 H   0  0  0  0  0  0  0  0  0  0  0  0  # atno 7974 bound_to 7965
  154.4745  140.2051  155.9913 H   0  0  0  0  0  0  0  0  0  0  0  0  # atno 8008 bound_to 7997
  156.1066  140.3235  155.7984 H   0  0  0  0  0  0  0  0  0  0  0  0  # atno 8009 bound_to 7997
  155.4707  140.0531  157.2970 H   0  0  0  0  0  0  0  0  0  0  0  0  # atno 8010 bound_to 7997
  139.6034  144.7063  151.3009 H   0  0  0  0  0  0  0  0  0  0  0  0  # atno 10167 bound_to 10162
  156.3840  130.7852  151.2047 H   0  0  0  0  0  0  0  0  0  0  0  0  # atno 10718 bound_to 10713
  153.3359  135.6978  153.6908 H   0  0  0  0  0  0  0  0  0  0  0  0  # atno 10763 bound_to 10752
  153.5692  135.3519  155.2831 H   0  0  0  0  0  0  0  0  0  0  0  0  # atno 10764 bound_to 10752
  154.8627  135.4268  154.2560 H   0  0  0  0  0  0  0  0  0  0  0  0  # atno 10765 bound_to 10752
  140.0080  134.9451  157.0217 H   0  0  0  0  0  0  0  0  0  0  0  0  # atno 11005 bound_to 11000
  146.1305  139.4340  143.0171 LP  0  0  0  0  0  0  0  0  0  0  0  0  # atno 17320 bound_to 7965
  145.7170  141.0088  143.1423 LP  0  0  0  0  0  0  0  0  0  0  0  0  # atno 17321 bound_to 7965
  140.7267  143.6983  150.7865 LP  0  0  0  0  0  0  0  0  0  0  0  0  # atno 17342 bound_to 10162
  140.0564  143.5198  152.2649 LP  0  0  0  0  0  0  0  0  0  0  0  0  # atno 17343 bound_to 10162
  157.7494  131.0335  150.4276 LP  0  0  0  0  0  0  0  0  0  0  0  0  # atno 17370 bound_to 10713
  156.4525  130.4014  149.6627 LP  0  0  0  0  0  0  0  0  0  0  0  0  # atno 17371 bound_to 10713
  140.4606  134.1488  155.7191 LP  0  0  0  0  0  0  0  0  0  0  0  0  # atno 17394 bound_to 11000
  141.1691  133.8645  157.1626 LP  0  0  0  0  0  0  0  0  0  0  0  0  # atno 17395 bound_to 11000

$$$$
