AV-unprocessed.smi:1701|AV-procd|sdf|6831|dock10
  -GOLD-   22720 8 13D 1   1.00000     0.00000
 Structure written by MMmdl.
 54 56  0  0  0  0  0  0  0  0  2 V2000
  151.6525  143.6802  157.2811 C   0  0  0  0  0  0  0  0  0  0  0  0
  151.1735  142.5130  156.4037 C   0  0  0  0  0  0  0  0  0  0  0  0
  151.2055  141.2264  157.0984 N   0  0  0  0  0  0  0  0  0  0  0  0
  152.4029  140.9248  157.8865 C   0  0  0  0  0  0  0  0  0  0  0  0
  152.2505  141.2776  159.3749 C   0  0  0  0  0  0  0  0  0  0  0  0
  150.5704  140.1726  156.4042 C   0  0  0  0  0  0  0  0  0  0  0  0
  149.7558  139.2554  157.1062 C   0  0  0  0  0  0  0  0  0  0  0  0
  149.1188  138.2222  156.3943 C   0  0  0  0  0  0  0  0  0  0  0  0
  149.3011  138.1261  155.0008 C   0  0  0  0  0  0  0  0  0  0  0  0
  148.6395  137.0632  154.3259 N   0  0  0  0  0  0  0  0  0  0  0  0
  147.7710  136.1480  154.8007 C   0  0  0  0  0  0  0  0  0  0  0  0
  147.3822  136.0774  155.9631 O   0  0  0  0  0  0  0  0  0  0  0  0
  147.3342  135.2765  153.8741 N   0  0  0  0  0  0  0  0  0  0  0  0
  146.3952  134.1683  154.0507 C   0  0  2  0  0  0  0  0  0  0  0  0
  147.0282  132.8955  154.6480 C   0  0  0  0  0  0  0  0  0  0  0  0
  146.3732  131.7203  153.8944 C   0  0  0  0  0  0  0  0  0  0  0  0
  145.3505  132.3356  153.0272 N   0  3  2  0  0  0  0  0  0  0  0  0
  144.9376  131.5775  151.8260 C   0  0  0  0  0  0  0  0  0  0  0  0
  143.8169  132.3480  151.0985 C   0  0  0  0  0  0  0  0  0  0  0  0
  144.2228  133.8061  150.7998 C   0  0  0  0  0  0  0  0  0  0  0  0
  144.7310  134.5140  152.0706 C   0  0  0  0  0  0  0  0  0  0  0  0
  145.8536  133.6799  152.7080 C   0  0  1  0  0  0  0  0  0  0  0  0
  150.1360  139.0899  154.3847 C   0  0  0  0  0  0  0  0  0  0  0  0
  150.7493  140.0817  155.0643 N   0  0  0  0  0  0  0  0  0  0  0  0
  151.6083  144.6191  156.7290 H   0  0  0  0  0  0  0  0  0  0  0  0
  152.6837  143.5375  157.6058 H   0  0  0  0  0  0  0  0  0  0  0  0
  151.0325  143.7914  158.1710 H   0  0  0  0  0  0  0  0  0  0  0  0
  150.1503  142.7038  156.0790 H   0  0  0  0  0  0  0  0  0  0  0  0
  151.7664  142.4719  155.4906 H   0  0  0  0  0  0  0  0  0  0  0  0
  152.6657  139.8722  157.7749 H   0  0  0  0  0  0  0  0  0  0  0  0
  153.2424  141.4891  157.4794 H   0  0  0  0  0  0  0  0  0  0  0  0
  153.1790  141.0821  159.9112 H   0  0  0  0  0  0  0  0  0  0  0  0
  151.4667  140.6948  159.8584 H   0  0  0  0  0  0  0  0  0  0  0  0
  152.0103  142.3331  159.5045 H   0  0  0  0  0  0  0  0  0  0  0  0
  149.6243  139.3288  158.1758 H   0  0  0  0  0  0  0  0  0  0  0  0
  148.4965  137.5109  156.9175 H   0  0  0  0  0  0  0  0  0  0  0  0
  148.8668  136.9773  153.3462 H   0  0  0  0  0  0  0  0  0  0  0  0
  147.6838  135.4121  152.9363 H   0  0  0  0  0  0  0  0  0  0  0  0
  145.5525  134.4805  154.6713 H   0  0  0  0  0  0  0  0  0  0  0  0
  148.1083  132.8763  154.4950 H   0  0  0  0  0  0  0  0  0  0  0  0
  146.8492  132.8371  155.7222 H   0  0  0  0  0  0  0  0  0  0  0  0
  147.1188  131.2054  153.2860 H   0  0  0  0  0  0  0  0  0  0  0  0
  145.9229  130.9913  154.5685 H   0  0  0  0  0  0  0  0  0  0  0  0
  145.7934  131.4327  151.1648 H   0  0  0  0  0  0  0  0  0  0  0  0
  144.5856  130.5883  152.1201 H   0  0  0  0  0  0  0  0  0  0  0  0
  143.5525  131.8367  150.1725 H   0  0  0  0  0  0  0  0  0  0  0  0
  142.9185  132.3458  151.7174 H   0  0  0  0  0  0  0  0  0  0  0  0
  145.0069  133.8151  150.0418 H   0  0  0  0  0  0  0  0  0  0  0  0
  143.3787  134.3524  150.3778 H   0  0  0  0  0  0  0  0  0  0  0  0
  145.0939  135.5126  151.8249 H   0  0  0  0  0  0  0  0  0  0  0  0
  143.9097  134.6433  152.7770 H   0  0  0  0  0  0  0  0  0  0  0  0
  146.6805  133.5811  152.0003 H   0  0  0  0  0  0  0  0  0  0  0  0
  150.3420  139.0914  153.3272 H   0  0  0  0  0  0  0  0  0  0  0  0
  144.5282  132.4659  153.5991 H   0  0  0  0  0  0  0  0  0  0  0  0
  1  2  1  0  0  0  0
  1 25  1  0  0  0  0
  1 26  1  0  0  0  0
  1 27  1  0  0  0  0
  2  3  1  0  0  0  0
  2 28  1  0  0  0  0
  2 29  1  0  0  0  0
  3  4  1  0  0  0  0
  3  6  1  0  0  0  0
  4  5  1  0  0  0  0
  4 30  1  0  0  0  0
  4 31  1  0  0  0  0
  5 32  1  0  0  0  0
  5 33  1  0  0  0  0
  5 34  1  0  0  0  0
  6 24  1  0  0  0  0
  6  7  2  0  0  0  0
  7  8  1  0  0  0  0
  7 35  1  0  0  0  0
  8  9  2  0  0  0  0
  8 36  1  0  0  0  0
  9 10  1  0  0  0  0
  9 23  1  0  0  0  0
 10 11  1  0  0  0  0
 10 37  1  0  0  0  0
 11 12  2  0  0  0  0
 11 13  1  0  0  0  0
 13 14  1  0  0  0  0
 13 38  1  0  0  0  0
 14 22  1  0  0  0  0
 14 15  1  0  0  0  0
 14 39  1  0  0  0  0
 15 16  1  0  0  0  0
 15 40  1  0  0  0  0
 15 41  1  0  0  0  0
 16 17  1  0  0  0  0
 16 42  1  0  0  0  0
 16 43  1  0  0  0  0
 17 22  1  0  0  0  0
 17 18  1  0  0  0  0
 17 54  1  0  0  0  0
 18 19  1  0  0  0  0
 18 44  1  0  0  0  0
 18 45  1  0  0  0  0
 19 20  1  0  0  0  0
 19 46  1  0  0  0  0
 19 47  1  0  0  0  0
 20 21  1  0  0  0  0
 20 48  1  0  0  0  0
 20 49  1  0  0  0  0
 21 22  1  0  0  0  0
 21 50  1  0  0  0  0
 21 51  1  0  0  0  0
 22 52  1  0  0  0  0
 23 24  2  0  0  0  0
 23 53  1  0  0  0  0
M  CHG  1  17   1
M  END
> <s_m_source_file>
AV-unprocessed.smi

> <i_m_source_file_index>
1701

> <i_lp_mmshare_version>
43012

> <i_f3d_flags>
0

> <s_epik_input>
W0NIM11bQ0gyXU4oW0NIMl1bQ0gzXSljMVtjSF1bY0hdYyhbY0hdbjEpW05IXUMoPU8pW05IXVtDQEhdKFtDSDJdW0NIMl0yKVtDQEBIXShOMjMpW0NIMl1bQ0gyXVtDSDJdW0NIMl0z

> <s_epik_cmdline>
J2VwaWtfcHl0aG9uJywgJy1waCcsICc3LjAnLCAnLXRuJywgJzgnLCAnLW1hJywgJzIwMCcsICctbWV0YWxfYmluZGluZycsICctaW1hZScsICc8aW5maWxlLm1hZT4nLCAnLW9tYWUnLCAnPG91dGZpbGUubWFlPic=

> <r_lp_tautomer_probability>
1

> <r_epik_Ionization_Penalty>
0.56662

> <r_epik_Ionization_Penalty_Charging>
0.000974069

> <r_epik_Ionization_Penalty_Neutral>
0.565646

> <r_epik_State_Penalty>
2.0247

> <r_epik_Charging_Adjusted_Penalty>
2.02568

> <i_epik_Tot_Q>
1

> <i_epik_Tot_abs_Q>
1

> <r_epik_Metal_State_Penalty>
1.51504

> <b_epik_Metal_Only>
0

> <s_lp_Force_Field>
OPLS_2005

> <r_lp_Energy>
54.426

> <b_lp_Chiralities_Consistent>
1

> <s_lp_Variant>
AV-unprocessed.smi:1701-11

> <Gold.Version>
5.8.1

> <Gold.Id.Protein>
6NUR|6NUR_protein|mol2

> <Gold.PLP.Fitness>
43.3862

> <Gold.PLP.PLP>
-31.9265

> <Gold.PLP.part.hbond>
-3.5081

> <Gold.PLP.part.metal>
0.0000

> <Gold.PLP.part.buried>
-5.9121

> <Gold.PLP.part.nonpolar>
-22.4960

> <Gold.PLP.part.repulsive>
0.0722

> <Gold.PLP.ligand.clash>
0.0000

> <Gold.PLP.ligand.torsion>
1.6156

> <Gold.PLP.Chemscore.Hbond>
3.6216

> <Gold.PLP.Chemscore.CHOScore>
1.0000

> <Gold.PLP.Chemscore.Metal>
0.0000

> <Gold.Chemscore.Hbonds>
donor molecule, donor type, donor heavy atom, donor atom, acceptor molecule, acceptor atom, score
      L1  H    10    37       P1  7948  1.00
      L1  H    13    38       P1  7948  0.94
      L1  H    17    54       P1 10957  0.65
      P1  H  7989  7998       L1    24  0.80
      L1  C    23    53       P1  7957  1.00

> <Gold.PLP.Chemscore.Internal.Correction>
0.8263

> <Gold.Rescore>
     Score         DG    S(hbond)    S(metal)    S(lipo)     H(rot)  DE(clash)    DE(int)     intcor
     16.52     -19.63       2.17        0.00      87.24       1.28       0.10       3.01       ----

> <Gold.Chemscore.Fitness>
16.5219

> <Gold.Chemscore.DG>
-19.6349

> <Gold.Chemscore.ZeroCoef>
-5.4800

> <Gold.Chemscore.Hbond>
2.1660

> <Gold.Chemscore.Metal>
0.0000

> <Gold.Chemscore.Lipo>
87.2394

> <Gold.Chemscore.Internal_Hbond>
0.0000

> <Gold.Chemscore.DEClash>
0.1024

> <Gold.Chemscore.DEInternal>
3.0105

> <Gold.Chemscore.Rot>
1.2838

> <Gold.Chemscore.Internal.Correction>
   9.000000E+99

> <Gold.Chemscore.Hbonds>
donor molecule, donor type, donor heavy atom, donor atom, acceptor molecule, acceptor atom, score
      L1  H    10    37       P1  7948  0.99
      L1  H    13    38       P1  7948  0.91
      L1  H    17    54       P1 10957  0.08
      P1  H  7989  7998       L1    24  0.12

> <Gold.Chemscore.Hbond.Weighted>
-7.2344

> <Gold.Chemscore.Metal.Weighted>
-0.0000

> <Gold.Chemscore.Lipo.Weighted>
-10.2070

> <Gold.Chemscore.Internal_Hbond.Weighted>
0.0000

> <Gold.Chemscore.DEClash.Weighted>
0.1024

> <Gold.Chemscore.DEInternal.Weighted>
3.0105

> <Gold.Chemscore.Rot.Weighted>
3.2865

> <Gold.Chemscore.Internal.Correction.Weighted>
   9.000000E+99

> <Gold.Protein.RotatedTorsions>
[ 6907 6896 6895 6894 ] final  158.08 input  -60.11 | X-H torsion
[ 7974 7965 7964 7962 ] final   61.95 input  175.53 | X-H torsion
[ 8008 7997 7996 7995 ] final   87.06 input   59.86 | X-H torsion
[ 10167 10162 10161 10158 ] final  -89.31 input  -65.29 | X-H torsion
[ 10718 10713 10712 10709 ] final -109.99 input   66.30 | X-H torsion
[ 10763 10752 10751 10750 ] final  121.82 input  -60.55 | X-H torsion
[ 11005 11000 10999 10996 ] final   47.35 input  -57.11 | X-H torsion

> <Gold.Protein.ActiveResidues>
 VAL166  LYS551  ARG553  GLY616  TRP617  ASP618  TYR619  PRO620  LYS621  CYS622 
 ASP623  PHE694  ASN695  SER759  ASP760  ASP761  ALA762  ILE779  LEU786  VAL792 
 PHE793  MET794  SER795  GLU796  ALA797  LYS798  CYS799  TRP800  GLU811  SER814 

> <Gold.Protein.RotatedAtoms>
  152.0056  133.3842  159.4198 H   0  0  0  0  0  0  0  0  0  0  0  0  # atno 6907 bound_to 6896
  150.6905  134.3786  159.5033 H   0  0  0  0  0  0  0  0  0  0  0  0  # atno 6908 bound_to 6896
  152.1539  134.8965  160.0597 H   0  0  0  0  0  0  0  0  0  0  0  0  # atno 6909 bound_to 6896
  145.8789  139.3429  143.0718 H   0  0  0  0  0  0  0  0  0  0  0  0  # atno 7974 bound_to 7965
  155.9707  140.3386  155.6573 H   0  0  0  0  0  0  0  0  0  0  0  0  # atno 8008 bound_to 7997
  155.6679  140.0723  157.2549 H   0  0  0  0  0  0  0  0  0  0  0  0  # atno 8009 bound_to 7997
  154.4165  140.1697  156.1834 H   0  0  0  0  0  0  0  0  0  0  0  0  # atno 8010 bound_to 7997
  140.3661  143.2817  151.9556 H   0  0  0  0  0  0  0  0  0  0  0  0  # atno 10167 bound_to 10162
  156.0566  130.5792  150.8176 H   0  0  0  0  0  0  0  0  0  0  0  0  # atno 10718 bound_to 10713
  153.6200  135.3415  155.3008 H   0  0  0  0  0  0  0  0  0  0  0  0  # atno 10763 bound_to 10752
  154.8602  135.4270  154.2217 H   0  0  0  0  0  0  0  0  0  0  0  0  # atno 10764 bound_to 10752
  153.3088  135.7030  153.7207 H   0  0  0  0  0  0  0  0  0  0  0  0  # atno 10765 bound_to 10752
  140.1287  134.4734  155.8539 H   0  0  0  0  0  0  0  0  0  0  0  0  # atno 11005 bound_to 11000
  145.9047  140.9219  143.0484 LP  0  0  0  0  0  0  0  0  0  0  0  0  # atno 17320 bound_to 7965
  144.6727  140.1080  143.7457 LP  0  0  0  0  0  0  0  0  0  0  0  0  # atno 17321 bound_to 7965
  139.4808  144.5949  151.7707 LP  0  0  0  0  0  0  0  0  0  0  0  0  # atno 17342 bound_to 10162
  140.5079  144.1069  150.5987 LP  0  0  0  0  0  0  0  0  0  0  0  0  # atno 17343 bound_to 10162
  157.5542  131.0944  150.9653 LP  0  0  0  0  0  0  0  0  0  0  0  0  # atno 17370 bound_to 10713
  156.9905  130.5561  149.5303 LP  0  0  0  0  0  0  0  0  0  0  0  0  # atno 17371 bound_to 10713
  141.2166  133.6787  156.7027 LP  0  0  0  0  0  0  0  0  0  0  0  0  # atno 17394 bound_to 11000
  140.2870  134.8271  157.3984 LP  0  0  0  0  0  0  0  0  0  0  0  0  # atno 17395 bound_to 11000

$$$$
