AV-unprocessed.smi:2647|AV-procd|sdf|10283|dock6
  -GOLD-   2272014293D 1   1.00000     0.00000
 Structure written by MMmdl.
 32 33  0  0  0  0  0  0  0  0  1 V2000
  149.6714  135.1422  158.1365 O   0  0  0  0  0  0  0  0  0  0  0  0
  149.3047  136.3159  158.0726 C   0  0  0  0  0  0  0  0  0  0  0  0
  149.6285  137.1373  157.0638 N   0  0  0  0  0  0  0  0  0  0  0  0
  150.4422  136.7669  155.9104 C   0  0  0  0  0  0  0  0  0  0  0  0
  150.6595  137.9446  154.9441 C   0  0  0  0  0  0  0  0  0  0  0  0
  151.9356  138.7560  155.2381 C   0  0  0  0  0  0  0  0  0  0  0  0
  151.6581  139.8747  156.1441 N   0  0  0  0  0  0  0  0  0  0  0  0
  152.2401  140.0344  157.3411 C   0  0  0  0  0  0  0  0  0  0  0  0
  153.0646  139.2801  157.8568 O   0  0  0  0  0  0  0  0  0  0  0  0
  151.7562  141.3094  158.0184 C   0  0  0  0  0  0  0  0  0  0  0  0
  150.7750  141.8931  156.9966 C   0  0  0  0  0  0  0  0  0  0  0  0
  150.8186  140.8805  155.8600 C   0  0  0  0  0  0  0  0  0  0  0  0
  150.1576  141.0096  154.8299 O   0  0  0  0  0  0  0  0  0  0  0  0
  148.5371  136.9423  158.9818 N   0  0  0  0  0  0  0  0  0  0  0  0
  148.0066  136.4245  160.1928 C   0  0  0  0  0  0  0  0  0  0  0  0
  147.5642  137.1925  161.2010 N   0  0  0  0  0  0  0  0  0  0  0  0
  147.0929  136.4333  162.2644 N   0  0  0  0  0  0  0  0  0  0  0  0
  147.1988  135.1246  162.0171 C   0  0  0  0  0  0  0  0  0  0  0  0
  147.8840  134.6915  160.4603 S   0  0  0  0  0  0  0  0  0  0  0  0
  149.2848  138.0860  157.0916 H   0  0  0  0  0  0  0  0  0  0  0  0
  151.4040  136.4042  156.2739 H   0  0  0  0  0  0  0  0  0  0  0  0
  149.9786  135.9310  155.3837 H   0  0  0  0  0  0  0  0  0  0  0  0
  150.7089  137.5540  153.9272 H   0  0  0  0  0  0  0  0  0  0  0  0
  149.7906  138.6037  154.9701 H   0  0  0  0  0  0  0  0  0  0  0  0
  152.7023  138.1125  155.6730 H   0  0  0  0  0  0  0  0  0  0  0  0
  152.3616  139.1285  154.3049 H   0  0  0  0  0  0  0  0  0  0  0  0
  151.2678  141.0779  158.9656 H   0  0  0  0  0  0  0  0  0  0  0  0
  152.5929  141.9824  158.2085 H   0  0  0  0  0  0  0  0  0  0  0  0
  149.7653  141.9713  157.4010 H   0  0  0  0  0  0  0  0  0  0  0  0
  151.0912  142.8758  156.6451 H   0  0  0  0  0  0  0  0  0  0  0  0
  148.3101  137.9063  158.7878 H   0  0  0  0  0  0  0  0  0  0  0  0
  146.8709  134.4090  162.7563 H   0  0  0  0  0  0  0  0  0  0  0  0
  1  2  2  0  0  0  0
  2  3  1  0  0  0  0
  2 14  1  0  0  0  0
  3  4  1  0  0  0  0
  3 20  1  0  0  0  0
  4  5  1  0  0  0  0
  4 21  1  0  0  0  0
  4 22  1  0  0  0  0
  5  6  1  0  0  0  0
  5 23  1  0  0  0  0
  5 24  1  0  0  0  0
  6  7  1  0  0  0  0
  6 25  1  0  0  0  0
  6 26  1  0  0  0  0
  7 12  1  0  0  0  0
  7  8  1  0  0  0  0
  8  9  2  0  0  0  0
  8 10  1  0  0  0  0
 10 11  1  0  0  0  0
 10 27  1  0  0  0  0
 10 28  1  0  0  0  0
 11 12  1  0  0  0  0
 11 29  1  0  0  0  0
 11 30  1  0  0  0  0
 12 13  2  0  0  0  0
 14 15  1  0  0  0  0
 14 31  1  0  0  0  0
 15 19  1  0  0  0  0
 15 16  2  0  0  0  0
 16 17  1  0  0  0  0
 17 18  2  0  0  0  0
 18 19  1  0  0  0  0
 18 32  1  0  0  0  0
M  END
> <s_m_source_file>
AV-unprocessed.smi

> <i_m_source_file_index>
2647

> <i_lp_mmshare_version>
43012

> <i_f3d_flags>
0

> <s_epik_input>
czFbY0hdbm5jMVtOSF1DKD1PKVtOSF1bQ0gyXVtDSDJdW0NIMl1OMkMoPU8pW0NIMl1bQ0gyXUMyPU8=

> <s_epik_cmdline>
J2VwaWtfcHl0aG9uJywgJy1waCcsICc3LjAnLCAnLXRuJywgJzgnLCAnLW1hJywgJzIwMCcsICctbWV0YWxfYmluZGluZycsICctaW1hZScsICc8aW5maWxlLm1hZT4nLCAnLW9tYWUnLCAnPG91dGZpbGUubWFlPic=

> <r_lp_tautomer_probability>
1

> <r_epik_Ionization_Penalty>
0.00175263

> <r_epik_Ionization_Penalty_Charging>
0

> <r_epik_Ionization_Penalty_Neutral>
0.00175263

> <r_epik_State_Penalty>
-0

> <r_epik_Charging_Adjusted_Penalty>
0

> <i_epik_Tot_Q>
0

> <i_epik_Tot_abs_Q>
0

> <r_epik_Metal_State_Penalty>
0.330668

> <b_epik_Metal_Only>
0

> <s_lp_Force_Field>
OPLS_2005

> <r_lp_Energy>
10.1998

> <b_lp_Chiralities_Consistent>
1

> <s_lp_Variant>
AV-unprocessed.smi:2647-1

> <Gold.Version>
5.8.1

> <Gold.Id.Protein>
6NUR|6NUR_protein|mol2

> <Gold.PLP.Fitness>
44.5314

> <Gold.PLP.PLP>
-32.0954

> <Gold.PLP.part.hbond>
-5.0000

> <Gold.PLP.part.metal>
0.0000

> <Gold.PLP.part.buried>
-3.5902

> <Gold.PLP.part.nonpolar>
-23.0138

> <Gold.PLP.part.repulsive>
0.3020

> <Gold.PLP.ligand.clash>
0.0000

> <Gold.PLP.ligand.torsion>
0.4888

> <Gold.PLP.Chemscore.Hbond>
4.4592

> <Gold.PLP.Chemscore.CHOScore>
0.0000

> <Gold.PLP.Chemscore.Metal>
0.0000

> <Gold.Chemscore.Hbonds>
donor molecule, donor type, donor heavy atom, donor atom, acceptor molecule, acceptor atom, score
      P1  H  6896  6907       L1     1  1.00
      P1  H  6931  6943       L1    16  0.91
      P1  H  6934  6947       L1    16  0.91
      P1  H  7989  7998       L1    13  0.64
      P1  H  7997  8009       L1     9  1.00

> <Gold.PLP.Chemscore.Internal.Correction>
0.0360

> <Gold.Rescore>
     Score         DG    S(hbond)    S(metal)    S(lipo)     H(rot)  DE(clash)    DE(int)     intcor
     12.63     -14.26       2.86        0.00      45.08       2.36       0.00       1.63       ----

> <Gold.Chemscore.Fitness>
12.6284

> <Gold.Chemscore.DG>
-14.2552

> <Gold.Chemscore.ZeroCoef>
-5.4800

> <Gold.Chemscore.Hbond>
2.8593

> <Gold.Chemscore.Metal>
0.0000

> <Gold.Chemscore.Lipo>
45.0787

> <Gold.Chemscore.Internal_Hbond>
0.0000

> <Gold.Chemscore.DEClash>
0.0000

> <Gold.Chemscore.DEInternal>
1.6268

> <Gold.Chemscore.Rot>
2.3629

> <Gold.Chemscore.Internal.Correction>
   9.000000E+99

> <Gold.Chemscore.Hbonds>
donor molecule, donor type, donor heavy atom, donor atom, acceptor molecule, acceptor atom, score
      P1  H  6896  6907       L1     1  0.97
      P1  H  6931  6943       L1    16  0.36
      P1  H  6934  6947       L1    16  0.88
      P1  H  7989  7998       L1    13  0.14
      P1  H  7997  8009       L1     9  0.25

> <Gold.Chemscore.Hbond.Weighted>
-9.5500

> <Gold.Chemscore.Metal.Weighted>
-0.0000

> <Gold.Chemscore.Lipo.Weighted>
-5.2742

> <Gold.Chemscore.Internal_Hbond.Weighted>
0.0000

> <Gold.Chemscore.DEClash.Weighted>
0.0000

> <Gold.Chemscore.DEInternal.Weighted>
1.6268

> <Gold.Chemscore.Rot.Weighted>
6.0490

> <Gold.Chemscore.Internal.Correction.Weighted>
   9.000000E+99

> <Gold.Protein.RotatedTorsions>
[ 6907 6896 6895 6894 ] final  -89.10 input  -60.11 | X-H torsion
[ 7974 7965 7964 7962 ] final  -57.77 input  175.53 | X-H torsion
[ 8008 7997 7996 7995 ] final  143.79 input   59.86 | X-H torsion
[ 10167 10162 10161 10158 ] final   66.96 input  -65.29 | X-H torsion
[ 10718 10713 10712 10709 ] final  -85.75 input   66.30 | X-H torsion
[ 10763 10752 10751 10750 ] final  -47.05 input  -60.55 | X-H torsion
[ 11005 11000 10999 10996 ] final  -34.43 input  -57.11 | X-H torsion

> <Gold.Protein.ActiveResidues>
 VAL166  LYS551  ARG553  GLY616  TRP617  ASP618  TYR619  PRO620  LYS621  CYS622 
 ASP623  PHE694  ASN695  SER759  ASP760  ASP761  ALA762  ILE779  LEU786  VAL792 
 PHE793  MET794  SER795  GLU796  ALA797  LYS798  CYS799  TRP800  GLU811  SER814 

> <Gold.Protein.RotatedAtoms>
  150.6872  134.2639  159.4560 H   0  0  0  0  0  0  0  0  0  0  0  0  # atno 6907 bound_to 6896
  152.0567  134.9618  160.0584 H   0  0  0  0  0  0  0  0  0  0  0  0  # atno 6908 bound_to 6896
  152.1061  133.4241  159.4646 H   0  0  0  0  0  0  0  0  0  0  0  0  # atno 6909 bound_to 6896
  145.8471  140.8378  143.0004 H   0  0  0  0  0  0  0  0  0  0  0  0  # atno 7974 bound_to 7965
  156.2923  140.2253  156.4947 H   0  0  0  0  0  0  0  0  0  0  0  0  # atno 8008 bound_to 7997
  154.7741  140.0464  157.1096 H   0  0  0  0  0  0  0  0  0  0  0  0  # atno 8009 bound_to 7997
  154.9838  140.3082  155.4938 H   0  0  0  0  0  0  0  0  0  0  0  0  # atno 8010 bound_to 7997
  140.0947  144.4957  150.7076 H   0  0  0  0  0  0  0  0  0  0  0  0  # atno 10167 bound_to 10162
  155.9994  130.4741  150.4609 H   0  0  0  0  0  0  0  0  0  0  0  0  # atno 10718 bound_to 10713
  154.0551  135.6626  153.4805 H   0  0  0  0  0  0  0  0  0  0  0  0  # atno 10763 bound_to 10752
  153.0448  135.5121  154.7713 H   0  0  0  0  0  0  0  0  0  0  0  0  # atno 10764 bound_to 10752
  154.6732  135.3033  154.9681 H   0  0  0  0  0  0  0  0  0  0  0  0  # atno 10765 bound_to 10752
  140.9715  133.7107  156.1532 H   0  0  0  0  0  0  0  0  0  0  0  0  # atno 11005 bound_to 11000
  144.6730  140.0898  143.7465 LP  0  0  0  0  0  0  0  0  0  0  0  0  # atno 17320 bound_to 7965
  145.9399  139.2662  143.1275 LP  0  0  0  0  0  0  0  0  0  0  0  0  # atno 17321 bound_to 7965
  140.7010  143.2435  151.4865 LP  0  0  0  0  0  0  0  0  0  0  0  0  # atno 17342 bound_to 10162
  139.5705  144.1941  152.1829 LP  0  0  0  0  0  0  0  0  0  0  0  0  # atno 17343 bound_to 10162
  157.2633  131.0571  151.2306 LP  0  0  0  0  0  0  0  0  0  0  0  0  # atno 17370 bound_to 10713
  157.3413  130.7034  149.6383 LP  0  0  0  0  0  0  0  0  0  0  0  0  # atno 17371 bound_to 10713
  140.7321  134.4243  157.5564 LP  0  0  0  0  0  0  0  0  0  0  0  0  # atno 17394 bound_to 11000
  139.8914  134.8780  156.2321 LP  0  0  0  0  0  0  0  0  0  0  0  0  # atno 17395 bound_to 11000

$$$$
