AV-unprocessed.smi:3265|AV-procd|sdf|12498|dock10
  -GOLD-   2272018403D 1   1.00000     0.00000
 Structure written by MMmdl.
 41 42  0  0  0  0  0  0  0  0  2 V2000
  146.7793  133.5681  151.1264 C   0  0  0  0  0  0  0  0  0  0  0  0
  145.6916  133.8548  152.1744 C   0  0  2  0  0  0  0  0  0  0  0  0
  144.8078  135.0611  151.8037 C   0  0  0  0  0  0  0  0  0  0  0  0
  145.5538  136.3872  152.0111 C   0  0  0  0  0  0  0  0  0  0  0  0
  146.1246  136.4817  153.4344 C   0  0  0  0  0  0  0  0  0  0  0  0
  147.0036  135.3225  153.7290 N   0  3  1  0  0  0  0  0  0  0  0  0
  147.7108  135.4494  155.0288 C   0  0  0  0  0  0  0  0  0  0  0  0
  149.2187  135.1439  154.9100 C   0  0  0  0  0  0  0  0  0  0  0  0
  149.9840  136.2937  154.4357 N   0  0  0  0  0  0  0  0  0  0  0  0
  150.8780  136.9765  155.1680 C   0  0  0  0  0  0  0  0  0  0  0  0
  151.1860  136.6707  156.3192 O   0  0  0  0  0  0  0  0  0  0  0  0
  151.4995  138.2087  154.5123 C   0  0  0  0  0  0  0  0  0  0  0  0
  151.2472  139.3971  155.3085 N   0  0  0  0  0  0  0  0  0  0  0  0
  151.5952  139.6396  156.6214 C   0  0  0  0  0  0  0  0  0  0  0  0
  151.1445  140.8891  156.9376 C   0  0  0  0  0  0  0  0  0  0  0  0
  150.5299  141.3406  155.7367 C   0  0  0  0  0  0  0  0  0  0  0  0
  150.5865  140.4429  154.7658 N   0  0  0  0  0  0  0  0  0  0  0  0
  146.2825  134.0298  153.5883 C   0  0  0  0  0  0  0  0  0  0  0  0
  147.4959  134.3845  151.0584 H   0  0  0  0  0  0  0  0  0  0  0  0
  146.3447  133.4230  150.1370 H   0  0  0  0  0  0  0  0  0  0  0  0
  147.3356  132.6642  151.3759 H   0  0  0  0  0  0  0  0  0  0  0  0
  145.0471  132.9749  152.1953 H   0  0  0  0  0  0  0  0  0  0  0  0
  144.4588  134.9796  150.7737 H   0  0  0  0  0  0  0  0  0  0  0  0
  143.9141  135.0558  152.4295 H   0  0  0  0  0  0  0  0  0  0  0  0
  146.3616  136.4786  151.2845 H   0  0  0  0  0  0  0  0  0  0  0  0
  144.8805  137.2243  151.8252 H   0  0  0  0  0  0  0  0  0  0  0  0
  146.6918  137.4086  153.5273 H   0  0  0  0  0  0  0  0  0  0  0  0
  145.3167  136.5252  154.1668 H   0  0  0  0  0  0  0  0  0  0  0  0
  147.6033  136.4693  155.3999 H   0  0  0  0  0  0  0  0  0  0  0  0
  147.2435  134.8104  155.7795 H   0  0  0  0  0  0  0  0  0  0  0  0
  149.6118  134.8058  155.8700 H   0  0  0  0  0  0  0  0  0  0  0  0
  149.3822  134.3243  154.2106 H   0  0  0  0  0  0  0  0  0  0  0  0
  149.8036  136.6102  153.4933 H   0  0  0  0  0  0  0  0  0  0  0  0
  152.5777  138.0761  154.4131 H   0  0  0  0  0  0  0  0  0  0  0  0
  151.0981  138.3445  153.5064 H   0  0  0  0  0  0  0  0  0  0  0  0
  152.1276  138.9101  157.2140 H   0  0  0  0  0  0  0  0  0  0  0  0
  151.2420  141.4041  157.8817 H   0  0  0  0  0  0  0  0  0  0  0  0
  150.0412  142.2844  155.5444 H   0  0  0  0  0  0  0  0  0  0  0  0
  145.4819  133.9883  154.3287 H   0  0  0  0  0  0  0  0  0  0  0  0
  146.9524  133.1985  153.8097 H   0  0  0  0  0  0  0  0  0  0  0  0
  147.7223  135.3370  153.0190 H   0  0  0  0  0  0  0  0  0  0  0  0
  1  2  1  0  0  0  0
  1 19  1  0  0  0  0
  1 20  1  0  0  0  0
  1 21  1  0  0  0  0
  2 18  1  0  0  0  0
  2  3  1  0  0  0  0
  2 22  1  0  0  0  0
  3  4  1  0  0  0  0
  3 23  1  0  0  0  0
  3 24  1  0  0  0  0
  4  5  1  0  0  0  0
  4 25  1  0  0  0  0
  4 26  1  0  0  0  0
  5  6  1  0  0  0  0
  5 27  1  0  0  0  0
  5 28  1  0  0  0  0
  6  7  1  0  0  0  0
  6 18  1  0  0  0  0
  6 41  1  0  0  0  0
  7  8  1  0  0  0  0
  7 29  1  0  0  0  0
  7 30  1  0  0  0  0
  8  9  1  0  0  0  0
  8 31  1  0  0  0  0
  8 32  1  0  0  0  0
  9 10  1  0  0  0  0
  9 33  1  0  0  0  0
 10 11  2  0  0  0  0
 10 12  1  0  0  0  0
 12 13  1  0  0  0  0
 12 34  1  0  0  0  0
 12 35  1  0  0  0  0
 13 17  1  0  0  0  0
 13 14  1  0  0  0  0
 14 15  2  0  0  0  0
 14 36  1  0  0  0  0
 15 16  1  0  0  0  0
 15 37  1  0  0  0  0
 16 17  2  0  0  0  0
 16 38  1  0  0  0  0
 18 39  1  0  0  0  0
 18 40  1  0  0  0  0
M  CHG  1   6   1
M  END
> <s_m_source_file>
AV-unprocessed.smi

> <i_m_source_file_index>
3265

> <i_lp_mmshare_version>
43012

> <i_f3d_flags>
0

> <s_epik_input>
W0NIM11bQ0BASF0xW0NIMl1bQ0gyXVtDSDJdTihbQ0gyXTEpW0NIMl1bQ0gyXVtOSF1DKD1PKVtDSDJdbjJbY0hdW2NIXVtjSF1uMg==

> <s_epik_cmdline>
J2VwaWtfcHl0aG9uJywgJy1waCcsICc3LjAnLCAnLXRuJywgJzgnLCAnLW1hJywgJzIwMCcsICctbWV0YWxfYmluZGluZycsICctaW1hZScsICc8aW5maWxlLm1hZT4nLCAnLW9tYWUnLCAnPG91dGZpbGUubWFlPic=

> <r_lp_tautomer_probability>
1

> <r_epik_Ionization_Penalty>
0.00231455

> <r_epik_Ionization_Penalty_Charging>
0.00230623

> <r_epik_Ionization_Penalty_Neutral>
8.31727e-06

> <r_epik_State_Penalty>
0.00159065

> <r_epik_Charging_Adjusted_Penalty>
0.00389688

> <i_epik_Tot_Q>
1

> <i_epik_Tot_abs_Q>
1

> <r_epik_Metal_State_Penalty>
-0

> <b_epik_Metal_Only>
0

> <s_lp_Force_Field>
OPLS_2005

> <r_lp_Energy>
23.6627

> <b_lp_Chiralities_Consistent>
1

> <s_lp_Variant>
AV-unprocessed.smi:3265-3

> <Gold.Version>
5.8.1

> <Gold.Id.Protein>
6NUR|6NUR_protein|mol2

> <Gold.PLP.Fitness>
41.9922

> <Gold.PLP.PLP>
-29.1662

> <Gold.PLP.part.hbond>
-3.4219

> <Gold.PLP.part.metal>
0.0000

> <Gold.PLP.part.buried>
-2.4830

> <Gold.PLP.part.nonpolar>
-22.5573

> <Gold.PLP.part.repulsive>
0.1496

> <Gold.PLP.ligand.clash>
0.0000

> <Gold.PLP.ligand.torsion>
0.7714

> <Gold.PLP.Chemscore.Hbond>
3.9100

> <Gold.PLP.Chemscore.CHOScore>
0.8680

> <Gold.PLP.Chemscore.Metal>
0.0000

> <Gold.Chemscore.Hbonds>
donor molecule, donor type, donor heavy atom, donor atom, acceptor molecule, acceptor atom, score
      L1  H     6    41       P1  7948  2.00
      L1  H     9    33       P1  7948  0.93
      P1  H  7989  7998       L1    17  1.00
      L1  C    16    38       P1  8028  0.59

> <Gold.PLP.Chemscore.Internal.Correction>
0.0348

> <Gold.Rescore>
     Score         DG    S(hbond)    S(metal)    S(lipo)     H(rot)  DE(clash)    DE(int)     intcor
     14.44     -15.18       2.28        0.00      58.00       1.84       0.00       0.74       ----

> <Gold.Chemscore.Fitness>
14.4443

> <Gold.Chemscore.DG>
-15.1844

> <Gold.Chemscore.ZeroCoef>
-5.4800

> <Gold.Chemscore.Hbond>
2.2831

> <Gold.Chemscore.Metal>
0.0000

> <Gold.Chemscore.Lipo>
57.9980

> <Gold.Chemscore.Internal_Hbond>
0.0000

> <Gold.Chemscore.DEClash>
0.0029

> <Gold.Chemscore.DEInternal>
0.7372

> <Gold.Chemscore.Rot>
1.8386

> <Gold.Chemscore.Internal.Correction>
   9.000000E+99

> <Gold.Chemscore.Hbonds>
donor molecule, donor type, donor heavy atom, donor atom, acceptor molecule, acceptor atom, score
      L1  H     6    41       P1  7948  0.97
      L1  H     9    33       P1  7948  0.31
      P1  H  7989  7998       L1    17  0.29

> <Gold.Chemscore.Hbond.Weighted>
-7.6255

> <Gold.Chemscore.Metal.Weighted>
-0.0000

> <Gold.Chemscore.Lipo.Weighted>
-6.7858

> <Gold.Chemscore.Internal_Hbond.Weighted>
0.0000

> <Gold.Chemscore.DEClash.Weighted>
0.0029

> <Gold.Chemscore.DEInternal.Weighted>
0.7372

> <Gold.Chemscore.Rot.Weighted>
4.7069

> <Gold.Chemscore.Internal.Correction.Weighted>
   9.000000E+99

> <Gold.Protein.RotatedTorsions>
[ 6907 6896 6895 6894 ] final -177.01 input  -60.11 | X-H torsion
[ 7974 7965 7964 7962 ] final  -58.73 input  175.53 | X-H torsion
[ 8008 7997 7996 7995 ] final   26.91 input   59.86 | X-H torsion
[ 10167 10162 10161 10158 ] final  -91.97 input  -65.29 | X-H torsion
[ 10718 10713 10712 10709 ] final  -73.66 input   66.30 | X-H torsion
[ 10763 10752 10751 10750 ] final -143.23 input  -60.55 | X-H torsion
[ 11005 11000 10999 10996 ] final -124.63 input  -57.11 | X-H torsion

> <Gold.Protein.ActiveResidues>
 VAL166  LYS551  ARG553  GLY616  TRP617  ASP618  TYR619  PRO620  LYS621  CYS622 
 ASP623  PHE694  ASN695  SER759  ASP760  ASP761  ALA762  ILE779  LEU786  VAL792 
 PHE793  MET794  SER795  GLU796  ALA797  LYS798  CYS799  TRP800  GLU811  SER814 

> <Gold.Protein.RotatedAtoms>
  151.6141  133.3344  159.3073 H   0  0  0  0  0  0  0  0  0  0  0  0  # atno 6907 bound_to 6896
  150.8141  134.7316  159.6725 H   0  0  0  0  0  0  0  0  0  0  0  0  # atno 6908 bound_to 6896
  152.4237  134.5913  160.0026 H   0  0  0  0  0  0  0  0  0  0  0  0  # atno 6909 bound_to 6896
  145.8358  140.8449  143.0060 H   0  0  0  0  0  0  0  0  0  0  0  0  # atno 7974 bound_to 7965
  155.0347  140.3162  155.4745 H   0  0  0  0  0  0  0  0  0  0  0  0  # atno 8008 bound_to 7997
  156.2867  140.2174  156.5412 H   0  0  0  0  0  0  0  0  0  0  0  0  # atno 8009 bound_to 7997
  154.7340  140.0479  157.0740 H   0  0  0  0  0  0  0  0  0  0  0  0  # atno 8010 bound_to 7997
  140.3395  143.2950  151.9851 H   0  0  0  0  0  0  0  0  0  0  0  0  # atno 10167 bound_to 10162
  156.0272  130.4399  150.2776 H   0  0  0  0  0  0  0  0  0  0  0  0  # atno 10718 bound_to 10713
  154.8478  135.3474  154.6153 H   0  0  0  0  0  0  0  0  0  0  0  0  # atno 10763 bound_to 10752
  153.6762  135.6982  153.5136 H   0  0  0  0  0  0  0  0  0  0  0  0  # atno 10764 bound_to 10752
  153.2704  135.4295  155.0938 H   0  0  0  0  0  0  0  0  0  0  0  0  # atno 10765 bound_to 10752
  140.9826  134.0652  157.3748 H   0  0  0  0  0  0  0  0  0  0  0  0  # atno 11005 bound_to 11000
  144.6736  140.0740  143.7472 LP  0  0  0  0  0  0  0  0  0  0  0  0  # atno 17320 bound_to 7965
  145.9520  139.2740  143.1206 LP  0  0  0  0  0  0  0  0  0  0  0  0  # atno 17321 bound_to 7965
  139.4843  144.6169  151.7330 LP  0  0  0  0  0  0  0  0  0  0  0  0  # atno 17342 bound_to 10162
  140.5322  144.0712  150.6058 LP  0  0  0  0  0  0  0  0  0  0  0  0  # atno 17343 bound_to 10162
  157.0879  131.0161  151.3132 LP  0  0  0  0  0  0  0  0  0  0  0  0  # atno 17370 bound_to 10713
  157.4877  130.7803  149.7476 LP  0  0  0  0  0  0  0  0  0  0  0  0  # atno 17371 bound_to 10713
  139.8956  135.0142  156.7012 LP  0  0  0  0  0  0  0  0  0  0  0  0  # atno 17394 bound_to 11000
  140.7164  133.9179  155.8117 LP  0  0  0  0  0  0  0  0  0  0  0  0  # atno 17395 bound_to 11000

$$$$
