AV-unprocessed.smi:1693|AV-procd|sdf|6786|dock9
  -GOLD-   22720 7543D 1   1.00000     0.00000
 Structure written by MMmdl.
 35 36  0  0  0  0  0  0  0  0  2 V2000
  145.6569  141.9643  154.9654 C   0  0  0  0  0  0  0  0  0  0  0  0
  147.0716  141.5531  155.1909 C   0  0  0  0  0  0  0  0  0  0  0  0
  147.5918  141.3980  156.4107 N   0  0  0  0  0  0  0  0  0  0  0  0
  148.9226  141.0083  156.3655 N   0  0  0  0  0  0  0  0  0  0  0  0
  149.3873  140.8666  155.1160 C   0  0  0  0  0  0  0  0  0  0  0  0
  150.6527  140.4980  154.8560 N   0  5  0  0  0  0  0  0  0  0  0  0
  151.5661  140.4649  155.8530 C   0  0  0  0  0  0  0  0  0  0  0  0
  152.4892  139.6554  155.9689 O   0  0  0  0  0  0  0  0  0  0  0  0
  151.4032  141.4346  156.7654 N   0  0  0  0  0  0  0  0  0  0  0  0
  152.2275  141.6632  157.9524 C   0  0  0  0  0  0  0  0  0  0  0  0
  151.6857  142.7882  158.8710 C   0  0  0  0  0  0  0  0  0  0  0  0
  150.3969  142.3816  159.2968 O   0  0  0  0  0  0  0  0  0  0  0  0
  152.5749  142.8948  160.1339 C   0  0  0  0  0  0  0  0  0  0  0  0
  152.1583  144.0378  161.0769 C   0  0  0  0  0  0  0  0  0  0  0  0
  152.1108  145.3805  160.3356 C   0  0  0  0  0  0  0  0  0  0  0  0
  151.1733  145.3019  159.1233 C   0  0  0  0  0  0  0  0  0  0  0  0
  151.5810  144.1663  158.1676 C   0  0  0  0  0  0  0  0  0  0  0  0
  148.1886  141.2325  153.8750 S   0  0  0  0  0  0  0  0  0  0  0  0
  144.9895  141.1264  155.1664 H   0  0  0  0  0  0  0  0  0  0  0  0
  145.5152  142.2861  153.9337 H   0  0  0  0  0  0  0  0  0  0  0  0
  145.3944  142.7904  155.6267 H   0  0  0  0  0  0  0  0  0  0  0  0
  150.6388  142.0774  156.6198 H   0  0  0  0  0  0  0  0  0  0  0  0
  152.2950  140.7249  158.5043 H   0  0  0  0  0  0  0  0  0  0  0  0
  153.2505  141.8943  157.6516 H   0  0  0  0  0  0  0  0  0  0  0  0
  149.9434  143.1378  159.6357 H   0  0  0  0  0  0  0  0  0  0  0  0
  152.5717  141.9502  160.6798 H   0  0  0  0  0  0  0  0  0  0  0  0
  153.6093  143.0616  159.8298 H   0  0  0  0  0  0  0  0  0  0  0  0
  151.1817  143.8233  161.5124 H   0  0  0  0  0  0  0  0  0  0  0  0
  152.8573  144.1005  161.9114 H   0  0  0  0  0  0  0  0  0  0  0  0
  151.7801  146.1686  161.0123 H   0  0  0  0  0  0  0  0  0  0  0  0
  153.1139  145.6544  160.0061 H   0  0  0  0  0  0  0  0  0  0  0  0
  150.1482  145.1488  159.4626 H   0  0  0  0  0  0  0  0  0  0  0  0
  151.1789  146.2522  158.5891 H   0  0  0  0  0  0  0  0  0  0  0  0
  152.5453  144.4128  157.7212 H   0  0  0  0  0  0  0  0  0  0  0  0
  150.8672  144.1259  157.3440 H   0  0  0  0  0  0  0  0  0  0  0  0
  1  2  1  0  0  0  0
  1 19  1  0  0  0  0
  1 20  1  0  0  0  0
  1 21  1  0  0  0  0
  2 18  1  0  0  0  0
  2  3  2  0  0  0  0
  3  4  1  0  0  0  0
  4  5  2  0  0  0  0
  5  6  1  0  0  0  0
  5 18  1  0  0  0  0
  6  7  1  0  0  0  0
  7  8  2  0  0  0  0
  7  9  1  0  0  0  0
  9 10  1  0  0  0  0
  9 22  1  0  0  0  0
 10 11  1  0  0  0  0
 10 23  1  0  0  0  0
 10 24  1  0  0  0  0
 11 17  1  0  0  0  0
 11 12  1  0  0  0  0
 11 13  1  0  0  0  0
 12 25  1  0  0  0  0
 13 14  1  0  0  0  0
 13 26  1  0  0  0  0
 13 27  1  0  0  0  0
 14 15  1  0  0  0  0
 14 28  1  0  0  0  0
 14 29  1  0  0  0  0
 15 16  1  0  0  0  0
 15 30  1  0  0  0  0
 15 31  1  0  0  0  0
 16 17  1  0  0  0  0
 16 32  1  0  0  0  0
 16 33  1  0  0  0  0
 17 34  1  0  0  0  0
 17 35  1  0  0  0  0
M  CHG  1   6  -1
M  END
> <s_m_source_file>
AV-unprocessed.smi

> <i_m_source_file_index>
1693

> <i_lp_mmshare_version>
43012

> <i_f3d_flags>
0

> <s_epik_input>
W0NIM11jMW5uYyhzMSlbTkhdQyg9TylbTkhdW0NIMl1DMihbT0hdKVtDSDJdW0NIMl1bQ0gyXVtDSDJdW0NIMl0y

> <s_epik_cmdline>
J2VwaWtfcHl0aG9uJywgJy1waCcsICc3LjAnLCAnLXRuJywgJzgnLCAnLW1hJywgJzIwMCcsICctbWV0YWxfYmluZGluZycsICctaW1hZScsICc8aW5maWxlLm1hZT4nLCAnLW9tYWUnLCAnPG91dGZpbGUubWFlPic=

> <r_lp_tautomer_probability>
1

> <r_epik_Ionization_Penalty>
4.37877

> <r_epik_Ionization_Penalty_Charging>
4.24206

> <r_epik_Ionization_Penalty_Neutral>
0.136706

> <r_epik_State_Penalty>
4.2416

> <r_epik_Charging_Adjusted_Penalty>
8.48367

> <i_epik_Tot_Q>
-1

> <i_epik_Tot_abs_Q>
1

> <r_epik_Metal_State_Penalty>
0.704476

> <b_epik_Metal_Only>
1

> <s_lp_Force_Field>
OPLS_2005

> <r_lp_Energy>
12.2595

> <b_lp_Chiralities_Consistent>
1

> <s_lp_Variant>
AV-unprocessed.smi:1693-2

> <Gold.Version>
5.8.1

> <Gold.Id.Protein>
6NUR|6NUR_protein|mol2

> <Gold.PLP.Fitness>
41.5869

> <Gold.PLP.PLP>
-39.1691

> <Gold.PLP.part.hbond>
-2.9826

> <Gold.PLP.part.metal>
0.0000

> <Gold.PLP.part.buried>
-3.4365

> <Gold.PLP.part.nonpolar>
-31.3347

> <Gold.PLP.part.repulsive>
0.3663

> <Gold.PLP.ligand.clash>
3.0107

> <Gold.PLP.ligand.torsion>
0.2967

> <Gold.PLP.Chemscore.Hbond>
2.0000

> <Gold.PLP.Chemscore.CHOScore>
0.0000

> <Gold.PLP.Chemscore.Metal>
0.0000

> <Gold.Chemscore.Hbonds>
donor molecule, donor type, donor heavy atom, donor atom, acceptor molecule, acceptor atom, score
      P1  H  7989  7998       L1     6  1.00
      P1  H  7997  8009       L1     8  1.00

> <Gold.PLP.Chemscore.Internal.Correction>
0.0219

> <Gold.Rescore>
     Score         DG    S(hbond)    S(metal)    S(lipo)     H(rot)  DE(clash)    DE(int)     intcor
     17.74     -18.21       1.77        0.00      98.42       1.83       0.22       0.26       ----

> <Gold.Chemscore.Fitness>
17.7360

> <Gold.Chemscore.DG>
-18.2142

> <Gold.Chemscore.ZeroCoef>
-5.4800

> <Gold.Chemscore.Hbond>
1.7679

> <Gold.Chemscore.Metal>
0.0000

> <Gold.Chemscore.Lipo>
98.4166

> <Gold.Chemscore.Internal_Hbond>
0.0000

> <Gold.Chemscore.DEClash>
0.2163

> <Gold.Chemscore.DEInternal>
0.2619

> <Gold.Chemscore.Rot>
1.8303

> <Gold.Chemscore.Internal.Correction>
   9.000000E+99

> <Gold.Chemscore.Hbonds>
donor molecule, donor type, donor heavy atom, donor atom, acceptor molecule, acceptor atom, score
      P1  H  7989  7998       L1     6  0.33
      P1  H  7997  8009       L1     8  0.99

> <Gold.Chemscore.Hbond.Weighted>
-5.9049

> <Gold.Chemscore.Metal.Weighted>
-0.0000

> <Gold.Chemscore.Lipo.Weighted>
-11.5147

> <Gold.Chemscore.Internal_Hbond.Weighted>
0.0000

> <Gold.Chemscore.DEClash.Weighted>
0.2163

> <Gold.Chemscore.DEInternal.Weighted>
0.2619

> <Gold.Chemscore.Rot.Weighted>
4.6855

> <Gold.Chemscore.Internal.Correction.Weighted>
   9.000000E+99

> <Gold.Protein.RotatedTorsions>
[ 6907 6896 6895 6894 ] final  170.34 input  -60.11 | X-H torsion
[ 7974 7965 7964 7962 ] final  -99.35 input  175.53 | X-H torsion
[ 8008 7997 7996 7995 ] final -163.46 input   59.86 | X-H torsion
[ 10167 10162 10161 10158 ] final  -90.92 input  -65.29 | X-H torsion
[ 10718 10713 10712 10709 ] final  -38.15 input   66.30 | X-H torsion
[ 10763 10752 10751 10750 ] final -165.03 input  -60.55 | X-H torsion
[ 11005 11000 10999 10996 ] final   82.29 input  -57.11 | X-H torsion

> <Gold.Protein.ActiveResidues>
 VAL166  LYS551  ARG553  GLY616  TRP617  ASP618  TYR619  PRO620  LYS621  CYS622 
 ASP623  PHE694  ASN695  SER759  ASP760  ASP761  ALA762  ILE779  LEU786  VAL792 
 PHE793  MET794  SER795  GLU796  ALA797  LYS798  CYS799  TRP800  GLU811  SER814 

> <Gold.Protein.RotatedAtoms>
  151.8177  133.3390  159.3574 H   0  0  0  0  0  0  0  0  0  0  0  0  # atno 6907 bound_to 6896
  150.7305  134.5604  159.5848 H   0  0  0  0  0  0  0  0  0  0  0  0  # atno 6908 bound_to 6896
  152.3029  134.7591  160.0405 H   0  0  0  0  0  0  0  0  0  0  0  0  # atno 6909 bound_to 6896
  145.3087  140.9395  143.2782 H   0  0  0  0  0  0  0  0  0  0  0  0  # atno 7974 bound_to 7965
  155.8216  140.0920  157.1846 H   0  0  0  0  0  0  0  0  0  0  0  0  # atno 8008 bound_to 7997
  154.3979  140.1436  156.3566 H   0  0  0  0  0  0  0  0  0  0  0  0  # atno 8009 bound_to 7997
  155.8261  140.3444  155.5546 H   0  0  0  0  0  0  0  0  0  0  0  0  # atno 8010 bound_to 7997
  140.3501  143.2896  151.9736 H   0  0  0  0  0  0  0  0  0  0  0  0  # atno 10167 bound_to 10162
  156.3070  130.4247  149.8087 H   0  0  0  0  0  0  0  0  0  0  0  0  # atno 10718 bound_to 10713
  154.6972  135.2981  154.9395 H   0  0  0  0  0  0  0  0  0  0  0  0  # atno 10763 bound_to 10752
  154.0339  135.6666  153.4787 H   0  0  0  0  0  0  0  0  0  0  0  0  # atno 10764 bound_to 10752
  153.0654  135.5091  154.8096 H   0  0  0  0  0  0  0  0  0  0  0  0  # atno 10765 bound_to 10752
  139.9068  134.8061  156.2155 H   0  0  0  0  0  0  0  0  0  0  0  0  # atno 11005 bound_to 11000
  144.9033  139.4621  143.6622 LP  0  0  0  0  0  0  0  0  0  0  0  0  # atno 17320 bound_to 7965
  146.3126  139.7800  142.9008 LP  0  0  0  0  0  0  0  0  0  0  0  0  # atno 17321 bound_to 7965
  139.4827  144.6083  151.7480 LP  0  0  0  0  0  0  0  0  0  0  0  0  # atno 17342 bound_to 10162
  140.5227  144.0854  150.6027 LP  0  0  0  0  0  0  0  0  0  0  0  0  # atno 17343 bound_to 10162
  156.5444  130.8314  151.3279 LP  0  0  0  0  0  0  0  0  0  0  0  0  # atno 17370 bound_to 10713
  157.7382  130.9809  150.2238 LP  0  0  0  0  0  0  0  0  0  0  0  0  # atno 17371 bound_to 10713
  141.0438  133.6924  156.1646 LP  0  0  0  0  0  0  0  0  0  0  0  0  # atno 17394 bound_to 11000
  140.6915  134.4661  157.5588 LP  0  0  0  0  0  0  0  0  0  0  0  0  # atno 17395 bound_to 11000

$$$$
