AV-unprocessed.smi:1998|AV-procd|sdf|8091|dock3
  -GOLD-   2272010303D 1   1.00000     0.00000
 Structure written by MMmdl.
 48 49  0  0  0  0  0  0  0  0  2 V2000
  152.1328  144.7286  160.3791 C   0  0  0  0  0  0  0  0  0  0  0  0
  152.0785  143.5842  159.4103 C   0  0  0  0  0  0  0  0  0  0  0  0
  152.5366  142.2499  159.5957 C   0  0  0  0  0  0  0  0  0  0  0  0
  152.2481  141.6267  158.4144 C   0  0  0  0  0  0  0  0  0  0  0  0
  152.4845  140.2162  157.9850 C   0  0  0  0  0  0  0  0  0  0  0  0
  151.6528  142.5716  157.5975 N   0  0  0  0  0  0  0  0  0  0  0  0
  151.1585  142.4264  156.2355 C   0  0  0  0  0  0  0  0  0  0  0  0
  150.2492  141.2042  156.0581 C   0  0  0  0  0  0  0  0  0  0  0  0
  150.7200  140.0801  155.8786 O   0  0  0  0  0  0  0  0  0  0  0  0
  148.9301  141.4492  156.0985 N   0  0  0  0  0  0  0  0  0  0  0  0
  147.8698  140.4553  155.9282 C   0  0  0  0  0  0  0  0  0  0  0  0
  146.6935  140.9322  155.0211 C   0  0  0  0  0  0  0  0  0  0  0  0
  145.6502  141.6294  155.9344 C   0  0  0  0  0  0  0  0  0  0  0  0
  147.1851  141.9747  153.9867 C   0  0  0  0  0  0  0  0  0  0  0  0
  146.0980  139.7252  154.3354 N   0  3  0  0  0  0  0  0  0  0  0  0
  146.8851  139.1503  153.2062 C   0  0  0  0  0  0  0  0  0  0  0  0
  146.1044  138.0217  152.5088 C   0  0  0  0  0  0  0  0  0  0  0  0
  145.7460  137.0198  153.4484 O   0  0  0  0  0  0  0  0  0  0  0  0
  144.9065  137.5389  154.4684 C   0  0  0  0  0  0  0  0  0  0  0  0
  145.6677  138.6240  155.2455 C   0  0  0  0  0  0  0  0  0  0  0  0
  151.5489  143.7701  158.2125 N   0  0  0  0  0  0  0  0  0  0  0  0
  152.5678  144.4194  161.3296 H   0  0  0  0  0  0  0  0  0  0  0  0
  151.1354  145.1192  160.5827 H   0  0  0  0  0  0  0  0  0  0  0  0
  152.7385  145.5462  159.9876 H   0  0  0  0  0  0  0  0  0  0  0  0
  153.0075  141.8158  160.4656 H   0  0  0  0  0  0  0  0  0  0  0  0
  153.0080  139.6561  158.7599 H   0  0  0  0  0  0  0  0  0  0  0  0
  153.0897  140.1809  157.0791 H   0  0  0  0  0  0  0  0  0  0  0  0
  151.5410  139.7087  157.7840 H   0  0  0  0  0  0  0  0  0  0  0  0
  150.6187  143.3337  155.9622 H   0  0  0  0  0  0  0  0  0  0  0  0
  152.0053  142.3429  155.5525 H   0  0  0  0  0  0  0  0  0  0  0  0
  148.6361  142.4038  156.2472 H   0  0  0  0  0  0  0  0  0  0  0  0
  148.3132  139.5301  155.5630 H   0  0  0  0  0  0  0  0  0  0  0  0
  147.4879  140.2197  156.9221 H   0  0  0  0  0  0  0  0  0  0  0  0
  146.0893  142.4427  156.5123 H   0  0  0  0  0  0  0  0  0  0  0  0
  145.2101  140.9301  156.6461 H   0  0  0  0  0  0  0  0  0  0  0  0
  144.8424  142.0867  155.3627 H   0  0  0  0  0  0  0  0  0  0  0  0
  147.4871  142.9046  154.4695 H   0  0  0  0  0  0  0  0  0  0  0  0
  146.4052  142.2319  153.2701 H   0  0  0  0  0  0  0  0  0  0  0  0
  148.0499  141.6192  153.4261 H   0  0  0  0  0  0  0  0  0  0  0  0
  147.1007  139.8973  152.4443 H   0  0  0  0  0  0  0  0  0  0  0  0
  147.8402  138.7722  153.5725 H   0  0  0  0  0  0  0  0  0  0  0  0
  145.2101  138.4125  152.0204 H   0  0  0  0  0  0  0  0  0  0  0  0
  146.7175  137.5690  151.7294 H   0  0  0  0  0  0  0  0  0  0  0  0
  143.9840  137.9346  154.0399 H   0  0  0  0  0  0  0  0  0  0  0  0
  144.6237  136.7263  155.1376 H   0  0  0  0  0  0  0  0  0  0  0  0
  146.5366  138.1668  155.7203 H   0  0  0  0  0  0  0  0  0  0  0  0
  145.0252  138.9873  156.0441 H   0  0  0  0  0  0  0  0  0  0  0  0
  145.2510  140.0690  153.9055 H   0  0  0  0  0  0  0  0  0  0  0  0
  1  2  1  0  0  0  0
  1 22  1  0  0  0  0
  1 23  1  0  0  0  0
  1 24  1  0  0  0  0
  2 21  2  0  0  0  0
  2  3  1  0  0  0  0
  3  4  2  0  0  0  0
  3 25  1  0  0  0  0
  4  5  1  0  0  0  0
  4  6  1  0  0  0  0
  5 26  1  0  0  0  0
  5 27  1  0  0  0  0
  5 28  1  0  0  0  0
  6  7  1  0  0  0  0
  6 21  1  0  0  0  0
  7  8  1  0  0  0  0
  7 29  1  0  0  0  0
  7 30  1  0  0  0  0
  8  9  2  0  0  0  0
  8 10  1  0  0  0  0
 10 11  1  0  0  0  0
 10 31  1  0  0  0  0
 11 12  1  0  0  0  0
 11 32  1  0  0  0  0
 11 33  1  0  0  0  0
 12 13  1  0  0  0  0
 12 14  1  0  0  0  0
 12 15  1  0  0  0  0
 13 34  1  0  0  0  0
 13 35  1  0  0  0  0
 13 36  1  0  0  0  0
 14 37  1  0  0  0  0
 14 38  1  0  0  0  0
 14 39  1  0  0  0  0
 15 20  1  0  0  0  0
 15 16  1  0  0  0  0
 15 48  1  0  0  0  0
 16 17  1  0  0  0  0
 16 40  1  0  0  0  0
 16 41  1  0  0  0  0
 17 18  1  0  0  0  0
 17 42  1  0  0  0  0
 17 43  1  0  0  0  0
 18 19  1  0  0  0  0
 19 20  1  0  0  0  0
 19 44  1  0  0  0  0
 19 45  1  0  0  0  0
 20 46  1  0  0  0  0
 20 47  1  0  0  0  0
M  CHG  1  15   1
M  END
> <s_m_source_file>
AV-unprocessed.smi

> <i_m_source_file_index>
1998

> <i_lp_mmshare_version>
43012

> <i_f3d_flags>
0

> <s_epik_input>
W0NIM11jMVtjSF1jKFtDSDNdKW4objEpW0NIMl1DKD1PKVtOSF1bQ0gyXUMoW0NIM10pKFtDSDNdKU4yW0NIMl1bQ0gyXU9bQ0gyXVtDSDJdMg==

> <s_epik_cmdline>
J2VwaWtfcHl0aG9uJywgJy1waCcsICc3LjAnLCAnLXRuJywgJzgnLCAnLW1hJywgJzIwMCcsICctbWV0YWxfYmluZGluZycsICctaW1hZScsICc8aW5maWxlLm1hZT4nLCAnLW9tYWUnLCAnPG91dGZpbGUubWFlPic=

> <r_lp_tautomer_probability>
1

> <r_epik_Ionization_Penalty>
0.748602

> <r_epik_Ionization_Penalty_Charging>
0.748396

> <r_epik_Ionization_Penalty_Neutral>
0.000205295

> <r_epik_State_Penalty>
0.775162

> <r_epik_Charging_Adjusted_Penalty>
1.52356

> <i_epik_Tot_Q>
1

> <i_epik_Tot_abs_Q>
1

> <r_epik_Metal_State_Penalty>
0.775274

> <b_epik_Metal_Only>
0

> <s_lp_Force_Field>
OPLS_2005

> <r_lp_Energy>
25.5475

> <b_lp_Chiralities_Consistent>
1

> <s_lp_Variant>
AV-unprocessed.smi:1998-2

> <Gold.Version>
5.8.1

> <Gold.Id.Protein>
6NUR|6NUR_protein|mol2

> <Gold.PLP.Fitness>
40.4566

> <Gold.PLP.PLP>
-34.4701

> <Gold.PLP.part.hbond>
-1.9559

> <Gold.PLP.part.metal>
0.0000

> <Gold.PLP.part.buried>
-6.2742

> <Gold.PLP.part.nonpolar>
-27.5834

> <Gold.PLP.part.repulsive>
0.3524

> <Gold.PLP.ligand.clash>
0.0000

> <Gold.PLP.ligand.torsion>
1.2639

> <Gold.PLP.Chemscore.Hbond>
2.7963

> <Gold.PLP.Chemscore.CHOScore>
0.0000

> <Gold.PLP.Chemscore.Metal>
0.0000

> <Gold.Chemscore.Hbonds>
donor molecule, donor type, donor heavy atom, donor atom, acceptor molecule, acceptor atom, score
      L1  H    10    31       P1  8028  0.08
      L1  H    15    48       P1 10175  1.37

> <Gold.PLP.Chemscore.Internal.Correction>
0.1256

> <Gold.Rescore>
     Score         DG    S(hbond)    S(metal)    S(lipo)     H(rot)  DE(clash)    DE(int)     intcor
     13.86     -16.47       1.54        0.00      87.92       1.74       0.13       2.49       ----

> <Gold.Chemscore.Fitness>
13.8561

> <Gold.Chemscore.DG>
-16.4703

> <Gold.Chemscore.ZeroCoef>
-5.4800

> <Gold.Chemscore.Hbond>
1.5430

> <Gold.Chemscore.Metal>
0.0000

> <Gold.Chemscore.Lipo>
87.9216

> <Gold.Chemscore.Internal_Hbond>
0.0000

> <Gold.Chemscore.DEClash>
0.1289

> <Gold.Chemscore.DEInternal>
2.4852

> <Gold.Chemscore.Rot>
1.7383

> <Gold.Chemscore.Internal.Correction>
   9.000000E+99

> <Gold.Chemscore.Hbonds>
donor molecule, donor type, donor heavy atom, donor atom, acceptor molecule, acceptor atom, score
      L1  H    10    31       P1  8028  0.12
      L1  H    15    48       P1 10175  0.67

> <Gold.Chemscore.Hbond.Weighted>
-5.1536

> <Gold.Chemscore.Metal.Weighted>
-0.0000

> <Gold.Chemscore.Lipo.Weighted>
-10.2868

> <Gold.Chemscore.Internal_Hbond.Weighted>
0.0000

> <Gold.Chemscore.DEClash.Weighted>
0.1289

> <Gold.Chemscore.DEInternal.Weighted>
2.4852

> <Gold.Chemscore.Rot.Weighted>
4.4501

> <Gold.Chemscore.Internal.Correction.Weighted>
   9.000000E+99

> <Gold.Protein.RotatedTorsions>
[ 6907 6896 6895 6894 ] final  -76.55 input  -60.11 | X-H torsion
[ 7974 7965 7964 7962 ] final -171.79 input  175.53 | X-H torsion
[ 8008 7997 7996 7995 ] final -110.51 input   59.86 | X-H torsion
[ 10167 10162 10161 10158 ] final   39.80 input  -65.29 | X-H torsion
[ 10718 10713 10712 10709 ] final  -29.84 input   66.30 | X-H torsion
[ 10763 10752 10751 10750 ] final -103.70 input  -60.55 | X-H torsion
[ 11005 11000 10999 10996 ] final -137.71 input  -57.11 | X-H torsion

> <Gold.Protein.ActiveResidues>
 VAL166  LYS551  ARG553  GLY616  TRP617  ASP618  TYR619  PRO620  LYS621  CYS622 
 ASP623  PHE694  ASN695  SER759  ASP760  ASP761  ALA762  ILE779  LEU786  VAL792 
 PHE793  MET794  SER795  GLU796  ALA797  LYS798  CYS799  TRP800  GLU811  SER814 

> <Gold.Protein.RotatedAtoms>
  150.7024  134.4555  159.5355 H   0  0  0  0  0  0  0  0  0  0  0  0  # atno 6907 bound_to 6896
  152.2239  134.8383  160.0491 H   0  0  0  0  0  0  0  0  0  0  0  0  # atno 6908 bound_to 6896
  151.9224  133.3554  159.3938 H   0  0  0  0  0  0  0  0  0  0  0  0  # atno 6909 bound_to 6896
  144.7153  140.1870  143.6352 H   0  0  0  0  0  0  0  0  0  0  0  0  # atno 7974 bound_to 7965
  154.9756  140.0397  157.2254 H   0  0  0  0  0  0  0  0  0  0  0  0  # atno 8008 bound_to 7997
  154.7761  140.2810  155.6077 H   0  0  0  0  0  0  0  0  0  0  0  0  # atno 8009 bound_to 7997
  156.2929  140.2600  156.2575 H   0  0  0  0  0  0  0  0  0  0  0  0  # atno 8010 bound_to 7997
  140.3804  144.1987  150.6131 H   0  0  0  0  0  0  0  0  0  0  0  0  # atno 10167 bound_to 10162
  156.4073  130.4401  149.7278 H   0  0  0  0  0  0  0  0  0  0  0  0  # atno 10718 bound_to 10713
  154.7826  135.4813  153.9877 H   0  0  0  0  0  0  0  0  0  0  0  0  # atno 10763 bound_to 10752
  153.1515  135.6792  153.8882 H   0  0  0  0  0  0  0  0  0  0  0  0  # atno 10764 bound_to 10752
  153.8525  135.3165  155.3411 H   0  0  0  0  0  0  0  0  0  0  0  0  # atno 10765 bound_to 10752
  140.8685  134.2081  157.4665 H   0  0  0  0  0  0  0  0  0  0  0  0  # atno 11005 bound_to 11000
  145.8804  139.2320  143.1609 LP  0  0  0  0  0  0  0  0  0  0  0  0  # atno 17320 bound_to 7965
  146.0000  140.8528  143.0023 LP  0  0  0  0  0  0  0  0  0  0  0  0  # atno 17321 bound_to 7965
  140.4943  143.2337  151.8773 LP  0  0  0  0  0  0  0  0  0  0  0  0  # atno 17342 bound_to 10162
  139.4796  144.5131  151.8905 LP  0  0  0  0  0  0  0  0  0  0  0  0  # atno 17343 bound_to 10162
  156.4270  130.7797  151.2815 LP  0  0  0  0  0  0  0  0  0  0  0  0  # atno 17370 bound_to 10713
  157.7506  131.0165  150.3549 LP  0  0  0  0  0  0  0  0  0  0  0  0  # atno 17371 bound_to 10713
  139.8710  134.9763  156.4915 LP  0  0  0  0  0  0  0  0  0  0  0  0  # atno 17394 bound_to 11000
  140.8601  133.8066  155.9256 LP  0  0  0  0  0  0  0  0  0  0  0  0  # atno 17395 bound_to 11000

$$$$
