AV-unprocessed.smi:1336|AV-procd|sdf|5496|dock4
  -GOLD-   22720 5 73D 1   1.00000     0.00000
 Structure written by MMmdl.
 43 43  0  0  0  0  0  0  0  0  1 V2000
  145.1025  136.2607  150.9543 C   0  0  0  0  0  0  0  0  0  0  0  0
  145.9770  137.4118  151.4712 C   0  0  0  0  0  0  0  0  0  0  0  0
  146.1147  137.4397  153.0016 C   0  0  0  0  0  0  0  0  0  0  0  0
  147.4915  137.7097  153.4025 N   0  0  0  0  0  0  0  0  0  0  0  0
  147.9273  138.8262  154.0050 C   0  0  0  0  0  0  0  0  0  0  0  0
  147.1951  139.7780  154.2830 O   0  0  0  0  0  0  0  0  0  0  0  0
  149.4222  138.8562  154.3651 C   0  0  2  0  0  0  0  0  0  0  0  0
  149.6923  137.7135  155.3580 C   0  0  0  0  0  0  0  0  0  0  0  0
  149.7580  140.1159  155.0240 N   0  0  0  0  0  0  0  0  0  0  0  0
  150.9931  140.6350  155.1280 C   0  0  0  0  0  0  0  0  0  0  0  0
  152.0069  140.0483  154.7497 O   0  0  0  0  0  0  0  0  0  0  0  0
  151.1029  142.0327  155.7458 C   0  0  0  0  0  0  0  0  0  0  0  0
  151.9123  141.9923  157.0127 C   0  0  0  0  0  0  0  0  0  0  0  0
  152.3778  140.8719  157.6555 C   0  0  0  0  0  0  0  0  0  0  0  0
  153.2286  141.2699  159.1228 S   0  0  0  0  0  0  0  0  0  0  0  0
  152.9244  142.9738  158.8032 C   0  0  0  0  0  0  0  0  0  0  0  0
  153.3677  144.0730  159.7157 C   0  0  0  0  0  0  0  0  0  0  0  0
  152.9815  143.7956  161.1763 C   0  0  0  0  0  0  0  0  0  0  0  0
  152.9112  145.4537  159.2229 C   0  0  0  0  0  0  0  0  0  0  0  0
  152.2500  143.1810  157.6688 N   0  0  0  0  0  0  0  0  0  0  0  0
  144.9990  136.3108  149.8702 H   0  0  0  0  0  0  0  0  0  0  0  0
  144.1025  136.3022  151.3866 H   0  0  0  0  0  0  0  0  0  0  0  0
  145.5335  135.2896  151.1991 H   0  0  0  0  0  0  0  0  0  0  0  0
  146.9653  137.3494  151.0141 H   0  0  0  0  0  0  0  0  0  0  0  0
  145.5487  138.3577  151.1380 H   0  0  0  0  0  0  0  0  0  0  0  0
  145.4817  138.2261  153.4134 H   0  0  0  0  0  0  0  0  0  0  0  0
  145.7495  136.4993  153.4174 H   0  0  0  0  0  0  0  0  0  0  0  0
  148.1672  136.9833  153.2154 H   0  0  0  0  0  0  0  0  0  0  0  0
  150.0339  138.7210  153.4708 H   0  0  0  0  0  0  0  0  0  0  0  0
  149.4583  136.7431  154.9181 H   0  0  0  0  0  0  0  0  0  0  0  0
  149.1011  137.8175  156.2691 H   0  0  0  0  0  0  0  0  0  0  0  0
  150.7433  137.6916  155.6485 H   0  0  0  0  0  0  0  0  0  0  0  0
  148.9842  140.6711  155.3592 H   0  0  0  0  0  0  0  0  0  0  0  0
  151.5571  142.7033  155.0155 H   0  0  0  0  0  0  0  0  0  0  0  0
  150.1037  142.4216  155.9455 H   0  0  0  0  0  0  0  0  0  0  0  0
  152.2600  139.8389  157.3637 H   0  0  0  0  0  0  0  0  0  0  0  0
  154.4578  144.0790  159.6814 H   0  0  0  0  0  0  0  0  0  0  0  0
  153.3895  142.8431  161.5159 H   0  0  0  0  0  0  0  0  0  0  0  0
  151.8986  143.7549  161.2997 H   0  0  0  0  0  0  0  0  0  0  0  0
  153.3622  144.5738  161.8382 H   0  0  0  0  0  0  0  0  0  0  0  0
  153.2675  145.6460  158.2104 H   0  0  0  0  0  0  0  0  0  0  0  0
  153.2963  146.2464  159.8647 H   0  0  0  0  0  0  0  0  0  0  0  0
  151.8237  145.5319  159.2146 H   0  0  0  0  0  0  0  0  0  0  0  0
  1  2  1  0  0  0  0
  1 21  1  0  0  0  0
  1 22  1  0  0  0  0
  1 23  1  0  0  0  0
  2  3  1  0  0  0  0
  2 24  1  0  0  0  0
  2 25  1  0  0  0  0
  3  4  1  0  0  0  0
  3 26  1  0  0  0  0
  3 27  1  0  0  0  0
  4  5  1  0  0  0  0
  4 28  1  0  0  0  0
  5  6  2  0  0  0  0
  5  7  1  0  0  0  0
  7  8  1  0  0  0  0
  7  9  1  0  0  0  0
  7 29  1  0  0  0  0
  8 30  1  0  0  0  0
  8 31  1  0  0  0  0
  8 32  1  0  0  0  0
  9 10  1  0  0  0  0
  9 33  1  0  0  0  0
 10 11  2  0  0  0  0
 10 12  1  0  0  0  0
 12 13  1  0  0  0  0
 12 34  1  0  0  0  0
 12 35  1  0  0  0  0
 13 20  1  0  0  0  0
 13 14  2  0  0  0  0
 14 15  1  0  0  0  0
 14 36  1  0  0  0  0
 15 16  1  0  0  0  0
 16 17  1  0  0  0  0
 16 20  2  0  0  0  0
 17 18  1  0  0  0  0
 17 19  1  0  0  0  0
 17 37  1  0  0  0  0
 18 38  1  0  0  0  0
 18 39  1  0  0  0  0
 18 40  1  0  0  0  0
 19 41  1  0  0  0  0
 19 42  1  0  0  0  0
 19 43  1  0  0  0  0
M  END
> <s_m_source_file>
AV-unprocessed.smi

> <i_m_source_file_index>
1336

> <i_lp_mmshare_version>
43012

> <i_f3d_flags>
0

> <s_epik_input>
W0NIM11bQ0gyXVtDSDJdW05IXUMoPU8pW0NASF0oW0NIM10pW05IXUMoPU8pW0NIMl1jMVtjSF1zYyhuMSlbQ0hdKFtDSDNdKVtDSDNd

> <s_epik_cmdline>
J2VwaWtfcHl0aG9uJywgJy1waCcsICc3LjAnLCAnLXRuJywgJzgnLCAnLW1hJywgJzIwMCcsICctbWV0YWxfYmluZGluZycsICctaW1hZScsICc8aW5maWxlLm1hZT4nLCAnLW9tYWUnLCAnPG91dGZpbGUubWFlPic=

> <r_lp_tautomer_probability>
1

> <r_epik_Ionization_Penalty>
3.10785e-05

> <r_epik_Ionization_Penalty_Charging>
0

> <r_epik_Ionization_Penalty_Neutral>
3.10785e-05

> <r_epik_State_Penalty>
-0

> <r_epik_Charging_Adjusted_Penalty>
0

> <i_epik_Tot_Q>
0

> <i_epik_Tot_abs_Q>
0

> <r_epik_Metal_State_Penalty>
-0

> <b_epik_Metal_Only>
0

> <s_lp_Force_Field>
OPLS_2005

> <r_lp_Energy>
-3.8093

> <b_lp_Chiralities_Consistent>
1

> <s_lp_Variant>
AV-unprocessed.smi:1336-1

> <Gold.Version>
5.8.1

> <Gold.Id.Protein>
6NUR|6NUR_protein|mol2

> <Gold.PLP.Fitness>
42.7645

> <Gold.PLP.PLP>
-38.5304

> <Gold.PLP.part.hbond>
-2.0000

> <Gold.PLP.part.metal>
0.0000

> <Gold.PLP.part.buried>
-4.9437

> <Gold.PLP.part.nonpolar>
-32.7062

> <Gold.PLP.part.repulsive>
0.2128

> <Gold.PLP.ligand.clash>
0.0000

> <Gold.PLP.ligand.torsion>
0.8076

> <Gold.PLP.Chemscore.Hbond>
1.8960

> <Gold.PLP.Chemscore.CHOScore>
0.0000

> <Gold.PLP.Chemscore.Metal>
0.0000

> <Gold.Chemscore.Hbonds>
donor molecule, donor type, donor heavy atom, donor atom, acceptor molecule, acceptor atom, score
      L1  H     4    28       P1  7948  0.78

> <Gold.PLP.Chemscore.Internal.Correction>
0.1612

> <Gold.Rescore>
     Score         DG    S(hbond)    S(metal)    S(lipo)     H(rot)  DE(clash)    DE(int)     intcor
     17.04     -18.27       1.95        0.00      98.20       2.04       0.03       1.20       ----

> <Gold.Chemscore.Fitness>
17.0377

> <Gold.Chemscore.DG>
-18.2671

> <Gold.Chemscore.ZeroCoef>
-5.4800

> <Gold.Chemscore.Hbond>
1.9486

> <Gold.Chemscore.Metal>
0.0000

> <Gold.Chemscore.Lipo>
98.1999

> <Gold.Chemscore.Internal_Hbond>
0.0000

> <Gold.Chemscore.DEClash>
0.0323

> <Gold.Chemscore.DEInternal>
1.1972

> <Gold.Chemscore.Rot>
2.0353

> <Gold.Chemscore.Internal.Correction>
   9.000000E+99

> <Gold.Chemscore.Hbonds>
donor molecule, donor type, donor heavy atom, donor atom, acceptor molecule, acceptor atom, score
      L1  H     4    28       P1  7948  0.78

> <Gold.Chemscore.Hbond.Weighted>
-6.5082

> <Gold.Chemscore.Metal.Weighted>
-0.0000

> <Gold.Chemscore.Lipo.Weighted>
-11.4894

> <Gold.Chemscore.Internal_Hbond.Weighted>
0.0000

> <Gold.Chemscore.DEClash.Weighted>
0.0323

> <Gold.Chemscore.DEInternal.Weighted>
1.1972

> <Gold.Chemscore.Rot.Weighted>
5.2104

> <Gold.Chemscore.Internal.Correction.Weighted>
   9.000000E+99

> <Gold.Protein.RotatedTorsions>
[ 6907 6896 6895 6894 ] final -141.75 input  -60.11 | X-H torsion
[ 7974 7965 7964 7962 ] final   15.37 input  175.53 | X-H torsion
[ 8008 7997 7996 7995 ] final   97.29 input   59.86 | X-H torsion
[ 10167 10162 10161 10158 ] final  150.20 input  -65.29 | X-H torsion
[ 10718 10713 10712 10709 ] final  150.05 input   66.30 | X-H torsion
[ 10763 10752 10751 10750 ] final -119.04 input  -60.55 | X-H torsion
[ 11005 11000 10999 10996 ] final  -88.78 input  -57.11 | X-H torsion

> <Gold.Protein.ActiveResidues>
 VAL166  LYS551  ARG553  GLY616  TRP617  ASP618  TYR619  PRO620  LYS621  CYS622 
 ASP623  PHE694  ASN695  SER759  ASP760  ASP761  ALA762  ILE779  LEU786  VAL792 
 PHE793  MET794  SER795  GLU796  ALA797  LYS798  CYS799  TRP800  GLU811  SER814 

> <Gold.Protein.RotatedAtoms>
  151.0779  133.5413  159.2622 H   0  0  0  0  0  0  0  0  0  0  0  0  # atno 6907 bound_to 6896
  151.2328  135.0560  159.9004 H   0  0  0  0  0  0  0  0  0  0  0  0  # atno 6908 bound_to 6896
  152.5420  134.0566  159.8187 H   0  0  0  0  0  0  0  0  0  0  0  0  # atno 6909 bound_to 6896
  146.2280  139.8904  142.8556 H   0  0  0  0  0  0  0  0  0  0  0  0  # atno 7974 bound_to 7965
  156.0886  140.3260  155.7786 H   0  0  0  0  0  0  0  0  0  0  0  0  # atno 8008 bound_to 7997
  155.5035  140.0571  157.2952 H   0  0  0  0  0  0  0  0  0  0  0  0  # atno 8009 bound_to 7997
  154.4624  140.1973  156.0225 H   0  0  0  0  0  0  0  0  0  0  0  0  # atno 8010 bound_to 7997
  139.4853  144.5541  151.7348 H   0  0  0  0  0  0  0  0  0  0  0  0  # atno 10167 bound_to 10162
  157.2884  131.0848  151.1480 H   0  0  0  0  0  0  0  0  0  0  0  0  # atno 10718 bound_to 10713
  154.8605  135.4252  154.2235 H   0  0  0  0  0  0  0  0  0  0  0  0  # atno 10763 bound_to 10752
  153.3235  135.6983  153.7015 H   0  0  0  0  0  0  0  0  0  0  0  0  # atno 10764 bound_to 10752
  153.6060  135.3528  155.2936 H   0  0  0  0  0  0  0  0  0  0  0  0  # atno 10765 bound_to 10752
  141.1596  133.7590  156.9500 H   0  0  0  0  0  0  0  0  0  0  0  0  # atno 11005 bound_to 11000
  145.2423  141.0014  143.3928 LP  0  0  0  0  0  0  0  0  0  0  0  0  # atno 17320 bound_to 7965
  144.9441  139.4155  143.6434 LP  0  0  0  0  0  0  0  0  0  0  0  0  # atno 17321 bound_to 7965
  140.5100  144.1039  150.5992 LP  0  0  0  0  0  0  0  0  0  0  0  0  # atno 17342 bound_to 10162
  140.3962  143.2727  152.0002 LP  0  0  0  0  0  0  0  0  0  0  0  0  # atno 17343 bound_to 10162
  157.2886  130.6785  149.6102 LP  0  0  0  0  0  0  0  0  0  0  0  0  # atno 17370 bound_to 10713
  155.9666  130.4428  150.5394 LP  0  0  0  0  0  0  0  0  0  0  0  0  # atno 17371 bound_to 10713
  140.1264  134.9384  157.2275 LP  0  0  0  0  0  0  0  0  0  0  0  0  # atno 17394 bound_to 11000
  140.3008  134.3134  155.7290 LP  0  0  0  0  0  0  0  0  0  0  0  0  # atno 17395 bound_to 11000

$$$$
