AV-unprocessed.smi:1247|AV-procd|sdf|5246|dock8
  -GOLD-   22720 4353D 1   1.00000     0.00000
 Structure written by MMmdl.
 47 48  0  0  0  0  0  0  0  0  2 V2000
  150.8551  141.9696  156.3486 C   0  0  0  0  0  0  0  0  0  0  0  0
  150.4781  140.8295  155.4495 C   0  0  0  0  0  0  0  0  0  0  0  0
  149.2180  140.5756  154.8341 C   0  0  0  0  0  0  0  0  0  0  0  0
  149.4489  139.4196  154.1394 C   0  0  0  0  0  0  0  0  0  0  0  0
  148.5938  138.7167  153.3499 N   0  0  0  0  0  0  0  0  0  0  0  0
  147.2780  138.9117  153.1550 C   0  0  0  0  0  0  0  0  0  0  0  0
  146.5929  139.7746  153.7046 O   0  0  0  0  0  0  0  0  0  0  0  0
  146.7807  138.0268  152.2789 N   0  0  0  0  0  0  0  0  0  0  0  0
  145.3862  137.9658  151.8570 C   0  0  0  0  0  0  0  0  0  0  0  0
  144.5501  137.0859  152.8054 C   0  0  0  0  0  0  0  0  0  0  0  0
  144.6855  135.6403  152.4994 N   0  3  1  0  0  0  0  0  0  0  0  0
  144.1540  135.2927  151.1603 C   0  0  0  0  0  0  0  0  0  0  0  0
  144.2554  133.7752  150.9159 C   0  0  1  0  0  0  0  0  0  0  0  0
  143.7846  133.3821  149.5113 C   0  0  0  0  0  0  0  0  0  0  0  0
  145.6129  133.3724  151.0586 O   0  0  0  0  0  0  0  0  0  0  0  0
  146.1222  133.6170  152.3650 C   0  0  1  0  0  0  0  0  0  0  0  0
  147.5499  133.0643  152.4319 C   0  0  0  0  0  0  0  0  0  0  0  0
  146.0703  135.1301  152.6510 C   0  0  0  0  0  0  0  0  0  0  0  0
  150.7586  139.0364  154.3363 N   0  0  0  0  0  0  0  0  0  0  0  0
  151.4886  137.8940  153.8212 C   0  0  0  0  0  0  0  0  0  0  0  0
  151.3883  139.9096  155.1510 N   0  0  0  0  0  0  0  0  0  0  0  0
  150.0517  142.7036  156.4130 H   0  0  0  0  0  0  0  0  0  0  0  0
  151.7441  142.4831  155.9813 H   0  0  0  0  0  0  0  0  0  0  0  0
  151.0659  141.6181  157.3588 H   0  0  0  0  0  0  0  0  0  0  0  0
  148.3121  141.1588  154.9011 H   0  0  0  0  0  0  0  0  0  0  0  0
  149.0080  137.9415  152.8536 H   0  0  0  0  0  0  0  0  0  0  0  0
  147.4115  137.3508  151.8727 H   0  0  0  0  0  0  0  0  0  0  0  0
  144.9860  138.9781  151.7924 H   0  0  0  0  0  0  0  0  0  0  0  0
  145.3556  137.5562  150.8471 H   0  0  0  0  0  0  0  0  0  0  0  0
  144.8925  137.2700  153.8250 H   0  0  0  0  0  0  0  0  0  0  0  0
  143.4964  137.3686  152.7797 H   0  0  0  0  0  0  0  0  0  0  0  0
  143.1122  135.6072  151.0848 H   0  0  0  0  0  0  0  0  0  0  0  0
  144.7102  135.8376  150.3954 H   0  0  0  0  0  0  0  0  0  0  0  0
  143.6440  133.2426  151.6469 H   0  0  0  0  0  0  0  0  0  0  0  0
  142.7396  133.6525  149.3571 H   0  0  0  0  0  0  0  0  0  0  0  0
  143.8748  132.3065  149.3572 H   0  0  0  0  0  0  0  0  0  0  0  0
  144.3764  133.8790  148.7420 H   0  0  0  0  0  0  0  0  0  0  0  0
  145.5099  133.0839  153.0948 H   0  0  0  0  0  0  0  0  0  0  0  0
  147.9847  133.2189  153.4197 H   0  0  0  0  0  0  0  0  0  0  0  0
  148.1968  133.5508  151.7010 H   0  0  0  0  0  0  0  0  0  0  0  0
  147.5629  131.9934  152.2273 H   0  0  0  0  0  0  0  0  0  0  0  0
  146.7320  135.6645  151.9668 H   0  0  0  0  0  0  0  0  0  0  0  0
  146.4361  135.3193  153.6596 H   0  0  0  0  0  0  0  0  0  0  0  0
  150.8928  137.3547  153.0849 H   0  0  0  0  0  0  0  0  0  0  0  0
  151.7350  137.2175  154.6401 H   0  0  0  0  0  0  0  0  0  0  0  0
  152.4114  138.2294  153.3465 H   0  0  0  0  0  0  0  0  0  0  0  0
  144.1115  135.1468  153.1681 H   0  0  0  0  0  0  0  0  0  0  0  0
  1  2  1  0  0  0  0
  1 22  1  0  0  0  0
  1 23  1  0  0  0  0
  1 24  1  0  0  0  0
  2 21  2  0  0  0  0
  2  3  1  0  0  0  0
  3  4  2  0  0  0  0
  3 25  1  0  0  0  0
  4  5  1  0  0  0  0
  4 19  1  0  0  0  0
  5  6  1  0  0  0  0
  5 26  1  0  0  0  0
  6  7  2  0  0  0  0
  6  8  1  0  0  0  0
  8  9  1  0  0  0  0
  8 27  1  0  0  0  0
  9 10  1  0  0  0  0
  9 28  1  0  0  0  0
  9 29  1  0  0  0  0
 10 11  1  0  0  0  0
 10 30  1  0  0  0  0
 10 31  1  0  0  0  0
 11 18  1  0  0  0  0
 11 12  1  0  0  0  0
 11 47  1  0  0  0  0
 12 13  1  0  0  0  0
 12 32  1  0  0  0  0
 12 33  1  0  0  0  0
 13 14  1  0  0  0  0
 13 15  1  0  0  0  0
 13 34  1  0  0  0  0
 14 35  1  0  0  0  0
 14 36  1  0  0  0  0
 14 37  1  0  0  0  0
 15 16  1  0  0  0  0
 16 17  1  0  0  0  0
 16 18  1  0  0  0  0
 16 38  1  0  0  0  0
 17 39  1  0  0  0  0
 17 40  1  0  0  0  0
 17 41  1  0  0  0  0
 18 42  1  0  0  0  0
 18 43  1  0  0  0  0
 19 20  1  0  0  0  0
 19 21  1  0  0  0  0
 20 44  1  0  0  0  0
 20 45  1  0  0  0  0
 20 46  1  0  0  0  0
M  CHG  1  11   1
M  END
> <s_m_source_file>
AV-unprocessed.smi

> <i_m_source_file_index>
1247

> <i_lp_mmshare_version>
43012

> <i_f3d_flags>
0

> <s_epik_input>
W0NIM11jMVtjSF1jKG4objEpW0NIM10pW05IXUMoPU8pW05IXVtDSDJdW0NIMl1OMltDSDJdW0NAQEhdKFtDSDNdKU9bQ0BASF0oW0NIM10pW0NIMl0y

> <s_epik_cmdline>
J2VwaWtfcHl0aG9uJywgJy1waCcsICc3LjAnLCAnLXRuJywgJzgnLCAnLW1hJywgJzIwMCcsICctbWV0YWxfYmluZGluZycsICctaW1hZScsICc8aW5maWxlLm1hZT4nLCAnLW9tYWUnLCAnPG91dGZpbGUubWFlPic=

> <r_lp_tautomer_probability>
1

> <r_epik_Ionization_Penalty>
0.663902

> <r_epik_Ionization_Penalty_Charging>
0.663826

> <r_epik_Ionization_Penalty_Neutral>
7.65444e-05

> <r_epik_State_Penalty>
0.683414

> <r_epik_Charging_Adjusted_Penalty>
1.34724

> <i_epik_Tot_Q>
1

> <i_epik_Tot_abs_Q>
1

> <r_epik_Metal_State_Penalty>
0.683419

> <b_epik_Metal_Only>
0

> <s_lp_Force_Field>
OPLS_2005

> <r_lp_Energy>
16.001

> <b_lp_Chiralities_Consistent>
1

> <s_lp_Variant>
AV-unprocessed.smi:1247-4

> <Gold.Version>
5.8.1

> <Gold.Id.Protein>
6NUR|6NUR_protein|mol2

> <Gold.PLP.Fitness>
42.2703

> <Gold.PLP.PLP>
-36.9596

> <Gold.PLP.part.hbond>
-4.0000

> <Gold.PLP.part.metal>
0.0000

> <Gold.PLP.part.buried>
-0.9971

> <Gold.PLP.part.nonpolar>
-32.8012

> <Gold.PLP.part.repulsive>
0.4484

> <Gold.PLP.ligand.clash>
0.0000

> <Gold.PLP.ligand.torsion>
0.3074

> <Gold.PLP.Chemscore.Hbond>
1.9666

> <Gold.PLP.Chemscore.CHOScore>
0.0000

> <Gold.PLP.Chemscore.Metal>
0.0000

> <Gold.Chemscore.Hbonds>
donor molecule, donor type, donor heavy atom, donor atom, acceptor molecule, acceptor atom, score
      L1  H     5    26       P1  7948  1.00
      L1  H     8    27       P1  7948  1.00
      P1  H  7989  7998       L1    21  0.05

> <Gold.PLP.Chemscore.Internal.Correction>
0.0257

> <Gold.Rescore>
     Score         DG    S(hbond)    S(metal)    S(lipo)     H(rot)  DE(clash)    DE(int)     intcor
     14.26     -16.07       1.72        0.00      74.82       1.52       0.28       1.53       ----

> <Gold.Chemscore.Fitness>
14.2623

> <Gold.Chemscore.DG>
-16.0685

> <Gold.Chemscore.ZeroCoef>
-5.4800

> <Gold.Chemscore.Hbond>
1.7160

> <Gold.Chemscore.Metal>
0.0000

> <Gold.Chemscore.Lipo>
74.8182

> <Gold.Chemscore.Internal_Hbond>
0.0000

> <Gold.Chemscore.DEClash>
0.2806

> <Gold.Chemscore.DEInternal>
1.5256

> <Gold.Chemscore.Rot>
1.5221

> <Gold.Chemscore.Internal.Correction>
   9.000000E+99

> <Gold.Chemscore.Hbonds>
donor molecule, donor type, donor heavy atom, donor atom, acceptor molecule, acceptor atom, score
      L1  H     5    26       P1  7948  0.97
      L1  H     8    27       P1  7948  0.98

> <Gold.Chemscore.Hbond.Weighted>
-5.7314

> <Gold.Chemscore.Metal.Weighted>
-0.0000

> <Gold.Chemscore.Lipo.Weighted>
-8.7537

> <Gold.Chemscore.Internal_Hbond.Weighted>
0.0000

> <Gold.Chemscore.DEClash.Weighted>
0.2806

> <Gold.Chemscore.DEInternal.Weighted>
1.5256

> <Gold.Chemscore.Rot.Weighted>
3.8967

> <Gold.Chemscore.Internal.Correction.Weighted>
   9.000000E+99

> <Gold.Protein.RotatedTorsions>
[ 6907 6896 6895 6894 ] final  -47.57 input  -60.11 | X-H torsion
[ 7974 7965 7964 7962 ] final -104.55 input  175.53 | X-H torsion
[ 8008 7997 7996 7995 ] final -151.77 input   59.86 | X-H torsion
[ 10167 10162 10161 10158 ] final   -1.97 input  -65.29 | X-H torsion
[ 10718 10713 10712 10709 ] final  119.05 input   66.30 | X-H torsion
[ 10763 10752 10751 10750 ] final    0.36 input  -60.55 | X-H torsion
[ 11005 11000 10999 10996 ] final  158.25 input  -57.11 | X-H torsion

> <Gold.Protein.ActiveResidues>
 VAL166  LYS551  ARG553  GLY616  TRP617  ASP618  TYR619  PRO620  LYS621  CYS622 
 ASP623  PHE694  ASN695  SER759  ASP760  ASP761  ALA762  ILE779  LEU786  VAL792 
 PHE793  MET794  SER795  GLU796  ALA797  LYS798  CYS799  TRP800  GLU811  SER814 

> <Gold.Protein.RotatedAtoms>
  150.8994  134.8405  159.7348 H   0  0  0  0  0  0  0  0  0  0  0  0  # atno 6907 bound_to 6896
  152.4883  134.4526  159.9589 H   0  0  0  0  0  0  0  0  0  0  0  0  # atno 6908 bound_to 6896
  151.4580  133.3561  159.2840 H   0  0  0  0  0  0  0  0  0  0  0  0  # atno 6909 bound_to 6896
  145.2417  140.9207  143.3146 H   0  0  0  0  0  0  0  0  0  0  0  0  # atno 7974 bound_to 7965
  155.6446  140.0705  157.2607 H   0  0  0  0  0  0  0  0  0  0  0  0  # atno 8008 bound_to 7997
  154.4176  140.1744  156.1659 H   0  0  0  0  0  0  0  0  0  0  0  0  # atno 8009 bound_to 7997
  155.9827  140.3352  155.6682 H   0  0  0  0  0  0  0  0  0  0  0  0  # atno 8010 bound_to 7997
  140.6832  143.6712  150.8184 H   0  0  0  0  0  0  0  0  0  0  0  0  # atno 10167 bound_to 10162
  157.5988  131.1054  150.7842 H   0  0  0  0  0  0  0  0  0  0  0  0  # atno 10718 bound_to 10713
  153.3217  135.6969  153.7025 H   0  0  0  0  0  0  0  0  0  0  0  0  # atno 10763 bound_to 10752
  153.5862  135.3488  155.2894 H   0  0  0  0  0  0  0  0  0  0  0  0  # atno 10764 bound_to 10752
  154.8599  135.4307  154.2383 H   0  0  0  0  0  0  0  0  0  0  0  0  # atno 10765 bound_to 10752
  140.1847  134.8450  157.2844 H   0  0  0  0  0  0  0  0  0  0  0  0  # atno 11005 bound_to 11000
  144.9583  139.4007  143.6368 LP  0  0  0  0  0  0  0  0  0  0  0  0  # atno 17320 bound_to 7965
  146.3327  139.8624  142.8854 LP  0  0  0  0  0  0  0  0  0  0  0  0  # atno 17321 bound_to 7965
  140.0415  143.5341  152.2715 LP  0  0  0  0  0  0  0  0  0  0  0  0  # atno 17342 bound_to 10162
  139.6170  144.7621  151.2824 LP  0  0  0  0  0  0  0  0  0  0  0  0  # atno 17343 bound_to 10162
  156.8246  130.4995  149.5339 LP  0  0  0  0  0  0  0  0  0  0  0  0  # atno 17370 bound_to 10713
  156.1056  130.6002  150.9966 LP  0  0  0  0  0  0  0  0  0  0  0  0  # atno 17371 bound_to 10713
  140.2227  134.4004  155.7558 LP  0  0  0  0  0  0  0  0  0  0  0  0  # atno 17394 bound_to 11000
  141.2224  133.7174  156.8516 LP  0  0  0  0  0  0  0  0  0  0  0  0  # atno 17395 bound_to 11000

$$$$
