AV-unprocessed.smi:2044|AV-procd|sdf|8304|dock1
  -GOLD-   2272010573D 1   1.00000     0.00000
 Structure written by MMmdl.
 39 40  0  0  0  0  0  0  0  0  3 V2000
  151.5104  143.8538  159.8751 C   0  0  0  0  0  0  0  0  0  0  0  0
  151.5662  142.7535  158.8708 C   0  0  0  0  0  0  0  0  0  0  0  0
  152.4055  141.6881  158.7069 C   0  0  0  0  0  0  0  0  0  0  0  0
  151.8822  141.0365  157.5564 C   0  0  0  0  0  0  0  0  0  0  0  0
  152.3743  139.9279  156.9820 N   0  5  0  0  0  0  0  0  0  0  0  0
  151.7237  139.3529  155.9452 C   0  0  0  0  0  0  0  0  0  0  0  0
  151.1978  139.9361  154.9945 O   0  0  0  0  0  0  0  0  0  0  0  0
  151.6811  138.0158  156.0119 N   0  0  0  0  0  0  0  0  0  0  0  0
  151.0630  137.1439  155.0194 C   0  0  0  0  0  0  0  0  0  0  0  0
  149.7190  136.5448  155.5116 C   0  0  2  0  0  0  0  0  0  0  0  0
  149.9058  135.8759  156.8962 C   0  0  0  0  0  0  0  0  0  0  0  0
  149.1230  135.5873  154.5202 N   0  3  0  0  0  0  0  0  0  0  0  0
  149.8895  134.3160  154.3912 C   0  0  0  0  0  0  0  0  0  0  0  0
  149.2591  133.3806  153.3464 C   0  0  0  0  0  0  0  0  0  0  0  0
  147.9115  133.1117  153.6971 O   0  0  0  0  0  0  0  0  0  0  0  0
  147.1368  134.2999  153.7007 C   0  0  0  0  0  0  0  0  0  0  0  0
  147.6837  135.2789  154.7533 C   0  0  0  0  0  0  0  0  0  0  0  0
  150.8305  141.6623  157.0557 N   0  0  0  0  0  0  0  0  0  0  0  0
  150.6167  142.7607  157.8968 O   0  0  0  0  0  0  0  0  0  0  0  0
  152.4512  144.4037  159.8970 H   0  0  0  0  0  0  0  0  0  0  0  0
  151.3276  143.4551  160.8730 H   0  0  0  0  0  0  0  0  0  0  0  0
  150.7128  144.5595  159.6421 H   0  0  0  0  0  0  0  0  0  0  0  0
  153.2546  141.4143  159.3148 H   0  0  0  0  0  0  0  0  0  0  0  0
  152.1222  137.5750  156.8059 H   0  0  0  0  0  0  0  0  0  0  0  0
  150.9226  137.7631  154.1342 H   0  0  0  0  0  0  0  0  0  0  0  0
  151.7514  136.3399  154.7526 H   0  0  0  0  0  0  0  0  0  0  0  0
  149.0172  137.3721  155.6315 H   0  0  0  0  0  0  0  0  0  0  0  0
  150.4090  136.5302  157.6074 H   0  0  0  0  0  0  0  0  0  0  0  0
  150.4996  134.9649  156.8175 H   0  0  0  0  0  0  0  0  0  0  0  0
  148.9573  135.6235  157.3673 H   0  0  0  0  0  0  0  0  0  0  0  0
  150.9147  134.5034  154.0784 H   0  0  0  0  0  0  0  0  0  0  0  0
  149.9331  133.8162  155.3600 H   0  0  0  0  0  0  0  0  0  0  0  0
  149.3113  133.8180  152.3478 H   0  0  0  0  0  0  0  0  0  0  0  0
  149.8068  132.4388  153.3083 H   0  0  0  0  0  0  0  0  0  0  0  0
  147.1373  134.7544  152.7085 H   0  0  0  0  0  0  0  0  0  0  0  0
  146.1022  134.0441  153.9301 H   0  0  0  0  0  0  0  0  0  0  0  0
  147.5556  134.8645  155.7546 H   0  0  0  0  0  0  0  0  0  0  0  0
  147.0742  136.1786  154.6911 H   0  0  0  0  0  0  0  0  0  0  0  0
  149.1704  136.0450  153.6210 H   0  0  0  0  0  0  0  0  0  0  0  0
  1  2  1  0  0  0  0
  1 20  1  0  0  0  0
  1 21  1  0  0  0  0
  1 22  1  0  0  0  0
  2 19  1  0  0  0  0
  2  3  2  0  0  0  0
  3  4  1  0  0  0  0
  3 23  1  0  0  0  0
  4  5  1  0  0  0  0
  4 18  2  0  0  0  0
  5  6  1  0  0  0  0
  6  7  2  0  0  0  0
  6  8  1  0  0  0  0
  8  9  1  0  0  0  0
  8 24  1  0  0  0  0
  9 10  1  0  0  0  0
  9 25  1  0  0  0  0
  9 26  1  0  0  0  0
 10 11  1  0  0  0  0
 10 12  1  0  0  0  0
 10 27  1  0  0  0  0
 11 28  1  0  0  0  0
 11 29  1  0  0  0  0
 11 30  1  0  0  0  0
 12 17  1  0  0  0  0
 12 13  1  0  0  0  0
 12 39  1  0  0  0  0
 13 14  1  0  0  0  0
 13 31  1  0  0  0  0
 13 32  1  0  0  0  0
 14 15  1  0  0  0  0
 14 33  1  0  0  0  0
 14 34  1  0  0  0  0
 15 16  1  0  0  0  0
 16 17  1  0  0  0  0
 16 35  1  0  0  0  0
 16 36  1  0  0  0  0
 17 37  1  0  0  0  0
 17 38  1  0  0  0  0
 18 19  1  0  0  0  0
M  CHG  1   5  -1
M  CHG  1  12   1
M  END
> <s_m_source_file>
AV-unprocessed.smi

> <i_m_source_file_index>
2044

> <i_lp_mmshare_version>
43012

> <i_f3d_flags>
0

> <s_epik_input>
W0NIM11jMVtjSF1jKG5vMSlbTkhdQyg9TylbTkhdW0NIMl1bQ0BIXShbQ0gzXSlOMltDSDJdW0NIMl1PW0NIMl1bQ0gyXTI=

> <s_epik_cmdline>
J2VwaWtfcHl0aG9uJywgJy1waCcsICc3LjAnLCAnLXRuJywgJzgnLCAnLW1hJywgJzIwMCcsICctbWV0YWxfYmluZGluZycsICctaW1hZScsICc8aW5maWxlLm1hZT4nLCAnLW9tYWUnLCAnPG91dGZpbGUubWFlPic=

> <r_epik_Ionization_Penalty>
6.73014

> <r_epik_Ionization_Penalty_Charging>
6.73004

> <r_epik_Ionization_Penalty_Neutral>
9.51297e-05

> <r_epik_State_Penalty>
6.93052

> <r_epik_Charging_Adjusted_Penalty>
13.6606

> <i_epik_Tot_Q>
0

> <i_epik_Tot_abs_Q>
2

> <r_epik_Metal_State_Penalty>
2.86736

> <b_epik_Metal_Only>
1

> <s_lp_Force_Field>
OPLS_2005

> <r_lp_Energy>
9.04271

> <b_lp_Chiralities_Consistent>
1

> <s_lp_Variant>
AV-unprocessed.smi:2044-7

> <Gold.Version>
5.8.1

> <Gold.Id.Protein>
6NUR|6NUR_protein|mol2

> <Gold.PLP.Fitness>
40.4385

> <Gold.PLP.PLP>
-26.5064

> <Gold.PLP.part.hbond>
-3.0000

> <Gold.PLP.part.metal>
0.0000

> <Gold.PLP.part.buried>
-5.4641

> <Gold.PLP.part.nonpolar>
-17.7271

> <Gold.PLP.part.repulsive>
0.4446

> <Gold.PLP.ligand.clash>
0.0000

> <Gold.PLP.ligand.torsion>
0.5741

> <Gold.PLP.Chemscore.Hbond>
5.0000

> <Gold.PLP.Chemscore.CHOScore>
0.0000

> <Gold.PLP.Chemscore.Metal>
0.0000

> <Gold.Chemscore.Hbonds>
donor molecule, donor type, donor heavy atom, donor atom, acceptor molecule, acceptor atom, score
      L1  H    12    39       P1  7948  2.00
      P1  H  7989  7998       L1     7  1.00
      P1  H  7997  8009       L1     5  1.71

> <Gold.PLP.Chemscore.Internal.Correction>
0.0803

> <Gold.Rescore>
     Score         DG    S(hbond)    S(metal)    S(lipo)     H(rot)  DE(clash)    DE(int)     intcor
     15.58     -17.69       2.76        0.00      60.43       1.59       0.02       2.09       ----

> <Gold.Chemscore.Fitness>
15.5830

> <Gold.Chemscore.DG>
-17.6915

> <Gold.Chemscore.ZeroCoef>
-5.4800

> <Gold.Chemscore.Hbond>
2.7602

> <Gold.Chemscore.Metal>
0.0000

> <Gold.Chemscore.Lipo>
60.4328

> <Gold.Chemscore.Internal_Hbond>
0.0000

> <Gold.Chemscore.DEClash>
0.0202

> <Gold.Chemscore.DEInternal>
2.0883

> <Gold.Chemscore.Rot>
1.5930

> <Gold.Chemscore.Internal.Correction>
   9.000000E+99

> <Gold.Chemscore.Hbonds>
donor molecule, donor type, donor heavy atom, donor atom, acceptor molecule, acceptor atom, score
      L1  H    12    39       P1  7948  0.87
      P1  H  7989  7998       L1     7  1.00
      P1  H  7997  8009       L1     5  0.30

> <Gold.Chemscore.Hbond.Weighted>
-9.2189

> <Gold.Chemscore.Metal.Weighted>
-0.0000

> <Gold.Chemscore.Lipo.Weighted>
-7.0706

> <Gold.Chemscore.Internal_Hbond.Weighted>
0.0000

> <Gold.Chemscore.DEClash.Weighted>
0.0202

> <Gold.Chemscore.DEInternal.Weighted>
2.0883

> <Gold.Chemscore.Rot.Weighted>
4.0781

> <Gold.Chemscore.Internal.Correction.Weighted>
   9.000000E+99

> <Gold.Protein.RotatedTorsions>
[ 6907 6896 6895 6894 ] final   32.54 input  -60.11 | X-H torsion
[ 7974 7965 7964 7962 ] final  177.82 input  175.53 | X-H torsion
[ 8008 7997 7996 7995 ] final -158.77 input   59.86 | X-H torsion
[ 10167 10162 10161 10158 ] final   33.93 input  -65.29 | X-H torsion
[ 10718 10713 10712 10709 ] final  -91.87 input   66.30 | X-H torsion
[ 10763 10752 10751 10750 ] final   31.75 input  -60.55 | X-H torsion
[ 11005 11000 10999 10996 ] final  -56.80 input  -57.11 | X-H torsion

> <Gold.Protein.ActiveResidues>
 VAL166  LYS551  ARG553  GLY616  TRP617  ASP618  TYR619  PRO620  LYS621  CYS622 
 ASP623  PHE694  ASN695  SER759  ASP760  ASP761  ALA762  ILE779  LEU786  VAL792 
 PHE793  MET794  SER795  GLU796  ALA797  LYS798  CYS799  TRP800  GLU811  SER814 

> <Gold.Protein.RotatedAtoms>
  152.0758  134.9503  160.0573 H   0  0  0  0  0  0  0  0  0  0  0  0  # atno 6907 bound_to 6896
  152.0811  133.4148  159.4510 H   0  0  0  0  0  0  0  0  0  0  0  0  # atno 6908 bound_to 6896
  150.6836  134.2901  159.4706 H   0  0  0  0  0  0  0  0  0  0  0  0  # atno 6909 bound_to 6896
  144.7164  140.0304  143.6439 H   0  0  0  0  0  0  0  0  0  0  0  0  # atno 7974 bound_to 7965
  155.7526  140.0828  157.2194 H   0  0  0  0  0  0  0  0  0  0  0  0  # atno 8008 bound_to 7997
  154.4011  140.1557  156.2797 H   0  0  0  0  0  0  0  0  0  0  0  0  # atno 8009 bound_to 7997
  155.8916  140.3415  155.5963 H   0  0  0  0  0  0  0  0  0  0  0  0  # atno 8010 bound_to 7997
  140.4362  144.1253  150.6166 H   0  0  0  0  0  0  0  0  0  0  0  0  # atno 10167 bound_to 10162
  155.9997  130.4965  150.5540 H   0  0  0  0  0  0  0  0  0  0  0  0  # atno 10718 bound_to 10713
  153.0299  135.6431  154.1248 H   0  0  0  0  0  0  0  0  0  0  0  0  # atno 10763 bound_to 10752
  154.0972  135.2862  155.3261 H   0  0  0  0  0  0  0  0  0  0  0  0  # atno 10764 bound_to 10752
  154.6424  135.5455  153.7868 H   0  0  0  0  0  0  0  0  0  0  0  0  # atno 10765 bound_to 10752
  141.1136  133.6610  156.4673 H   0  0  0  0  0  0  0  0  0  0  0  0  # atno 11005 bound_to 11000
  146.0107  139.3167  143.0872 LP  0  0  0  0  0  0  0  0  0  0  0  0  # atno 17320 bound_to 7965
  145.8685  140.9434  143.0663 LP  0  0  0  0  0  0  0  0  0  0  0  0  # atno 17321 bound_to 7965
  140.4371  143.2543  151.9521 LP  0  0  0  0  0  0  0  0  0  0  0  0  # atno 17342 bound_to 10162
  139.4787  144.5690  151.8119 LP  0  0  0  0  0  0  0  0  0  0  0  0  # atno 17343 bound_to 10162
  157.3459  131.0725  151.1752 LP  0  0  0  0  0  0  0  0  0  0  0  0  # atno 17370 bound_to 10713
  157.2584  130.6647  149.5963 LP  0  0  0  0  0  0  0  0  0  0  0  0  # atno 17371 bound_to 10713
  140.4707  134.6756  157.5128 LP  0  0  0  0  0  0  0  0  0  0  0  0  # atno 17394 bound_to 11000
  140.0045  134.6786  155.9478 LP  0  0  0  0  0  0  0  0  0  0  0  0  # atno 17395 bound_to 11000

$$$$
