#       Name:                AV-unprocessed.smi:1935
#       Creating user name   scv26
#       Creation time:       Fri Mar 27 09:57:25 2020


#       File generated by GOLD software.
#

@<TRIPOS>MOLECULE
AV-unprocessed.smi:1935
    58    60     1
SMALL
NO_CHARGES


@<TRIPOS>ATOM
      1 ****         0.0107   2.3516   0.7819 O.2            1 S1                 0.0000
      2 ****        -0.4987   1.3397   1.2639 C.2            1 S1                 0.0000
      3 ****         0.2027   0.2638   1.6465 N.am           1 S1                 0.0000
      4 ****         1.6472   0.1189   1.5179 C.3            1 S1                 0.0000
      5 ****         2.0366  -0.3379   0.1003 C.3            1 S1                 0.0000
      6 ****         3.4787  -0.5855  -0.0075 N.am           1 S1                 0.0000
      7 ****         3.9041  -1.9873   0.1273 C.3            1 S1                 0.0000
      8 ****         4.3953  -2.6186  -1.1954 C.3            1 S1                 0.0000
      9 ****         5.0532  -1.6569  -2.2049 C.3            1 S1                 0.0000
     10 ****         6.1874  -0.7806  -1.6325 C.3            1 S1                 0.0000
     11 ****         5.8482   0.0606  -0.3782 C.3            1 S1                 0.0000
     12 ****         4.3598   0.4192  -0.2349 C.2            1 S1                 0.0000
     13 ****         4.0217   1.5988  -0.3337 O.2            1 S1                 0.0000
     14 ****        -1.8153   1.1526   1.4517 N.am           1 S1                 0.0000
     15 ****        -2.8735   2.0339   1.0969 C.ar           1 S1                 0.0000
     16 ****        -2.7457   3.4341   1.2640 C.ar           1 S1                 0.0000
     17 ****        -3.8409   4.2657   0.9736 C.ar           1 S1                 0.0000
     18 ****        -5.0342   3.6645   0.5394 C.ar           1 S1                 0.0000
     19 ****        -5.1750   2.3325   0.3863 N.ar           1 S1                 0.0000
     20 ****        -4.1230   1.5176   0.6481 C.ar           1 S1                 0.0000
     21 ****        -4.3230   0.1318   0.4485 N.3            1 S1                 0.0000
     22 ****        -3.3949  -0.5788  -0.4272 C.3            1 S1                 0.0000
     23 ****        -4.2223  -1.6271  -1.1785 C.3            1 S1                 0.0000
     24 ****        -5.4582  -1.8067  -0.3027 C.3            1 S1                 0.0000
     25 ****        -5.6671  -0.4018   0.2549 C.3            1 S1                 0.0000
     26 ****        -0.3014  -0.5204   2.0338 H              1 S1                 0.0000
     27 ****         2.1457   1.0542   1.7783 H              1 S1                 0.0000
     28 ****         1.9754  -0.6208   2.2488 H              1 S1                 0.0000
     29 ****         1.4819  -1.2390  -0.1652 H              1 S1                 0.0000
     30 ****         1.7310   0.4100  -0.6338 H              1 S1                 0.0000
     31 ****         4.6907  -2.0509   0.8794 H              1 S1                 0.0000
     32 ****         3.1005  -2.5993   0.5392 H              1 S1                 0.0000
     33 ****         5.0833  -3.4317  -0.9626 H              1 S1                 0.0000
     34 ****         3.5444  -3.0869  -1.6914 H              1 S1                 0.0000
     35 ****         5.4456  -2.2394  -3.0390 H              1 S1                 0.0000
     36 ****         4.2871  -1.0170  -2.6452 H              1 S1                 0.0000
     37 ****         7.0432  -1.4159  -1.4020 H              1 S1                 0.0000
     38 ****         6.5278  -0.1093  -2.4216 H              1 S1                 0.0000
     39 ****         6.1735  -0.4610   0.5217 H              1 S1                 0.0000
     40 ****         6.4367   0.9789  -0.3941 H              1 S1                 0.0000
     41 ****        -2.0985   0.2337   1.7594 H              1 S1                 0.0000
     42 ****        -1.8324   3.8771   1.6319 H              1 S1                 0.0000
     43 ****        -3.7710   5.3366   1.0937 H              1 S1                 0.0000
     44 ****        -5.9007   4.2681   0.3134 H              1 S1                 0.0000
     45 ****        -2.8825   0.0933  -1.1172 H              1 S1                 0.0000
     46 ****        -2.6413  -1.0726   0.1866 H              1 S1                 0.0000
     47 ****        -4.5185  -1.2322  -2.1512 H              1 S1                 0.0000
     48 ****        -3.6776  -2.5568  -1.3448 H              1 S1                 0.0000
     49 ****        -6.3230  -2.1789  -0.8525 H              1 S1                 0.0000
     50 ****        -5.2432  -2.5037   0.5085 H              1 S1                 0.0000
     51 ****        -6.2285  -0.4154   1.1893 H              1 S1                 0.0000
     52 ****        -6.2197   0.1965  -0.4704 H              1 S1                 0.0000
     53 ****         1.0016   2.4016   0.6572 LP             1 S1                 0.0000
     54 ****        -0.5665   3.1234   0.5152 LP             1 S1                 0.0000
     55 ****         3.0582   1.8518  -0.2457 LP             1 S1                 0.0000
     56 ****         4.7105   2.3039  -0.5019 LP             1 S1                 0.0000
     57 ****        -6.0471   1.9489   0.0825 LP             1 S1                 0.0000
     58 ****        -4.0909  -0.0734   1.3993 LP             1 S1                 0.0000
@<TRIPOS>BOND
    1    1    2 2     
    2    2    3 am    
    3    2   14 am    
    4    3    4 1     
    5    3   26 1     
    6    4    5 1     
    7    4   27 1     
    8    4   28 1     
    9    5    6 1     
   10    5   29 1     
   11    5   30 1     
   12    6   12 am    
   13    6    7 1     
   14    7    8 1     
   15    7   31 1     
   16    7   32 1     
   17    8    9 1     
   18    8   33 1     
   19    8   34 1     
   20    9   10 1     
   21    9   35 1     
   22    9   36 1     
   23   10   11 1     
   24   10   37 1     
   25   10   38 1     
   26   11   12 1     
   27   11   39 1     
   28   11   40 1     
   29   12   13 2     
   30   14   15 1     
   31   14   41 1     
   32   15   20 ar    
   33   15   16 ar    
   34   16   17 ar    
   35   16   42 1     
   36   17   18 ar    
   37   17   43 1     
   38   18   19 ar    
   39   18   44 1     
   40   19   20 ar    
   41   20   21 1     
   42   21   25 1     
   43   21   22 1     
   44   22   23 1     
   45   22   45 1     
   46   22   46 1     
   47   23   24 1     
   48   23   47 1     
   49   23   48 1     
   50   24   25 1     
   51   24   49 1     
   52   24   50 1     
   53   25   51 1     
   54   25   52 1     
   55    1   53 1     
   56    1   54 1     
   57   13   55 1     
   58   13   56 1     
   59   19   57 1     
   60   21   58 1     
@<TRIPOS>SUBSTRUCTURE
      1 S1             1
@<TRIPOS>SET
LONE_PAIRS      STATIC     ATOMS    <user>   **** ""
6 53 54 55 56 57 58
DONOR_HYDROGENS      STATIC     ATOMS    <user>   **** ""
2 26 41
ATOM$BLUE        STATIC     ATOMS    COLORGROUP SYSTEM
6 53 54 55 56 57 58
ATOM$RED        STATIC     ATOMS    COLORGROUP SYSTEM
2 26 41
