#       Name:                AV-unprocessed.smi:1487
#       Creating user name   scv26
#       Creation time:       Fri Mar 27 06:12:00 2020


#       File generated by GOLD software.
#

@<TRIPOS>MOLECULE
AV-unprocessed.smi:1487
    53    55     1
SMALL
NO_CHARGES


@<TRIPOS>ATOM
      1 ****        -2.6245   3.8163  -3.3909 C.3            1 S1                 0.0000
      2 ****        -2.5346   2.6191  -2.4597 C.ar           1 S1                 0.0000
      3 ****        -3.0572   2.7411  -1.1522 C.ar           1 S1                 0.0000
      4 ****        -2.9621   1.6283  -0.3248 C.ar           1 S1                 0.0000
      5 ****        -3.3791   1.4284   0.9931 N.pl3          1 S1                 1.0000
      6 ****        -3.0723   0.1591   1.3799 C.2            1 S1                 0.0000
      7 ****        -2.4546  -0.4508   0.3313 N.pl3          1 S1                 0.0000
      8 ****        -1.9326  -1.8180   0.2059 C.3            1 S1                 0.0000
      9 ****        -0.3946  -1.8996   0.2963 C.3            1 S1                 0.0000
     10 ****        -0.0425  -3.2634   0.1816 O.3            1 S1                 0.0000
     11 ****         0.1719  -1.3381   1.6199 C.3            1 S1                 0.0000
     12 ****         1.6570  -1.3455   1.6616 N.4            1 S1                 1.0000
     13 ****         2.1826  -1.3747   3.0504 C.3            1 S1                 0.0000
     14 ****         3.7062  -1.5727   3.0571 C.3            1 S1                 0.0000
     15 ****         4.4071  -0.4769   2.2426 C.3            1 S1                 0.0000
     16 ****         3.8124  -0.3719   0.8280 C.3            1 S1                 0.0000
     17 ****         4.1868  -1.4916   0.0498 O.3            1 S1                 0.0000
     18 ****         2.2761  -0.2524   0.8619 C.3            1 S1                 0.0000
     19 ****        -2.3722   0.4246  -0.7568 C.ar           1 S1                 0.0000
     20 ****        -1.8550   0.2862  -2.0422 C.ar           1 S1                 0.0000
     21 ****        -1.9398   1.4075  -2.8983 C.ar           1 S1                 0.0000
     22 ****        -1.3802   1.2877  -4.3057 C.3            1 S1                 0.0000
     23 ****        -3.1619   4.6440  -2.9271 H              1 S1                 0.0000
     24 ****        -3.1518   3.5521  -4.3078 H              1 S1                 0.0000
     25 ****        -1.6278   4.1714  -3.6540 H              1 S1                 0.0000
     26 ****        -3.5138   3.6597  -0.8126 H              1 S1                 0.0000
     27 ****        -3.2815  -0.2822   2.3440 H              1 S1                 0.0000
     28 ****        -2.3895  -2.4120   0.9990 H              1 S1                 0.0000
     29 ****        -2.2920  -2.2334  -0.7369 H              1 S1                 0.0000
     30 ****         0.0315  -1.3736  -0.5562 H              1 S1                 0.0000
     31 ****         0.8930  -3.3337   0.0680 H              1 S1                 0.0000
     32 ****        -0.1747  -0.3189   1.7938 H              1 S1                 0.0000
     33 ****        -0.2259  -1.9362   2.4414 H              1 S1                 0.0000
     34 ****         1.9173  -0.4489   3.5635 H              1 S1                 0.0000
     35 ****         1.7185  -2.1906   3.6059 H              1 S1                 0.0000
     36 ****         4.0782  -1.5683   4.0820 H              1 S1                 0.0000
     37 ****         3.9506  -2.5529   2.6456 H              1 S1                 0.0000
     38 ****         4.2852   0.4789   2.7538 H              1 S1                 0.0000
     39 ****         5.4806  -0.6643   2.1963 H              1 S1                 0.0000
     40 ****         4.2291   0.5074   0.3352 H              1 S1                 0.0000
     41 ****         3.9690  -1.3208  -0.8542 H              1 S1                 0.0000
     42 ****         1.8918  -0.2498  -0.1575 H              1 S1                 0.0000
     43 ****         1.9951   0.7068   1.2997 H              1 S1                 0.0000
     44 ****        -1.4090  -0.6382  -2.3784 H              1 S1                 0.0000
     45 ****        -0.9230   0.3117  -4.4718 H              1 S1                 0.0000
     46 ****        -0.6172   2.0464  -4.4817 H              1 S1                 0.0000
     47 ****        -2.1725   1.4143  -5.0438 H              1 S1                 0.0000
     48 ****         1.9490  -2.2161   1.2411 H              1 S1                 0.0000
     49 ****        -3.8469   2.1042   1.5842 H              1 S1                 0.0000
     50 ****        -0.5066  -3.6635  -0.6087 LP             1 S1                 0.0000
     51 ****        -0.3164  -3.7506   1.0108 LP             1 S1                 0.0000
     52 ****         3.6935  -2.3015   0.3671 LP             1 S1                 0.0000
     53 ****         5.1711  -1.6461   0.1350 LP             1 S1                 0.0000
@<TRIPOS>BOND
    1    1    2 1     
    2    1   23 1     
    3    1   24 1     
    4    1   25 1     
    5    2   21 ar    
    6    2    3 ar    
    7    3    4 ar    
    8    3   26 1     
    9    4   19 ar    
   10    4    5 1     
   11    5    6 2     
   12    5   49 1     
   13    6    7 1     
   14    6   27 1     
   15    7    8 1     
   16    7   19 1     
   17    8    9 1     
   18    8   28 1     
   19    8   29 1     
   20    9   10 1     
   21    9   11 1     
   22    9   30 1     
   23   10   31 1     
   24   11   12 1     
   25   11   32 1     
   26   11   33 1     
   27   12   18 1     
   28   12   13 1     
   29   12   48 1     
   30   13   14 1     
   31   13   34 1     
   32   13   35 1     
   33   14   15 1     
   34   14   36 1     
   35   14   37 1     
   36   15   16 1     
   37   15   38 1     
   38   15   39 1     
   39   16   17 1     
   40   16   18 1     
   41   16   40 1     
   42   17   41 1     
   43   18   42 1     
   44   18   43 1     
   45   19   20 ar    
   46   20   21 ar    
   47   20   44 1     
   48   21   22 1     
   49   22   45 1     
   50   22   46 1     
   51   22   47 1     
   52   10   50 1     
   53   10   51 1     
   54   17   52 1     
   55   17   53 1     
@<TRIPOS>SUBSTRUCTURE
      1 S1             1
@<TRIPOS>SET
LONE_PAIRS      STATIC     ATOMS    <user>   **** ""
4 50 51 52 53
DONOR_HYDROGENS      STATIC     ATOMS    <user>   **** ""
4 49 31 48 41
ATOM$BLUE        STATIC     ATOMS    COLORGROUP SYSTEM
4 50 51 52 53
ATOM$RED        STATIC     ATOMS    COLORGROUP SYSTEM
4 49 31 48 41
