#       Name:                AV-unprocessed.smi:2627
#       Creating user name   scv26
#       Creation time:       Fri Mar 27 14:25:04 2020


#       File generated by GOLD software.
#

@<TRIPOS>MOLECULE
AV-unprocessed.smi:2627
    44    46     1
SMALL
NO_CHARGES


@<TRIPOS>ATOM
      1 ****        -1.0393   3.0264   2.7131 C.3            1 S1                 0.0000
      2 ****        -1.2614   2.5385   1.2759 C.3            1 S1                 0.0000
      3 ****        -2.1685   3.4120   0.6359 O.3            1 S1                 0.0000
      4 ****        -1.7377   1.1189   1.2618 C.2            1 S1                 0.0000
      5 ****        -3.0342   0.7067   1.3586 N.pl3          1 S1                 1.0000
      6 ****        -3.0935  -0.6865   1.3135 C.ar           1 S1                 0.0000
      7 ****        -4.1792  -1.5549   1.3696 C.ar           1 S1                 0.0000
      8 ****        -3.8914  -2.9335   1.2931 C.ar           1 S1                 0.0000
      9 ****        -2.5671  -3.4010   1.1645 C.ar           1 S1                 0.0000
     10 ****        -1.4742  -2.5107   1.1097 C.ar           1 S1                 0.0000
     11 ****        -1.7676  -1.1496   1.1899 C.ar           1 S1                 0.0000
     12 ****        -0.9658  -0.0029   1.1756 N.pl3          1 S1                 0.0000
     13 ****         0.4918  -0.1449   1.0678 C.3            1 S1                 0.0000
     14 ****         0.9535  -0.1800  -0.3936 C.3            1 S1                 0.0000
     15 ****         2.3724  -0.2302  -0.4139 O.3            1 S1                 0.0000
     16 ****         3.0084  -0.1978  -1.6361 C.ar           1 S1                 0.0000
     17 ****         4.4185  -0.1800  -1.6223 C.ar           1 S1                 0.0000
     18 ****         5.1513  -0.1444  -2.8242 C.ar           1 S1                 0.0000
     19 ****         4.4767  -0.1280  -4.0588 C.ar           1 S1                 0.0000
     20 ****         3.0698  -0.1471  -4.0878 C.ar           1 S1                 0.0000
     21 ****         2.3370  -0.1817  -2.8854 C.ar           1 S1                 0.0000
     22 ****        -0.3053   2.4061   3.2284 H              1 S1                 0.0000
     23 ****        -1.9638   2.9976   3.2909 H              1 S1                 0.0000
     24 ****        -0.6694   4.0522   2.7269 H              1 S1                 0.0000
     25 ****        -0.3195   2.5973   0.7298 H              1 S1                 0.0000
     26 ****        -2.1905   3.2006  -0.2852 H              1 S1                 0.0000
     27 ****        -5.1947  -1.1992   1.4666 H              1 S1                 0.0000
     28 ****        -4.7022  -3.6466   1.3329 H              1 S1                 0.0000
     29 ****        -2.3853  -4.4646   1.1072 H              1 S1                 0.0000
     30 ****        -0.4643  -2.8801   1.0094 H              1 S1                 0.0000
     31 ****         0.9464   0.7001   1.5855 H              1 S1                 0.0000
     32 ****         0.8079  -1.0394   1.6050 H              1 S1                 0.0000
     33 ****         0.5357  -1.0532  -0.8972 H              1 S1                 0.0000
     34 ****         0.6013   0.7144  -0.9102 H              1 S1                 0.0000
     35 ****         4.9441  -0.1916  -0.6787 H              1 S1                 0.0000
     36 ****         6.2308  -0.1293  -2.7980 H              1 S1                 0.0000
     37 ****         5.0369  -0.1014  -4.9817 H              1 S1                 0.0000
     38 ****         2.5507  -0.1353  -5.0348 H              1 S1                 0.0000
     39 ****         1.2597  -0.1966  -2.9489 H              1 S1                 0.0000
     40 ****        -3.8188   1.3400   1.4455 H              1 S1                 0.0000
     41 ****        -1.8683   4.3581   0.7576 LP             1 S1                 0.0000
     42 ****        -3.0806   3.2985   1.0297 LP             1 S1                 0.0000
     43 ****         2.6455  -1.0784   0.0399 LP             1 S1                 0.0000
     44 ****         2.7042   0.5518   0.1137 LP             1 S1                 0.0000
@<TRIPOS>BOND
    1    1    2 1     
    2    1   22 1     
    3    1   23 1     
    4    1   24 1     
    5    2    3 1     
    6    2    4 1     
    7    2   25 1     
    8    3   26 1     
    9    4   12 1     
   10    4    5 2     
   11    5    6 1     
   12    5   40 1     
   13    6   11 ar    
   14    6    7 ar    
   15    7    8 ar    
   16    7   27 1     
   17    8    9 ar    
   18    8   28 1     
   19    9   10 ar    
   20    9   29 1     
   21   10   11 ar    
   22   10   30 1     
   23   11   12 1     
   24   12   13 1     
   25   13   14 1     
   26   13   31 1     
   27   13   32 1     
   28   14   15 1     
   29   14   33 1     
   30   14   34 1     
   31   15   16 1     
   32   16   21 ar    
   33   16   17 ar    
   34   17   18 ar    
   35   17   35 1     
   36   18   19 ar    
   37   18   36 1     
   38   19   20 ar    
   39   19   37 1     
   40   20   21 ar    
   41   20   38 1     
   42   21   39 1     
   43    3   41 1     
   44    3   42 1     
   45   15   43 1     
   46   15   44 1     
@<TRIPOS>SUBSTRUCTURE
      1 S1             1
@<TRIPOS>SET
LONE_PAIRS      STATIC     ATOMS    <user>   **** ""
4 41 42 43 44
DONOR_HYDROGENS      STATIC     ATOMS    <user>   **** ""
2 26 40
ATOM$BLUE        STATIC     ATOMS    COLORGROUP SYSTEM
4 41 42 43 44
ATOM$RED        STATIC     ATOMS    COLORGROUP SYSTEM
2 26 40
