AV-unprocessed.smi:496|AV-procd|sdf|2720|dock7
  -GOLD-   2262023163D 1   1.00000     0.00000
 Structure written by MMmdl.
 41 43  0  0  0  0  0  0  0  0  2 V2000
  150.4847  138.3162  154.0943 C   0  0  0  0  0  0  0  0  0  0  0  0
  151.1335  139.5328  154.4170 O   0  0  0  0  0  0  0  0  0  0  0  0
  151.7683  139.4912  155.6850 C   0  0  0  0  0  0  0  0  0  0  0  0
  150.7140  139.6028  156.7970 C   0  0  0  0  0  0  0  0  0  0  0  0
  151.3092  139.9021  158.1024 N   0  0  0  0  0  0  0  0  0  0  0  0
  151.5214  139.0955  159.1885 C   0  0  0  0  0  0  0  0  0  0  0  0
  151.1549  137.6219  159.2511 C   0  0  2  0  0  0  0  0  0  0  0  0
  151.4804  136.9024  157.9339 C   0  0  0  0  0  0  0  0  0  0  0  0
  149.7435  137.4142  159.5823 N   0  5  0  0  0  0  0  0  0  0  0  0
  149.1349  136.1943  159.5926 C   0  0  0  0  0  0  0  0  0  0  0  0
  149.2803  135.2325  158.8300 O   0  0  0  0  0  0  0  0  0  0  0  0
  148.1373  136.0815  160.6807 C   0  0  0  0  0  0  0  0  0  0  0  0
  147.5596  134.9941  161.2858 C   0  0  0  0  0  0  0  0  0  0  0  0
  146.6462  135.4979  162.2525 C   0  0  0  0  0  0  0  0  0  0  0  0
  146.7207  136.8579  162.1641 C   0  0  0  0  0  0  0  0  0  0  0  0
  147.6159  137.2284  161.2087 O   0  0  0  0  0  0  0  0  0  0  0  0
  152.1114  139.6932  160.2295 N   0  0  0  0  0  0  0  0  0  0  0  0
  152.2817  140.9913  159.7972 C   0  0  0  0  0  0  0  0  0  0  0  0
  152.8433  142.1098  160.4537 C   0  0  0  0  0  0  0  0  0  0  0  0
  152.9074  143.3603  159.8055 C   0  0  0  0  0  0  0  0  0  0  0  0
  152.4112  143.5089  158.4945 C   0  0  0  0  0  0  0  0  0  0  0  0
  151.8494  142.4057  157.8233 C   0  0  0  0  0  0  0  0  0  0  0  0
  151.7885  141.1578  158.4742 C   0  0  0  0  0  0  0  0  0  0  0  0
  150.0160  138.4006  153.1140 H   0  0  0  0  0  0  0  0  0  0  0  0
  149.7055  138.0808  154.8203 H   0  0  0  0  0  0  0  0  0  0  0  0
  151.1939  137.4884  154.0594 H   0  0  0  0  0  0  0  0  0  0  0  0
  152.3279  138.5609  155.7904 H   0  0  0  0  0  0  0  0  0  0  0  0
  152.4834  140.3104  155.7709 H   0  0  0  0  0  0  0  0  0  0  0  0
  149.9625  140.3526  156.5489 H   0  0  0  0  0  0  0  0  0  0  0  0
  150.1668  138.6633  156.8727 H   0  0  0  0  0  0  0  0  0  0  0  0
  151.7879  137.1526  160.0039 H   0  0  0  0  0  0  0  0  0  0  0  0
  152.5373  137.0058  157.6869 H   0  0  0  0  0  0  0  0  0  0  0  0
  150.9041  137.3076  157.1012 H   0  0  0  0  0  0  0  0  0  0  0  0
  151.2617  135.8363  158.0018 H   0  0  0  0  0  0  0  0  0  0  0  0
  147.7708  133.9592  161.0591 H   0  0  0  0  0  0  0  0  0  0  0  0
  146.0134  134.9365  162.9237 H   0  0  0  0  0  0  0  0  0  0  0  0
  146.2296  137.6719  162.6766 H   0  0  0  0  0  0  0  0  0  0  0  0
  153.2241  142.0034  161.4586 H   0  0  0  0  0  0  0  0  0  0  0  0
  153.3377  144.2088  160.3167 H   0  0  0  0  0  0  0  0  0  0  0  0
  152.4617  144.4699  158.0041 H   0  0  0  0  0  0  0  0  0  0  0  0
  151.4665  142.5196  156.8203 H   0  0  0  0  0  0  0  0  0  0  0  0
  1  2  1  0  0  0  0
  1 24  1  0  0  0  0
  1 25  1  0  0  0  0
  1 26  1  0  0  0  0
  2  3  1  0  0  0  0
  3  4  1  0  0  0  0
  3 27  1  0  0  0  0
  3 28  1  0  0  0  0
  4  5  1  0  0  0  0
  4 29  1  0  0  0  0
  4 30  1  0  0  0  0
  5 23  1  0  0  0  0
  5  6  1  0  0  0  0
  6  7  1  0  0  0  0
  6 17  2  0  0  0  0
  7  8  1  0  0  0  0
  7  9  1  0  0  0  0
  7 31  1  0  0  0  0
  8 32  1  0  0  0  0
  8 33  1  0  0  0  0
  8 34  1  0  0  0  0
  9 10  1  0  0  0  0
 10 11  2  0  0  0  0
 10 12  1  0  0  0  0
 12 16  1  0  0  0  0
 12 13  2  0  0  0  0
 13 14  1  0  0  0  0
 13 35  1  0  0  0  0
 14 15  2  0  0  0  0
 14 36  1  0  0  0  0
 15 16  1  0  0  0  0
 15 37  1  0  0  0  0
 17 18  1  0  0  0  0
 18 23  2  0  0  0  0
 18 19  1  0  0  0  0
 19 20  2  0  0  0  0
 19 38  1  0  0  0  0
 20 21  1  0  0  0  0
 20 39  1  0  0  0  0
 21 22  2  0  0  0  0
 21 40  1  0  0  0  0
 22 23  1  0  0  0  0
 22 41  1  0  0  0  0
M  CHG  1   9  -1
M  END
> <s_m_source_file>
AV-unprocessed.smi

> <i_m_source_file_index>
496

> <i_lp_mmshare_version>
43012

> <i_f3d_flags>
0

> <s_epik_input>
W2NIXTFbY0hdW2NIXVtjSF1jKGMxMiluKFtDSDJdW0NIMl1PW0NIM10pYyhuMilbQ0BIXShbQ0gzXSlbTkhdQyg9TyljM1tjSF1bY0hdW2NIXW8z

> <s_epik_cmdline>
J2VwaWtfcHl0aG9uJywgJy1waCcsICc3LjAnLCAnLXRuJywgJzgnLCAnLW1hJywgJzIwMCcsICctbWV0YWxfYmluZGluZycsICctaW1hZScsICc8aW5maWxlLm1hZT4nLCAnLW9tYWUnLCAnPG91dGZpbGUubWFlPic=

> <r_epik_Ionization_Penalty>
7.3423

> <r_epik_Ionization_Penalty_Charging>
6.43826

> <r_epik_Ionization_Penalty_Neutral>
0.90404

> <r_epik_State_Penalty>
6.54438

> <r_epik_Charging_Adjusted_Penalty>
12.9826

> <i_epik_Tot_Q>
-1

> <i_epik_Tot_abs_Q>
1

> <r_epik_Metal_State_Penalty>
2.56942

> <b_epik_Metal_Only>
1

> <s_lp_Force_Field>
OPLS_2005

> <r_lp_Energy>
15.948

> <b_lp_Chiralities_Consistent>
1

> <s_lp_Variant>
AV-unprocessed.smi:496-5

> <Gold.Version>
5.8.1

> <Gold.Id.Protein>
6NUR|6NUR_protein|mol2

> <Gold.PLP.Fitness>
54.7183

> <Gold.PLP.PLP>
-46.2581

> <Gold.PLP.part.hbond>
-4.9796

> <Gold.PLP.part.metal>
0.0000

> <Gold.PLP.part.buried>
-1.7567

> <Gold.PLP.part.nonpolar>
-39.5289

> <Gold.PLP.part.repulsive>
0.1026

> <Gold.PLP.ligand.clash>
0.0000

> <Gold.PLP.ligand.torsion>
1.4199

> <Gold.PLP.Chemscore.Hbond>
3.7040

> <Gold.PLP.Chemscore.CHOScore>
0.0000

> <Gold.PLP.Chemscore.Metal>
0.0000

> <Gold.Chemscore.Hbonds>
donor molecule, donor type, donor heavy atom, donor atom, acceptor molecule, acceptor atom, score
      P1  H  6896  6908       L1    11  1.00
      P1  H  6931  6943       L1    16  0.91
      P1  H  6934  6947       L1    16  0.88
      P1  H  7989  7998       L1     2  1.00

> <Gold.PLP.Chemscore.Internal.Correction>
0.1879

> <Gold.Rescore>
     Score         DG    S(hbond)    S(metal)    S(lipo)     H(rot)  DE(clash)    DE(int)     intcor
     16.75     -20.79       1.73        0.00     120.55       1.78       2.06       1.98       ----

> <Gold.Chemscore.Fitness>
16.7519

> <Gold.Chemscore.DG>
-20.7918

> <Gold.Chemscore.ZeroCoef>
-5.4800

> <Gold.Chemscore.Hbond>
1.7272

> <Gold.Chemscore.Metal>
0.0000

> <Gold.Chemscore.Lipo>
120.5514

> <Gold.Chemscore.Internal_Hbond>
0.0000

> <Gold.Chemscore.DEClash>
2.0640

> <Gold.Chemscore.DEInternal>
1.9759

> <Gold.Chemscore.Rot>
1.7819

> <Gold.Chemscore.Internal.Correction>
   9.000000E+99

> <Gold.Chemscore.Hbonds>
donor molecule, donor type, donor heavy atom, donor atom, acceptor molecule, acceptor atom, score
      P1  H  6896  6908       L1    11  0.50
      P1  H  6931  6943       L1    16  0.53
      P1  H  6934  6947       L1    16  0.30
      P1  H  7989  7998       L1     2  0.82

> <Gold.Chemscore.Hbond.Weighted>
-5.7690

> <Gold.Chemscore.Metal.Weighted>
-0.0000

> <Gold.Chemscore.Lipo.Weighted>
-14.1045

> <Gold.Chemscore.Internal_Hbond.Weighted>
0.0000

> <Gold.Chemscore.DEClash.Weighted>
2.0640

> <Gold.Chemscore.DEInternal.Weighted>
1.9759

> <Gold.Chemscore.Rot.Weighted>
4.5617

> <Gold.Chemscore.Internal.Correction.Weighted>
   9.000000E+99

> <Gold.Protein.RotatedTorsions>
[ 6907 6896 6895 6894 ] final  154.90 input  -60.11 | X-H torsion
[ 7974 7965 7964 7962 ] final -120.05 input  175.53 | X-H torsion
[ 8008 7997 7996 7995 ] final -167.70 input   59.86 | X-H torsion
[ 10167 10162 10161 10158 ] final   85.09 input  -65.29 | X-H torsion
[ 10718 10713 10712 10709 ] final   61.28 input   66.30 | X-H torsion
[ 10763 10752 10751 10750 ] final  128.49 input  -60.55 | X-H torsion
[ 11005 11000 10999 10996 ] final   91.24 input  -57.11 | X-H torsion

> <Gold.Protein.ActiveResidues>
 VAL166  LYS551  ARG553  GLY616  TRP617  ASP618  TYR619  PRO620  LYS621  CYS622 
 ASP623  PHE694  ASN695  SER759  ASP760  ASP761  ALA762  ILE779  LEU786  VAL792 
 PHE793  MET794  SER795  GLU796  ALA797  LYS798  CYS799  TRP800  GLU811  SER814 

> <Gold.Protein.RotatedAtoms>
  152.0519  133.4022  159.4380 H   0  0  0  0  0  0  0  0  0  0  0  0  # atno 6907 bound_to 6896
  150.6870  134.3299  159.4832 H   0  0  0  0  0  0  0  0  0  0  0  0  # atno 6908 bound_to 6896
  152.1110  134.9274  160.0617 H   0  0  0  0  0  0  0  0  0  0  0  0  # atno 6909 bound_to 6896
  145.0557  140.8252  143.4182 H   0  0  0  0  0  0  0  0  0  0  0  0  # atno 7974 bound_to 7965
  155.8813  140.1009  157.1483 H   0  0  0  0  0  0  0  0  0  0  0  0  # atno 8008 bound_to 7997
  154.4005  140.1328  156.4263 H   0  0  0  0  0  0  0  0  0  0  0  0  # atno 8009 bound_to 7997
  155.7640  140.3462  155.5215 H   0  0  0  0  0  0  0  0  0  0  0  0  # atno 8010 bound_to 7997
  139.9013  144.6328  150.8634 H   0  0  0  0  0  0  0  0  0  0  0  0  # atno 10167 bound_to 10162
  157.5816  130.8986  149.9441 H   0  0  0  0  0  0  0  0  0  0  0  0  # atno 10718 bound_to 10713
  153.7263  135.3245  155.3277 H   0  0  0  0  0  0  0  0  0  0  0  0  # atno 10763 bound_to 10752
  154.8340  135.4511  154.1166 H   0  0  0  0  0  0  0  0  0  0  0  0  # atno 10764 bound_to 10752
  153.2301  135.6959  153.7980 H   0  0  0  0  0  0  0  0  0  0  0  0  # atno 10765 bound_to 10752
  139.8842  134.8662  156.3400 H   0  0  0  0  0  0  0  0  0  0  0  0  # atno 11005 bound_to 11000
  145.1471  139.2536  143.5460 LP  0  0  0  0  0  0  0  0  0  0  0  0  # atno 17320 bound_to 7965
  146.3521  140.1164  142.8602 LP  0  0  0  0  0  0  0  0  0  0  0  0  # atno 17321 bound_to 7965
  140.7706  143.3435  151.2159 LP  0  0  0  0  0  0  0  0  0  0  0  0  # atno 17342 bound_to 10162
  139.7023  143.9512  152.2911 LP  0  0  0  0  0  0  0  0  0  0  0  0  # atno 17343 bound_to 10162
  156.0862  130.3668  150.0483 LP  0  0  0  0  0  0  0  0  0  0  0  0  # atno 17370 bound_to 10713
  156.8621  130.9495  151.3617 LP  0  0  0  0  0  0  0  0  0  0  0  0  # atno 17371 bound_to 10713
  140.9665  133.7355  156.0474 LP  0  0  0  0  0  0  0  0  0  0  0  0  # atno 17394 bound_to 11000
  140.7924  134.3602  157.5461 LP  0  0  0  0  0  0  0  0  0  0  0  0  # atno 17395 bound_to 11000

$$$$
