AV-unprocessed.smi:1847|AV-procd|sdf|7515|dock9
  -GOLD-   22720 9223D 1   1.00000     0.00000
 Structure written by MMmdl.
 25 26  0  0  0  0  0  0  0  0  1 V2000
  150.6097  142.3447  157.8431 O   0  0  0  0  0  0  0  0  0  0  0  0
  151.4129  141.4178  157.7282 C   0  0  0  0  0  0  0  0  0  0  0  0
  152.3596  141.1252  158.6411 N   0  0  0  0  0  0  0  0  0  0  0  0
  152.6316  141.7635  159.8813 C   0  0  0  0  0  0  0  0  0  0  0  0
  152.0975  143.0521  160.0885 C   0  0  0  0  0  0  0  0  0  0  0  0
  152.3661  143.7114  161.3046 C   0  0  0  0  0  0  0  0  0  0  0  0
  153.1230  143.1775  162.2861 N   0  0  0  0  0  0  0  0  0  0  0  0
  153.6478  141.9512  162.0791 C   0  0  0  0  0  0  0  0  0  0  0  0
  153.4396  141.2059  160.9013 C   0  0  0  0  0  0  0  0  0  0  0  0
  151.4790  140.5146  156.5851 C   0  0  0  0  0  0  0  0  0  0  0  0
  150.6526  140.7118  155.5318 C   0  0  0  0  0  0  0  0  0  0  0  0
  150.6141  139.8955  154.4293 O   0  0  0  0  0  0  0  0  0  0  0  0
  151.3231  138.6706  154.5730 C   0  0  0  0  0  0  0  0  0  0  0  0
  152.6519  138.9048  155.3062 C   0  0  0  0  0  0  0  0  0  0  0  0
  152.4150  139.5031  156.5763 O   0  0  0  0  0  0  0  0  0  0  0  0
  153.0035  140.3921  158.3804 H   0  0  0  0  0  0  0  0  0  0  0  0
  151.4867  143.5281  159.3353 H   0  0  0  0  0  0  0  0  0  0  0  0
  151.9636  144.6958  161.4924 H   0  0  0  0  0  0  0  0  0  0  0  0
  154.2598  141.5533  162.8749 H   0  0  0  0  0  0  0  0  0  0  0  0
  153.9094  140.2397  160.8009 H   0  0  0  0  0  0  0  0  0  0  0  0
  149.9162  141.5002  155.4655 H   0  0  0  0  0  0  0  0  0  0  0  0
  150.7047  137.9605  155.1236 H   0  0  0  0  0  0  0  0  0  0  0  0
  151.5017  138.2431  153.5862 H   0  0  0  0  0  0  0  0  0  0  0  0
  153.1798  137.9618  155.4494 H   0  0  0  0  0  0  0  0  0  0  0  0
  153.3038  139.5530  154.7188 H   0  0  0  0  0  0  0  0  0  0  0  0
  1  2  2  0  0  0  0
  2  3  1  0  0  0  0
  2 10  1  0  0  0  0
  3  4  1  0  0  0  0
  3 16  1  0  0  0  0
  4  9  1  0  0  0  0
  4  5  2  0  0  0  0
  5  6  1  0  0  0  0
  5 17  1  0  0  0  0
  6  7  2  0  0  0  0
  6 18  1  0  0  0  0
  7  8  1  0  0  0  0
  8  9  2  0  0  0  0
  8 19  1  0  0  0  0
  9 20  1  0  0  0  0
 10 15  1  0  0  0  0
 10 11  2  0  0  0  0
 11 12  1  0  0  0  0
 11 21  1  0  0  0  0
 12 13  1  0  0  0  0
 13 14  1  0  0  0  0
 13 22  1  0  0  0  0
 13 23  1  0  0  0  0
 14 15  1  0  0  0  0
 14 24  1  0  0  0  0
 14 25  1  0  0  0  0
M  END
> <s_m_source_file>
AV-unprocessed.smi

> <i_m_source_file_index>
1847

> <i_lp_mmshare_version>
43012

> <i_f3d_flags>
0

> <s_epik_input>
TzFbQ0gyXVtDSDJdT1tDSF09QzFDKD1PKVtOSF1jMltjSF1bY0hdbltjSF1bY0hdMg==

> <s_epik_cmdline>
J2VwaWtfcHl0aG9uJywgJy1waCcsICc3LjAnLCAnLXRuJywgJzgnLCAnLW1hJywgJzIwMCcsICctbWV0YWxfYmluZGluZycsICctaW1hZScsICc8aW5maWxlLm1hZT4nLCAnLW9tYWUnLCAnPG91dGZpbGUubWFlPic=

> <r_epik_Ionization_Penalty>
0.039624

> <r_epik_Ionization_Penalty_Charging>
0

> <r_epik_Ionization_Penalty_Neutral>
0.039624

> <r_epik_State_Penalty>
0.0332371

> <r_epik_Charging_Adjusted_Penalty>
0.0332371

> <i_epik_Tot_Q>
0

> <i_epik_Tot_abs_Q>
0

> <r_epik_Metal_State_Penalty>
0.0856011

> <b_epik_Metal_Only>
0

> <s_lp_Force_Field>
OPLS_2005

> <r_lp_Energy>
7.75987

> <b_lp_Chiralities_Consistent>
1

> <s_lp_Variant>
AV-unprocessed.smi:1847-1

> <Gold.Version>
5.8.1

> <Gold.Id.Protein>
6NUR|6NUR_protein|mol2

> <Gold.PLP.Fitness>
38.4556

> <Gold.PLP.PLP>
-34.0749

> <Gold.PLP.part.hbond>
-2.0000

> <Gold.PLP.part.metal>
0.0000

> <Gold.PLP.part.buried>
-1.7046

> <Gold.PLP.part.nonpolar>
-28.7606

> <Gold.PLP.part.repulsive>
0.4067

> <Gold.PLP.ligand.clash>
0.0000

> <Gold.PLP.ligand.torsion>
0.0606

> <Gold.PLP.Chemscore.Hbond>
1.5000

> <Gold.PLP.Chemscore.CHOScore>
0.0000

> <Gold.PLP.Chemscore.Metal>
0.0000

> <Gold.Chemscore.Hbonds>
donor molecule, donor type, donor heavy atom, donor atom, acceptor molecule, acceptor atom, score
      P1  H  7989  7998       L1    12  0.75
      P1  H  7997  8010       L1    15  0.47

> <Gold.PLP.Chemscore.Internal.Correction>
0.0020

> <Gold.Rescore>
     Score         DG    S(hbond)    S(metal)    S(lipo)     H(rot)  DE(clash)    DE(int)     intcor
     14.35     -15.88       0.21        0.00      82.88       0.00       0.05       1.49       ----

> <Gold.Chemscore.Fitness>
14.3458

> <Gold.Chemscore.DG>
-15.8787

> <Gold.Chemscore.ZeroCoef>
-5.4800

> <Gold.Chemscore.Hbond>
0.2101

> <Gold.Chemscore.Metal>
0.0000

> <Gold.Chemscore.Lipo>
82.8802

> <Gold.Chemscore.Internal_Hbond>
0.0000

> <Gold.Chemscore.DEClash>
0.0479

> <Gold.Chemscore.DEInternal>
1.4850

> <Gold.Chemscore.Rot>
0.0000

> <Gold.Chemscore.Internal.Correction>
   9.000000E+99

> <Gold.Chemscore.Hbonds>
donor molecule, donor type, donor heavy atom, donor atom, acceptor molecule, acceptor atom, score
      P1  H  7989  7998       L1    12  0.05
      P1  H  7997  8010       L1    15  0.02

> <Gold.Chemscore.Hbond.Weighted>
-0.7017

> <Gold.Chemscore.Metal.Weighted>
-0.0000

> <Gold.Chemscore.Lipo.Weighted>
-9.6970

> <Gold.Chemscore.Internal_Hbond.Weighted>
0.0000

> <Gold.Chemscore.DEClash.Weighted>
0.0479

> <Gold.Chemscore.DEInternal.Weighted>
1.4850

> <Gold.Chemscore.Rot.Weighted>
0.0000

> <Gold.Chemscore.Internal.Correction.Weighted>
   9.000000E+99

> <Gold.Protein.RotatedTorsions>
[ 6907 6896 6895 6894 ] final -169.93 input  -60.11 | X-H torsion
[ 7974 7965 7964 7962 ] final -163.57 input  175.53 | X-H torsion
[ 8008 7997 7996 7995 ] final   52.48 input   59.86 | X-H torsion
[ 10167 10162 10161 10158 ] final  -60.14 input  -65.29 | X-H torsion
[ 10718 10713 10712 10709 ] final  -93.63 input   66.30 | X-H torsion
[ 10763 10752 10751 10750 ] final   26.63 input  -60.55 | X-H torsion
[ 11005 11000 10999 10996 ] final    9.93 input  -57.11 | X-H torsion

> <Gold.Protein.ActiveResidues>
 VAL166  LYS551  ARG553  GLY616  TRP617  ASP618  TYR619  PRO620  LYS621  CYS622 
 ASP623  PHE694  ASN695  SER759  ASP760  ASP761  ALA762  ILE779  LEU786  VAL792 
 PHE793  MET794  SER795  GLU796  ALA797  LYS798  CYS799  TRP800  GLU811  SER814 

> <Gold.Protein.RotatedAtoms>
  151.4995  133.3507  159.2866 H   0  0  0  0  0  0  0  0  0  0  0  0  # atno 6907 bound_to 6896
  150.8782  134.8171  159.7216 H   0  0  0  0  0  0  0  0  0  0  0  0  # atno 6908 bound_to 6896
  152.4745  134.4889  159.9741 H   0  0  0  0  0  0  0  0  0  0  0  0  # atno 6909 bound_to 6896
  144.7322  140.3088  143.6191 H   0  0  0  0  0  0  0  0  0  0  0  0  # atno 7974 bound_to 7965
  155.4525  140.3459  155.4302 H   0  0  0  0  0  0  0  0  0  0  0  0  # atno 8008 bound_to 7997
  156.1211  140.1487  156.9233 H   0  0  0  0  0  0  0  0  0  0  0  0  # atno 8009 bound_to 7997
  154.4824  140.0865  156.7388 H   0  0  0  0  0  0  0  0  0  0  0  0  # atno 8010 bound_to 7997
  140.6090  143.2382  151.5753 H   0  0  0  0  0  0  0  0  0  0  0  0  # atno 10167 bound_to 10162
  156.0016  130.5035  150.5806 H   0  0  0  0  0  0  0  0  0  0  0  0  # atno 10718 bound_to 10713
  153.0610  135.6556  154.0464 H   0  0  0  0  0  0  0  0  0  0  0  0  # atno 10763 bound_to 10752
  154.0131  135.2926  155.3391 H   0  0  0  0  0  0  0  0  0  0  0  0  # atno 10764 bound_to 10752
  154.6948  135.5268  153.8510 H   0  0  0  0  0  0  0  0  0  0  0  0  # atno 10765 bound_to 10752
  140.5202  134.0567  155.7842 H   0  0  0  0  0  0  0  0  0  0  0  0  # atno 11005 bound_to 11000
  145.7686  139.1849  143.2226 LP  0  0  0  0  0  0  0  0  0  0  0  0  # atno 17320 bound_to 7965
  146.0929  140.7634  142.9586 LP  0  0  0  0  0  0  0  0  0  0  0  0  # atno 17321 bound_to 7965
  139.5347  144.2815  152.1225 LP  0  0  0  0  0  0  0  0  0  0  0  0  # atno 17342 bound_to 10162
  140.2011  144.4657  150.6431 LP  0  0  0  0  0  0  0  0  0  0  0  0  # atno 17343 bound_to 10162
  157.3686  131.0762  151.1576 LP  0  0  0  0  0  0  0  0  0  0  0  0  # atno 17370 bound_to 10713
  157.2337  130.6537  149.5860 LP  0  0  0  0  0  0  0  0  0  0  0  0  # atno 17371 bound_to 10713
  141.1338  133.9256  157.2477 LP  0  0  0  0  0  0  0  0  0  0  0  0  # atno 17394 bound_to 11000
  139.9610  135.0154  156.9261 LP  0  0  0  0  0  0  0  0  0  0  0  0  # atno 17395 bound_to 11000

$$$$
