AV-unprocessed.smi:389|AV-procd|sdf|2477|dock1
  -GOLD-   2262022413D 1   1.00000     0.00000
 Structure written by MMmdl.
 33 33  0  0  0  0  0  0  0  0  2 V2000
  145.8352  142.6974  154.0543 C   0  0  0  0  0  0  0  0  0  0  0  0
  147.1605  142.0496  154.4896 C   0  0  0  0  0  0  0  0  0  0  0  0
  147.4922  140.8520  153.5861 C   0  0  0  0  0  0  0  0  0  0  0  0
  147.1523  141.6288  155.9733 C   0  0  0  0  0  0  0  0  0  0  0  0
  148.4937  141.0556  156.4691 C   0  0  0  0  0  0  0  0  0  0  0  0
  149.4147  142.1115  156.8726 N   0  0  0  0  0  0  0  0  0  0  0  0
  150.6513  141.9143  157.3538 C   0  0  0  0  0  0  0  0  0  0  0  0
  151.1368  140.7949  157.5249 O   0  0  0  0  0  0  0  0  0  0  0  0
  151.4392  143.1801  157.7196 C   0  0  0  0  0  0  0  0  0  0  0  0
  151.9136  143.1861  159.1129 N   0  0  0  0  0  0  0  0  0  0  0  0
  152.8897  142.2406  159.4740 C   0  0  0  0  0  0  0  0  0  0  0  0
  153.3867  142.1743  160.7237 C   0  0  0  0  0  0  0  0  0  0  0  0
  152.8864  143.1173  161.7163 C   0  0  0  0  0  0  0  0  0  0  0  0
  153.3250  143.0679  162.8639 O   0  0  0  0  0  0  0  0  0  0  0  0
  151.9433  144.0196  161.3157 N   0  5  0  0  0  0  0  0  0  0  0  0
  151.4497  144.0779  160.0397 C   0  0  0  0  0  0  0  0  0  0  0  0
  150.6019  144.9033  159.6981 O   0  0  0  0  0  0  0  0  0  0  0  0
  144.9943  142.0206  154.2093 H   0  0  0  0  0  0  0  0  0  0  0  0
  145.8568  142.9606  152.9963 H   0  0  0  0  0  0  0  0  0  0  0  0
  145.6331  143.6146  154.6066 H   0  0  0  0  0  0  0  0  0  0  0  0
  147.9544  142.7849  154.3524 H   0  0  0  0  0  0  0  0  0  0  0  0
  146.7364  140.0703  153.6695 H   0  0  0  0  0  0  0  0  0  0  0  0
  148.4550  140.4135  153.8499 H   0  0  0  0  0  0  0  0  0  0  0  0
  147.5464  141.1521  152.5393 H   0  0  0  0  0  0  0  0  0  0  0  0
  146.8610  142.4765  156.5952 H   0  0  0  0  0  0  0  0  0  0  0  0
  146.3782  140.8735  156.1155 H   0  0  0  0  0  0  0  0  0  0  0  0
  148.3336  140.3647  157.2987 H   0  0  0  0  0  0  0  0  0  0  0  0
  148.9799  140.4857  155.6781 H   0  0  0  0  0  0  0  0  0  0  0  0
  149.0945  143.0632  156.7658 H   0  0  0  0  0  0  0  0  0  0  0  0
  152.2816  143.2965  157.0351 H   0  0  0  0  0  0  0  0  0  0  0  0
  150.7992  144.0438  157.5345 H   0  0  0  0  0  0  0  0  0  0  0  0
  153.2111  141.5851  158.6780 H   0  0  0  0  0  0  0  0  0  0  0  0
  154.1394  141.4446  160.9837 H   0  0  0  0  0  0  0  0  0  0  0  0
  1  2  1  0  0  0  0
  1 18  1  0  0  0  0
  1 19  1  0  0  0  0
  1 20  1  0  0  0  0
  2  3  1  0  0  0  0
  2  4  1  0  0  0  0
  2 21  1  0  0  0  0
  3 22  1  0  0  0  0
  3 23  1  0  0  0  0
  3 24  1  0  0  0  0
  4  5  1  0  0  0  0
  4 25  1  0  0  0  0
  4 26  1  0  0  0  0
  5  6  1  0  0  0  0
  5 27  1  0  0  0  0
  5 28  1  0  0  0  0
  6  7  1  0  0  0  0
  6 29  1  0  0  0  0
  7  8  2  0  0  0  0
  7  9  1  0  0  0  0
  9 10  1  0  0  0  0
  9 30  1  0  0  0  0
  9 31  1  0  0  0  0
 10 16  1  0  0  0  0
 10 11  1  0  0  0  0
 11 12  2  0  0  0  0
 11 32  1  0  0  0  0
 12 13  1  0  0  0  0
 12 33  1  0  0  0  0
 13 14  2  0  0  0  0
 13 15  1  0  0  0  0
 15 16  1  0  0  0  0
 16 17  2  0  0  0  0
M  CHG  1  15  -1
M  END
> <s_m_source_file>
AV-unprocessed.smi

> <i_m_source_file_index>
389

> <i_lp_mmshare_version>
43012

> <i_f3d_flags>
0

> <s_epik_input>
W0NIM11bQ0hdKFtDSDNdKVtDSDJdW0NIMl1bTkhdQyg9TylbQ0gyXW4xW2NIXVtjSF1jKD1PKVtuSF1jMT1P

> <s_epik_cmdline>
J2VwaWtfcHl0aG9uJywgJy1waCcsICc3LjAnLCAnLXRuJywgJzgnLCAnLW1hJywgJzIwMCcsICctbWV0YWxfYmluZGluZycsICctaW1hZScsICc8aW5maWxlLm1hZT4nLCAnLW9tYWUnLCAnPG91dGZpbGUubWFlPic=

> <r_lp_tautomer_probability>
0.999537

> <r_epik_Ionization_Penalty>
3.12283

> <r_epik_Ionization_Penalty_Charging>
2.83566e-08

> <r_epik_Ionization_Penalty_Neutral>
3.12283

> <r_epik_State_Penalty>
3.12192

> <r_epik_Charging_Adjusted_Penalty>
3.12192

> <i_epik_Tot_Q>
-1

> <i_epik_Tot_abs_Q>
1

> <r_epik_Metal_State_Penalty>
0.463748

> <b_epik_Metal_Only>
1

> <s_lp_Force_Field>
OPLS_2005

> <r_lp_Energy>
12.9702

> <b_lp_Chiralities_Consistent>
1

> <s_lp_Variant>
AV-unprocessed.smi:389-2

> <Gold.Version>
5.8.1

> <Gold.Id.Protein>
6NUR|6NUR_protein|mol2

> <Gold.PLP.Fitness>
41.3424

> <Gold.PLP.PLP>
-38.7090

> <Gold.PLP.part.hbond>
-1.0000

> <Gold.PLP.part.metal>
0.0000

> <Gold.PLP.part.buried>
-5.8019

> <Gold.PLP.part.nonpolar>
-31.6910

> <Gold.PLP.part.repulsive>
0.4700

> <Gold.PLP.ligand.clash>
0.0000

> <Gold.PLP.ligand.torsion>
0.1998

> <Gold.PLP.Chemscore.Hbond>
1.0000

> <Gold.PLP.Chemscore.CHOScore>
0.0000

> <Gold.PLP.Chemscore.Metal>
0.0000

> <Gold.Chemscore.Hbonds>
donor molecule, donor type, donor heavy atom, donor atom, acceptor molecule, acceptor atom, score
      L1  H     6    29       P1  8028  1.00

> <Gold.PLP.Chemscore.Internal.Correction>
0.0330

> <Gold.Rescore>
     Score         DG    S(hbond)    S(metal)    S(lipo)     H(rot)  DE(clash)    DE(int)     intcor
      9.61     -10.07       0.97        0.00      59.20       2.18       0.02       0.44       ----

> <Gold.Chemscore.Fitness>
9.6103

> <Gold.Chemscore.DG>
-10.0672

> <Gold.Chemscore.ZeroCoef>
-5.4800

> <Gold.Chemscore.Hbond>
0.9733

> <Gold.Chemscore.Metal>
0.0000

> <Gold.Chemscore.Lipo>
59.1957

> <Gold.Chemscore.Internal_Hbond>
0.0000

> <Gold.Chemscore.DEClash>
0.0186

> <Gold.Chemscore.DEInternal>
0.4384

> <Gold.Chemscore.Rot>
2.1834

> <Gold.Chemscore.Internal.Correction>
   9.000000E+99

> <Gold.Chemscore.Hbonds>
donor molecule, donor type, donor heavy atom, donor atom, acceptor molecule, acceptor atom, score
      L1  H     6    29       P1  8028  0.89

> <Gold.Chemscore.Hbond.Weighted>
-3.2508

> <Gold.Chemscore.Metal.Weighted>
-0.0000

> <Gold.Chemscore.Lipo.Weighted>
-6.9259

> <Gold.Chemscore.Internal_Hbond.Weighted>
0.0000

> <Gold.Chemscore.DEClash.Weighted>
0.0186

> <Gold.Chemscore.DEInternal.Weighted>
0.4384

> <Gold.Chemscore.Rot.Weighted>
5.5895

> <Gold.Chemscore.Internal.Correction.Weighted>
   9.000000E+99

> <Gold.Protein.RotatedTorsions>
[ 6907 6896 6895 6894 ] final   55.34 input  -60.11 | X-H torsion
[ 7974 7965 7964 7962 ] final -116.27 input  175.53 | X-H torsion
[ 8008 7997 7996 7995 ] final  -41.39 input   59.86 | X-H torsion
[ 10167 10162 10161 10158 ] final   96.84 input  -65.29 | X-H torsion
[ 10718 10713 10712 10709 ] final  -94.58 input   66.30 | X-H torsion
[ 10763 10752 10751 10750 ] final -175.29 input  -60.55 | X-H torsion
[ 11005 11000 10999 10996 ] final  -68.61 input  -57.11 | X-H torsion

> <Gold.Protein.ActiveResidues>
 VAL166  LYS551  ARG553  GLY616  TRP617  ASP618  TYR619  PRO620  LYS621  CYS622 
 ASP623  PHE694  ASN695  SER759  ASP760  ASP761  ALA762  ILE779  LEU786  VAL792 
 PHE793  MET794  SER795  GLU796  ALA797  LYS798  CYS799  TRP800  GLU811  SER814 

> <Gold.Protein.RotatedAtoms>
  152.3528  134.6981  160.0230 H   0  0  0  0  0  0  0  0  0  0  0  0  # atno 6907 bound_to 6896
  151.7329  133.3313  159.3353 H   0  0  0  0  0  0  0  0  0  0  0  0  # atno 6908 bound_to 6896
  150.7552  134.6280  159.6216 H   0  0  0  0  0  0  0  0  0  0  0  0  # atno 6909 bound_to 6896
  145.0986  140.8537  143.3939 H   0  0  0  0  0  0  0  0  0  0  0  0  # atno 7974 bound_to 7965
  154.4004  140.1500  156.3183 H   0  0  0  0  0  0  0  0  0  0  0  0  # atno 8008 bound_to 7997
  155.8553  140.3456  155.5698 H   0  0  0  0  0  0  0  0  0  0  0  0  # atno 8009 bound_to 7997
  155.7940  140.0860  157.1984 H   0  0  0  0  0  0  0  0  0  0  0  0  # atno 8010 bound_to 7997
  139.7857  144.6871  150.9961 H   0  0  0  0  0  0  0  0  0  0  0  0  # atno 10167 bound_to 10162
  156.0029  130.5074  150.5948 H   0  0  0  0  0  0  0  0  0  0  0  0  # atno 10718 bound_to 10713
  154.5862  135.2841  155.0682 H   0  0  0  0  0  0  0  0  0  0  0  0  # atno 10763 bound_to 10752
  154.2000  135.6426  153.5088 H   0  0  0  0  0  0  0  0  0  0  0  0  # atno 10764 bound_to 10752
  153.0105  135.5466  154.6532 H   0  0  0  0  0  0  0  0  0  0  0  0  # atno 10765 bound_to 10752
  141.1536  133.6745  156.6473 H   0  0  0  0  0  0  0  0  0  0  0  0  # atno 11005 bound_to 11000
  145.0981  139.2842  143.5700 LP  0  0  0  0  0  0  0  0  0  0  0  0  # atno 17320 bound_to 7965
  146.3530  140.0540  142.8634 LP  0  0  0  0  0  0  0  0  0  0  0  0  # atno 17321 bound_to 7965
  140.7819  143.4435  151.0517 LP  0  0  0  0  0  0  0  0  0  0  0  0  # atno 17342 bound_to 10162
  139.8113  143.7946  152.3171 LP  0  0  0  0  0  0  0  0  0  0  0  0  # atno 17343 bound_to 10162
  157.3807  131.0780  151.1479 LP  0  0  0  0  0  0  0  0  0  0  0  0  # atno 17370 bound_to 10713
  157.2202  130.6478  149.5808 LP  0  0  0  0  0  0  0  0  0  0  0  0  # atno 17371 bound_to 10713
  140.3347  134.7899  157.4353 LP  0  0  0  0  0  0  0  0  0  0  0  0  # atno 17394 bound_to 11000
  140.0987  134.5502  155.8373 LP  0  0  0  0  0  0  0  0  0  0  0  0  # atno 17395 bound_to 11000

$$$$
