AV-unprocessed.smi:3352|AV-procd|sdf|12951|dock3
  -GOLD-   2272019383D 1   1.00000     0.00000
 Structure written by MMmdl.
 38 39  0  0  0  0  0  0  0  0  1 V2000
  152.4979  143.1500  161.9231 C   0  0  0  0  0  0  0  0  0  0  0  0
  152.6235  142.1364  160.7769 C   0  0  0  0  0  0  0  0  0  0  0  0
  154.0223  141.5078  160.6992 C   0  0  0  0  0  0  0  0  0  0  0  0
  152.1994  142.7278  159.4686 C   0  0  0  0  0  0  0  0  0  0  0  0
  151.8565  141.9904  158.4091 N   0  0  0  0  0  0  0  0  0  0  0  0
  151.4510  142.7642  157.3160 C   0  0  0  0  0  0  0  0  0  0  0  0
  150.9840  142.0961  156.0544 C   0  0  0  0  0  0  0  0  0  0  0  0
  149.7261  141.2783  156.3500 C   0  0  0  0  0  0  0  0  0  0  0  0
  149.8001  140.0581  156.4933 O   0  0  0  0  0  0  0  0  0  0  0  0
  148.5731  141.9626  156.4010 N   0  0  0  0  0  0  0  0  0  0  0  0
  147.2446  141.3681  156.4695 C   0  0  0  0  0  0  0  0  0  0  0  0
  146.3556  141.8495  155.3085 C   0  0  2  0  0  0  0  0  0  0  0  0
  147.1157  142.2722  154.0496 C   0  0  0  0  0  0  0  0  0  0  0  0
  146.1809  143.2700  153.3839 C   0  0  0  0  0  0  0  0  0  0  0  0
  145.1411  143.5895  154.4626 C   0  0  0  0  0  0  0  0  0  0  0  0
  145.6645  143.0357  155.6621 O   0  0  0  0  0  0  0  0  0  0  0  0
  151.5121  144.1141  157.5589 C   0  0  0  0  0  0  0  0  0  0  0  0
  152.0540  144.4597  159.1777 S   0  0  0  0  0  0  0  0  0  0  0  0
  151.4775  143.5260  162.0034 H   0  0  0  0  0  0  0  0  0  0  0  0
  153.1574  144.0049  161.7720 H   0  0  0  0  0  0  0  0  0  0  0  0
  152.7571  142.6953  162.8795 H   0  0  0  0  0  0  0  0  0  0  0  0
  151.9282  141.3250  160.9984 H   0  0  0  0  0  0  0  0  0  0  0  0
  154.0672  140.7461  159.9201 H   0  0  0  0  0  0  0  0  0  0  0  0
  154.2898  141.0306  161.6422 H   0  0  0  0  0  0  0  0  0  0  0  0
  154.7850  142.2555  160.4796 H   0  0  0  0  0  0  0  0  0  0  0  0
  150.7645  142.8362  155.2838 H   0  0  0  0  0  0  0  0  0  0  0  0
  151.7563  141.4421  155.6470 H   0  0  0  0  0  0  0  0  0  0  0  0
  148.6154  142.9643  156.2790 H   0  0  0  0  0  0  0  0  0  0  0  0
  147.3132  140.2792  156.4741 H   0  0  0  0  0  0  0  0  0  0  0  0
  146.7983  141.6557  157.4218 H   0  0  0  0  0  0  0  0  0  0  0  0
  145.6209  141.0833  155.0537 H   0  0  0  0  0  0  0  0  0  0  0  0
  148.0481  142.7697  154.3196 H   0  0  0  0  0  0  0  0  0  0  0  0
  147.3612  141.4268  153.4055 H   0  0  0  0  0  0  0  0  0  0  0  0
  146.7259  144.1622  153.0738 H   0  0  0  0  0  0  0  0  0  0  0  0
  145.7028  142.8451  152.5007 H   0  0  0  0  0  0  0  0  0  0  0  0
  144.9622  144.6597  154.5684 H   0  0  0  0  0  0  0  0  0  0  0  0
  144.1900  143.1072  154.2321 H   0  0  0  0  0  0  0  0  0  0  0  0
  151.2547  144.9226  156.8908 H   0  0  0  0  0  0  0  0  0  0  0  0
  1  2  1  0  0  0  0
  1 19  1  0  0  0  0
  1 20  1  0  0  0  0
  1 21  1  0  0  0  0
  2  3  1  0  0  0  0
  2  4  1  0  0  0  0
  2 22  1  0  0  0  0
  3 23  1  0  0  0  0
  3 24  1  0  0  0  0
  3 25  1  0  0  0  0
  4 18  1  0  0  0  0
  4  5  2  0  0  0  0
  5  6  1  0  0  0  0
  6  7  1  0  0  0  0
  6 17  2  0  0  0  0
  7  8  1  0  0  0  0
  7 26  1  0  0  0  0
  7 27  1  0  0  0  0
  8  9  2  0  0  0  0
  8 10  1  0  0  0  0
 10 11  1  0  0  0  0
 10 28  1  0  0  0  0
 11 12  1  0  0  0  0
 11 29  1  0  0  0  0
 11 30  1  0  0  0  0
 12 16  1  0  0  0  0
 12 13  1  0  0  0  0
 12 31  1  0  0  0  0
 13 14  1  0  0  0  0
 13 32  1  0  0  0  0
 13 33  1  0  0  0  0
 14 15  1  0  0  0  0
 14 34  1  0  0  0  0
 14 35  1  0  0  0  0
 15 16  1  0  0  0  0
 15 36  1  0  0  0  0
 15 37  1  0  0  0  0
 17 18  1  0  0  0  0
 17 38  1  0  0  0  0
M  END
> <s_m_source_file>
AV-unprocessed.smi

> <i_m_source_file_index>
3352

> <i_lp_mmshare_version>
43012

> <i_f3d_flags>
0

> <s_epik_input>
W0NIM11bQ0hdKFtDSDNdKWMxbmMoW2NIXXMxKVtDSDJdQyg9TylbTkhdW0NIMl1bQ0BASF0yW0NIMl1bQ0gyXVtDSDJdTzI=

> <s_epik_cmdline>
J2VwaWtfcHl0aG9uJywgJy1waCcsICc3LjAnLCAnLXRuJywgJzgnLCAnLW1hJywgJzIwMCcsICctbWV0YWxfYmluZGluZycsICctaW1hZScsICc8aW5maWxlLm1hZT4nLCAnLW9tYWUnLCAnPG91dGZpbGUubWFlPic=

> <r_lp_tautomer_probability>
1

> <r_epik_Ionization_Penalty>
4.66014e-05

> <r_epik_Ionization_Penalty_Charging>
0

> <r_epik_Ionization_Penalty_Neutral>
4.66014e-05

> <r_epik_State_Penalty>
-0

> <r_epik_Charging_Adjusted_Penalty>
0

> <i_epik_Tot_Q>
0

> <i_epik_Tot_abs_Q>
0

> <r_epik_Metal_State_Penalty>
-0

> <b_epik_Metal_Only>
0

> <s_lp_Force_Field>
OPLS_2005

> <r_lp_Energy>
7.75536

> <b_lp_Chiralities_Consistent>
1

> <s_lp_Variant>
AV-unprocessed.smi:3352-1

> <Gold.Version>
5.8.1

> <Gold.Id.Protein>
6NUR|6NUR_protein|mol2

> <Gold.PLP.Fitness>
47.3319

> <Gold.PLP.PLP>
-44.1852

> <Gold.PLP.part.hbond>
-1.0000

> <Gold.PLP.part.metal>
0.0000

> <Gold.PLP.part.buried>
-5.3786

> <Gold.PLP.part.nonpolar>
-38.1051

> <Gold.PLP.part.repulsive>
0.1791

> <Gold.PLP.ligand.clash>
0.0000

> <Gold.PLP.ligand.torsion>
1.0667

> <Gold.PLP.Chemscore.Hbond>
1.0000

> <Gold.PLP.Chemscore.CHOScore>
0.7231

> <Gold.PLP.Chemscore.Metal>
0.0000

> <Gold.Chemscore.Hbonds>
donor molecule, donor type, donor heavy atom, donor atom, acceptor molecule, acceptor atom, score
      L1  H    10    28       P1  8028  1.00
      L1  C    17    38       P1  8028  0.56

> <Gold.PLP.Chemscore.Internal.Correction>
0.1108

> <Gold.Rescore>
     Score         DG    S(hbond)    S(metal)    S(lipo)     H(rot)  DE(clash)    DE(int)     intcor
     16.55     -18.00       0.85        0.00     116.59       1.55       0.05       1.40       ----

> <Gold.Chemscore.Fitness>
16.5475

> <Gold.Chemscore.DG>
-17.9971

> <Gold.Chemscore.ZeroCoef>
-5.4800

> <Gold.Chemscore.Hbond>
0.8529

> <Gold.Chemscore.Metal>
0.0000

> <Gold.Chemscore.Lipo>
116.5911

> <Gold.Chemscore.Internal_Hbond>
0.0000

> <Gold.Chemscore.DEClash>
0.0451

> <Gold.Chemscore.DEInternal>
1.4045

> <Gold.Chemscore.Rot>
1.5518

> <Gold.Chemscore.Internal.Correction>
   9.000000E+99

> <Gold.Chemscore.Hbonds>
donor molecule, donor type, donor heavy atom, donor atom, acceptor molecule, acceptor atom, score
      L1  H    10    28       P1  8028  0.96

> <Gold.Chemscore.Hbond.Weighted>
-2.8486

> <Gold.Chemscore.Metal.Weighted>
-0.0000

> <Gold.Chemscore.Lipo.Weighted>
-13.6412

> <Gold.Chemscore.Internal_Hbond.Weighted>
0.0000

> <Gold.Chemscore.DEClash.Weighted>
0.0451

> <Gold.Chemscore.DEInternal.Weighted>
1.4045

> <Gold.Chemscore.Rot.Weighted>
3.9727

> <Gold.Chemscore.Internal.Correction.Weighted>
   9.000000E+99

> <Gold.Protein.RotatedTorsions>
[ 6907 6896 6895 6894 ] final   17.25 input  -60.11 | X-H torsion
[ 7974 7965 7964 7962 ] final -179.98 input  175.53 | X-H torsion
[ 8008 7997 7996 7995 ] final  -32.43 input   59.86 | X-H torsion
[ 10167 10162 10161 10158 ] final -118.98 input  -65.29 | X-H torsion
[ 10718 10713 10712 10709 ] final  -14.12 input   66.30 | X-H torsion
[ 10763 10752 10751 10750 ] final -141.17 input  -60.55 | X-H torsion
[ 11005 11000 10999 10996 ] final  117.62 input  -57.11 | X-H torsion

> <Gold.Protein.ActiveResidues>
 VAL166  LYS551  ARG553  GLY616  TRP617  ASP618  TYR619  PRO620  LYS621  CYS622 
 ASP623  PHE694  ASN695  SER759  ASP760  ASP761  ALA762  ILE779  LEU786  VAL792 
 PHE793  MET794  SER795  GLU796  ALA797  LYS798  CYS799  TRP800  GLU811  SER814 

> <Gold.Protein.RotatedAtoms>
  151.8466  135.0572  160.0453 H   0  0  0  0  0  0  0  0  0  0  0  0  # atno 6907 bound_to 6896
  152.2768  133.5429  159.5481 H   0  0  0  0  0  0  0  0  0  0  0  0  # atno 6908 bound_to 6896
  150.7173  134.0536  159.3849 H   0  0  0  0  0  0  0  0  0  0  0  0  # atno 6909 bound_to 6896
  144.7140  140.0636  143.6432 H   0  0  0  0  0  0  0  0  0  0  0  0  # atno 7974 bound_to 7965
  154.4180  140.1737  156.1727 H   0  0  0  0  0  0  0  0  0  0  0  0  # atno 8008 bound_to 7997
  155.9747  140.3382  155.6584 H   0  0  0  0  0  0  0  0  0  0  0  0  # atno 8009 bound_to 7997
  155.6579  140.0697  157.2555 H   0  0  0  0  0  0  0  0  0  0  0  0  # atno 8010 bound_to 7997
  140.0516  143.5055  152.2079 H   0  0  0  0  0  0  0  0  0  0  0  0  # atno 10167 bound_to 10162
  156.6206  130.4874  149.6166 H   0  0  0  0  0  0  0  0  0  0  0  0  # atno 10718 bound_to 10713
  154.8554  135.3532  154.5825 H   0  0  0  0  0  0  0  0  0  0  0  0  # atno 10763 bound_to 10752
  153.6436  135.6997  153.5237 H   0  0  0  0  0  0  0  0  0  0  0  0  # atno 10764 bound_to 10752
  153.2951  135.4223  155.1160 H   0  0  0  0  0  0  0  0  0  0  0  0  # atno 10765 bound_to 10752
  139.9081  134.9612  156.7378 H   0  0  0  0  0  0  0  0  0  0  0  0  # atno 11005 bound_to 11000
  145.9843  139.2965  143.1023 LP  0  0  0  0  0  0  0  0  0  0  0  0  # atno 17320 bound_to 7965
  145.8975  140.9264  143.0520 LP  0  0  0  0  0  0  0  0  0  0  0  0  # atno 17321 bound_to 7965
  139.5950  144.7563  151.3309 LP  0  0  0  0  0  0  0  0  0  0  0  0  # atno 17342 bound_to 10162
  140.7214  143.7125  150.7758 LP  0  0  0  0  0  0  0  0  0  0  0  0  # atno 17343 bound_to 10162
  156.2315  130.6797  151.1468 LP  0  0  0  0  0  0  0  0  0  0  0  0  # atno 17370 bound_to 10713
  157.7229  131.0670  150.6060 LP  0  0  0  0  0  0  0  0  0  0  0  0  # atno 17371 bound_to 10713
  140.6873  133.9421  155.7945 LP  0  0  0  0  0  0  0  0  0  0  0  0  # atno 17394 bound_to 11000
  141.0467  134.0544  157.3835 LP  0  0  0  0  0  0  0  0  0  0  0  0  # atno 17395 bound_to 11000

$$$$
