AV-unprocessed.smi:35|AV-procd|sdf|256|dock6
  -GOLD-   2262016 23D 1   1.00000     0.00000
 Structure written by MMmdl.
 29 30  0  0  0  0  0  0  0  0  1 V2000
  153.3619  142.2166  159.8434 O   0  0  0  0  0  0  0  0  0  0  0  0
  152.5341  141.8537  159.0106 C   0  0  0  0  0  0  0  0  0  0  0  0
  152.1813  140.5062  158.9060 N   0  0  0  0  0  0  0  0  0  0  0  0
  151.2646  139.9750  157.9967 C   0  0  0  0  0  0  0  0  0  0  0  0
  150.9990  138.7746  158.0316 O   0  0  0  0  0  0  0  0  0  0  0  0
  150.6727  140.8669  157.0707 N   0  0  0  0  0  0  0  0  0  0  0  0
  149.6393  140.3324  156.0902 C   0  0  1  0  0  0  0  0  0  0  0  0
  148.4498  140.0511  156.7751 O   0  0  0  0  0  0  0  0  0  0  0  0
  147.4505  141.0387  156.5269 C   0  0  1  0  0  0  0  0  0  0  0  0
  147.5636  142.2080  157.5334 C   0  0  0  0  0  0  0  0  0  0  0  0
  146.9868  141.8381  158.7675 O   0  0  0  0  0  0  0  0  0  0  0  0
  147.7490  141.4031  155.0688 C   0  0  1  0  0  0  0  0  0  0  0  0
  147.2394  142.6682  154.6942 O   0  0  0  0  0  0  0  0  0  0  0  0
  149.2697  141.3604  154.9920 C   0  0  2  0  0  0  0  0  0  0  0  0
  149.6618  140.9270  153.7042 O   0  0  0  0  0  0  0  0  0  0  0  0
  150.9478  142.2267  157.1847 C   0  0  0  0  0  0  0  0  0  0  0  0
  151.8318  142.7275  158.0790 C   0  0  0  0  0  0  0  0  0  0  0  0
  152.0918  144.6914  158.0610 Br  0  0  0  0  0  0  0  0  0  0  0  0
  152.6167  139.8643  159.5525 H   0  0  0  0  0  0  0  0  0  0  0  0
  150.0729  139.4040  155.7135 H   0  0  0  0  0  0  0  0  0  0  0  0
  146.4579  140.5926  156.6024 H   0  0  0  0  0  0  0  0  0  0  0  0
  148.5894  142.5447  157.6746 H   0  0  0  0  0  0  0  0  0  0  0  0
  146.9995  143.0710  157.1807 H   0  0  0  0  0  0  0  0  0  0  0  0
  146.0583  141.7155  158.6407 H   0  0  0  0  0  0  0  0  0  0  0  0
  147.3153  140.6364  154.4240 H   0  0  0  0  0  0  0  0  0  0  0  0
  147.8013  143.3348  155.0592 H   0  0  0  0  0  0  0  0  0  0  0  0
  149.6943  142.3380  155.2265 H   0  0  0  0  0  0  0  0  0  0  0  0
  148.9431  140.4467  153.3207 H   0  0  0  0  0  0  0  0  0  0  0  0
  150.4477  142.9382  156.5457 H   0  0  0  0  0  0  0  0  0  0  0  0
  1  2  2  0  0  0  0
  2 17  1  0  0  0  0
  2  3  1  0  0  0  0
  3 19  1  0  0  0  0
  3  4  1  0  0  0  0
  4  5  2  0  0  0  0
  4  6  1  0  0  0  0
  6  7  1  0  0  0  0
  6 16  1  0  0  0  0
  7 14  1  0  0  0  0
  7  8  1  0  0  0  0
  7 20  1  0  0  0  0
  8  9  1  0  0  0  0
  9 10  1  0  0  0  0
  9 12  1  0  0  0  0
  9 21  1  0  0  0  0
 10 11  1  0  0  0  0
 10 22  1  0  0  0  0
 10 23  1  0  0  0  0
 11 24  1  0  0  0  0
 12 13  1  0  0  0  0
 12 14  1  0  0  0  0
 12 25  1  0  0  0  0
 13 26  1  0  0  0  0
 14 15  1  0  0  0  0
 14 27  1  0  0  0  0
 15 28  1  0  0  0  0
 16 17  2  0  0  0  0
 16 29  1  0  0  0  0
 17 18  1  0  0  0  0
M  END
> <s_m_source_file>
AV-unprocessed.smi

> <i_m_source_file_index>
35

> <i_lp_mmshare_version>
43012

> <i_f3d_flags>
0

> <s_epik_input>
Tz1jMVtuSF1jKD1PKW4oW2NIXWMxQnIpW0NAQEhdMk9bQ0BASF0oW0NIMl1bT0hdKVtDQEBIXShbT0hdKVtDQEhdMltPSF0=

> <s_epik_cmdline>
J2VwaWtfcHl0aG9uJywgJy1waCcsICc3LjAnLCAnLXRuJywgJzgnLCAnLW1hJywgJzIwMCcsICctbWV0YWxfYmluZGluZycsICctaW1hZScsICc8aW5maWxlLm1hZT4nLCAnLW9tYWUnLCAnPG91dGZpbGUubWFlPic=

> <r_lp_tautomer_probability>
0.999537

> <r_epik_Ionization_Penalty>
0.10812

> <r_epik_Ionization_Penalty_Charging>
0.108119

> <r_epik_Ionization_Penalty_Neutral>
4.93006e-07

> <r_epik_State_Penalty>
0.0979238

> <r_epik_Charging_Adjusted_Penalty>
0.206043

> <i_epik_Tot_Q>
0

> <i_epik_Tot_abs_Q>
0

> <r_epik_Metal_State_Penalty>
3.07911

> <b_epik_Metal_Only>
0

> <s_epik_Chemistry_Notes>
This compound contains an acetal/aminal-like group ( X-CH(R)-Y where X, Y are N, S, or O) that may be acid/base labile, releasing an aldehyde.

> <s_lp_Force_Field>
OPLS_2005

> <r_lp_Energy>
30.5173

> <b_lp_Chiralities_Consistent>
1

> <s_lp_Variant>
AV-unprocessed.smi:35-10

> <Gold.Version>
5.8.1

> <Gold.Id.Protein>
6NUR|6NUR_protein|mol2

> <Gold.PLP.Fitness>
39.8970

> <Gold.PLP.PLP>
-30.0038

> <Gold.PLP.part.hbond>
-5.0000

> <Gold.PLP.part.metal>
0.0000

> <Gold.PLP.part.buried>
-6.1971

> <Gold.PLP.part.nonpolar>
-19.3671

> <Gold.PLP.part.repulsive>
0.1338

> <Gold.PLP.ligand.clash>
0.0000

> <Gold.PLP.ligand.torsion>
0.4900

> <Gold.PLP.Chemscore.Hbond>
2.6027

> <Gold.PLP.Chemscore.CHOScore>
1.0000

> <Gold.PLP.Chemscore.Metal>
0.0000

> <Gold.Chemscore.Hbonds>
donor molecule, donor type, donor heavy atom, donor atom, acceptor molecule, acceptor atom, score
      L1  H    13    26       P1  8028  1.00
      L1  H    15    28       P1  7957  0.03
      P1  H  6934  6946       L1    11  0.23
      P1  H  7989  7998       L1    15  0.37
      P1  H  8011  8017       L1    15  0.95
      L1  C    16    29       P1  8028  1.00

> <Gold.PLP.Chemscore.Internal.Correction>
0.0653

> <Gold.Rescore>
     Score         DG    S(hbond)    S(metal)    S(lipo)     H(rot)  DE(clash)    DE(int)     intcor
      6.38      -7.17       1.65        0.00      47.58       3.67       0.03       0.75       ----

> <Gold.Chemscore.Fitness>
6.3841

> <Gold.Chemscore.DG>
-7.1684

> <Gold.Chemscore.ZeroCoef>
-5.4800

> <Gold.Chemscore.Hbond>
1.6519

> <Gold.Chemscore.Metal>
0.0000

> <Gold.Chemscore.Lipo>
47.5764

> <Gold.Chemscore.Internal_Hbond>
0.0000

> <Gold.Chemscore.DEClash>
0.0330

> <Gold.Chemscore.DEInternal>
0.7513

> <Gold.Chemscore.Rot>
3.6701

> <Gold.Chemscore.Internal.Correction>
   9.000000E+99

> <Gold.Chemscore.Hbonds>
donor molecule, donor type, donor heavy atom, donor atom, acceptor molecule, acceptor atom, score
      L1  H    13    26       P1  8028  0.55
      L1  H    15    28       P1  7957  0.04
      P1  H  6934  6946       L1    11  0.02
      P1  H  7989  7998       L1    15  0.32
      P1  H  8011  8017       L1    15  0.17

> <Gold.Chemscore.Hbond.Weighted>
-5.5174

> <Gold.Chemscore.Metal.Weighted>
-0.0000

> <Gold.Chemscore.Lipo.Weighted>
-5.5664

> <Gold.Chemscore.Internal_Hbond.Weighted>
0.0000

> <Gold.Chemscore.DEClash.Weighted>
0.0330

> <Gold.Chemscore.DEInternal.Weighted>
0.7513

> <Gold.Chemscore.Rot.Weighted>
9.3955

> <Gold.Chemscore.Internal.Correction.Weighted>
   9.000000E+99

> <Gold.Protein.RotatedTorsions>
[ 6907 6896 6895 6894 ] final  -73.20 input  -60.11 | X-H torsion
[ 7974 7965 7964 7962 ] final  -15.15 input  175.53 | X-H torsion
[ 8008 7997 7996 7995 ] final  -31.49 input   59.86 | X-H torsion
[ 10167 10162 10161 10158 ] final -155.64 input  -65.29 | X-H torsion
[ 10718 10713 10712 10709 ] final  165.98 input   66.30 | X-H torsion
[ 10763 10752 10751 10750 ] final  112.97 input  -60.55 | X-H torsion
[ 11005 11000 10999 10996 ] final  -73.76 input  -57.11 | X-H torsion

> <Gold.Protein.ActiveResidues>
 VAL166  LYS551  ARG553  GLY616  TRP617  ASP618  TYR619  PRO620  LYS621  CYS622 
 ASP623  PHE694  ASN695  SER759  ASP760  ASP761  ALA762  ILE779  LEU786  VAL792 
 PHE793  MET794  SER795  GLU796  ALA797  LYS798  CYS799  TRP800  GLU811  SER814 

> <Gold.Protein.RotatedAtoms>
  150.7139  134.5052  159.5580 H   0  0  0  0  0  0  0  0  0  0  0  0  # atno 6907 bound_to 6896
  152.2640  134.8000  160.0435 H   0  0  0  0  0  0  0  0  0  0  0  0  # atno 6908 bound_to 6896
  151.8704  133.3439  159.3770 H   0  0  0  0  0  0  0  0  0  0  0  0  # atno 6909 bound_to 6896
  146.2044  140.3451  142.8412 H   0  0  0  0  0  0  0  0  0  0  0  0  # atno 7974 bound_to 7965
  154.4212  140.1763  156.1575 H   0  0  0  0  0  0  0  0  0  0  0  0  # atno 8008 bound_to 7997
  155.9865  140.3373  155.6688 H   0  0  0  0  0  0  0  0  0  0  0  0  # atno 8009 bound_to 7997
  155.6430  140.0682  157.2603 H   0  0  0  0  0  0  0  0  0  0  0  0  # atno 8010 bound_to 7997
  139.6915  143.9413  152.2387 H   0  0  0  0  0  0  0  0  0  0  0  0  # atno 10167 bound_to 10162
  157.0724  131.0370  151.2606 H   0  0  0  0  0  0  0  0  0  0  0  0  # atno 10718 bound_to 10713
  153.4856  135.3670  155.2465 H   0  0  0  0  0  0  0  0  0  0  0  0  # atno 10763 bound_to 10752
  154.8754  135.3964  154.3649 H   0  0  0  0  0  0  0  0  0  0  0  0  # atno 10764 bound_to 10752
  153.4260  135.7081  153.6328 H   0  0  0  0  0  0  0  0  0  0  0  0  # atno 10765 bound_to 10752
  141.1627  133.6889  156.7261 H   0  0  0  0  0  0  0  0  0  0  0  0  # atno 11005 bound_to 11000
  144.8758  140.7334  143.6018 LP  0  0  0  0  0  0  0  0  0  0  0  0  # atno 17320 bound_to 7965
  145.3371  139.1743  143.4506 LP  0  0  0  0  0  0  0  0  0  0  0  0  # atno 17321 bound_to 7965
  139.9231  144.6788  150.8441 LP  0  0  0  0  0  0  0  0  0  0  0  0  # atno 17342 bound_to 10162
  140.7684  143.3361  151.2306 LP  0  0  0  0  0  0  0  0  0  0  0  0  # atno 17343 bound_to 10162
  157.4867  130.7797  149.7467 LP  0  0  0  0  0  0  0  0  0  0  0  0  # atno 17370 bound_to 10713
  155.9946  130.3916  150.2850 LP  0  0  0  0  0  0  0  0  0  0  0  0  # atno 17371 bound_to 10713
  140.2779  134.8340  157.3907 LP  0  0  0  0  0  0  0  0  0  0  0  0  # atno 17394 bound_to 11000
  140.1460  134.4911  155.7996 LP  0  0  0  0  0  0  0  0  0  0  0  0  # atno 17395 bound_to 11000

$$$$
