AV-unprocessed.smi:730|AV-procd|sdf|3524|dock6
  -GOLD-   22720 0513D 1   1.00000     0.00000
 Structure written by MMmdl.
 40 41  0  0  0  0  0  0  0  0  1 V2000
  151.1562  124.6175  150.7306 C   0  0  0  0  0  0  0  0  0  0  0  0
  149.7004  124.4244  151.2003 C   0  0  0  0  0  0  0  0  0  0  0  0
  148.8794  123.8690  150.0213 C   0  0  0  0  0  0  0  0  0  0  0  0
  149.6931  123.3995  152.3500 C   0  0  0  0  0  0  0  0  0  0  0  0
  149.1121  125.7262  151.6687 C   0  0  0  0  0  0  0  0  0  0  0  0
  148.9202  126.9426  151.0712 C   0  0  0  0  0  0  0  0  0  0  0  0
  148.3130  127.7167  152.0950 C   0  0  0  0  0  0  0  0  0  0  0  0
  147.9493  129.0683  151.8663 N   0  0  0  0  0  0  0  0  0  0  0  0
  146.7773  129.6606  152.1518 C   0  0  0  0  0  0  0  0  0  0  0  0
  145.8072  129.1049  152.6678 O   0  0  0  0  0  0  0  0  0  0  0  0
  146.7871  130.9538  151.7996 N   0  0  0  0  0  0  0  0  0  0  0  0
  145.6690  131.8814  151.9737 C   0  0  2  0  0  0  0  0  0  0  0  0
  144.4597  131.4822  151.1000 C   0  0  0  0  0  0  0  0  0  0  0  0
  144.0626  132.7346  150.3133 C   0  0  0  0  0  0  0  0  0  0  0  0
  145.3533  133.5399  150.2013 C   0  0  0  0  0  0  0  0  0  0  0  0
  146.0315  133.3256  151.5552 C   0  0  2  0  0  0  0  0  0  0  0  0
  147.4191  133.5966  151.4820 O   0  0  0  0  0  0  0  0  0  0  0  0
  148.1471  127.0398  153.2199 N   0  0  0  0  0  0  0  0  0  0  0  0
  148.6567  125.7643  152.9530 O   0  0  0  0  0  0  0  0  0  0  0  0
  151.5927  123.6781  150.3900 H   0  0  0  0  0  0  0  0  0  0  0  0
  151.7875  124.9971  151.5351 H   0  0  0  0  0  0  0  0  0  0  0  0
  151.2173  125.3242  149.9022 H   0  0  0  0  0  0  0  0  0  0  0  0
  148.8661  124.5677  149.1839 H   0  0  0  0  0  0  0  0  0  0  0  0
  147.8438  123.6822  150.3081 H   0  0  0  0  0  0  0  0  0  0  0  0
  149.2911  122.9270  149.6573 H   0  0  0  0  0  0  0  0  0  0  0  0
  150.1237  122.4472  152.0387 H   0  0  0  0  0  0  0  0  0  0  0  0
  148.6799  123.1996  152.7005 H   0  0  0  0  0  0  0  0  0  0  0  0
  150.2699  123.7582  153.2033 H   0  0  0  0  0  0  0  0  0  0  0  0
  149.1742  127.2314  150.0621 H   0  0  0  0  0  0  0  0  0  0  0  0
  148.6572  129.6462  151.4386 H   0  0  0  0  0  0  0  0  0  0  0  0
  147.6256  131.3319  151.3829 H   0  0  0  0  0  0  0  0  0  0  0  0
  145.3830  131.8905  153.0273 H   0  0  0  0  0  0  0  0  0  0  0  0
  144.7340  130.6937  150.3973 H   0  0  0  0  0  0  0  0  0  0  0  0
  143.6313  131.1021  151.6987 H   0  0  0  0  0  0  0  0  0  0  0  0
  143.6282  132.4990  149.3414 H   0  0  0  0  0  0  0  0  0  0  0  0
  143.3240  133.3049  150.8783 H   0  0  0  0  0  0  0  0  0  0  0  0
  145.9691  133.1280  149.4000 H   0  0  0  0  0  0  0  0  0  0  0  0
  145.1760  134.5928  149.9804 H   0  0  0  0  0  0  0  0  0  0  0  0
  145.5906  134.0175  152.2746 H   0  0  0  0  0  0  0  0  0  0  0  0
  147.6336  133.8144  150.5878 H   0  0  0  0  0  0  0  0  0  0  0  0
  1  2  1  0  0  0  0
  1 20  1  0  0  0  0
  1 21  1  0  0  0  0
  1 22  1  0  0  0  0
  2  3  1  0  0  0  0
  2  4  1  0  0  0  0
  2  5  1  0  0  0  0
  3 23  1  0  0  0  0
  3 24  1  0  0  0  0
  3 25  1  0  0  0  0
  4 26  1  0  0  0  0
  4 27  1  0  0  0  0
  4 28  1  0  0  0  0
  5 19  1  0  0  0  0
  5  6  2  0  0  0  0
  6  7  1  0  0  0  0
  6 29  1  0  0  0  0
  7  8  1  0  0  0  0
  7 18  2  0  0  0  0
  8  9  1  0  0  0  0
  8 30  1  0  0  0  0
  9 10  2  0  0  0  0
  9 11  1  0  0  0  0
 11 12  1  0  0  0  0
 11 31  1  0  0  0  0
 12 16  1  0  0  0  0
 12 13  1  0  0  0  0
 12 32  1  0  0  0  0
 13 14  1  0  0  0  0
 13 33  1  0  0  0  0
 13 34  1  0  0  0  0
 14 15  1  0  0  0  0
 14 35  1  0  0  0  0
 14 36  1  0  0  0  0
 15 16  1  0  0  0  0
 15 37  1  0  0  0  0
 15 38  1  0  0  0  0
 16 17  1  0  0  0  0
 16 39  1  0  0  0  0
 17 40  1  0  0  0  0
 18 19  1  0  0  0  0
M  END
> <s_m_source_file>
AV-unprocessed.smi

> <i_m_source_file_index>
730

> <i_lp_mmshare_version>
43012

> <i_f3d_flags>
0

> <s_epik_input>
W0NIM11DKFtDSDNdKShbQ0gzXSljMVtjSF1jKG5vMSlbTkhdQyg9TylbTkhdW0NAQEhdMltDSDJdW0NIMl1bQ0gyXVtDQEhdMltPSF0=

> <s_epik_cmdline>
J2VwaWtfcHl0aG9uJywgJy1waCcsICc3LjAnLCAnLXRuJywgJzgnLCAnLW1hJywgJzIwMCcsICctbWV0YWxfYmluZGluZycsICctaW1hZScsICc8aW5maWxlLm1hZT4nLCAnLW9tYWUnLCAnPG91dGZpbGUubWFlPic=

> <r_lp_tautomer_probability>
1

> <r_epik_Ionization_Penalty>
2.23071e-05

> <r_epik_Ionization_Penalty_Charging>
0

> <r_epik_Ionization_Penalty_Neutral>
2.23071e-05

> <r_epik_State_Penalty>
-0

> <r_epik_Charging_Adjusted_Penalty>
0

> <i_epik_Tot_Q>
0

> <i_epik_Tot_abs_Q>
0

> <r_epik_Metal_State_Penalty>
-0

> <b_epik_Metal_Only>
0

> <s_lp_Force_Field>
OPLS_2005

> <r_lp_Energy>
21.1431

> <b_lp_Chiralities_Consistent>
1

> <s_lp_Variant>
AV-unprocessed.smi:730-3

> <Gold.Version>
5.8.1

> <Gold.Id.Protein>
6NUR|6NUR_protein|mol2

> <Gold.PLP.Fitness>
42.8324

> <Gold.PLP.PLP>
-38.3920

> <Gold.PLP.part.hbond>
-3.3767

> <Gold.PLP.part.metal>
0.0000

> <Gold.PLP.part.buried>
-6.6841

> <Gold.PLP.part.nonpolar>
-27.5938

> <Gold.PLP.part.repulsive>
0.2711

> <Gold.PLP.ligand.clash>
0.0000

> <Gold.PLP.ligand.torsion>
0.4478

> <Gold.PLP.Chemscore.Hbond>
1.7780

> <Gold.PLP.Chemscore.CHOScore>
0.0000

> <Gold.PLP.Chemscore.Metal>
0.0000

> <Gold.Chemscore.Hbonds>
donor molecule, donor type, donor heavy atom, donor atom, acceptor molecule, acceptor atom, score
      L1  H     8    30       P1 10747  0.71
      L1  H    11    31       P1 10747  0.82

> <Gold.PLP.Chemscore.Internal.Correction>
0.0019

> <Gold.Rescore>
     Score         DG    S(hbond)    S(metal)    S(lipo)     H(rot)  DE(clash)    DE(int)     intcor
     13.78     -14.21       1.39        0.00      72.25       1.71       0.07       0.36       ----

> <Gold.Chemscore.Fitness>
13.7764

> <Gold.Chemscore.DG>
-14.2053

> <Gold.Chemscore.ZeroCoef>
-5.4800

> <Gold.Chemscore.Hbond>
1.3939

> <Gold.Chemscore.Metal>
0.0000

> <Gold.Chemscore.Lipo>
72.2529

> <Gold.Chemscore.Internal_Hbond>
0.0000

> <Gold.Chemscore.DEClash>
0.0672

> <Gold.Chemscore.DEInternal>
0.3617

> <Gold.Chemscore.Rot>
1.7125

> <Gold.Chemscore.Internal.Correction>
   9.000000E+99

> <Gold.Chemscore.Hbonds>
donor molecule, donor type, donor heavy atom, donor atom, acceptor molecule, acceptor atom, score
      L1  H     8    30       P1 10747  0.09
      L1  H    11    31       P1 10747  0.81

> <Gold.Chemscore.Hbond.Weighted>
-4.6557

> <Gold.Chemscore.Metal.Weighted>
-0.0000

> <Gold.Chemscore.Lipo.Weighted>
-8.4536

> <Gold.Chemscore.Internal_Hbond.Weighted>
0.0000

> <Gold.Chemscore.DEClash.Weighted>
0.0672

> <Gold.Chemscore.DEInternal.Weighted>
0.3617

> <Gold.Chemscore.Rot.Weighted>
4.3841

> <Gold.Chemscore.Internal.Correction.Weighted>
   9.000000E+99

> <Gold.Protein.RotatedTorsions>
[ 6907 6896 6895 6894 ] final   -8.79 input  -60.11 | X-H torsion
[ 7974 7965 7964 7962 ] final  121.97 input  175.53 | X-H torsion
[ 8008 7997 7996 7995 ] final  -38.12 input   59.86 | X-H torsion
[ 10167 10162 10161 10158 ] final -139.43 input  -65.29 | X-H torsion
[ 10718 10713 10712 10709 ] final  155.19 input   66.30 | X-H torsion
[ 10763 10752 10751 10750 ] final  -85.44 input  -60.55 | X-H torsion
[ 11005 11000 10999 10996 ] final   99.25 input  -57.11 | X-H torsion

> <Gold.Protein.ActiveResidues>
 VAL166  LYS551  ARG553  GLY616  TRP617  ASP618  TYR619  PRO620  LYS621  CYS622 
 ASP623  PHE694  ASN695  SER759  ASP760  ASP761  ALA762  ILE779  LEU786  VAL792 
 PHE793  MET794  SER795  GLU796  ALA797  LYS798  CYS799  TRP800  GLU811  SER814 

> <Gold.Protein.RotatedAtoms>
  151.4280  135.1006  159.9633 H   0  0  0  0  0  0  0  0  0  0  0  0  # atno 6907 bound_to 6896
  152.4966  133.8644  159.7277 H   0  0  0  0  0  0  0  0  0  0  0  0  # atno 6908 bound_to 6896
  150.9175  133.6862  159.2867 H   0  0  0  0  0  0  0  0  0  0  0  0  # atno 6909 bound_to 6896
  145.1130  139.3440  143.4753 H   0  0  0  0  0  0  0  0  0  0  0  0  # atno 7974 bound_to 7965
  154.4042  140.1586  156.2648 H   0  0  0  0  0  0  0  0  0  0  0  0  # atno 8008 bound_to 7997
  155.9004  140.3433  155.6000 H   0  0  0  0  0  0  0  0  0  0  0  0  # atno 8009 bound_to 7997
  155.7454  140.0798  157.2217 H   0  0  0  0  0  0  0  0  0  0  0  0  # atno 8010 bound_to 7997
  139.8380  143.7359  152.2664 H   0  0  0  0  0  0  0  0  0  0  0  0  # atno 10167 bound_to 10162
  157.2216  131.0720  151.1908 H   0  0  0  0  0  0  0  0  0  0  0  0  # atno 10718 bound_to 10713
  154.6110  135.5485  153.7474 H   0  0  0  0  0  0  0  0  0  0  0  0  # atno 10763 bound_to 10752
  153.0195  135.6389  154.1578 H   0  0  0  0  0  0  0  0  0  0  0  0  # atno 10764 bound_to 10752
  154.1515  135.2902  155.3114 H   0  0  0  0  0  0  0  0  0  0  0  0  # atno 10765 bound_to 10752
  139.8771  134.9087  156.4578 H   0  0  0  0  0  0  0  0  0  0  0  0  # atno 11005 bound_to 11000
  146.3525  140.1057  142.8606 LP  0  0  0  0  0  0  0  0  0  0  0  0  # atno 17320 bound_to 7965
  145.0825  140.9231  143.4817 LP  0  0  0  0  0  0  0  0  0  0  0  0  # atno 17321 bound_to 7965
  139.7587  144.7513  151.0396 LP  0  0  0  0  0  0  0  0  0  0  0  0  # atno 17342 bound_to 10162
  140.7801  143.4776  151.0062 LP  0  0  0  0  0  0  0  0  0  0  0  0  # atno 17343 bound_to 10162
  157.3570  130.7111  149.6477 LP  0  0  0  0  0  0  0  0  0  0  0  0  # atno 17370 bound_to 10713
  155.9682  130.4236  150.4571 LP  0  0  0  0  0  0  0  0  0  0  0  0  # atno 17371 bound_to 10713
  140.8886  133.7865  155.9546 LP  0  0  0  0  0  0  0  0  0  0  0  0  # atno 17394 bound_to 11000
  140.8778  134.2648  157.5159 LP  0  0  0  0  0  0  0  0  0  0  0  0  # atno 17395 bound_to 11000

$$$$
