AV-unprocessed.smi:3142|AV-procd|sdf|11971|dock6
  -GOLD-   2272017373D 1   1.00000     0.00000
 Structure written by MMmdl.
 36 38  0  0  0  0  0  0  0  0  1 V2000
  153.6073  141.4746  160.9765 C   0  0  0  0  0  0  0  0  0  0  0  0
  153.4691  142.0910  159.5710 C   0  0  1  0  0  0  0  0  0  0  0  0
  152.8726  141.1132  158.5476 C   0  0  0  0  0  0  0  0  0  0  0  0
  153.3763  140.0033  158.3712 O   0  0  0  0  0  0  0  0  0  0  0  0
  151.7870  141.5433  157.8852 N   0  0  0  0  0  0  0  0  0  0  0  0
  151.0331  140.7823  156.8951 C   0  0  0  0  0  0  0  0  0  0  0  0
  151.9100  140.2553  155.7707 C   0  0  0  0  0  0  0  0  0  0  0  0
  151.4341  139.1529  154.8538 C   0  0  0  0  0  0  0  0  0  0  0  0
  152.5472  138.8872  155.8406 C   0  0  0  0  0  0  0  0  0  0  0  0
  149.8849  141.5981  156.3302 C   0  0  0  0  0  0  0  0  0  0  0  0
  148.4717  141.3976  156.8221 C   0  0  0  0  0  0  0  0  0  0  0  0
  148.8511  140.9804  155.4186 C   0  0  0  0  0  0  0  0  0  0  0  0
  152.6883  143.3198  159.6002 N   0  0  0  0  0  0  0  0  0  0  0  0
  152.6402  144.3222  158.6362 C   0  0  0  0  0  0  0  0  0  0  0  0
  151.7896  145.2919  159.1160 C   0  0  0  0  0  0  0  0  0  0  0  0
  151.3153  144.9196  160.3710 N   0  0  0  0  0  0  0  0  0  0  0  0
  151.8938  143.7465  160.5926 C   0  0  0  0  0  0  0  0  0  0  0  0
  154.2303  140.5799  160.9539 H   0  0  0  0  0  0  0  0  0  0  0  0
  152.6412  141.1948  161.3980 H   0  0  0  0  0  0  0  0  0  0  0  0
  154.0747  142.1794  161.6649 H   0  0  0  0  0  0  0  0  0  0  0  0
  154.4740  142.3478  159.2310 H   0  0  0  0  0  0  0  0  0  0  0  0
  151.4437  142.4686  158.0978 H   0  0  0  0  0  0  0  0  0  0  0  0
  150.5889  139.9204  157.3975 H   0  0  0  0  0  0  0  0  0  0  0  0
  152.5089  141.0295  155.2943 H   0  0  0  0  0  0  0  0  0  0  0  0
  150.4683  138.6962  155.0597 H   0  0  0  0  0  0  0  0  0  0  0  0
  151.7004  139.2253  153.8014 H   0  0  0  0  0  0  0  0  0  0  0  0
  153.5566  138.7844  155.4475 H   0  0  0  0  0  0  0  0  0  0  0  0
  152.3146  138.2577  156.6971 H   0  0  0  0  0  0  0  0  0  0  0  0
  150.1585  142.6263  156.0996 H   0  0  0  0  0  0  0  0  0  0  0  0
  148.2950  140.6084  157.5501 H   0  0  0  0  0  0  0  0  0  0  0  0
  147.8501  142.2836  156.9348 H   0  0  0  0  0  0  0  0  0  0  0  0
  148.4821  141.5877  154.5947 H   0  0  0  0  0  0  0  0  0  0  0  0
  148.9177  139.9131  155.2181 H   0  0  0  0  0  0  0  0  0  0  0  0
  153.2004  144.2649  157.7145 H   0  0  0  0  0  0  0  0  0  0  0  0
  151.4908  146.2247  158.6610 H   0  0  0  0  0  0  0  0  0  0  0  0
  151.7364  143.1843  161.5015 H   0  0  0  0  0  0  0  0  0  0  0  0
  1  2  1  0  0  0  0
  1 18  1  0  0  0  0
  1 19  1  0  0  0  0
  1 20  1  0  0  0  0
  2  3  1  0  0  0  0
  2 13  1  0  0  0  0
  2 21  1  0  0  0  0
  3  4  2  0  0  0  0
  3  5  1  0  0  0  0
  5  6  1  0  0  0  0
  5 22  1  0  0  0  0
  6  7  1  0  0  0  0
  6 10  1  0  0  0  0
  6 23  1  0  0  0  0
  7  9  1  0  0  0  0
  7  8  1  0  0  0  0
  7 24  1  0  0  0  0
  8  9  1  0  0  0  0
  8 25  1  0  0  0  0
  8 26  1  0  0  0  0
  9 27  1  0  0  0  0
  9 28  1  0  0  0  0
 10 12  1  0  0  0  0
 10 11  1  0  0  0  0
 10 29  1  0  0  0  0
 11 12  1  0  0  0  0
 11 30  1  0  0  0  0
 11 31  1  0  0  0  0
 12 32  1  0  0  0  0
 12 33  1  0  0  0  0
 13 17  1  0  0  0  0
 13 14  1  0  0  0  0
 14 15  2  0  0  0  0
 14 34  1  0  0  0  0
 15 16  1  0  0  0  0
 15 35  1  0  0  0  0
 16 17  2  0  0  0  0
 17 36  1  0  0  0  0
M  END
> <s_m_source_file>
AV-unprocessed.smi

> <i_m_source_file_index>
3142

> <i_lp_mmshare_version>
43012

> <i_f3d_flags>
0

> <s_epik_input>
W2NIXTFuW2NIXVtjSF1uMVtDQEhdKFtDSDNdKUMoPU8pW05IXVtDSF0oW0NIXTJbQ0gyXVtDSDJdMilbQ0hdM1tDSDJdW0NIMl0z

> <s_epik_cmdline>
J2VwaWtfcHl0aG9uJywgJy1waCcsICc3LjAnLCAnLXRuJywgJzgnLCAnLW1hJywgJzIwMCcsICctbWV0YWxfYmluZGluZycsICctaW1hZScsICc8aW5maWxlLm1hZT4nLCAnLW9tYWUnLCAnPG91dGZpbGUubWFlPic=

> <r_lp_tautomer_probability>
1

> <r_epik_Ionization_Penalty>
0.32285

> <r_epik_Ionization_Penalty_Charging>
0.32285

> <r_epik_Ionization_Penalty_Neutral>
3.37967e-08

> <r_epik_State_Penalty>
0.317502

> <r_epik_Charging_Adjusted_Penalty>
0.640352

> <i_epik_Tot_Q>
0

> <i_epik_Tot_abs_Q>
0

> <r_epik_Metal_State_Penalty>
0.20415

> <b_epik_Metal_Only>
0

> <s_lp_Force_Field>
OPLS_2005

> <r_lp_Energy>
29.1263

> <b_lp_Chiralities_Consistent>
1

> <s_lp_Variant>
AV-unprocessed.smi:3142-2

> <Gold.Version>
5.8.1

> <Gold.Id.Protein>
6NUR|6NUR_protein|mol2

> <Gold.PLP.Fitness>
43.7403

> <Gold.PLP.PLP>
-41.6775

> <Gold.PLP.part.hbond>
-1.0000

> <Gold.PLP.part.metal>
0.0000

> <Gold.PLP.part.buried>
-5.2953

> <Gold.PLP.part.nonpolar>
-36.3958

> <Gold.PLP.part.repulsive>
0.2336

> <Gold.PLP.ligand.clash>
0.0000

> <Gold.PLP.ligand.torsion>
1.5765

> <Gold.PLP.Chemscore.Hbond>
1.0000

> <Gold.PLP.Chemscore.CHOScore>
0.0000

> <Gold.PLP.Chemscore.Metal>
0.0000

> <Gold.Chemscore.Hbonds>
donor molecule, donor type, donor heavy atom, donor atom, acceptor molecule, acceptor atom, score
      P1  H  7997  8008       L1     4  1.00

> <Gold.PLP.Chemscore.Internal.Correction>
2.2158

> <Gold.Rescore>
     Score         DG    S(hbond)    S(metal)    S(lipo)     H(rot)  DE(clash)    DE(int)     intcor
     11.91     -13.86       0.86        0.00      87.45       1.85       0.15       1.80       ----

> <Gold.Chemscore.Fitness>
11.9074

> <Gold.Chemscore.DG>
-13.8609

> <Gold.Chemscore.ZeroCoef>
-5.4800

> <Gold.Chemscore.Hbond>
0.8643

> <Gold.Chemscore.Metal>
0.0000

> <Gold.Chemscore.Lipo>
87.4489

> <Gold.Chemscore.Internal_Hbond>
0.0000

> <Gold.Chemscore.DEClash>
0.1514

> <Gold.Chemscore.DEInternal>
1.8021

> <Gold.Chemscore.Rot>
1.8505

> <Gold.Chemscore.Internal.Correction>
   9.000000E+99

> <Gold.Chemscore.Hbonds>
donor molecule, donor type, donor heavy atom, donor atom, acceptor molecule, acceptor atom, score
      P1  H  7997  8008       L1     4  0.79

> <Gold.Chemscore.Hbond.Weighted>
-2.8866

> <Gold.Chemscore.Metal.Weighted>
-0.0000

> <Gold.Chemscore.Lipo.Weighted>
-10.2315

> <Gold.Chemscore.Internal_Hbond.Weighted>
0.0000

> <Gold.Chemscore.DEClash.Weighted>
0.1514

> <Gold.Chemscore.DEInternal.Weighted>
1.8021

> <Gold.Chemscore.Rot.Weighted>
4.7373

> <Gold.Chemscore.Internal.Correction.Weighted>
   9.000000E+99

> <Gold.Protein.RotatedTorsions>
[ 6907 6896 6895 6894 ] final  -25.30 input  -60.11 | X-H torsion
[ 7974 7965 7964 7962 ] final    8.52 input  175.53 | X-H torsion
[ 8008 7997 7996 7995 ] final  -95.40 input   59.86 | X-H torsion
[ 10167 10162 10161 10158 ] final  -25.68 input  -65.29 | X-H torsion
[ 10718 10713 10712 10709 ] final  -13.26 input   66.30 | X-H torsion
[ 10763 10752 10751 10750 ] final   18.54 input  -60.55 | X-H torsion
[ 11005 11000 10999 10996 ] final  165.40 input  -57.11 | X-H torsion

> <Gold.Protein.ActiveResidues>
 VAL166  LYS551  ARG553  GLY616  TRP617  ASP618  TYR619  PRO620  LYS621  CYS622 
 ASP623  PHE694  ASN695  SER759  ASP760  ASP761  ALA762  ILE779  LEU786  VAL792 
 PHE793  MET794  SER795  GLU796  ALA797  LYS798  CYS799  TRP800  GLU811  SER814 

> <Gold.Protein.RotatedAtoms>
  151.1772  135.0345  159.8776 H   0  0  0  0  0  0  0  0  0  0  0  0  # atno 6907 bound_to 6896
  152.5446  134.1104  159.8366 H   0  0  0  0  0  0  0  0  0  0  0  0  # atno 6908 bound_to 6896
  151.1216  133.5053  159.2634 H   0  0  0  0  0  0  0  0  0  0  0  0  # atno 6909 bound_to 6896
  146.2415  139.9920  142.8425 H   0  0  0  0  0  0  0  0  0  0  0  0  # atno 7974 bound_to 7965
  154.7609  140.0480  157.0972 H   0  0  0  0  0  0  0  0  0  0  0  0  # atno 8008 bound_to 7997
  154.9939  140.3116  155.4875 H   0  0  0  0  0  0  0  0  0  0  0  0  # atno 8009 bound_to 7997
  156.2904  140.2213  156.5046 H   0  0  0  0  0  0  0  0  0  0  0  0  # atno 8010 bound_to 7997
  140.7285  143.4244  151.0900 H   0  0  0  0  0  0  0  0  0  0  0  0  # atno 10167 bound_to 10162
  156.6328  130.4906  149.6123 H   0  0  0  0  0  0  0  0  0  0  0  0  # atno 10718 bound_to 10713
  153.1241  135.6725  153.9287 H   0  0  0  0  0  0  0  0  0  0  0  0  # atno 10763 bound_to 10752
  153.8793  135.3060  155.3446 H   0  0  0  0  0  0  0  0  0  0  0  0  # atno 10764 bound_to 10752
  154.7648  135.4969  153.9614 H   0  0  0  0  0  0  0  0  0  0  0  0  # atno 10765 bound_to 10752
  140.2558  134.7941  157.3544 H   0  0  0  0  0  0  0  0  0  0  0  0  # atno 11005 bound_to 11000
  145.1494  140.9615  143.4442 LP  0  0  0  0  0  0  0  0  0  0  0  0  # atno 17320 bound_to 7965
  145.0220  139.3416  143.6068 LP  0  0  0  0  0  0  0  0  0  0  0  0  # atno 17321 bound_to 7965
  139.7894  143.8241  152.3149 LP  0  0  0  0  0  0  0  0  0  0  0  0  # atno 17342 bound_to 10162
  139.8219  144.7292  150.9561 LP  0  0  0  0  0  0  0  0  0  0  0  0  # atno 17343 bound_to 10162
  156.2221  130.6743  151.1379 LP  0  0  0  0  0  0  0  0  0  0  0  0  # atno 17370 bound_to 10713
  157.7195  131.0690  150.6194 LP  0  0  0  0  0  0  0  0  0  0  0  0  # atno 17371 bound_to 10713
  140.1513  134.4846  155.7959 LP  0  0  0  0  0  0  0  0  0  0  0  0  # atno 17394 bound_to 11000
  141.2196  133.6864  156.7384 LP  0  0  0  0  0  0  0  0  0  0  0  0  # atno 17395 bound_to 11000

$$$$
