AV-unprocessed.smi:527|AV-procd|sdf|2824|dock1
  -GOLD-   2262023303D 1   1.00000     0.00000
 Structure written by MMmdl.
 43 44  0  0  0  0  0  0  0  0  2 V2000
  150.1429  141.1424  156.2304 C   0  0  0  0  0  0  0  0  0  0  0  0
  148.8759  140.6933  155.4835 C   0  0  1  0  0  0  0  0  0  0  0  0
  148.4755  141.6968  154.3829 C   0  0  0  0  0  0  0  0  0  0  0  0
  147.1543  141.2951  153.7083 C   0  0  0  0  0  0  0  0  0  0  0  0
  147.2090  139.8581  153.1683 C   0  0  0  0  0  0  0  0  0  0  0  0
  147.6059  138.8617  154.2745 C   0  0  1  0  0  0  0  0  0  0  0  0
  147.6160  137.5027  153.7373 N   0  0  0  0  0  0  0  0  0  0  0  0
  146.7034  136.5564  154.0019 C   0  0  0  0  0  0  0  0  0  0  0  0
  145.8124  136.6891  154.8435 O   0  0  0  0  0  0  0  0  0  0  0  0
  146.9010  135.4691  153.2321 N   0  0  0  0  0  0  0  0  0  0  0  0
  146.1439  134.3544  153.1762 C   0  0  0  0  0  0  0  0  0  0  0  0
  145.1259  134.1499  153.8398 O   0  0  0  0  0  0  0  0  0  0  0  0
  146.6102  133.2864  152.1861 C   0  0  0  0  0  0  0  0  0  0  0  0
  145.6028  133.0560  151.1467 N   0  0  0  0  0  0  0  0  0  0  0  0
  145.7075  132.2345  150.0531 C   0  0  0  0  0  0  0  0  0  0  0  0
  144.5272  132.3481  149.3644 C   0  0  0  0  0  0  0  0  0  0  0  0
  143.7527  133.2336  150.0654 N   0  3  0  0  0  0  0  0  0  0  0  0
  144.4082  133.6631  151.1485 C   0  0  0  0  0  0  0  0  0  0  0  0
  148.9595  139.2442  154.9339 C   0  0  1  0  0  0  0  0  0  0  0  0
  150.1772  139.0031  154.0110 C   0  0  0  0  0  0  0  0  0  0  0  0
  150.9886  141.2716  155.5550 H   0  0  0  0  0  0  0  0  0  0  0  0
  150.4281  140.4177  156.9935 H   0  0  0  0  0  0  0  0  0  0  0  0
  149.9796  142.0975  156.7304 H   0  0  0  0  0  0  0  0  0  0  0  0
  148.0741  140.6998  156.2238 H   0  0  0  0  0  0  0  0  0  0  0  0
  148.3708  142.6941  154.8114 H   0  0  0  0  0  0  0  0  0  0  0  0
  149.2643  141.7698  153.6337 H   0  0  0  0  0  0  0  0  0  0  0  0
  146.3397  141.3798  154.4286 H   0  0  0  0  0  0  0  0  0  0  0  0
  146.9233  141.9885  152.8995 H   0  0  0  0  0  0  0  0  0  0  0  0
  146.2344  139.5898  152.7588 H   0  0  0  0  0  0  0  0  0  0  0  0
  147.9138  139.8042  152.3379 H   0  0  0  0  0  0  0  0  0  0  0  0
  146.8297  138.9128  155.0411 H   0  0  0  0  0  0  0  0  0  0  0  0
  148.3823  137.2674  153.1239 H   0  0  0  0  0  0  0  0  0  0  0  0
  147.7075  135.4933  152.6260 H   0  0  0  0  0  0  0  0  0  0  0  0
  147.5430  133.5831  151.7040 H   0  0  0  0  0  0  0  0  0  0  0  0
  146.7959  132.3449  152.7054 H   0  0  0  0  0  0  0  0  0  0  0  0
  146.5907  131.6461  149.8502 H   0  0  0  0  0  0  0  0  0  0  0  0
  144.1897  131.8785  148.4519 H   0  0  0  0  0  0  0  0  0  0  0  0
  144.0463  134.3657  151.8784 H   0  0  0  0  0  0  0  0  0  0  0  0
  149.0946  138.5863  155.7938 H   0  0  0  0  0  0  0  0  0  0  0  0
  150.1516  139.6338  153.1229 H   0  0  0  0  0  0  0  0  0  0  0  0
  150.2277  137.9673  153.6759 H   0  0  0  0  0  0  0  0  0  0  0  0
  151.1153  139.2009  154.5282 H   0  0  0  0  0  0  0  0  0  0  0  0
  142.8191  133.5245  149.8033 H   0  0  0  0  0  0  0  0  0  0  0  0
  1  2  1  0  0  0  0
  1 21  1  0  0  0  0
  1 22  1  0  0  0  0
  1 23  1  0  0  0  0
  2 19  1  0  0  0  0
  2  3  1  0  0  0  0
  2 24  1  0  0  0  0
  3  4  1  0  0  0  0
  3 25  1  0  0  0  0
  3 26  1  0  0  0  0
  4  5  1  0  0  0  0
  4 27  1  0  0  0  0
  4 28  1  0  0  0  0
  5  6  1  0  0  0  0
  5 29  1  0  0  0  0
  5 30  1  0  0  0  0
  6  7  1  0  0  0  0
  6 19  1  0  0  0  0
  6 31  1  0  0  0  0
  7  8  1  0  0  0  0
  7 32  1  0  0  0  0
  8  9  2  0  0  0  0
  8 10  1  0  0  0  0
 10 11  1  0  0  0  0
 10 33  1  0  0  0  0
 11 12  2  0  0  0  0
 11 13  1  0  0  0  0
 13 14  1  0  0  0  0
 13 34  1  0  0  0  0
 13 35  1  0  0  0  0
 14 18  1  0  0  0  0
 14 15  1  0  0  0  0
 15 16  2  0  0  0  0
 15 36  1  0  0  0  0
 16 17  1  0  0  0  0
 16 37  1  0  0  0  0
 17 18  2  0  0  0  0
 17 43  1  0  0  0  0
 18 38  1  0  0  0  0
 19 20  1  0  0  0  0
 19 39  1  0  0  0  0
 20 40  1  0  0  0  0
 20 41  1  0  0  0  0
 20 42  1  0  0  0  0
M  CHG  1  17   1
M  END
> <s_m_source_file>
AV-unprocessed.smi

> <i_m_source_file_index>
527

> <i_lp_mmshare_version>
43012

> <i_f3d_flags>
0

> <s_epik_input>
W0NIM11bQ0BASF0xW0NIMl1bQ0gyXVtDSDJdW0NASF0oW0NASF0xW0NIM10pW05IXUMoPU8pW05IXUMoPU8pW0NIMl1uMltjSF1bY0hdbltjSF0y

> <s_epik_cmdline>
J2VwaWtfcHl0aG9uJywgJy1waCcsICc3LjAnLCAnLXRuJywgJzgnLCAnLW1hJywgJzIwMCcsICctbWV0YWxfYmluZGluZycsICctaW1hZScsICc8aW5maWxlLm1hZT4nLCAnLW9tYWUnLCAnPG91dGZpbGUubWFlPic=

> <r_lp_tautomer_probability>
1

> <r_epik_Ionization_Penalty>
0.816441

> <r_epik_Ionization_Penalty_Charging>
0

> <r_epik_Ionization_Penalty_Neutral>
0.816441

> <r_epik_State_Penalty>
0.849034

> <r_epik_Charging_Adjusted_Penalty>
0.849034

> <i_epik_Tot_Q>
1

> <i_epik_Tot_abs_Q>
1

> <r_epik_Metal_State_Penalty>
0.984327

> <b_epik_Metal_Only>
0

> <s_lp_Force_Field>
OPLS_2005

> <r_lp_Energy>
18.6006

> <b_lp_Chiralities_Consistent>
1

> <s_lp_Variant>
AV-unprocessed.smi:527-10

> <Gold.Version>
5.8.1

> <Gold.Id.Protein>
6NUR|6NUR_protein|mol2

> <Gold.PLP.Fitness>
47.9678

> <Gold.PLP.PLP>
-33.4009

> <Gold.PLP.part.hbond>
-3.0000

> <Gold.PLP.part.metal>
0.0000

> <Gold.PLP.part.buried>
-2.3973

> <Gold.PLP.part.nonpolar>
-27.3672

> <Gold.PLP.part.repulsive>
0.1826

> <Gold.PLP.ligand.clash>
0.0000

> <Gold.PLP.ligand.torsion>
0.1402

> <Gold.PLP.Chemscore.Hbond>
3.9440

> <Gold.PLP.Chemscore.CHOScore>
0.9944

> <Gold.PLP.Chemscore.Metal>
0.0000

> <Gold.Chemscore.Hbonds>
donor molecule, donor type, donor heavy atom, donor atom, acceptor molecule, acceptor atom, score
      L1  H     7    32       P1  7948  0.94
      L1  H    10    33       P1  7948  1.00
      L1  H    17    43       P1 10186  1.95
      L1  C    15    36       P1 10747  0.99

> <Gold.PLP.Chemscore.Internal.Correction>
0.0321

> <Gold.Rescore>
     Score         DG    S(hbond)    S(metal)    S(lipo)     H(rot)  DE(clash)    DE(int)     intcor
     17.00     -19.81       2.92        0.00      76.54       1.71       0.05       2.77       ----

> <Gold.Chemscore.Fitness>
16.9995

> <Gold.Chemscore.DG>
-19.8131

> <Gold.Chemscore.ZeroCoef>
-5.4800

> <Gold.Chemscore.Hbond>
2.9170

> <Gold.Chemscore.Metal>
0.0000

> <Gold.Chemscore.Lipo>
76.5442

> <Gold.Chemscore.Internal_Hbond>
0.0000

> <Gold.Chemscore.DEClash>
0.0462

> <Gold.Chemscore.DEInternal>
2.7673

> <Gold.Chemscore.Rot>
1.7052

> <Gold.Chemscore.Internal.Correction>
   9.000000E+99

> <Gold.Chemscore.Hbonds>
donor molecule, donor type, donor heavy atom, donor atom, acceptor molecule, acceptor atom, score
      L1  H     7    32       P1  7948  0.91
      L1  H    10    33       P1  7948  0.98
      L1  H    17    43       P1 10186  0.92

> <Gold.Chemscore.Hbond.Weighted>
-9.7427

> <Gold.Chemscore.Metal.Weighted>
-0.0000

> <Gold.Chemscore.Lipo.Weighted>
-8.9557

> <Gold.Chemscore.Internal_Hbond.Weighted>
0.0000

> <Gold.Chemscore.DEClash.Weighted>
0.0462

> <Gold.Chemscore.DEInternal.Weighted>
2.7673

> <Gold.Chemscore.Rot.Weighted>
4.3653

> <Gold.Chemscore.Internal.Correction.Weighted>
   9.000000E+99

> <Gold.Protein.RotatedTorsions>
[ 6907 6896 6895 6894 ] final -106.51 input  -60.11 | X-H torsion
[ 7974 7965 7964 7962 ] final   29.89 input  175.53 | X-H torsion
[ 8008 7997 7996 7995 ] final  -42.76 input   59.86 | X-H torsion
[ 10167 10162 10161 10158 ] final -129.19 input  -65.29 | X-H torsion
[ 10718 10713 10712 10709 ] final   49.21 input   66.30 | X-H torsion
[ 10763 10752 10751 10750 ] final  -65.96 input  -60.55 | X-H torsion
[ 11005 11000 10999 10996 ] final  -85.32 input  -57.11 | X-H torsion

> <Gold.Protein.ActiveResidues>
 VAL166  LYS551  ARG553  GLY616  TRP617  ASP618  TYR619  PRO620  LYS621  CYS622 
 ASP623  PHE694  ASN695  SER759  ASP760  ASP761  ALA762  ILE779  LEU786  VAL792 
 PHE793  MET794  SER795  GLU796  ALA797  LYS798  CYS799  TRP800  GLU811  SER814 

> <Gold.Protein.RotatedAtoms>
  150.7393  133.9966  159.3624 H   0  0  0  0  0  0  0  0  0  0  0  0  # atno 6907 bound_to 6896
  151.7917  135.0732  160.0397 H   0  0  0  0  0  0  0  0  0  0  0  0  # atno 6908 bound_to 6896
  152.3203  133.5810  159.5776 H   0  0  0  0  0  0  0  0  0  0  0  0  # atno 6909 bound_to 6896
  146.1645  139.6862  142.9011 H   0  0  0  0  0  0  0  0  0  0  0  0  # atno 7974 bound_to 7965
  154.3998  140.1465  156.3408 H   0  0  0  0  0  0  0  0  0  0  0  0  # atno 8008 bound_to 7997
  155.8358  140.3464  155.5580 H   0  0  0  0  0  0  0  0  0  0  0  0  # atno 8009 bound_to 7997
  155.8139  140.0888  157.1878 H   0  0  0  0  0  0  0  0  0  0  0  0  # atno 8010 bound_to 7997
  139.9424  143.6148  152.2500 H   0  0  0  0  0  0  0  0  0  0  0  0  # atno 10167 bound_to 10162
  157.4764  130.8287  149.8044 H   0  0  0  0  0  0  0  0  0  0  0  0  # atno 10718 bound_to 10713
  154.3528  135.6133  153.5651 H   0  0  0  0  0  0  0  0  0  0  0  0  # atno 10763 bound_to 10752
  152.9797  135.5796  154.4723 H   0  0  0  0  0  0  0  0  0  0  0  0  # atno 10764 bound_to 10752
  154.4447  135.2851  155.1800 H   0  0  0  0  0  0  0  0  0  0  0  0  # atno 10765 bound_to 10752
  141.1642  133.7393  156.8997 H   0  0  0  0  0  0  0  0  0  0  0  0  # atno 11005 bound_to 11000
  145.4504  141.0428  143.2808 LP  0  0  0  0  0  0  0  0  0  0  0  0  # atno 17320 bound_to 7965
  144.8073  139.6028  143.7045 LP  0  0  0  0  0  0  0  0  0  0  0  0  # atno 17321 bound_to 7965
  139.6694  144.7661  151.1812 LP  0  0  0  0  0  0  0  0  0  0  0  0  # atno 17342 bound_to 10162
  140.7607  143.5888  150.8817 LP  0  0  0  0  0  0  0  0  0  0  0  0  # atno 17343 bound_to 10162
  156.0099  130.3838  150.2301 LP  0  0  0  0  0  0  0  0  0  0  0  0  # atno 17370 bound_to 10713
  157.0486  131.0056  151.3261 LP  0  0  0  0  0  0  0  0  0  0  0  0  # atno 17371 bound_to 10713
  140.1591  134.9178  157.2692 LP  0  0  0  0  0  0  0  0  0  0  0  0  # atno 17394 bound_to 11000
  140.2632  134.3546  155.7399 LP  0  0  0  0  0  0  0  0  0  0  0  0  # atno 17395 bound_to 11000

$$$$
