AV-unprocessed.smi:828|AV-procd|sdf|3858|dock6
  -GOLD-   22720 1313D 1   1.00000     0.00000
 Structure written by MMmdl.
 35 36  0  0  0  0  0  0  0  0  2 V2000
  149.3438  123.4843  150.7135 C   0  0  0  0  0  0  0  0  0  0  0  0
  148.7936  124.7763  151.2126 C   0  0  0  0  0  0  0  0  0  0  0  0
  148.1738  124.8909  152.3937 N   0  0  0  0  0  0  0  0  0  0  0  0
  147.7445  126.1877  152.6391 N   0  0  0  0  0  0  0  0  0  0  0  0
  148.0538  127.0155  151.6316 C   0  0  0  0  0  0  0  0  0  0  0  0
  147.7282  128.3978  151.6187 N   0  0  0  0  0  0  0  0  0  0  0  0
  146.7597  129.0305  152.3040 C   0  0  0  0  0  0  0  0  0  0  0  0
  145.9853  128.4995  153.1005 O   0  0  0  0  0  0  0  0  0  0  0  0
  146.7304  130.3392  152.0135 N   0  0  0  0  0  0  0  0  0  0  0  0
  145.7942  131.2970  152.5932 C   0  0  0  0  0  0  0  0  0  0  0  0
  145.6853  132.5920  151.7614 C   0  0  2  0  0  0  0  0  0  0  0  0
  144.8821  133.7089  152.4589 C   0  0  0  0  0  0  0  0  0  0  0  0
  143.5736  133.8021  151.6807 C   0  0  0  0  0  0  0  0  0  0  0  0
  143.9823  133.3807  150.2752 C   0  0  0  0  0  0  0  0  0  0  0  0
  144.9909  132.3229  150.4778 N   0  3  1  0  0  0  0  0  0  0  0  0
  145.8904  132.1185  149.3222 C   0  0  0  0  0  0  0  0  0  0  0  0
  148.9017  126.2694  150.2879 S   0  0  0  0  0  0  0  0  0  0  0  0
  149.6318  122.8445  151.5482 H   0  0  0  0  0  0  0  0  0  0  0  0
  150.2225  123.6633  150.0938 H   0  0  0  0  0  0  0  0  0  0  0  0
  148.5929  122.9661  150.1169 H   0  0  0  0  0  0  0  0  0  0  0  0
  148.2959  128.9690  151.0104 H   0  0  0  0  0  0  0  0  0  0  0  0
  147.4027  130.6977  151.3510 H   0  0  0  0  0  0  0  0  0  0  0  0
  144.8146  130.8269  152.6951 H   0  0  0  0  0  0  0  0  0  0  0  0
  146.1292  131.5297  153.6046 H   0  0  0  0  0  0  0  0  0  0  0  0
  146.6863  132.9739  151.5530 H   0  0  0  0  0  0  0  0  0  0  0  0
  144.7135  133.5312  153.5214 H   0  0  0  0  0  0  0  0  0  0  0  0
  145.4230  134.6521  152.3716 H   0  0  0  0  0  0  0  0  0  0  0  0
  142.8498  133.0935  152.0855 H   0  0  0  0  0  0  0  0  0  0  0  0
  143.1282  134.7970  151.7137 H   0  0  0  0  0  0  0  0  0  0  0  0
  143.1405  133.0260  149.6801 H   0  0  0  0  0  0  0  0  0  0  0  0
  144.4325  134.2283  149.7556 H   0  0  0  0  0  0  0  0  0  0  0  0
  146.4792  133.0136  149.1174 H   0  0  0  0  0  0  0  0  0  0  0  0
  145.3140  131.8752  148.4292 H   0  0  0  0  0  0  0  0  0  0  0  0
  146.5772  131.2938  149.5152 H   0  0  0  0  0  0  0  0  0  0  0  0
  144.4744  131.4657  150.6144 H   0  0  0  0  0  0  0  0  0  0  0  0
  1  2  1  0  0  0  0
  1 18  1  0  0  0  0
  1 19  1  0  0  0  0
  1 20  1  0  0  0  0
  2 17  1  0  0  0  0
  2  3  2  0  0  0  0
  3  4  1  0  0  0  0
  4  5  2  0  0  0  0
  5  6  1  0  0  0  0
  5 17  1  0  0  0  0
  6  7  1  0  0  0  0
  6 21  1  0  0  0  0
  7  8  2  0  0  0  0
  7  9  1  0  0  0  0
  9 10  1  0  0  0  0
  9 22  1  0  0  0  0
 10 11  1  0  0  0  0
 10 23  1  0  0  0  0
 10 24  1  0  0  0  0
 11 15  1  0  0  0  0
 11 12  1  0  0  0  0
 11 25  1  0  0  0  0
 12 13  1  0  0  0  0
 12 26  1  0  0  0  0
 12 27  1  0  0  0  0
 13 14  1  0  0  0  0
 13 28  1  0  0  0  0
 13 29  1  0  0  0  0
 14 15  1  0  0  0  0
 14 30  1  0  0  0  0
 14 31  1  0  0  0  0
 15 16  1  0  0  0  0
 15 35  1  0  0  0  0
 16 32  1  0  0  0  0
 16 33  1  0  0  0  0
 16 34  1  0  0  0  0
M  CHG  1  15   1
M  END
> <s_m_source_file>
AV-unprocessed.smi

> <i_m_source_file_index>
828

> <i_lp_mmshare_version>
43012

> <i_f3d_flags>
0

> <s_epik_input>
W0NIM11jMW5uYyhzMSlbTkhdQyg9TylbTkhdW0NIMl1bQ0BASF0yW0NIMl1bQ0gyXVtDSDJdTjJbQ0gzXQ==

> <s_epik_cmdline>
J2VwaWtfcHl0aG9uJywgJy1waCcsICc3LjAnLCAnLXRuJywgJzgnLCAnLW1hJywgJzIwMCcsICctbWV0YWxfYmluZGluZycsICctaW1hZScsICc8aW5maWxlLm1hZT4nLCAnLW9tYWUnLCAnPG91dGZpbGUubWFlPic=

> <r_lp_tautomer_probability>
1

> <r_epik_Ionization_Penalty>
0.00466477

> <r_epik_Ionization_Penalty_Charging>
0.00372199

> <r_epik_Ionization_Penalty_Neutral>
0.000942783

> <r_epik_State_Penalty>
-0

> <r_epik_Charging_Adjusted_Penalty>
0.00372199

> <i_epik_Tot_Q>
1

> <i_epik_Tot_abs_Q>
1

> <r_epik_Metal_State_Penalty>
0.28212

> <b_epik_Metal_Only>
0

> <s_lp_Force_Field>
OPLS_2005

> <r_lp_Energy>
24.623

> <b_lp_Chiralities_Consistent>
1

> <s_lp_Variant>
AV-unprocessed.smi:828-1

> <Gold.Version>
5.8.1

> <Gold.Id.Protein>
6NUR|6NUR_protein|mol2

> <Gold.PLP.Fitness>
36.2504

> <Gold.PLP.PLP>
-31.9869

> <Gold.PLP.part.hbond>
-3.7590

> <Gold.PLP.part.metal>
0.0000

> <Gold.PLP.part.buried>
-5.7843

> <Gold.PLP.part.nonpolar>
-22.7182

> <Gold.PLP.part.repulsive>
0.3049

> <Gold.PLP.ligand.clash>
0.0000

> <Gold.PLP.ligand.torsion>
0.2899

> <Gold.PLP.Chemscore.Hbond>
1.6143

> <Gold.PLP.Chemscore.CHOScore>
0.0000

> <Gold.PLP.Chemscore.Metal>
0.0000

> <Gold.Chemscore.Hbonds>
donor molecule, donor type, donor heavy atom, donor atom, acceptor molecule, acceptor atom, score
      L1  H     6    21       P1 10747  0.63
      L1  H     9    22       P1 10747  1.00

> <Gold.PLP.Chemscore.Internal.Correction>
0.0005

> <Gold.Rescore>
     Score         DG    S(hbond)    S(metal)    S(lipo)     H(rot)  DE(clash)    DE(int)     intcor
     11.43     -12.89       1.03        0.00      62.92       1.33       0.05       1.41       ----

> <Gold.Chemscore.Fitness>
11.4312

> <Gold.Chemscore.DG>
-12.8908

> <Gold.Chemscore.ZeroCoef>
-5.4800

> <Gold.Chemscore.Hbond>
1.0335

> <Gold.Chemscore.Metal>
0.0000

> <Gold.Chemscore.Lipo>
62.9242

> <Gold.Chemscore.Internal_Hbond>
0.0000

> <Gold.Chemscore.DEClash>
0.0503

> <Gold.Chemscore.DEInternal>
1.4094

> <Gold.Chemscore.Rot>
1.3294

> <Gold.Chemscore.Internal.Correction>
   9.000000E+99

> <Gold.Chemscore.Hbonds>
donor molecule, donor type, donor heavy atom, donor atom, acceptor molecule, acceptor atom, score
      L1  H     6    21       P1 10747  0.06
      L1  H     9    22       P1 10747  0.99

> <Gold.Chemscore.Hbond.Weighted>
-3.4520

> <Gold.Chemscore.Metal.Weighted>
-0.0000

> <Gold.Chemscore.Lipo.Weighted>
-7.3621

> <Gold.Chemscore.Internal_Hbond.Weighted>
0.0000

> <Gold.Chemscore.DEClash.Weighted>
0.0503

> <Gold.Chemscore.DEInternal.Weighted>
1.4094

> <Gold.Chemscore.Rot.Weighted>
3.4033

> <Gold.Chemscore.Internal.Correction.Weighted>
   9.000000E+99

> <Gold.Protein.RotatedTorsions>
[ 6907 6896 6895 6894 ] final   98.03 input  -60.11 | X-H torsion
[ 7974 7965 7964 7962 ] final   50.64 input  175.53 | X-H torsion
[ 8008 7997 7996 7995 ] final    7.97 input   59.86 | X-H torsion
[ 10167 10162 10161 10158 ] final   -9.58 input  -65.29 | X-H torsion
[ 10718 10713 10712 10709 ] final   21.07 input   66.30 | X-H torsion
[ 10763 10752 10751 10750 ] final -117.95 input  -60.55 | X-H torsion
[ 11005 11000 10999 10996 ] final -103.87 input  -57.11 | X-H torsion

> <Gold.Protein.ActiveResidues>
 VAL166  LYS551  ARG553  GLY616  TRP617  ASP618  TYR619  PRO620  LYS621  CYS622 
 ASP623  PHE694  ASN695  SER759  ASP760  ASP761  ALA762  ILE779  LEU786  VAL792 
 PHE793  MET794  SER795  GLU796  ALA797  LYS798  CYS799  TRP800  GLU811  SER814 

> <Gold.Protein.RotatedAtoms>
  152.5415  134.0643  159.8165 H   0  0  0  0  0  0  0  0  0  0  0  0  # atno 6907 bound_to 6896
  151.0766  133.5415  159.2630 H   0  0  0  0  0  0  0  0  0  0  0  0  # atno 6908 bound_to 6896
  151.2258  135.0544  159.9022 H   0  0  0  0  0  0  0  0  0  0  0  0  # atno 6909 bound_to 6896
  145.9992  139.4421  143.0025 H   0  0  0  0  0  0  0  0  0  0  0  0  # atno 7974 bound_to 7965
  154.7607  140.2784  155.6216 H   0  0  0  0  0  0  0  0  0  0  0  0  # atno 8008 bound_to 7997
  156.2915  140.2660  156.2312 H   0  0  0  0  0  0  0  0  0  0  0  0  # atno 8009 bound_to 7997
  155.0020  140.0372  157.2354 H   0  0  0  0  0  0  0  0  0  0  0  0  # atno 8010 bound_to 7997
  140.7091  143.5842  150.8960 H   0  0  0  0  0  0  0  0  0  0  0  0  # atno 10167 bound_to 10162
  157.1333  130.6600  149.5958 H   0  0  0  0  0  0  0  0  0  0  0  0  # atno 10718 bound_to 10713
  154.8572  135.4291  154.2061 H   0  0  0  0  0  0  0  0  0  0  0  0  # atno 10763 bound_to 10752
  153.3097  135.6975  153.7133 H   0  0  0  0  0  0  0  0  0  0  0  0  # atno 10764 bound_to 10752
  153.6231  135.3498  155.2991 H   0  0  0  0  0  0  0  0  0  0  0  0  # atno 10765 bound_to 10752
  141.1126  133.8676  157.1540 H   0  0  0  0  0  0  0  0  0  0  0  0  # atno 11005 bound_to 11000
  145.7513  140.9971  143.1249 LP  0  0  0  0  0  0  0  0  0  0  0  0  # atno 17320 bound_to 7965
  144.6914  139.9217  143.7468 LP  0  0  0  0  0  0  0  0  0  0  0  0  # atno 17321 bound_to 7965
  139.9568  143.6209  152.3014 LP  0  0  0  0  0  0  0  0  0  0  0  0  # atno 17342 bound_to 10162
  139.6748  144.7659  151.1717 LP  0  0  0  0  0  0  0  0  0  0  0  0  # atno 17343 bound_to 10162
  155.9803  130.4803  150.6767 LP  0  0  0  0  0  0  0  0  0  0  0  0  # atno 17370 bound_to 10713
  157.4373  131.0857  151.0979 LP  0  0  0  0  0  0  0  0  0  0  0  0  # atno 17371 bound_to 10713
  140.0029  135.0020  157.0229 LP  0  0  0  0  0  0  0  0  0  0  0  0  # atno 17394 bound_to 11000
  140.4733  134.1364  155.7206 LP  0  0  0  0  0  0  0  0  0  0  0  0  # atno 17395 bound_to 11000

$$$$
