AV-unprocessed.smi:673|AV-procd|sdf|3297|dock9
  -GOLD-   22720 0263D 1   1.00000     0.00000
 Structure written by MMmdl.
 45 46  0  0  0  0  0  0  0  0  1 V2000
  152.7226  137.9595  159.8058 C   0  0  0  0  0  0  0  0  0  0  0  0
  152.2308  138.7031  158.5536 C   0  0  2  0  0  0  0  0  0  0  0  0
  152.9057  138.1635  157.2780 C   0  0  0  0  0  0  0  0  0  0  0  0
  152.1274  138.4390  156.0833 N   0  0  0  0  0  0  0  0  0  0  0  0
  151.9139  139.5830  155.4315 C   0  0  0  0  0  0  0  0  0  0  0  0
  151.1493  139.4513  154.3564 N   0  0  0  0  0  0  0  0  0  0  0  0
  150.9105  138.1070  154.4089 C   0  0  0  0  0  0  0  0  0  0  0  0
  151.4732  137.4530  155.4249 N   0  0  0  0  0  0  0  0  0  0  0  0
  152.4892  140.1346  158.6831 N   0  0  0  0  0  0  0  0  0  0  0  0
  151.7505  141.1221  158.1490 C   0  0  0  0  0  0  0  0  0  0  0  0
  150.7115  140.9038  157.5242 O   0  0  0  0  0  0  0  0  0  0  0  0
  152.2284  142.3697  158.3876 N   0  0  0  0  0  0  0  0  0  0  0  0
  153.3089  142.6962  159.3283 C   0  0  0  0  0  0  0  0  0  0  0  0
  152.7854  142.9045  160.7635 C   0  0  0  0  0  0  0  0  0  0  0  0
  151.3068  143.3398  160.9201 C   0  0  0  0  0  0  0  0  0  0  0  0
  150.7896  144.5307  160.0615 C   0  0  0  0  0  0  0  0  0  0  0  0
  149.4602  145.0030  160.6879 C   0  0  0  0  0  0  0  0  0  0  0  0
  151.7632  145.7282  160.0995 C   0  0  0  0  0  0  0  0  0  0  0  0
  150.4676  144.1031  158.5992 C   0  0  0  0  0  0  0  0  0  0  0  0
  151.6355  143.5542  157.7573 C   0  0  0  0  0  0  0  0  0  0  0  0
  152.5360  136.8887  159.7233 H   0  0  0  0  0  0  0  0  0  0  0  0
  152.2121  138.3111  160.7029 H   0  0  0  0  0  0  0  0  0  0  0  0
  153.7936  138.1002  159.9561 H   0  0  0  0  0  0  0  0  0  0  0  0
  151.1548  138.5442  158.4606 H   0  0  0  0  0  0  0  0  0  0  0  0
  153.9033  138.5905  157.1605 H   0  0  0  0  0  0  0  0  0  0  0  0
  153.0366  137.0831  157.3509 H   0  0  0  0  0  0  0  0  0  0  0  0
  152.3300  140.5288  155.7465 H   0  0  0  0  0  0  0  0  0  0  0  0
  150.3042  137.5947  153.6764 H   0  0  0  0  0  0  0  0  0  0  0  0
  153.3181  140.3984  159.1962 H   0  0  0  0  0  0  0  0  0  0  0  0
  154.0914  141.9355  159.3196 H   0  0  0  0  0  0  0  0  0  0  0  0
  153.8279  143.5976  159.0034 H   0  0  0  0  0  0  0  0  0  0  0  0
  152.9105  141.9707  161.3127 H   0  0  0  0  0  0  0  0  0  0  0  0
  153.4328  143.6215  161.2693 H   0  0  0  0  0  0  0  0  0  0  0  0
  150.6643  142.4759  160.7434 H   0  0  0  0  0  0  0  0  0  0  0  0
  151.1660  143.5772  161.9754 H   0  0  0  0  0  0  0  0  0  0  0  0
  149.0215  145.8268  160.1235 H   0  0  0  0  0  0  0  0  0  0  0  0
  149.6003  145.3522  161.7116 H   0  0  0  0  0  0  0  0  0  0  0  0
  148.7244  144.1982  160.7166 H   0  0  0  0  0  0  0  0  0  0  0  0
  151.3545  146.5849  159.5628 H   0  0  0  0  0  0  0  0  0  0  0  0
  152.7264  145.5001  159.6475 H   0  0  0  0  0  0  0  0  0  0  0  0
  151.9552  146.0466  161.1245 H   0  0  0  0  0  0  0  0  0  0  0  0
  149.6773  143.3510  158.6144 H   0  0  0  0  0  0  0  0  0  0  0  0
  150.0419  144.9537  158.0655 H   0  0  0  0  0  0  0  0  0  0  0  0
  152.3799  144.3340  157.5962 H   0  0  0  0  0  0  0  0  0  0  0  0
  151.2765  143.3147  156.7551 H   0  0  0  0  0  0  0  0  0  0  0  0
  1  2  1  0  0  0  0
  1 21  1  0  0  0  0
  1 22  1  0  0  0  0
  1 23  1  0  0  0  0
  2  3  1  0  0  0  0
  2  9  1  0  0  0  0
  2 24  1  0  0  0  0
  3  4  1  0  0  0  0
  3 25  1  0  0  0  0
  3 26  1  0  0  0  0
  4  8  1  0  0  0  0
  4  5  1  0  0  0  0
  5  6  2  0  0  0  0
  5 27  1  0  0  0  0
  6  7  1  0  0  0  0
  7  8  2  0  0  0  0
  7 28  1  0  0  0  0
  9 10  1  0  0  0  0
  9 29  1  0  0  0  0
 10 11  2  0  0  0  0
 10 12  1  0  0  0  0
 12 20  1  0  0  0  0
 12 13  1  0  0  0  0
 13 14  1  0  0  0  0
 13 30  1  0  0  0  0
 13 31  1  0  0  0  0
 14 15  1  0  0  0  0
 14 32  1  0  0  0  0
 14 33  1  0  0  0  0
 15 16  1  0  0  0  0
 15 34  1  0  0  0  0
 15 35  1  0  0  0  0
 16 17  1  0  0  0  0
 16 18  1  0  0  0  0
 16 19  1  0  0  0  0
 17 36  1  0  0  0  0
 17 37  1  0  0  0  0
 17 38  1  0  0  0  0
 18 39  1  0  0  0  0
 18 40  1  0  0  0  0
 18 41  1  0  0  0  0
 19 20  1  0  0  0  0
 19 42  1  0  0  0  0
 19 43  1  0  0  0  0
 20 44  1  0  0  0  0
 20 45  1  0  0  0  0
M  END
> <s_m_source_file>
AV-unprocessed.smi

> <i_m_source_file_index>
673

> <i_lp_mmshare_version>
43012

> <i_f3d_flags>
0

> <s_epik_input>
bjFbY0hdbltjSF1uMVtDSDJdW0NAQEhdKFtDSDNdKVtOSF1DKD1PKU4oW0NIMl1bQ0gyXTIpW0NIMl1bQ0gyXVtDSDJdQzIoW0NIM10pW0NIM10=

> <s_epik_cmdline>
J2VwaWtfcHl0aG9uJywgJy1waCcsICc3LjAnLCAnLXRuJywgJzgnLCAnLW1hJywgJzIwMCcsICctbWV0YWxfYmluZGluZycsICctaW1hZScsICc8aW5maWxlLm1hZT4nLCAnLW9tYWUnLCAnPG91dGZpbGUubWFlPic=

> <r_lp_tautomer_probability>
1

> <r_epik_Ionization_Penalty>
0.000118908

> <r_epik_Ionization_Penalty_Charging>
0

> <r_epik_Ionization_Penalty_Neutral>
0.000118908

> <r_epik_State_Penalty>
-0

> <r_epik_Charging_Adjusted_Penalty>
0

> <i_epik_Tot_Q>
0

> <i_epik_Tot_abs_Q>
0

> <r_epik_Metal_State_Penalty>
-0

> <b_epik_Metal_Only>
0

> <s_lp_Force_Field>
OPLS_2005

> <r_lp_Energy>
35.7371

> <b_lp_Chiralities_Consistent>
1

> <s_lp_Variant>
AV-unprocessed.smi:673-1

> <Gold.Version>
5.8.1

> <Gold.Id.Protein>
6NUR|6NUR_protein|mol2

> <Gold.PLP.Fitness>
42.6527

> <Gold.PLP.PLP>
-38.3820

> <Gold.PLP.part.hbond>
-1.0000

> <Gold.PLP.part.metal>
0.0000

> <Gold.PLP.part.buried>
-2.8646

> <Gold.PLP.part.nonpolar>
-35.5823

> <Gold.PLP.part.repulsive>
0.3261

> <Gold.PLP.ligand.clash>
0.0000

> <Gold.PLP.ligand.torsion>
0.7565

> <Gold.PLP.Chemscore.Hbond>
1.0000

> <Gold.PLP.Chemscore.CHOScore>
0.9206

> <Gold.PLP.Chemscore.Metal>
0.0000

> <Gold.Chemscore.Hbonds>
donor molecule, donor type, donor heavy atom, donor atom, acceptor molecule, acceptor atom, score
      P1  H  7989  7998       L1     6  1.00
      L1  C     7    28       P1  7948  0.83
      L1  C     7    28       P1  7949  0.09

> <Gold.PLP.Chemscore.Internal.Correction>
0.0218

> <Gold.Rescore>
     Score         DG    S(hbond)    S(metal)    S(lipo)     H(rot)  DE(clash)    DE(int)     intcor
     12.23     -15.47       0.93        0.00      99.60       1.86       1.11       2.13       ----

> <Gold.Chemscore.Fitness>
12.2297

> <Gold.Chemscore.DG>
-15.4690

> <Gold.Chemscore.ZeroCoef>
-5.4800

> <Gold.Chemscore.Hbond>
0.9285

> <Gold.Chemscore.Metal>
0.0000

> <Gold.Chemscore.Lipo>
99.5983

> <Gold.Chemscore.Internal_Hbond>
0.0000

> <Gold.Chemscore.DEClash>
1.1055

> <Gold.Chemscore.DEInternal>
2.1338

> <Gold.Chemscore.Rot>
1.8614

> <Gold.Chemscore.Internal.Correction>
   9.000000E+99

> <Gold.Chemscore.Hbonds>
donor molecule, donor type, donor heavy atom, donor atom, acceptor molecule, acceptor atom, score
      P1  H  7989  7998       L1     6  0.26

> <Gold.Chemscore.Hbond.Weighted>
-3.1013

> <Gold.Chemscore.Metal.Weighted>
-0.0000

> <Gold.Chemscore.Lipo.Weighted>
-11.6530

> <Gold.Chemscore.Internal_Hbond.Weighted>
0.0000

> <Gold.Chemscore.DEClash.Weighted>
1.1055

> <Gold.Chemscore.DEInternal.Weighted>
2.1338

> <Gold.Chemscore.Rot.Weighted>
4.7653

> <Gold.Chemscore.Internal.Correction.Weighted>
   9.000000E+99

> <Gold.Protein.RotatedTorsions>
[ 6907 6896 6895 6894 ] final  -23.39 input  -60.11 | X-H torsion
[ 7974 7965 7964 7962 ] final  -32.30 input  175.53 | X-H torsion
[ 8008 7997 7996 7995 ] final  -67.25 input   59.86 | X-H torsion
[ 10167 10162 10161 10158 ] final  -93.84 input  -65.29 | X-H torsion
[ 10718 10713 10712 10709 ] final   74.88 input   66.30 | X-H torsion
[ 10763 10752 10751 10750 ] final  102.35 input  -60.55 | X-H torsion
[ 11005 11000 10999 10996 ] final -164.46 input  -57.11 | X-H torsion

> <Gold.Protein.ActiveResidues>
 VAL166  LYS551  ARG553  GLY616  TRP617  ASP618  TYR619  PRO620  LYS621  CYS622 
 ASP623  PHE694  ASN695  SER759  ASP760  ASP761  ALA762  ILE779  LEU786  VAL792 
 PHE793  MET794  SER795  GLU796  ALA797  LYS798  CYS799  TRP800  GLU811  SER814 

> <Gold.Protein.RotatedAtoms>
  151.2048  135.0457  159.8886 H   0  0  0  0  0  0  0  0  0  0  0  0  # atno 6907 bound_to 6896
  152.5430  134.0810  159.8246 H   0  0  0  0  0  0  0  0  0  0  0  0  # atno 6908 bound_to 6896
  151.0956  133.5235  159.2644 H   0  0  0  0  0  0  0  0  0  0  0  0  # atno 6909 bound_to 6896
  146.1001  140.5775  142.8825 H   0  0  0  0  0  0  0  0  0  0  0  0  # atno 7974 bound_to 7965
  154.4787  140.0896  156.7325 H   0  0  0  0  0  0  0  0  0  0  0  0  # atno 8008 bound_to 7997
  155.4527  140.3458  155.4284 H   0  0  0  0  0  0  0  0  0  0  0  0  # atno 8009 bound_to 7997
  156.1157  140.1460  156.9264 H   0  0  0  0  0  0  0  0  0  0  0  0  # atno 8010 bound_to 7997
  140.3206  143.3051  152.0051 H   0  0  0  0  0  0  0  0  0  0  0  0  # atno 10167 bound_to 10162
  157.6611  130.9699  150.1274 H   0  0  0  0  0  0  0  0  0  0  0  0  # atno 10718 bound_to 10713
  153.3384  135.4013  155.1552 H   0  0  0  0  0  0  0  0  0  0  0  0  # atno 10763 bound_to 10752
  154.8638  135.3627  154.5378 H   0  0  0  0  0  0  0  0  0  0  0  0  # atno 10764 bound_to 10752
  153.5821  135.7076  153.5518 H   0  0  0  0  0  0  0  0  0  0  0  0  # atno 10765 bound_to 10752
  140.5866  134.5087  157.5186 H   0  0  0  0  0  0  0  0  0  0  0  0  # atno 11005 bound_to 11000
  144.7426  140.4982  143.6859 LP  0  0  0  0  0  0  0  0  0  0  0  0  # atno 17320 bound_to 7965
  145.5872  139.1493  143.3202 LP  0  0  0  0  0  0  0  0  0  0  0  0  # atno 17321 bound_to 7965
  139.4875  144.6314  151.7062 LP  0  0  0  0  0  0  0  0  0  0  0  0  # atno 17342 bound_to 10162
  140.5487  144.0461  150.6118 LP  0  0  0  0  0  0  0  0  0  0  0  0  # atno 17343 bound_to 10162
  156.2130  130.3668  149.8648 LP  0  0  0  0  0  0  0  0  0  0  0  0  # atno 17370 bound_to 10713
  156.6521  130.8748  151.3533 LP  0  0  0  0  0  0  0  0  0  0  0  0  # atno 17371 bound_to 10713
  139.9293  134.7995  156.0977 LP  0  0  0  0  0  0  0  0  0  0  0  0  # atno 17394 bound_to 11000
  141.0962  133.6695  156.2650 LP  0  0  0  0  0  0  0  0  0  0  0  0  # atno 17395 bound_to 11000

$$$$
