AV-unprocessed.smi:2923|AV-procd|sdf|11214|dock4
  -GOLD-   2272016103D 1   1.00000     0.00000
 Structure written by MMmdl.
 46 48  0  0  0  0  0  0  0  0  1 V2000
  152.2536  140.5475  158.0964 C   0  0  0  0  0  0  0  0  0  0  0  0
  151.5475  141.1174  156.9596 N   0  0  0  0  0  0  0  0  0  0  0  0
  150.9170  142.4105  157.1766 C   0  0  0  0  0  0  0  0  0  0  0  0
  150.7059  140.1940  156.3257 C   0  0  0  0  0  0  0  0  0  0  0  0
  149.6808  139.5268  157.0340 C   0  0  0  0  0  0  0  0  0  0  0  0
  148.8678  138.6069  156.3448 C   0  0  0  0  0  0  0  0  0  0  0  0
  149.1102  138.3770  154.9696 C   0  0  0  0  0  0  0  0  0  0  0  0
  148.3524  137.4894  154.1589 N   0  0  0  0  0  0  0  0  0  0  0  0
  147.1856  136.8851  154.4411 C   0  0  0  0  0  0  0  0  0  0  0  0
  146.5567  137.0036  155.4923 O   0  0  0  0  0  0  0  0  0  0  0  0
  146.7905  136.1082  153.4247 N   0  0  0  0  0  0  0  0  0  0  0  0
  145.5673  135.3035  153.3986 C   0  0  2  0  0  0  0  0  0  0  0  0
  145.8325  133.7986  153.6296 C   0  0  2  0  0  0  0  0  0  0  0  0
  147.1611  133.2626  154.1046 C   0  0  0  0  0  0  0  0  0  0  0  0
  147.8391  132.8338  152.8001 C   0  0  0  0  0  0  0  0  0  0  0  0
  147.1671  133.5706  151.7804 O   0  0  0  0  0  0  0  0  0  0  0  0
  145.7832  133.6219  152.1205 C   0  0  2  0  0  0  0  0  0  0  0  0
  145.0845  134.9884  151.9585 C   0  0  0  0  0  0  0  0  0  0  0  0
  143.5623  134.8988  151.8141 C   0  0  0  0  0  0  0  0  0  0  0  0
  145.5748  135.8734  150.8042 C   0  0  0  0  0  0  0  0  0  0  0  0
  150.1500  139.1058  154.3560 C   0  0  0  0  0  0  0  0  0  0  0  0
  150.9345  139.9875  155.0111 N   0  0  0  0  0  0  0  0  0  0  0  0
  152.6971  139.5855  157.8362 H   0  0  0  0  0  0  0  0  0  0  0  0
  151.5791  140.4001  158.9406 H   0  0  0  0  0  0  0  0  0  0  0  0
  153.0568  141.2133  158.4125 H   0  0  0  0  0  0  0  0  0  0  0  0
  150.4284  142.7605  156.2663 H   0  0  0  0  0  0  0  0  0  0  0  0
  151.6655  143.1500  157.4621 H   0  0  0  0  0  0  0  0  0  0  0  0
  150.1712  142.3558  157.9705 H   0  0  0  0  0  0  0  0  0  0  0  0
  149.5153  139.7156  158.0846 H   0  0  0  0  0  0  0  0  0  0  0  0
  148.0732  138.1114  156.8802 H   0  0  0  0  0  0  0  0  0  0  0  0
  148.7806  137.2361  153.2804 H   0  0  0  0  0  0  0  0  0  0  0  0
  147.3728  136.0687  152.6008 H   0  0  0  0  0  0  0  0  0  0  0  0
  144.7673  135.6816  154.0379 H   0  0  0  0  0  0  0  0  0  0  0  0
  144.9735  133.3235  154.1061 H   0  0  0  0  0  0  0  0  0  0  0  0
  147.7470  134.0186  154.6271 H   0  0  0  0  0  0  0  0  0  0  0  0
  147.0452  132.4167  154.7828 H   0  0  0  0  0  0  0  0  0  0  0  0
  148.9108  133.0326  152.7975 H   0  0  0  0  0  0  0  0  0  0  0  0
  147.6891  131.7678  152.6233 H   0  0  0  0  0  0  0  0  0  0  0  0
  145.2189  132.7479  151.7917 H   0  0  0  0  0  0  0  0  0  0  0  0
  143.2757  134.4416  150.8665 H   0  0  0  0  0  0  0  0  0  0  0  0
  143.0978  135.8845  151.8588 H   0  0  0  0  0  0  0  0  0  0  0  0
  143.1168  134.2975  152.6072 H   0  0  0  0  0  0  0  0  0  0  0  0
  145.2393  135.4932  149.8389 H   0  0  0  0  0  0  0  0  0  0  0  0
  146.6625  135.9263  150.7570 H   0  0  0  0  0  0  0  0  0  0  0  0
  145.2060  136.8950  150.9015 H   0  0  0  0  0  0  0  0  0  0  0  0
  150.3652  138.9750  153.3055 H   0  0  0  0  0  0  0  0  0  0  0  0
  1  2  1  0  0  0  0
  1 23  1  0  0  0  0
  1 24  1  0  0  0  0
  1 25  1  0  0  0  0
  2  3  1  0  0  0  0
  2  4  1  0  0  0  0
  3 26  1  0  0  0  0
  3 27  1  0  0  0  0
  3 28  1  0  0  0  0
  4 22  1  0  0  0  0
  4  5  2  0  0  0  0
  5  6  1  0  0  0  0
  5 29  1  0  0  0  0
  6  7  2  0  0  0  0
  6 30  1  0  0  0  0
  7  8  1  0  0  0  0
  7 21  1  0  0  0  0
  8  9  1  0  0  0  0
  8 31  1  0  0  0  0
  9 10  2  0  0  0  0
  9 11  1  0  0  0  0
 11 12  1  0  0  0  0
 11 32  1  0  0  0  0
 12 18  1  0  0  0  0
 12 13  1  0  0  0  0
 12 33  1  0  0  0  0
 13 17  1  0  0  0  0
 13 14  1  0  0  0  0
 13 34  1  0  0  0  0
 14 15  1  0  0  0  0
 14 35  1  0  0  0  0
 14 36  1  0  0  0  0
 15 16  1  0  0  0  0
 15 37  1  0  0  0  0
 15 38  1  0  0  0  0
 16 17  1  0  0  0  0
 17 18  1  0  0  0  0
 17 39  1  0  0  0  0
 18 19  1  0  0  0  0
 18 20  1  0  0  0  0
 19 40  1  0  0  0  0
 19 41  1  0  0  0  0
 19 42  1  0  0  0  0
 20 43  1  0  0  0  0
 20 44  1  0  0  0  0
 20 45  1  0  0  0  0
 21 22  2  0  0  0  0
 21 46  1  0  0  0  0
M  END
> <s_m_source_file>
AV-unprocessed.smi

> <i_m_source_file_index>
2923

> <i_lp_mmshare_version>
43012

> <i_f3d_flags>
0

> <s_epik_input>
W0NIM11OKFtDSDNdKWMxW2NIXVtjSF1jKFtjSF1uMSlbTkhdQyg9TylbTkhdW0NASF0yQyhbQ0gzXSkoW0NIM10pW0NAQEhdKFtDQEhdMjMpT1tDSDJdW0NIMl0z

> <s_epik_cmdline>
J2VwaWtfcHl0aG9uJywgJy1waCcsICc3LjAnLCAnLXRuJywgJzgnLCAnLW1hJywgJzIwMCcsICctbWV0YWxfYmluZGluZycsICctaW1hZScsICc8aW5maWxlLm1hZT4nLCAnLW9tYWUnLCAnPG91dGZpbGUubWFlPic=

> <r_lp_tautomer_probability>
1

> <r_epik_Ionization_Penalty>
0.628785

> <r_epik_Ionization_Penalty_Charging>
0

> <r_epik_Ionization_Penalty_Neutral>
0.628785

> <r_epik_State_Penalty>
0.644286

> <r_epik_Charging_Adjusted_Penalty>
0.644286

> <i_epik_Tot_Q>
0

> <i_epik_Tot_abs_Q>
0

> <r_epik_Metal_State_Penalty>
0.308404

> <b_epik_Metal_Only>
0

> <s_lp_Force_Field>
OPLS_2005

> <r_lp_Energy>
44.9088

> <b_lp_Chiralities_Consistent>
1

> <s_lp_Variant>
AV-unprocessed.smi:2923-13

> <Gold.Version>
5.8.1

> <Gold.Id.Protein>
6NUR|6NUR_protein|mol2

> <Gold.PLP.Fitness>
39.1615

> <Gold.PLP.PLP>
-28.0098

> <Gold.PLP.part.hbond>
-3.0000

> <Gold.PLP.part.metal>
0.0000

> <Gold.PLP.part.buried>
-4.7527

> <Gold.PLP.part.nonpolar>
-21.0816

> <Gold.PLP.part.repulsive>
0.3124

> <Gold.PLP.ligand.clash>
0.0000

> <Gold.PLP.ligand.torsion>
0.5475

> <Gold.PLP.Chemscore.Hbond>
2.9500

> <Gold.PLP.Chemscore.CHOScore>
1.0000

> <Gold.PLP.Chemscore.Metal>
0.0000

> <Gold.Chemscore.Hbonds>
donor molecule, donor type, donor heavy atom, donor atom, acceptor molecule, acceptor atom, score
      L1  H     8    31       P1  7948  1.00
      L1  H    11    32       P1  7948  1.00
      P1  H  7989  7998       L1    22  0.90
      L1  C    21    46       P1  7957  1.00

> <Gold.PLP.Chemscore.Internal.Correction>
0.3967

> <Gold.Rescore>
     Score         DG    S(hbond)    S(metal)    S(lipo)     H(rot)  DE(clash)    DE(int)     intcor
     16.97     -18.62       2.71        0.00      60.96       1.19       0.01       1.63       ----

> <Gold.Chemscore.Fitness>
16.9744

> <Gold.Chemscore.DG>
-18.6239

> <Gold.Chemscore.ZeroCoef>
-5.4800

> <Gold.Chemscore.Hbond>
2.7149

> <Gold.Chemscore.Metal>
0.0000

> <Gold.Chemscore.Lipo>
60.9559

> <Gold.Chemscore.Internal_Hbond>
0.0000

> <Gold.Chemscore.DEClash>
0.0149

> <Gold.Chemscore.DEInternal>
1.6346

> <Gold.Chemscore.Rot>
1.1937

> <Gold.Chemscore.Internal.Correction>
   9.000000E+99

> <Gold.Chemscore.Hbonds>
donor molecule, donor type, donor heavy atom, donor atom, acceptor molecule, acceptor atom, score
      L1  H     8    31       P1  7948  0.98
      L1  H    11    32       P1  7948  0.94
      P1  H  7989  7998       L1    22  0.18

> <Gold.Chemscore.Hbond.Weighted>
-9.0679

> <Gold.Chemscore.Metal.Weighted>
-0.0000

> <Gold.Chemscore.Lipo.Weighted>
-7.1318

> <Gold.Chemscore.Internal_Hbond.Weighted>
0.0000

> <Gold.Chemscore.DEClash.Weighted>
0.0149

> <Gold.Chemscore.DEInternal.Weighted>
1.6346

> <Gold.Chemscore.Rot.Weighted>
3.0559

> <Gold.Chemscore.Internal.Correction.Weighted>
   9.000000E+99

> <Gold.Protein.RotatedTorsions>
[ 6907 6896 6895 6894 ] final  -31.18 input  -60.11 | X-H torsion
[ 7974 7965 7964 7962 ] final    1.48 input  175.53 | X-H torsion
[ 8008 7997 7996 7995 ] final  -43.85 input   59.86 | X-H torsion
[ 10167 10162 10161 10158 ] final   60.65 input  -65.29 | X-H torsion
[ 10718 10713 10712 10709 ] final  160.20 input   66.30 | X-H torsion
[ 10763 10752 10751 10750 ] final   63.36 input  -60.55 | X-H torsion
[ 11005 11000 10999 10996 ] final   90.08 input  -57.11 | X-H torsion

> <Gold.Protein.ActiveResidues>
 VAL166  LYS551  ARG553  GLY616  TRP617  ASP618  TYR619  PRO620  LYS621  CYS622 
 ASP623  PHE694  ASN695  SER759  ASP760  ASP761  ALA762  ILE779  LEU786  VAL792 
 PHE793  MET794  SER795  GLU796  ALA797  LYS798  CYS799  TRP800  GLU811  SER814 

> <Gold.Protein.RotatedAtoms>
  151.0955  134.9942  159.8423 H   0  0  0  0  0  0  0  0  0  0  0  0  # atno 6907 bound_to 6896
  152.5433  134.2013  159.8723 H   0  0  0  0  0  0  0  0  0  0  0  0  # atno 6908 bound_to 6896
  151.2052  133.4543  159.2630 H   0  0  0  0  0  0  0  0  0  0  0  0  # atno 6909 bound_to 6896
  146.2440  140.0981  142.8349 H   0  0  0  0  0  0  0  0  0  0  0  0  # atno 7974 bound_to 7965
  154.3997  140.1437  156.3587 H   0  0  0  0  0  0  0  0  0  0  0  0  # atno 8008 bound_to 7997
  155.8201  140.3469  155.5488 H   0  0  0  0  0  0  0  0  0  0  0  0  # atno 8009 bound_to 7997
  155.8296  140.0910  157.1791 H   0  0  0  0  0  0  0  0  0  0  0  0  # atno 8010 bound_to 7997
  140.1633  144.4349  150.6698 H   0  0  0  0  0  0  0  0  0  0  0  0  # atno 10167 bound_to 10162
  157.1537  131.0570  151.2267 H   0  0  0  0  0  0  0  0  0  0  0  0  # atno 10718 bound_to 10713
  153.0015  135.5432  154.6340 H   0  0  0  0  0  0  0  0  0  0  0  0  # atno 10763 bound_to 10752
  154.5611  135.2834  155.0921 H   0  0  0  0  0  0  0  0  0  0  0  0  # atno 10764 bound_to 10752
  154.2123  135.6465  153.5171 H   0  0  0  0  0  0  0  0  0  0  0  0  # atno 10765 bound_to 10752
  139.8863  134.8591  156.3234 H   0  0  0  0  0  0  0  0  0  0  0  0  # atno 11005 bound_to 11000
  145.0592  140.9075  143.4948 LP  0  0  0  0  0  0  0  0  0  0  0  0  # atno 17320 bound_to 7965
  145.1093  139.2768  143.5646 LP  0  0  0  0  0  0  0  0  0  0  0  0  # atno 17321 bound_to 7965
  140.6629  143.2258  151.5813 LP  0  0  0  0  0  0  0  0  0  0  0  0  # atno 17342 bound_to 10162
  139.5371  144.2750  152.1274 LP  0  0  0  0  0  0  0  0  0  0  0  0  # atno 17343 bound_to 10162
  157.4197  130.7431  149.6903 LP  0  0  0  0  0  0  0  0  0  0  0  0  # atno 17370 bound_to 10713
  155.9766  130.4073  150.3769 LP  0  0  0  0  0  0  0  0  0  0  0  0  # atno 17371 bound_to 10713
  140.9772  133.7290  156.0619 LP  0  0  0  0  0  0  0  0  0  0  0  0  # atno 17394 bound_to 11000
  140.7796  134.3740  157.5490 LP  0  0  0  0  0  0  0  0  0  0  0  0  # atno 17395 bound_to 11000

$$$$
