AV-unprocessed.smi:3155|AV-procd|sdf|12025|dock7
  -GOLD-   2272017443D 1   1.00000     0.00000
 Structure written by MMmdl.
 38 39  0  0  0  0  0  0  0  0  2 V2000
  146.8461  139.1638  151.4163 C   0  0  0  0  0  0  0  0  0  0  0  0
  146.1805  138.1109  152.3191 C   0  0  2  0  0  0  0  0  0  0  0  0
  146.7666  138.1023  153.7511 C   0  0  0  0  0  0  0  0  0  0  0  0
  147.3566  139.3723  154.1342 N   0  0  0  0  0  0  0  0  0  0  0  0
  146.8011  140.6329  154.0661 C   0  0  0  0  0  0  0  0  0  0  0  0
  147.7366  141.5135  154.5285 C   0  0  0  0  0  0  0  0  0  0  0  0
  148.8494  140.6875  154.8504 C   0  0  0  0  0  0  0  0  0  0  0  0
  148.6201  139.4065  154.6094 N   0  0  0  0  0  0  0  0  0  0  0  0
  146.3005  136.7807  151.6815 N   0  3  0  0  0  0  0  0  0  0  0  0
  145.4606  135.7109  152.2645 C   0  0  0  0  0  0  0  0  0  0  0  0
  146.0487  134.3136  152.0189 C   0  0  0  0  0  0  0  0  0  0  0  0
  147.0721  133.9703  152.6128 O   0  0  0  0  0  0  0  0  0  0  0  0
  145.4180  133.4995  151.1476 N   0  0  0  0  0  0  0  0  0  0  0  0
  145.8618  132.1401  150.8443 C   0  0  0  0  0  0  0  0  0  0  0  0
  144.7258  131.5044  150.0427 C   0  0  0  0  0  0  0  0  0  0  0  0
  144.0221  132.6878  149.3928 C   0  0  0  0  0  0  0  0  0  0  0  0
  144.2117  133.8312  150.3899 C   0  0  0  0  0  0  0  0  0  0  0  0
  146.6934  140.1750  151.7943 H   0  0  0  0  0  0  0  0  0  0  0  0
  146.4318  139.1335  150.4078 H   0  0  0  0  0  0  0  0  0  0  0  0
  147.9209  138.9957  151.3394 H   0  0  0  0  0  0  0  0  0  0  0  0
  145.1187  138.3563  152.3738 H   0  0  0  0  0  0  0  0  0  0  0  0
  145.9988  137.8623  154.4866 H   0  0  0  0  0  0  0  0  0  0  0  0
  147.5329  137.3308  153.8377 H   0  0  0  0  0  0  0  0  0  0  0  0
  145.7975  140.7972  153.7019 H   0  0  0  0  0  0  0  0  0  0  0  0
  147.6425  142.5853  154.6202 H   0  0  0  0  0  0  0  0  0  0  0  0
  149.8105  140.9792  155.2477 H   0  0  0  0  0  0  0  0  0  0  0  0
  146.0234  136.8785  150.7150 H   0  0  0  0  0  0  0  0  0  0  0  0
  145.3631  135.8712  153.3378 H   0  0  0  0  0  0  0  0  0  0  0  0
  144.4625  135.7565  151.8273 H   0  0  0  0  0  0  0  0  0  0  0  0
  146.7728  132.1884  150.2459 H   0  0  0  0  0  0  0  0  0  0  0  0
  146.0785  131.5658  151.7466 H   0  0  0  0  0  0  0  0  0  0  0  0
  145.0782  130.7701  149.3178 H   0  0  0  0  0  0  0  0  0  0  0  0
  144.0377  130.9992  150.7220 H   0  0  0  0  0  0  0  0  0  0  0  0
  144.5183  132.9360  148.4536 H   0  0  0  0  0  0  0  0  0  0  0  0
  142.9728  132.4876  149.1734 H   0  0  0  0  0  0  0  0  0  0  0  0
  143.3629  133.8830  151.0730 H   0  0  0  0  0  0  0  0  0  0  0  0
  144.2960  134.7891  149.8749 H   0  0  0  0  0  0  0  0  0  0  0  0
  147.2674  136.4888  151.7037 H   0  0  0  0  0  0  0  0  0  0  0  0
  1  2  1  0  0  0  0
  1 18  1  0  0  0  0
  1 19  1  0  0  0  0
  1 20  1  0  0  0  0
  2  3  1  0  0  0  0
  2  9  1  0  0  0  0
  2 21  1  0  0  0  0
  3  4  1  0  0  0  0
  3 22  1  0  0  0  0
  3 23  1  0  0  0  0
  4  8  1  0  0  0  0
  4  5  1  0  0  0  0
  5  6  2  0  0  0  0
  5 24  1  0  0  0  0
  6  7  1  0  0  0  0
  6 25  1  0  0  0  0
  7  8  2  0  0  0  0
  7 26  1  0  0  0  0
  9 10  1  0  0  0  0
  9 27  1  0  0  0  0
  9 38  1  0  0  0  0
 10 11  1  0  0  0  0
 10 28  1  0  0  0  0
 10 29  1  0  0  0  0
 11 12  2  0  0  0  0
 11 13  1  0  0  0  0
 13 17  1  0  0  0  0
 13 14  1  0  0  0  0
 14 15  1  0  0  0  0
 14 30  1  0  0  0  0
 14 31  1  0  0  0  0
 15 16  1  0  0  0  0
 15 32  1  0  0  0  0
 15 33  1  0  0  0  0
 16 17  1  0  0  0  0
 16 34  1  0  0  0  0
 16 35  1  0  0  0  0
 17 36  1  0  0  0  0
 17 37  1  0  0  0  0
M  CHG  1   9   1
M  END
> <s_m_source_file>
AV-unprocessed.smi

> <i_m_source_file_index>
3155

> <i_lp_mmshare_version>
43012

> <i_f3d_flags>
0

> <s_epik_input>
bjFbY0hdW2NIXVtjSF1uMVtDSDJdW0NAQEhdKFtDSDNdKVtOSF1bQ0gyXUMoPU8pTjJbQ0gyXVtDSDJdW0NIMl1bQ0gyXTI=

> <s_epik_cmdline>
J2VwaWtfcHl0aG9uJywgJy1waCcsICc3LjAnLCAnLXRuJywgJzgnLCAnLW1hJywgJzIwMCcsICctbWV0YWxfYmluZGluZycsICctaW1hZScsICc8aW5maWxlLm1hZT4nLCAnLW9tYWUnLCAnPG91dGZpbGUubWFlPic=

> <r_lp_tautomer_probability>
1

> <r_epik_Ionization_Penalty>
0.120138

> <r_epik_Ionization_Penalty_Charging>
0.120135

> <r_epik_Ionization_Penalty_Neutral>
3.43791e-06

> <r_epik_State_Penalty>
0.109683

> <r_epik_Charging_Adjusted_Penalty>
0.229818

> <i_epik_Tot_Q>
1

> <i_epik_Tot_abs_Q>
1

> <r_epik_Metal_State_Penalty>
0.109693

> <b_epik_Metal_Only>
0

> <s_lp_Force_Field>
OPLS_2005

> <r_lp_Energy>
27.5308

> <b_lp_Chiralities_Consistent>
1

> <s_lp_Variant>
AV-unprocessed.smi:3155-1

> <Gold.Version>
5.8.1

> <Gold.Id.Protein>
6NUR|6NUR_protein|mol2

> <Gold.PLP.Fitness>
41.1470

> <Gold.PLP.PLP>
-33.7557

> <Gold.PLP.part.hbond>
-1.0000

> <Gold.PLP.part.metal>
0.0000

> <Gold.PLP.part.buried>
-3.5438

> <Gold.PLP.part.nonpolar>
-30.7919

> <Gold.PLP.part.repulsive>
1.0988

> <Gold.PLP.ligand.clash>
0.0000

> <Gold.PLP.ligand.torsion>
0.8161

> <Gold.PLP.Chemscore.Hbond>
2.0000

> <Gold.PLP.Chemscore.CHOScore>
1.0000

> <Gold.PLP.Chemscore.Metal>
0.0000

> <Gold.Chemscore.Hbonds>
donor molecule, donor type, donor heavy atom, donor atom, acceptor molecule, acceptor atom, score
      L1  H     9    38       P1  7948  2.00
      L1  C     5    24       P1 10175  1.00

> <Gold.PLP.Chemscore.Internal.Correction>
0.0236

> <Gold.Rescore>
     Score         DG    S(hbond)    S(metal)    S(lipo)     H(rot)  DE(clash)    DE(int)     intcor
     12.58     -13.22       1.00        0.00      77.80       1.84       0.05       0.59       ----

> <Gold.Chemscore.Fitness>
12.5790

> <Gold.Chemscore.DG>
-13.2187

> <Gold.Chemscore.ZeroCoef>
-5.4800

> <Gold.Chemscore.Hbond>
0.9994

> <Gold.Chemscore.Metal>
0.0000

> <Gold.Chemscore.Lipo>
77.7973

> <Gold.Chemscore.Internal_Hbond>
0.0000

> <Gold.Chemscore.DEClash>
0.0492

> <Gold.Chemscore.DEInternal>
0.5905

> <Gold.Chemscore.Rot>
1.8366

> <Gold.Chemscore.Internal.Correction>
   9.000000E+99

> <Gold.Chemscore.Hbonds>
donor molecule, donor type, donor heavy atom, donor atom, acceptor molecule, acceptor atom, score
      L1  H     9    38       P1  7948  1.00

> <Gold.Chemscore.Hbond.Weighted>
-3.3381

> <Gold.Chemscore.Metal.Weighted>
-0.0000

> <Gold.Chemscore.Lipo.Weighted>
-9.1023

> <Gold.Chemscore.Internal_Hbond.Weighted>
0.0000

> <Gold.Chemscore.DEClash.Weighted>
0.0492

> <Gold.Chemscore.DEInternal.Weighted>
0.5905

> <Gold.Chemscore.Rot.Weighted>
4.7017

> <Gold.Chemscore.Internal.Correction.Weighted>
   9.000000E+99

> <Gold.Protein.RotatedTorsions>
[ 6907 6896 6895 6894 ] final  124.86 input  -60.11 | X-H torsion
[ 7974 7965 7964 7962 ] final  -24.79 input  175.53 | X-H torsion
[ 8008 7997 7996 7995 ] final -130.01 input   59.86 | X-H torsion
[ 10167 10162 10161 10158 ] final  -98.01 input  -65.29 | X-H torsion
[ 10718 10713 10712 10709 ] final   55.30 input   66.30 | X-H torsion
[ 10763 10752 10751 10750 ] final  -13.26 input  -60.55 | X-H torsion
[ 11005 11000 10999 10996 ] final -126.24 input  -57.11 | X-H torsion

> <Gold.Protein.ActiveResidues>
 VAL166  LYS551  ARG553  GLY616  TRP617  ASP618  TYR619  PRO620  LYS621  CYS622 
 ASP623  PHE694  ASN695  SER759  ASP760  ASP761  ALA762  ILE779  LEU786  VAL792 
 PHE793  MET794  SER795  GLU796  ALA797  LYS798  CYS799  TRP800  GLU811  SER814 

> <Gold.Protein.RotatedAtoms>
  152.4042  133.6863  159.6341 H   0  0  0  0  0  0  0  0  0  0  0  0  # atno 6907 bound_to 6896
  150.7929  133.8738  159.3275 H   0  0  0  0  0  0  0  0  0  0  0  0  # atno 6908 bound_to 6896
  151.6497  135.1005  160.0209 H   0  0  0  0  0  0  0  0  0  0  0  0  # atno 6909 bound_to 6896
  146.1532  140.4799  142.8602 H   0  0  0  0  0  0  0  0  0  0  0  0  # atno 7974 bound_to 7965
  155.2887  140.0447  157.3021 H   0  0  0  0  0  0  0  0  0  0  0  0  # atno 8008 bound_to 7997
  154.5554  140.2330  155.8387 H   0  0  0  0  0  0  0  0  0  0  0  0  # atno 8009 bound_to 7997
  156.2002  140.3027  155.9518 H   0  0  0  0  0  0  0  0  0  0  0  0  # atno 8010 bound_to 7997
  140.2774  143.3304  152.0475 H   0  0  0  0  0  0  0  0  0  0  0  0  # atno 10167 bound_to 10162
  157.5333  130.8645  149.8717 H   0  0  0  0  0  0  0  0  0  0  0  0  # atno 10718 bound_to 10713
  153.5107  135.7016  153.5782 H   0  0  0  0  0  0  0  0  0  0  0  0  # atno 10763 bound_to 10752
  153.3874  135.3904  155.1899 H   0  0  0  0  0  0  0  0  0  0  0  0  # atno 10764 bound_to 10752
  154.8703  135.3850  154.4587 H   0  0  0  0  0  0  0  0  0  0  0  0  # atno 10765 bound_to 10752
  140.9697  134.0822  157.3882 H   0  0  0  0  0  0  0  0  0  0  0  0  # atno 11005 bound_to 11000
  144.7930  140.6069  143.6529 LP  0  0  0  0  0  0  0  0  0  0  0  0  # atno 17320 bound_to 7965
  145.4772  139.1498  143.3782 LP  0  0  0  0  0  0  0  0  0  0  0  0  # atno 17321 bound_to 7965
  139.4972  144.6615  151.6454 LP  0  0  0  0  0  0  0  0  0  0  0  0  # atno 17342 bound_to 10162
  140.5840  143.9897  150.6284 LP  0  0  0  0  0  0  0  0  0  0  0  0  # atno 17343 bound_to 10162
  156.0439  130.3732  150.1367 LP  0  0  0  0  0  0  0  0  0  0  0  0  # atno 17370 bound_to 10713
  156.9550  130.9787  151.3490 LP  0  0  0  0  0  0  0  0  0  0  0  0  # atno 17371 bound_to 10713
  139.8907  135.0114  156.6754 LP  0  0  0  0  0  0  0  0  0  0  0  0  # atno 17394 bound_to 11000
  140.7347  133.9029  155.8235 LP  0  0  0  0  0  0  0  0  0  0  0  0  # atno 17395 bound_to 11000

$$$$
