AV-unprocessed.smi:3057|AV-procd|sdf|11662|dock2
  -GOLD-   2272017 63D 1   1.00000     0.00000
 Structure written by MMmdl.
 40 42  0  0  0  0  0  0  0  0  1 V2000
  145.2566  133.8334  162.1008 C   0  0  0  0  0  0  0  0  0  0  0  0
  146.7653  133.9551  161.8019 C   0  0  2  0  0  0  0  0  0  0  0  0
  147.5440  134.4202  163.0429 C   0  0  0  0  0  0  0  0  0  0  0  0
  147.5655  135.9514  162.9153 C   0  0  0  0  0  0  0  0  0  0  0  0
  147.3833  136.1598  161.4187 C   0  0  0  0  0  0  0  0  0  0  0  0
  147.6067  137.2303  160.8554 O   0  0  0  0  0  0  0  0  0  0  0  0
  147.0185  135.0071  160.8350 N   0  0  0  0  0  0  0  0  0  0  0  0
  147.0681  134.6106  159.4192 C   0  0  1  0  0  0  0  0  0  0  0  0
  148.3696  135.0228  158.7056 C   0  0  0  0  0  0  0  0  0  0  0  0
  149.1207  134.1682  158.2337 O   0  0  0  0  0  0  0  0  0  0  0  0
  148.6073  136.3388  158.6116 N   0  0  0  0  0  0  0  0  0  0  0  0
  149.7745  136.9183  157.9620 C   0  0  0  0  0  0  0  0  0  0  0  0
  149.7516  138.4491  158.0738 C   0  0  0  0  0  0  0  0  0  0  0  0
  149.6192  139.1225  156.7209 C   0  0  0  0  0  0  0  0  0  0  0  0
  149.5832  138.3568  155.5358 C   0  0  0  0  0  0  0  0  0  0  0  0
  149.4671  139.0312  154.3047 C   0  0  0  0  0  0  0  0  0  0  0  0
  149.3935  140.4375  154.3060 C   0  0  0  0  0  0  0  0  0  0  0  0
  149.4396  141.1099  155.5436 C   0  0  0  0  0  0  0  0  0  0  0  0
  149.5507  140.4729  156.7294 N   0  0  0  0  0  0  0  0  0  0  0  0
  146.8542  133.0814  159.3824 C   0  0  0  0  0  0  0  0  0  0  0  0
  147.3979  132.4674  161.0001 S   0  0  0  0  0  0  0  0  0  0  0  0
  144.8582  134.7519  162.5328 H   0  0  0  0  0  0  0  0  0  0  0  0
  145.0650  133.0283  162.8105 H   0  0  0  0  0  0  0  0  0  0  0  0
  144.6782  133.6216  161.2018 H   0  0  0  0  0  0  0  0  0  0  0  0
  147.0899  134.0854  163.9763 H   0  0  0  0  0  0  0  0  0  0  0  0
  148.5661  134.0389  163.0197 H   0  0  0  0  0  0  0  0  0  0  0  0
  146.7318  136.4094  163.4484 H   0  0  0  0  0  0  0  0  0  0  0  0
  148.4986  136.3842  163.2767 H   0  0  0  0  0  0  0  0  0  0  0  0
  146.2323  135.0954  158.9119 H   0  0  0  0  0  0  0  0  0  0  0  0
  147.9407  136.9780  159.0198 H   0  0  0  0  0  0  0  0  0  0  0  0
  150.6800  136.5201  158.4233 H   0  0  0  0  0  0  0  0  0  0  0  0
  149.7880  136.6210  156.9121 H   0  0  0  0  0  0  0  0  0  0  0  0
  148.9251  138.7647  158.7124 H   0  0  0  0  0  0  0  0  0  0  0  0
  150.6640  138.8024  158.5569 H   0  0  0  0  0  0  0  0  0  0  0  0
  149.6454  137.2789  155.5669 H   0  0  0  0  0  0  0  0  0  0  0  0
  149.4365  138.4796  153.3768 H   0  0  0  0  0  0  0  0  0  0  0  0
  149.3045  140.9878  153.3810 H   0  0  0  0  0  0  0  0  0  0  0  0
  149.3865  142.1879  155.5821 H   0  0  0  0  0  0  0  0  0  0  0  0
  145.7959  132.8505  159.2588 H   0  0  0  0  0  0  0  0  0  0  0  0
  147.3927  132.5840  158.5746 H   0  0  0  0  0  0  0  0  0  0  0  0
  1  2  1  0  0  0  0
  1 22  1  0  0  0  0
  1 23  1  0  0  0  0
  1 24  1  0  0  0  0
  2  7  1  0  0  0  0
  2 21  1  0  0  0  0
  2  3  1  0  0  0  0
  3  4  1  0  0  0  0
  3 25  1  0  0  0  0
  3 26  1  0  0  0  0
  4  5  1  0  0  0  0
  4 27  1  0  0  0  0
  4 28  1  0  0  0  0
  5  6  2  0  0  0  0
  5  7  1  0  0  0  0
  7  8  1  0  0  0  0
  8  9  1  0  0  0  0
  8 20  1  0  0  0  0
  8 29  1  0  0  0  0
  9 10  2  0  0  0  0
  9 11  1  0  0  0  0
 11 12  1  0  0  0  0
 11 30  1  0  0  0  0
 12 13  1  0  0  0  0
 12 31  1  0  0  0  0
 12 32  1  0  0  0  0
 13 14  1  0  0  0  0
 13 33  1  0  0  0  0
 13 34  1  0  0  0  0
 14 19  1  0  0  0  0
 14 15  2  0  0  0  0
 15 16  1  0  0  0  0
 15 35  1  0  0  0  0
 16 17  2  0  0  0  0
 16 36  1  0  0  0  0
 17 18  1  0  0  0  0
 17 37  1  0  0  0  0
 18 19  2  0  0  0  0
 18 38  1  0  0  0  0
 20 21  1  0  0  0  0
 20 39  1  0  0  0  0
 20 40  1  0  0  0  0
M  END
> <s_m_source_file>
AV-unprocessed.smi

> <i_m_source_file_index>
3057

> <i_lp_mmshare_version>
43012

> <i_f3d_flags>
0

> <s_epik_input>
W0NIMl0xW0NIMl1DKD1PKU4oW0NAQF0xMltDSDNdKVtDQEhdKFtDSDJdUzIpQyg9TylbTkhdW0NIMl1bQ0gyXWMzW2NIXVtjSF1bY0hdW2NIXW4z

> <s_epik_cmdline>
J2VwaWtfcHl0aG9uJywgJy1waCcsICc3LjAnLCAnLXRuJywgJzgnLCAnLW1hJywgJzIwMCcsICctbWV0YWxfYmluZGluZycsICctaW1hZScsICc8aW5maWxlLm1hZT4nLCAnLW9tYWUnLCAnPG91dGZpbGUubWFlPic=

> <r_epik_Ionization_Penalty>
0.0249631

> <r_epik_Ionization_Penalty_Charging>
0

> <r_epik_Ionization_Penalty_Neutral>
0.0249631

> <r_epik_State_Penalty>
0.0202943

> <r_epik_Charging_Adjusted_Penalty>
0.0202943

> <i_epik_Tot_Q>
0

> <i_epik_Tot_abs_Q>
0

> <r_epik_Metal_State_Penalty>
0.0194661

> <b_epik_Metal_Only>
0

> <s_lp_Force_Field>
OPLS_2005

> <r_lp_Energy>
25.2027

> <b_lp_Chiralities_Consistent>
1

> <s_lp_Variant>
AV-unprocessed.smi:3057-2

> <Gold.Version>
5.8.1

> <Gold.Id.Protein>
6NUR|6NUR_protein|mol2

> <Gold.PLP.Fitness>
44.3283

> <Gold.PLP.PLP>
-33.8747

> <Gold.PLP.part.hbond>
-3.0000

> <Gold.PLP.part.metal>
0.0000

> <Gold.PLP.part.buried>
-2.1276

> <Gold.PLP.part.nonpolar>
-29.3523

> <Gold.PLP.part.repulsive>
0.1560

> <Gold.PLP.ligand.clash>
0.0000

> <Gold.PLP.ligand.torsion>
0.3931

> <Gold.PLP.Chemscore.Hbond>
2.7440

> <Gold.PLP.Chemscore.CHOScore>
1.0000

> <Gold.PLP.Chemscore.Metal>
0.0000

> <Gold.Chemscore.Hbonds>
donor molecule, donor type, donor heavy atom, donor atom, acceptor molecule, acceptor atom, score
      P1  H  6896  6907       L1    10  1.00
      P1  H  6931  6943       L1     6  0.80
      P1  H  6934  6947       L1     6  0.96
      L1  C    18    38       P1  8028  0.88

> <Gold.PLP.Chemscore.Internal.Correction>
0.0079

> <Gold.Rescore>
     Score         DG    S(hbond)    S(metal)    S(lipo)     H(rot)  DE(clash)    DE(int)     intcor
     19.12     -19.74       2.76        0.00      76.54       1.53       0.06       0.56       ----

> <Gold.Chemscore.Fitness>
19.1158

> <Gold.Chemscore.DG>
-19.7371

> <Gold.Chemscore.ZeroCoef>
-5.4800

> <Gold.Chemscore.Hbond>
2.7630

> <Gold.Chemscore.Metal>
0.0000

> <Gold.Chemscore.Lipo>
76.5436

> <Gold.Chemscore.Internal_Hbond>
0.0000

> <Gold.Chemscore.DEClash>
0.0618

> <Gold.Chemscore.DEInternal>
0.5596

> <Gold.Chemscore.Rot>
1.5339

> <Gold.Chemscore.Internal.Correction>
   9.000000E+99

> <Gold.Chemscore.Hbonds>
donor molecule, donor type, donor heavy atom, donor atom, acceptor molecule, acceptor atom, score
      P1  H  6896  6907       L1    10  0.84
      P1  H  6931  6943       L1     6  0.55
      P1  H  6934  6947       L1     6  0.92

> <Gold.Chemscore.Hbond.Weighted>
-9.2283

> <Gold.Chemscore.Metal.Weighted>
-0.0000

> <Gold.Chemscore.Lipo.Weighted>
-8.9556

> <Gold.Chemscore.Internal_Hbond.Weighted>
0.0000

> <Gold.Chemscore.DEClash.Weighted>
0.0618

> <Gold.Chemscore.DEInternal.Weighted>
0.5596

> <Gold.Chemscore.Rot.Weighted>
3.9267

> <Gold.Chemscore.Internal.Correction.Weighted>
   9.000000E+99

> <Gold.Protein.RotatedTorsions>
[ 6907 6896 6895 6894 ] final -113.86 input  -60.11 | X-H torsion
[ 7974 7965 7964 7962 ] final   94.47 input  175.53 | X-H torsion
[ 8008 7997 7996 7995 ] final -124.26 input   59.86 | X-H torsion
[ 10167 10162 10161 10158 ] final -168.43 input  -65.29 | X-H torsion
[ 10718 10713 10712 10709 ] final   78.18 input   66.30 | X-H torsion
[ 10763 10752 10751 10750 ] final  -89.42 input  -60.55 | X-H torsion
[ 11005 11000 10999 10996 ] final  102.87 input  -57.11 | X-H torsion

> <Gold.Protein.ActiveResidues>
 VAL166  LYS551  ARG553  GLY616  TRP617  ASP618  TYR619  PRO620  LYS621  CYS622 
 ASP623  PHE694  ASN695  SER759  ASP760  ASP761  ALA762  ILE779  LEU786  VAL792 
 PHE793  MET794  SER795  GLU796  ALA797  LYS798  CYS799  TRP800  GLU811  SER814 

> <Gold.Protein.RotatedAtoms>
  150.7859  133.8884  159.3306 H   0  0  0  0  0  0  0  0  0  0  0  0  # atno 6907 bound_to 6896
  151.6735  135.0971  160.0212 H   0  0  0  0  0  0  0  0  0  0  0  0  # atno 6908 bound_to 6896
  152.3923  133.6658  159.6283 H   0  0  0  0  0  0  0  0  0  0  0  0  # atno 6909 bound_to 6896
  145.4651  139.2285  143.2966 H   0  0  0  0  0  0  0  0  0  0  0  0  # atno 7974 bound_to 7965
  155.1941  140.0414  157.2905 H   0  0  0  0  0  0  0  0  0  0  0  0  # atno 8008 bound_to 7997
  154.6119  140.2479  155.7630 H   0  0  0  0  0  0  0  0  0  0  0  0  # atno 8009 bound_to 7997
  156.2384  140.2913  156.0385 H   0  0  0  0  0  0  0  0  0  0  0  0  # atno 8010 bound_to 7997
  139.5986  144.1059  152.1717 H   0  0  0  0  0  0  0  0  0  0  0  0  # atno 10167 bound_to 10162
  157.6736  130.9856  150.1749 H   0  0  0  0  0  0  0  0  0  0  0  0  # atno 10718 bound_to 10713
  154.6550  135.5341  153.7948 H   0  0  0  0  0  0  0  0  0  0  0  0  # atno 10763 bound_to 10752
  153.0408  135.6492  154.0958 H   0  0  0  0  0  0  0  0  0  0  0  0  # atno 10764 bound_to 10752
  154.0872  135.2942  155.3258 H   0  0  0  0  0  0  0  0  0  0  0  0  # atno 10765 bound_to 10752
  139.8780  134.9241  156.5123 H   0  0  0  0  0  0  0  0  0  0  0  0  # atno 11005 bound_to 11000
  146.2429  140.5424  142.8926 LP  0  0  0  0  0  0  0  0  0  0  0  0  # atno 17320 bound_to 7965
  144.7979  140.6157  143.6498 LP  0  0  0  0  0  0  0  0  0  0  0  0  # atno 17321 bound_to 7965
  140.0650  144.5826  150.7234 LP  0  0  0  0  0  0  0  0  0  0  0  0  # atno 17342 bound_to 10162
  140.7231  143.2609  151.4210 LP  0  0  0  0  0  0  0  0  0  0  0  0  # atno 17343 bound_to 10162
  156.2494  130.3699  149.8248 LP  0  0  0  0  0  0  0  0  0  0  0  0  # atno 17370 bound_to 10713
  156.6025  130.8553  151.3435 LP  0  0  0  0  0  0  0  0  0  0  0  0  # atno 17371 bound_to 10713
  140.8511  133.8131  155.9170 LP  0  0  0  0  0  0  0  0  0  0  0  0  # atno 17394 bound_to 11000
  140.9143  134.2221  157.4966 LP  0  0  0  0  0  0  0  0  0  0  0  0  # atno 17395 bound_to 11000

$$$$
