#       Name:                AV-unprocessed.smi:3115
#       Creating user name   scv26
#       Creation time:       Fri Mar 27 17:24:23 2020


#       File generated by GOLD software.
#

@<TRIPOS>MOLECULE
AV-unprocessed.smi:3115
    37    38     1
SMALL
NO_CHARGES


@<TRIPOS>ATOM
      1 ****        -3.5090  -1.0271  -2.2852 C.3            1 S1                 0.0000
      2 ****        -2.8807  -0.3300  -1.0739 C.3            1 S1                 0.0000
      3 ****        -1.3433  -0.2785  -1.1687 C.3            1 S1                 0.0000
      4 ****        -0.7966   0.4747  -0.0472 N.3            1 S1                 0.0000
      5 ****         0.6045   0.4588  -0.0008 C.ar           1 S1                 0.0000
      6 ****         1.2451  -0.2222   1.0556 C.ar           1 S1                 0.0000
      7 ****         2.6544  -0.2447   1.0941 C.ar           1 S1                 0.0000
      8 ****         3.3849  -0.9653   2.2090 C.3            1 S1                 0.0000
      9 ****         3.1841  -2.4003   2.1697 N.3            1 S1                 0.0000
     10 ****         3.3685   0.4157   0.0744 C.ar           1 S1                 0.0000
     11 ****         2.6391   1.0694  -0.9379 C.ar           1 S1                 0.0000
     12 ****         1.2900   1.0951  -0.9812 N.ar           1 S1                 0.0000
     13 ****        -1.3733   1.8087   0.0603 C.3            1 S1                 0.0000
     14 ****        -2.9065   1.7113   0.1284 C.3            1 S1                 0.0000
     15 ****        -3.3896   1.0007  -1.0084 O.3            1 S1                 0.0000
     16 ****        -3.1572  -2.0553  -2.3721 H              1 S1                 0.0000
     17 ****        -3.2601  -0.5085  -3.2115 H              1 S1                 0.0000
     18 ****        -4.5956  -1.0535  -2.1995 H              1 S1                 0.0000
     19 ****        -3.1747  -0.8686  -0.1712 H              1 S1                 0.0000
     20 ****        -0.9323  -1.2889  -1.1667 H              1 S1                 0.0000
     21 ****        -1.0427   0.1904  -2.1070 H              1 S1                 0.0000
     22 ****         0.6675  -0.7208   1.8206 H              1 S1                 0.0000
     23 ****         4.4535  -0.7555   2.1535 H              1 S1                 0.0000
     24 ****         3.0348  -0.5842   3.1686 H              1 S1                 0.0000
     25 ****         4.0794  -2.8606   2.0886 H              1 S1                 0.0000
     26 ****         2.7912  -2.7068   3.0483 H              1 S1                 0.0000
     27 ****         4.4485   0.4226   0.0637 H              1 S1                 0.0000
     28 ****         3.1535   1.5852  -1.7352 H              1 S1                 0.0000
     29 ****        -0.9881   2.3077   0.9503 H              1 S1                 0.0000
     30 ****        -1.0796   2.4104  -0.8011 H              1 S1                 0.0000
     31 ****        -3.2246   1.2121   1.0452 H              1 S1                 0.0000
     32 ****        -3.3466   2.7084   0.1386 H              1 S1                 0.0000
     33 ****        -1.0819  -0.0089   0.7802 LP             1 S1                 0.0000
     34 ****         2.5844  -2.6179   1.3996 LP             1 S1                 0.0000
     35 ****         0.8093   1.5712  -1.7175 LP             1 S1                 0.0000
     36 ****        -4.3877   0.9610  -0.9621 LP             1 S1                 0.0000
     37 ****        -3.1135   1.4912  -1.8350 LP             1 S1                 0.0000
@<TRIPOS>BOND
    1    1    2 1     
    2    1   16 1     
    3    1   17 1     
    4    1   18 1     
    5    2   15 1     
    6    2    3 1     
    7    2   19 1     
    8    3    4 1     
    9    3   20 1     
   10    3   21 1     
   11    4    5 1     
   12    4   13 1     
   13    5   12 ar    
   14    5    6 ar    
   15    6    7 ar    
   16    6   22 1     
   17    7    8 1     
   18    7   10 ar    
   19    8    9 1     
   20    8   23 1     
   21    8   24 1     
   22    9   25 1     
   23    9   26 1     
   24   10   11 ar    
   25   10   27 1     
   26   11   12 ar    
   27   11   28 1     
   28   13   14 1     
   29   13   29 1     
   30   13   30 1     
   31   14   15 1     
   32   14   31 1     
   33   14   32 1     
   34    4   33 1     
   35    9   34 1     
   36   12   35 1     
   37   15   36 1     
   38   15   37 1     
@<TRIPOS>SUBSTRUCTURE
      1 S1             1
@<TRIPOS>SET
LONE_PAIRS      STATIC     ATOMS    <user>   **** ""
5 33 34 35 36 37
DONOR_HYDROGENS      STATIC     ATOMS    <user>   **** ""
2 25 26
ATOM$BLUE        STATIC     ATOMS    COLORGROUP SYSTEM
5 33 34 35 36 37
ATOM$RED        STATIC     ATOMS    COLORGROUP SYSTEM
2 25 26
