#       Name:                AV-unprocessed.smi:1744
#       Creating user name   scv26
#       Creation time:       Fri Mar 27 08:24:15 2020


#       File generated by GOLD software.
#

@<TRIPOS>MOLECULE
AV-unprocessed.smi:1744
    49    50     1
SMALL
NO_CHARGES


@<TRIPOS>ATOM
      1 ****        -7.4075  -2.8610  -0.5098 C.3            1 S1                 0.0000
      2 ****        -6.7936  -2.2813   0.7708 C.3            1 S1                 0.0000
      3 ****        -5.5667  -1.5548   0.5048 N.pl3          1 S1                 0.0000
      4 ****        -4.2733  -1.9161   0.8266 C.2            1 S1                 0.0000
      5 ****        -3.4814  -0.9024   0.3777 C.2            1 S1                 0.0000
      6 ****        -2.0708  -0.8596   0.5078 N.am           1 S1                 0.0000
      7 ****        -1.2459   0.1147   0.0916 C.2            1 S1                 0.0000
      8 ****        -1.5953   1.1280  -0.5138 O.2            1 S1                 0.0000
      9 ****         0.0264  -0.1530   0.4182 N.am           1 S1                 0.0000
     10 ****         1.1695   0.7068   0.1268 C.3            1 S1                 0.0000
     11 ****         1.6873   0.4699  -1.3010 C.3            1 S1                 0.0000
     12 ****         2.9742   1.2716  -1.5628 C.3            1 S1                 0.0000
     13 ****         4.0158   0.9111  -0.5949 N.3            1 S1                 0.0000
     14 ****         5.2755   1.6022  -0.9532 C.3            1 S1                 0.0000
     15 ****         6.4828   1.2111  -0.0918 C.2            1 S1                 0.0000
     16 ****         7.1055   2.1912   0.5676 N.am           1 S1                 0.0000
     17 ****         6.8440   0.0384  -0.0192 O.2            1 S1                 0.0000
     18 ****         3.5701   1.2227   0.7712 C.3            1 S1                 0.0000
     19 ****         2.3034   0.4218   1.1213 C.3            1 S1                 0.0000
     20 ****        -4.3629   0.0487  -0.2097 C.2            1 S1                 0.0000
     21 ****        -5.6216  -0.3546  -0.1245 N.2            1 S1                 0.0000
     22 ****        -8.3147  -3.4217  -0.2841 H              1 S1                 0.0000
     23 ****        -6.7127  -3.5379  -1.0079 H              1 S1                 0.0000
     24 ****        -7.6721  -2.0724  -1.2150 H              1 S1                 0.0000
     25 ****        -7.4989  -1.6083   1.2599 H              1 S1                 0.0000
     26 ****        -6.5779  -3.0831   1.4780 H              1 S1                 0.0000
     27 ****        -4.0370  -2.8391   1.3356 H              1 S1                 0.0000
     28 ****        -1.6476  -1.6438   0.9821 H              1 S1                 0.0000
     29 ****         0.2197  -1.0118   0.9122 H              1 S1                 0.0000
     30 ****         0.8740   1.7526   0.2324 H              1 S1                 0.0000
     31 ****         1.8842  -0.5922  -1.4557 H              1 S1                 0.0000
     32 ****         0.9258   0.7522  -2.0289 H              1 S1                 0.0000
     33 ****         3.3201   1.0581  -2.5752 H              1 S1                 0.0000
     34 ****         2.7672   2.3425  -1.5180 H              1 S1                 0.0000
     35 ****         5.5354   1.3664  -1.9861 H              1 S1                 0.0000
     36 ****         5.1258   2.6830  -0.9117 H              1 S1                 0.0000
     37 ****         7.9056   1.9818   1.1464 H              1 S1                 0.0000
     38 ****         6.7721   3.1405   0.4829 H              1 S1                 0.0000
     39 ****         4.3397   0.9694   1.5001 H              1 S1                 0.0000
     40 ****         3.3813   2.2932   0.8706 H              1 S1                 0.0000
     41 ****         1.9815   0.6674   2.1340 H              1 S1                 0.0000
     42 ****         2.5404  -0.6435   1.1225 H              1 S1                 0.0000
     43 ****        -4.1489   0.9961  -0.6814 H              1 S1                 0.0000
     44 ****        -2.5607   1.2727  -0.7311 LP             1 S1                 0.0000
     45 ****        -0.9139   1.8064  -0.7883 LP             1 S1                 0.0000
     46 ****         4.1888  -0.0734  -0.6240 LP             1 S1                 0.0000
     47 ****         6.3496  -0.6692  -0.5241 LP             1 S1                 0.0000
     48 ****         7.6322  -0.2080   0.5447 LP             1 S1                 0.0000
     49 ****        -6.4366   0.1228  -0.4532 LP             1 S1                 0.0000
@<TRIPOS>BOND
    1    1    2 1     
    2    1   22 1     
    3    1   23 1     
    4    1   24 1     
    5    2    3 1     
    6    2   25 1     
    7    2   26 1     
    8    3   21 1     
    9    3    4 1     
   10    4    5 2     
   11    4   27 1     
   12    5    6 1     
   13    5   20 1     
   14    6    7 am    
   15    6   28 1     
   16    7    8 2     
   17    7    9 am    
   18    9   10 1     
   19    9   29 1     
   20   10   19 1     
   21   10   11 1     
   22   10   30 1     
   23   11   12 1     
   24   11   31 1     
   25   11   32 1     
   26   12   13 1     
   27   12   33 1     
   28   12   34 1     
   29   13   14 1     
   30   13   18 1     
   31   14   15 1     
   32   14   35 1     
   33   14   36 1     
   34   15   16 am    
   35   15   17 2     
   36   16   37 1     
   37   16   38 1     
   38   18   19 1     
   39   18   39 1     
   40   18   40 1     
   41   19   41 1     
   42   19   42 1     
   43   20   21 2     
   44   20   43 1     
   45    8   44 1     
   46    8   45 1     
   47   13   46 1     
   48   17   47 1     
   49   17   48 1     
   50   21   49 1     
@<TRIPOS>SUBSTRUCTURE
      1 S1             1
@<TRIPOS>SET
LONE_PAIRS      STATIC     ATOMS    <user>   **** ""
6 44 45 46 47 48 49
DONOR_HYDROGENS      STATIC     ATOMS    <user>   **** ""
4 28 29 37 38
ATOM$BLUE        STATIC     ATOMS    COLORGROUP SYSTEM
6 44 45 46 47 48 49
ATOM$RED        STATIC     ATOMS    COLORGROUP SYSTEM
4 28 29 37 38
