AV-unprocessed.smi:2245|AV-procd|sdf|9077|dock4
  -GOLD-   2272012283D 1   1.00000     0.00000
 Structure written by MMmdl.
 44 45  0  0  0  0  0  0  0  0  1 V2000
  151.8812  145.8932  160.2870 C   0  0  0  0  0  0  0  0  0  0  0  0
  151.9649  144.5317  159.6288 C   0  0  0  0  0  0  0  0  0  0  0  0
  152.8023  143.5270  160.1499 C   0  0  0  0  0  0  0  0  0  0  0  0
  152.8363  142.2823  159.4911 C   0  0  0  0  0  0  0  0  0  0  0  0
  153.7162  141.1584  159.9965 C   0  0  0  0  0  0  0  0  0  0  0  0
  152.1070  142.0124  158.3871 N   0  0  0  0  0  0  0  0  0  0  0  0
  151.2971  142.9726  157.8761 C   0  0  0  0  0  0  0  0  0  0  0  0
  150.4877  142.7901  156.7235 N   0  0  0  0  0  0  0  0  0  0  0  0
  150.2377  141.6513  156.0534 C   0  0  0  0  0  0  0  0  0  0  0  0
  150.6991  140.5442  156.3326 O   0  0  0  0  0  0  0  0  0  0  0  0
  149.4115  141.8717  155.0201 N   0  0  0  0  0  0  0  0  0  0  0  0
  148.9389  140.8631  154.0764 C   0  0  0  0  0  0  0  0  0  0  0  0
  147.5181  140.3801  154.4236 C   0  0  1  0  0  0  0  0  0  0  0  0
  147.3209  139.9666  155.8806 C   0  0  0  0  0  0  0  0  0  0  0  0
  145.8848  140.3825  156.1709 C   0  0  0  0  0  0  0  0  0  0  0  0
  145.7934  141.6612  155.4808 N   0  0  0  0  0  0  0  0  0  0  0  0
  144.4274  142.1570  155.3227 C   0  0  0  0  0  0  0  0  0  0  0  0
  144.3438  143.6922  155.2160 C   0  0  0  0  0  0  0  0  0  0  0  0
  144.9987  144.0778  154.1217 F   0  0  0  0  0  0  0  0  0  0  0  0
  143.0821  144.1091  155.1118 F   0  0  0  0  0  0  0  0  0  0  0  0
  144.9143  144.2672  156.2751 F   0  0  0  0  0  0  0  0  0  0  0  0
  146.4320  141.4420  154.1857 C   0  0  0  0  0  0  0  0  0  0  0  0
  151.2035  144.2482  158.4770 C   0  0  0  0  0  0  0  0  0  0  0  0
  152.4301  145.9126  161.2290 H   0  0  0  0  0  0  0  0  0  0  0  0
  150.8425  146.1518  160.4937 H   0  0  0  0  0  0  0  0  0  0  0  0
  152.3017  146.6552  159.6304 H   0  0  0  0  0  0  0  0  0  0  0  0
  153.4029  143.7049  161.0302 H   0  0  0  0  0  0  0  0  0  0  0  0
  154.0886  141.3702  160.9991 H   0  0  0  0  0  0  0  0  0  0  0  0
  154.5719  141.0238  159.3347 H   0  0  0  0  0  0  0  0  0  0  0  0
  153.1588  140.2217  160.0334 H   0  0  0  0  0  0  0  0  0  0  0  0
  150.0432  143.6243  156.3704 H   0  0  0  0  0  0  0  0  0  0  0  0
  149.0844  142.8150  154.8711 H   0  0  0  0  0  0  0  0  0  0  0  0
  148.9776  141.2306  153.0493 H   0  0  0  0  0  0  0  0  0  0  0  0
  149.6308  140.0218  154.1230 H   0  0  0  0  0  0  0  0  0  0  0  0
  147.2808  139.5243  153.7893 H   0  0  0  0  0  0  0  0  0  0  0  0
  147.4923  138.9021  156.0439 H   0  0  0  0  0  0  0  0  0  0  0  0
  147.9972  140.5188  156.5349 H   0  0  0  0  0  0  0  0  0  0  0  0
  145.1827  139.6643  155.7440 H   0  0  0  0  0  0  0  0  0  0  0  0
  145.6940  140.4706  157.2403 H   0  0  0  0  0  0  0  0  0  0  0  0
  144.0240  141.7309  154.4029 H   0  0  0  0  0  0  0  0  0  0  0  0
  143.7965  141.7960  156.1363 H   0  0  0  0  0  0  0  0  0  0  0  0
  146.8307  142.3783  153.7939 H   0  0  0  0  0  0  0  0  0  0  0  0
  145.7079  141.0599  153.4642 H   0  0  0  0  0  0  0  0  0  0  0  0
  150.5540  145.0046  158.0602 H   0  0  0  0  0  0  0  0  0  0  0  0
  1  2  1  0  0  0  0
  1 24  1  0  0  0  0
  1 25  1  0  0  0  0
  1 26  1  0  0  0  0
  2 23  1  0  0  0  0
  2  3  2  0  0  0  0
  3  4  1  0  0  0  0
  3 27  1  0  0  0  0
  4  5  1  0  0  0  0
  4  6  2  0  0  0  0
  5 28  1  0  0  0  0
  5 29  1  0  0  0  0
  5 30  1  0  0  0  0
  6  7  1  0  0  0  0
  7  8  1  0  0  0  0
  7 23  2  0  0  0  0
  8  9  1  0  0  0  0
  8 31  1  0  0  0  0
  9 10  2  0  0  0  0
  9 11  1  0  0  0  0
 11 12  1  0  0  0  0
 11 32  1  0  0  0  0
 12 13  1  0  0  0  0
 12 33  1  0  0  0  0
 12 34  1  0  0  0  0
 13 22  1  0  0  0  0
 13 14  1  0  0  0  0
 13 35  1  0  0  0  0
 14 15  1  0  0  0  0
 14 36  1  0  0  0  0
 14 37  1  0  0  0  0
 15 16  1  0  0  0  0
 15 38  1  0  0  0  0
 15 39  1  0  0  0  0
 16 17  1  0  0  0  0
 16 22  1  0  0  0  0
 17 18  1  0  0  0  0
 17 40  1  0  0  0  0
 17 41  1  0  0  0  0
 18 19  1  0  0  0  0
 18 20  1  0  0  0  0
 18 21  1  0  0  0  0
 22 42  1  0  0  0  0
 22 43  1  0  0  0  0
 23 44  1  0  0  0  0
M  END
> <s_m_source_file>
AV-unprocessed.smi

> <i_m_source_file_index>
2245

> <i_lp_mmshare_version>
43012

> <i_f3d_flags>
0

> <s_epik_input>
W0NIM11jMVtjSF1jKFtDSDNdKW5jKFtjSF0xKVtOSF1DKD1PKVtOSF1bQ0gyXVtDQEBIXTJbQ0gyXVtDSDJdTihbQ0gyXTIpW0NIMl1DKEYpKEYpRg==

> <s_epik_cmdline>
J2VwaWtfcHl0aG9uJywgJy1waCcsICc3LjAnLCAnLXRuJywgJzgnLCAnLW1hJywgJzIwMCcsICctbWV0YWxfYmluZGluZycsICctaW1hZScsICc8aW5maWxlLm1hZT4nLCAnLW9tYWUnLCAnPG91dGZpbGUubWFlPic=

> <r_epik_Ionization_Penalty>
0.252219

> <r_epik_Ionization_Penalty_Charging>
0

> <r_epik_Ionization_Penalty_Neutral>
0.252219

> <r_epik_State_Penalty>
0.24335

> <r_epik_Charging_Adjusted_Penalty>
0.24335

> <i_epik_Tot_Q>
0

> <i_epik_Tot_abs_Q>
0

> <r_epik_Metal_State_Penalty>
0.243337

> <b_epik_Metal_Only>
0

> <s_lp_Force_Field>
OPLS_2005

> <r_lp_Energy>
32.1697

> <b_lp_Chiralities_Consistent>
1

> <s_lp_Variant>
AV-unprocessed.smi:2245-2

> <Gold.Version>
5.8.1

> <Gold.Id.Protein>
6NUR|6NUR_protein|mol2

> <Gold.PLP.Fitness>
49.8221

> <Gold.PLP.PLP>
-44.6283

> <Gold.PLP.part.hbond>
-2.0000

> <Gold.PLP.part.metal>
0.0000

> <Gold.PLP.part.buried>
-7.0059

> <Gold.PLP.part.nonpolar>
-37.0684

> <Gold.PLP.part.repulsive>
0.4042

> <Gold.PLP.ligand.clash>
0.0000

> <Gold.PLP.ligand.torsion>
0.5403

> <Gold.PLP.Chemscore.Hbond>
1.9440

> <Gold.PLP.Chemscore.CHOScore>
0.0000

> <Gold.PLP.Chemscore.Metal>
0.0000

> <Gold.Chemscore.Hbonds>
donor molecule, donor type, donor heavy atom, donor atom, acceptor molecule, acceptor atom, score
      L1  H     8    31       P1  8028  1.00
      L1  H    11    32       P1  8028  0.89

> <Gold.PLP.Chemscore.Internal.Correction>
0.4425

> <Gold.Rescore>
     Score         DG    S(hbond)    S(metal)    S(lipo)     H(rot)  DE(clash)    DE(int)     intcor
     17.21     -19.24       1.93        0.00      97.24       1.58       0.05       1.97       ----

> <Gold.Chemscore.Fitness>
17.2133

> <Gold.Chemscore.DG>
-19.2391

> <Gold.Chemscore.ZeroCoef>
-5.4800

> <Gold.Chemscore.Hbond>
1.9261

> <Gold.Chemscore.Metal>
0.0000

> <Gold.Chemscore.Lipo>
97.2414

> <Gold.Chemscore.Internal_Hbond>
0.0000

> <Gold.Chemscore.DEClash>
0.0527

> <Gold.Chemscore.DEInternal>
1.9731

> <Gold.Chemscore.Rot>
1.5826

> <Gold.Chemscore.Internal.Correction>
   9.000000E+99

> <Gold.Chemscore.Hbonds>
donor molecule, donor type, donor heavy atom, donor atom, acceptor molecule, acceptor atom, score
      L1  H     8    31       P1  8028  1.00
      L1  H    11    32       P1  8028  0.82

> <Gold.Chemscore.Hbond.Weighted>
-6.4333

> <Gold.Chemscore.Metal.Weighted>
-0.0000

> <Gold.Chemscore.Lipo.Weighted>
-11.3772

> <Gold.Chemscore.Internal_Hbond.Weighted>
0.0000

> <Gold.Chemscore.DEClash.Weighted>
0.0527

> <Gold.Chemscore.DEInternal.Weighted>
1.9731

> <Gold.Chemscore.Rot.Weighted>
4.0515

> <Gold.Chemscore.Internal.Correction.Weighted>
   9.000000E+99

> <Gold.Protein.RotatedTorsions>
[ 6907 6896 6895 6894 ] final  162.96 input  -60.11 | X-H torsion
[ 7974 7965 7964 7962 ] final   28.51 input  175.53 | X-H torsion
[ 8008 7997 7996 7995 ] final   48.54 input   59.86 | X-H torsion
[ 10167 10162 10161 10158 ] final  104.77 input  -65.29 | X-H torsion
[ 10718 10713 10712 10709 ] final   36.00 input   66.30 | X-H torsion
[ 10763 10752 10751 10750 ] final  -70.08 input  -60.55 | X-H torsion
[ 11005 11000 10999 10996 ] final  123.93 input  -57.11 | X-H torsion

> <Gold.Protein.ActiveResidues>
 VAL166  LYS551  ARG553  GLY616  TRP617  ASP618  TYR619  PRO620  LYS621  CYS622 
 ASP623  PHE694  ASN695  SER759  ASP760  ASP761  ALA762  ILE779  LEU786  VAL792 
 PHE793  MET794  SER795  GLU796  ALA797  LYS798  CYS799  TRP800  GLU811  SER814 

> <Gold.Protein.RotatedAtoms>
  151.9325  133.3615  159.3935 H   0  0  0  0  0  0  0  0  0  0  0  0  # atno 6907 bound_to 6896
  150.7014  134.4523  159.5351 H   0  0  0  0  0  0  0  0  0  0  0  0  # atno 6908 bound_to 6896
  152.2165  134.8452  160.0542 H   0  0  0  0  0  0  0  0  0  0  0  0  # atno 6909 bound_to 6896
  146.1724  139.7046  142.8958 H   0  0  0  0  0  0  0  0  0  0  0  0  # atno 7974 bound_to 7965
  155.3873  140.3431  155.4249 H   0  0  0  0  0  0  0  0  0  0  0  0  # atno 8008 bound_to 7997
  156.1577  140.1591  156.8698 H   0  0  0  0  0  0  0  0  0  0  0  0  # atno 8009 bound_to 7997
  154.5110  140.0790  156.7972 H   0  0  0  0  0  0  0  0  0  0  0  0  # atno 8010 bound_to 7997
  139.7149  144.7070  151.0967 H   0  0  0  0  0  0  0  0  0  0  0  0  # atno 10167 bound_to 10162
  157.3295  130.7490  149.6838 H   0  0  0  0  0  0  0  0  0  0  0  0  # atno 10718 bound_to 10713
  154.4126  135.6005  153.5962 H   0  0  0  0  0  0  0  0  0  0  0  0  # atno 10763 bound_to 10752
  152.9791  135.5933  154.4051 H   0  0  0  0  0  0  0  0  0  0  0  0  # atno 10764 bound_to 10752
  154.3866  135.2841  155.2158 H   0  0  0  0  0  0  0  0  0  0  0  0  # atno 10765 bound_to 10752
  139.9335  134.9640  156.8333 H   0  0  0  0  0  0  0  0  0  0  0  0  # atno 11005 bound_to 11000
  145.4303  141.0414  143.2914 LP  0  0  0  0  0  0  0  0  0  0  0  0  # atno 17320 bound_to 7965
  144.8184  139.5836  143.6998 LP  0  0  0  0  0  0  0  0  0  0  0  0  # atno 17321 bound_to 7965
  140.7741  143.5243  150.9498 LP  0  0  0  0  0  0  0  0  0  0  0  0  # atno 17342 bound_to 10162
  139.8929  143.6931  152.3142 LP  0  0  0  0  0  0  0  0  0  0  0  0  # atno 17343 bound_to 10162
  155.9694  130.4199  150.4398 LP  0  0  0  0  0  0  0  0  0  0  0  0  # atno 17370 bound_to 10713
  157.2427  131.0529  151.2426 LP  0  0  0  0  0  0  0  0  0  0  0  0  # atno 17371 bound_to 10713
  140.6138  134.0058  155.7588 LP  0  0  0  0  0  0  0  0  0  0  0  0  # atno 17394 bound_to 11000
  141.0937  133.9877  157.3196 LP  0  0  0  0  0  0  0  0  0  0  0  0  # atno 17395 bound_to 11000

$$$$
