AV-unprocessed.smi:3303|AV-procd|sdf|12694|dock3
  -GOLD-   2272019 23D 1   1.00000     0.00000
 Structure written by MMmdl.
 44 45  0  0  0  0  0  0  0  0  2 V2000
  147.5862  142.0532  154.1598 C   0  0  0  0  0  0  0  0  0  0  0  0
  148.3320  140.7818  154.6013 C   0  0  1  0  0  0  0  0  0  0  0  0
  148.2853  139.7290  153.4698 C   0  0  0  0  0  0  0  0  0  0  0  0
  149.0162  138.4827  153.8151 N   0  3  2  0  0  0  0  0  0  0  0  0
  148.2842  137.6344  154.7900 C   0  0  0  0  0  0  0  0  0  0  0  0
  150.4415  138.7628  154.1500 C   0  0  2  0  0  0  0  0  0  0  0  0
  151.2632  137.4853  154.3946 C   0  0  0  0  0  0  0  0  0  0  0  0
  150.5527  139.7653  155.3147 C   0  0  0  0  0  0  0  0  0  0  0  0
  149.7965  141.0729  155.0113 C   0  0  2  0  0  0  0  0  0  0  0  0
  149.8244  141.8795  156.2257 N   0  0  0  0  0  0  0  0  0  0  0  0
  151.1824  142.0459  156.7213 C   0  0  0  0  0  0  0  0  0  0  0  0
  151.2916  143.3730  157.4844 C   0  0  0  0  0  0  0  0  0  0  0  0
  151.8270  143.1834  158.8911 C   0  0  0  0  0  0  0  0  0  0  0  0
  151.7061  144.2096  159.8523 C   0  0  0  0  0  0  0  0  0  0  0  0
  152.2219  143.9836  161.1433 C   0  0  0  0  0  0  0  0  0  0  0  0
  152.8366  142.7476  161.4217 C   0  0  0  0  0  0  0  0  0  0  0  0
  152.9080  141.7882  160.3921 C   0  0  0  0  0  0  0  0  0  0  0  0
  152.4167  141.9945  159.1509 N   0  0  0  0  0  0  0  0  0  0  0  0
  148.0866  142.5347  153.3190 H   0  0  0  0  0  0  0  0  0  0  0  0
  147.5199  142.7804  154.9691 H   0  0  0  0  0  0  0  0  0  0  0  0
  146.5662  141.8223  153.8514 H   0  0  0  0  0  0  0  0  0  0  0  0
  147.8030  140.3761  155.4650 H   0  0  0  0  0  0  0  0  0  0  0  0
  147.2527  139.4884  153.2135 H   0  0  0  0  0  0  0  0  0  0  0  0
  148.7304  140.1453  152.5649 H   0  0  0  0  0  0  0  0  0  0  0  0
  148.2606  138.0783  155.7848 H   0  0  0  0  0  0  0  0  0  0  0  0
  148.7328  136.6446  154.8695 H   0  0  0  0  0  0  0  0  0  0  0  0
  147.2536  137.4866  154.4664 H   0  0  0  0  0  0  0  0  0  0  0  0
  150.8718  139.2389  153.2672 H   0  0  0  0  0  0  0  0  0  0  0  0
  152.3243  137.7214  154.4799 H   0  0  0  0  0  0  0  0  0  0  0  0
  151.1509  136.7788  153.5716 H   0  0  0  0  0  0  0  0  0  0  0  0
  150.9724  136.9815  155.3165 H   0  0  0  0  0  0  0  0  0  0  0  0
  150.1737  139.3117  156.2317 H   0  0  0  0  0  0  0  0  0  0  0  0
  151.6036  139.9899  155.5026 H   0  0  0  0  0  0  0  0  0  0  0  0
  150.3047  141.5828  154.1904 H   0  0  0  0  0  0  0  0  0  0  0  0
  149.2649  141.4370  156.9412 H   0  0  0  0  0  0  0  0  0  0  0  0
  151.4346  141.2132  157.3794 H   0  0  0  0  0  0  0  0  0  0  0  0
  151.8869  142.0326  155.8888 H   0  0  0  0  0  0  0  0  0  0  0  0
  151.9424  144.0619  156.9441 H   0  0  0  0  0  0  0  0  0  0  0  0
  150.3146  143.8553  157.5427 H   0  0  0  0  0  0  0  0  0  0  0  0
  151.2303  145.1480  159.6084 H   0  0  0  0  0  0  0  0  0  0  0  0
  152.1473  144.7447  161.9058 H   0  0  0  0  0  0  0  0  0  0  0  0
  153.2438  142.5399  162.4001 H   0  0  0  0  0  0  0  0  0  0  0  0
  153.3723  140.8296  160.5703 H   0  0  0  0  0  0  0  0  0  0  0  0
  149.0366  137.9390  152.9640 H   0  0  0  0  0  0  0  0  0  0  0  0
  1  2  1  0  0  0  0
  1 19  1  0  0  0  0
  1 20  1  0  0  0  0
  1 21  1  0  0  0  0
  2  9  1  0  0  0  0
  2  3  1  0  0  0  0
  2 22  1  0  0  0  0
  3  4  1  0  0  0  0
  3 23  1  0  0  0  0
  3 24  1  0  0  0  0
  4  5  1  0  0  0  0
  4  6  1  0  0  0  0
  4 44  1  0  0  0  0
  5 25  1  0  0  0  0
  5 26  1  0  0  0  0
  5 27  1  0  0  0  0
  6  7  1  0  0  0  0
  6  8  1  0  0  0  0
  6 28  1  0  0  0  0
  7 29  1  0  0  0  0
  7 30  1  0  0  0  0
  7 31  1  0  0  0  0
  8  9  1  0  0  0  0
  8 32  1  0  0  0  0
  8 33  1  0  0  0  0
  9 10  1  0  0  0  0
  9 34  1  0  0  0  0
 10 11  1  0  0  0  0
 10 35  1  0  0  0  0
 11 12  1  0  0  0  0
 11 36  1  0  0  0  0
 11 37  1  0  0  0  0
 12 13  1  0  0  0  0
 12 38  1  0  0  0  0
 12 39  1  0  0  0  0
 13 18  1  0  0  0  0
 13 14  2  0  0  0  0
 14 15  1  0  0  0  0
 14 40  1  0  0  0  0
 15 16  2  0  0  0  0
 15 41  1  0  0  0  0
 16 17  1  0  0  0  0
 16 42  1  0  0  0  0
 17 18  2  0  0  0  0
 17 43  1  0  0  0  0
M  CHG  1   4   1
M  END
> <s_m_source_file>
AV-unprocessed.smi

> <i_m_source_file_index>
3303

> <i_lp_mmshare_version>
43012

> <i_f3d_flags>
0

> <s_epik_input>
W0NIM11bQ0BASF0xW0NIMl1OKFtDSDNdKVtDQEBIXShbQ0gzXSlbQ0gyXVtDQEhdMVtOSF1bQ0gyXVtDSDJdYzJbY0hdW2NIXVtjSF1bY0hdbjI=

> <s_epik_cmdline>
J2VwaWtfcHl0aG9uJywgJy1waCcsICc3LjAnLCAnLXRuJywgJzgnLCAnLW1hJywgJzIwMCcsICctbWV0YWxfYmluZGluZycsICctaW1hZScsICc8aW5maWxlLm1hZT4nLCAnLW9tYWUnLCAnPG91dGZpbGUubWFlPic=

> <r_epik_Ionization_Penalty>
2.31085

> <r_epik_Ionization_Penalty_Charging>
0.000313057

> <r_epik_Ionization_Penalty_Neutral>
2.31054

> <r_epik_State_Penalty>
2.4087

> <r_epik_Charging_Adjusted_Penalty>
2.40902

> <i_epik_Tot_Q>
1

> <i_epik_Tot_abs_Q>
1

> <r_epik_Metal_State_Penalty>
2.30979

> <b_epik_Metal_Only>
0

> <s_lp_Force_Field>
OPLS_2005

> <r_lp_Energy>
26.2858

> <b_lp_Chiralities_Consistent>
1

> <s_lp_Variant>
AV-unprocessed.smi:3303-38

> <Gold.Version>
5.8.1

> <Gold.Id.Protein>
6NUR|6NUR_protein|mol2

> <Gold.PLP.Fitness>
48.3109

> <Gold.PLP.PLP>
-43.8085

> <Gold.PLP.part.hbond>
-2.6972

> <Gold.PLP.part.metal>
0.0000

> <Gold.PLP.part.buried>
-1.3341

> <Gold.PLP.part.nonpolar>
-40.1332

> <Gold.PLP.part.repulsive>
0.0407

> <Gold.PLP.ligand.clash>
0.0000

> <Gold.PLP.ligand.torsion>
0.7563

> <Gold.PLP.Chemscore.Hbond>
2.0000

> <Gold.PLP.Chemscore.CHOScore>
0.0000

> <Gold.PLP.Chemscore.Metal>
0.0000

> <Gold.Chemscore.Hbonds>
donor molecule, donor type, donor heavy atom, donor atom, acceptor molecule, acceptor atom, score
      L1  H     4    44       P1  7948  2.00

> <Gold.PLP.Chemscore.Internal.Correction>
0.0149

> <Gold.Rescore>
     Score         DG    S(hbond)    S(metal)    S(lipo)     H(rot)  DE(clash)    DE(int)     intcor
     18.86     -19.91       0.98        0.00     124.33       1.33       0.33       0.72       ----

> <Gold.Chemscore.Fitness>
18.8609

> <Gold.Chemscore.DG>
-19.9115

> <Gold.Chemscore.ZeroCoef>
-5.4800

> <Gold.Chemscore.Hbond>
0.9827

> <Gold.Chemscore.Metal>
0.0000

> <Gold.Chemscore.Lipo>
124.3316

> <Gold.Chemscore.Internal_Hbond>
0.0000

> <Gold.Chemscore.DEClash>
0.3326

> <Gold.Chemscore.DEInternal>
0.7180

> <Gold.Chemscore.Rot>
1.3272

> <Gold.Chemscore.Internal.Correction>
   9.000000E+99

> <Gold.Chemscore.Hbonds>
donor molecule, donor type, donor heavy atom, donor atom, acceptor molecule, acceptor atom, score
      L1  H     4    44       P1  7948  0.94

> <Gold.Chemscore.Hbond.Weighted>
-3.2823

> <Gold.Chemscore.Metal.Weighted>
-0.0000

> <Gold.Chemscore.Lipo.Weighted>
-14.5468

> <Gold.Chemscore.Internal_Hbond.Weighted>
0.0000

> <Gold.Chemscore.DEClash.Weighted>
0.3326

> <Gold.Chemscore.DEInternal.Weighted>
0.7180

> <Gold.Chemscore.Rot.Weighted>
3.3976

> <Gold.Chemscore.Internal.Correction.Weighted>
   9.000000E+99

> <Gold.Protein.RotatedTorsions>
[ 6907 6896 6895 6894 ] final -120.99 input  -60.11 | X-H torsion
[ 7974 7965 7964 7962 ] final -153.42 input  175.53 | X-H torsion
[ 8008 7997 7996 7995 ] final  -33.90 input   59.86 | X-H torsion
[ 10167 10162 10161 10158 ] final   92.78 input  -65.29 | X-H torsion
[ 10718 10713 10712 10709 ] final -146.13 input   66.30 | X-H torsion
[ 10763 10752 10751 10750 ] final  -51.61 input  -60.55 | X-H torsion
[ 11005 11000 10999 10996 ] final  -88.53 input  -57.11 | X-H torsion

> <Gold.Protein.ActiveResidues>
 VAL166  LYS551  ARG553  GLY616  TRP617  ASP618  TYR619  PRO620  LYS621  CYS622 
 ASP623  PHE694  ASN695  SER759  ASP760  ASP761  ALA762  ILE779  LEU786  VAL792 
 PHE793  MET794  SER795  GLU796  ALA797  LYS798  CYS799  TRP800  GLU811  SER814 

> <Gold.Protein.RotatedAtoms>
  150.8443  133.7886  159.3048 H   0  0  0  0  0  0  0  0  0  0  0  0  # atno 6907 bound_to 6896
  151.5578  135.1064  159.9975 H   0  0  0  0  0  0  0  0  0  0  0  0  # atno 6908 bound_to 6896
  152.4500  133.7568  159.6781 H   0  0  0  0  0  0  0  0  0  0  0  0  # atno 6909 bound_to 6896
  144.7741  140.4528  143.5886 H   0  0  0  0  0  0  0  0  0  0  0  0  # atno 7974 bound_to 7965
  154.4136  140.1698  156.1962 H   0  0  0  0  0  0  0  0  0  0  0  0  # atno 8008 bound_to 7997
  155.9562  140.3397  155.6427 H   0  0  0  0  0  0  0  0  0  0  0  0  # atno 8009 bound_to 7997
  155.6807  140.0722  157.2476 H   0  0  0  0  0  0  0  0  0  0  0  0  # atno 8010 bound_to 7997
  139.8243  144.6716  150.9479 H   0  0  0  0  0  0  0  0  0  0  0  0  # atno 10167 bound_to 10162
  156.3911  130.7886  151.2088 H   0  0  0  0  0  0  0  0  0  0  0  0  # atno 10718 bound_to 10713
  154.1294  135.6522  153.4919 H   0  0  0  0  0  0  0  0  0  0  0  0  # atno 10763 bound_to 10752
  153.0200  135.5289  154.7016 H   0  0  0  0  0  0  0  0  0  0  0  0  # atno 10764 bound_to 10752
  154.6247  135.2969  155.0256 H   0  0  0  0  0  0  0  0  0  0  0  0  # atno 10765 bound_to 10752
  141.1600  133.7575  156.9465 H   0  0  0  0  0  0  0  0  0  0  0  0  # atno 11005 bound_to 11000
  145.6236  139.1527  143.3009 LP  0  0  0  0  0  0  0  0  0  0  0  0  # atno 17320 bound_to 7965
  146.1909  140.6344  142.9146 LP  0  0  0  0  0  0  0  0  0  0  0  0  # atno 17321 bound_to 7965
  140.7811  143.4061  151.1069 LP  0  0  0  0  0  0  0  0  0  0  0  0  # atno 17342 bound_to 10162
  139.7719  143.8481  152.3122 LP  0  0  0  0  0  0  0  0  0  0  0  0  # atno 17343 bound_to 10162
  157.7499  131.0315  150.4185 LP  0  0  0  0  0  0  0  0  0  0  0  0  # atno 17370 bound_to 10713
  156.4447  130.3999  149.6674 LP  0  0  0  0  0  0  0  0  0  0  0  0  # atno 17371 bound_to 10713
  140.1286  134.9370  157.2305 LP  0  0  0  0  0  0  0  0  0  0  0  0  # atno 17394 bound_to 11000
  140.2981  134.3163  155.7297 LP  0  0  0  0  0  0  0  0  0  0  0  0  # atno 17395 bound_to 11000

$$$$
