#       Name:                AV-unprocessed.smi:808
#       Creating user name   scv26
#       Creation time:       Fri Mar 27 01:24:16 2020


#       File generated by GOLD software.
#

@<TRIPOS>MOLECULE
AV-unprocessed.smi:808
    41    42     1
SMALL
NO_CHARGES


@<TRIPOS>ATOM
      1 ****         0.1386   2.2872  -1.8673 O.2            1 S1                 0.0000
      2 ****         0.7647   1.4328  -1.2403 C.2            1 S1                 0.0000
      3 ****         2.2760   1.5851  -1.0431 C.3            1 S1                 0.0000
      4 ****         2.6490   1.5140   0.3597 N.pl3          1 S1                 0.0000
      5 ****         3.0425   0.4024   1.0811 C.2            1 S1                 0.0000
      6 ****         3.2587   0.8539   2.3477 C.2            1 S1                 0.0000
      7 ****         3.6925   0.0379   3.5238 C.2            1 S1                 0.0000
      8 ****         3.8445   0.6131   4.6237 O.co2          1 S1                 0.0000
      9 ****         3.8841  -1.1874   3.3598 O.co2          1 S1                -1.0000
     10 ****         2.9879   2.2467   2.3338 C.2            1 S1                 0.0000
     11 ****         2.6184   2.6389   1.1220 N.2            1 S1                 0.0000
     12 ****         0.1940   0.3367  -0.7146 N.am           1 S1                 0.0000
     13 ****        -1.2277   0.0138  -0.7614 C.3            1 S1                 0.0000
     14 ****        -1.5885  -0.8800   0.4403 C.3            1 S1                 0.0000
     15 ****        -3.0661  -1.3022   0.4043 C.3            1 S1                 0.0000
     16 ****        -3.4145  -1.9978  -0.9210 C.3            1 S1                 0.0000
     17 ****        -3.0613  -1.1082  -2.1234 C.3            1 S1                 0.0000
     18 ****        -1.5843  -0.6832  -2.0905 C.3            1 S1                 0.0000
     19 ****         2.7948   0.7953  -1.5875 H              1 S1                 0.0000
     20 ****         2.6161   2.5364  -1.4552 H              1 S1                 0.0000
     21 ****         3.1239  -0.5823   0.6449 H              1 S1                 0.0000
     22 ****         3.0419   2.9660   3.1378 H              1 S1                 0.0000
     23 ****         0.7892  -0.3107  -0.2182 H              1 S1                 0.0000
     24 ****        -1.8050   0.9370  -0.6806 H              1 S1                 0.0000
     25 ****        -0.9590  -1.7711   0.4413 H              1 S1                 0.0000
     26 ****        -1.3797  -0.3545   1.3731 H              1 S1                 0.0000
     27 ****        -3.2828  -1.9664   1.2414 H              1 S1                 0.0000
     28 ****        -3.7003  -0.4243   0.5342 H              1 S1                 0.0000
     29 ****        -2.8727  -2.9417  -0.9924 H              1 S1                 0.0000
     30 ****        -4.4757  -2.2475  -0.9421 H              1 S1                 0.0000
     31 ****        -3.2747  -1.6367  -3.0529 H              1 S1                 0.0000
     32 ****        -3.6957  -0.2210  -2.1198 H              1 S1                 0.0000
     33 ****        -1.3771  -0.0207  -2.9316 H              1 S1                 0.0000
     34 ****        -0.9530  -1.5624  -2.2273 H              1 S1                 0.0000
     35 ****         0.6167   3.0792  -2.2470 LP             1 S1                 0.0000
     36 ****        -0.8481   2.1893  -1.9970 LP             1 S1                 0.0000
     37 ****         4.1326   0.0901   5.4259 LP             1 S1                 0.0000
     38 ****         3.6780   1.5961   4.7011 LP             1 S1                 0.0000
     39 ****         4.1732  -1.7558   4.1301 LP             1 S1                 0.0000
     40 ****         3.7482  -1.5985   2.4584 LP             1 S1                 0.0000
     41 ****         2.3707   3.5632   0.8316 LP             1 S1                 0.0000
@<TRIPOS>BOND
    1    1    2 2     
    2    2    3 1     
    3    2   12 am    
    4    3    4 1     
    5    3   19 1     
    6    3   20 1     
    7    4   11 1     
    8    4    5 1     
    9    5    6 2     
   10    5   21 1     
   11    6    7 1     
   12    6   10 1     
   13    7    8 ar    
   14    7    9 ar    
   15   10   11 2     
   16   10   22 1     
   17   12   13 1     
   18   12   23 1     
   19   13   18 1     
   20   13   14 1     
   21   13   24 1     
   22   14   15 1     
   23   14   25 1     
   24   14   26 1     
   25   15   16 1     
   26   15   27 1     
   27   15   28 1     
   28   16   17 1     
   29   16   29 1     
   30   16   30 1     
   31   17   18 1     
   32   17   31 1     
   33   17   32 1     
   34   18   33 1     
   35   18   34 1     
   36    1   35 1     
   37    1   36 1     
   38    8   37 1     
   39    8   38 1     
   40    9   39 1     
   41    9   40 1     
   42   11   41 1     
@<TRIPOS>SUBSTRUCTURE
      1 S1             1
@<TRIPOS>SET
LONE_PAIRS      STATIC     ATOMS    <user>   **** ""
7 35 36 37 38 39 40 41
DONOR_HYDROGENS      STATIC     ATOMS    <user>   **** ""
1 23
ATOM$BLUE        STATIC     ATOMS    COLORGROUP SYSTEM
7 35 36 37 38 39 40 41
ATOM$RED        STATIC     ATOMS    COLORGROUP SYSTEM
1 23
