#       Name:                AV-unprocessed.smi:2390
#       Creating user name   scv26
#       Creation time:       Fri Mar 27 13:10:50 2020


#       File generated by GOLD software.
#

@<TRIPOS>MOLECULE
AV-unprocessed.smi:2390
    51    52     1
SMALL
NO_CHARGES


@<TRIPOS>ATOM
      1 ****        -4.4170   4.2973   0.0744 C.3            1 S1                 0.0000
      2 ****        -4.6749   2.8487   0.4320 C.ar           1 S1                 0.0000
      3 ****        -5.9847   2.3775   0.6483 C.ar           1 S1                 0.0000
      4 ****        -6.1560   1.0199   0.9729 C.ar           1 S1                 0.0000
      5 ****        -5.0189   0.1946   1.0651 C.ar           1 S1                 0.0000
      6 ****        -3.7390   0.7468   0.8343 C.ar           1 S1                 0.0000
      7 ****        -2.6593  -0.1694   0.9419 N.am           1 S1                 0.0000
      8 ****        -1.3429   0.0868   0.8489 C.2            1 S1                 0.0000
      9 ****        -0.8405   1.2035   0.7168 O.2            1 S1                 0.0000
     10 ****        -0.6210  -1.0415   0.9230 N.am           1 S1                 0.0000
     11 ****         0.8387  -1.1182   0.8634 C.3            1 S1                 0.0000
     12 ****         1.2838  -2.4768   1.4331 C.3            1 S1                 0.0000
     13 ****         1.3848  -0.8436  -0.5758 C.3            1 S1                 0.0000
     14 ****         0.7375  -1.7958  -1.6138 C.3            1 S1                 0.0000
     15 ****         2.8858  -0.8618  -0.6341 N.4            1 S1                 1.0000
     16 ****         3.4440  -0.7674  -2.0128 C.3            1 S1                 0.0000
     17 ****         4.9817  -0.8004  -2.0043 C.3            1 S1                 0.0000
     18 ****         5.4817   0.2451  -1.1864 O.3            1 S1                 0.0000
     19 ****         5.0607   0.0893   0.1591 C.3            1 S1                 0.0000
     20 ****         3.5269   0.1656   0.2343 C.3            1 S1                 0.0000
     21 ****        -3.5839   2.0576   0.5219 N.ar           1 S1                 0.0000
     22 ****        -5.3247   4.8945   0.1656 H              1 S1                 0.0000
     23 ****        -4.0593   4.3745  -0.9528 H              1 S1                 0.0000
     24 ****        -3.6623   4.7252   0.7350 H              1 S1                 0.0000
     25 ****        -6.8372   3.0357   0.5676 H              1 S1                 0.0000
     26 ****        -7.1428   0.6169   1.1470 H              1 S1                 0.0000
     27 ****        -5.1335  -0.8511   1.3117 H              1 S1                 0.0000
     28 ****        -2.9221  -1.1323   1.0906 H              1 S1                 0.0000
     29 ****        -1.1168  -1.9142   1.0336 H              1 S1                 0.0000
     30 ****         1.1919  -0.3477   1.5475 H              1 S1                 0.0000
     31 ****         2.3700  -2.5582   1.4731 H              1 S1                 0.0000
     32 ****         0.9091  -3.3082   0.8356 H              1 S1                 0.0000
     33 ****         0.9138  -2.6124   2.4502 H              1 S1                 0.0000
     34 ****         1.0838   0.1667  -0.8569 H              1 S1                 0.0000
     35 ****        -0.3456  -1.8466  -1.5087 H              1 S1                 0.0000
     36 ****         1.1227  -2.8116  -1.5225 H              1 S1                 0.0000
     37 ****         0.9104  -1.4598  -2.6361 H              1 S1                 0.0000
     38 ****         3.1094  -1.6014  -2.6278 H              1 S1                 0.0000
     39 ****         3.0921   0.1504  -2.4866 H              1 S1                 0.0000
     40 ****         5.3492  -1.7654  -1.6514 H              1 S1                 0.0000
     41 ****         5.3643  -0.6674  -3.0163 H              1 S1                 0.0000
     42 ****         5.4250  -0.8567   0.5634 H              1 S1                 0.0000
     43 ****         5.5052   0.8826   0.7603 H              1 S1                 0.0000
     44 ****         3.1885   1.1593  -0.0637 H              1 S1                 0.0000
     45 ****         3.2500   0.0307   1.2775 H              1 S1                 0.0000
     46 ****         3.1732  -1.7614  -0.2759 H              1 S1                 0.0000
     47 ****        -1.4260   2.0129   0.6706 LP             1 S1                 0.0000
     48 ****         0.1528   1.3008   0.6557 LP             1 S1                 0.0000
     49 ****         5.1457   1.1204  -1.5342 LP             1 S1                 0.0000
     50 ****         6.4811   0.2351  -1.2188 LP             1 S1                 0.0000
     51 ****        -2.6718   2.4341   0.3599 LP             1 S1                 0.0000
@<TRIPOS>BOND
    1    1    2 1     
    2    1   22 1     
    3    1   23 1     
    4    1   24 1     
    5    2   21 ar    
    6    2    3 ar    
    7    3    4 ar    
    8    3   25 1     
    9    4    5 ar    
   10    4   26 1     
   11    5    6 ar    
   12    5   27 1     
   13    6    7 1     
   14    6   21 ar    
   15    7    8 am    
   16    7   28 1     
   17    8    9 2     
   18    8   10 am    
   19   10   11 1     
   20   10   29 1     
   21   11   12 1     
   22   11   13 1     
   23   11   30 1     
   24   12   31 1     
   25   12   32 1     
   26   12   33 1     
   27   13   14 1     
   28   13   15 1     
   29   13   34 1     
   30   14   35 1     
   31   14   36 1     
   32   14   37 1     
   33   15   20 1     
   34   15   16 1     
   35   15   46 1     
   36   16   17 1     
   37   16   38 1     
   38   16   39 1     
   39   17   18 1     
   40   17   40 1     
   41   17   41 1     
   42   18   19 1     
   43   19   20 1     
   44   19   42 1     
   45   19   43 1     
   46   20   44 1     
   47   20   45 1     
   48    9   47 1     
   49    9   48 1     
   50   18   49 1     
   51   18   50 1     
   52   21   51 1     
@<TRIPOS>SUBSTRUCTURE
      1 S1             1
@<TRIPOS>SET
LONE_PAIRS      STATIC     ATOMS    <user>   **** ""
5 47 48 49 50 51
DONOR_HYDROGENS      STATIC     ATOMS    <user>   **** ""
3 28 29 46
ATOM$BLUE        STATIC     ATOMS    COLORGROUP SYSTEM
5 47 48 49 50 51
ATOM$RED        STATIC     ATOMS    COLORGROUP SYSTEM
3 28 29 46
