AV-unprocessed.smi:3333|AV-procd|sdf|12833|dock4
  -GOLD-   2272019213D 1   1.00000     0.00000
 Structure written by MMmdl.
 41 43  0  0  0  0  0  0  0  0  1 V2000
  152.3358  144.6643  157.9613 C   0  0  0  0  0  0  0  0  0  0  0  0
  151.9887  144.6869  159.4536 C   0  0  0  0  0  0  0  0  0  0  0  0
  152.6491  143.5847  160.2121 C   0  0  0  0  0  0  0  0  0  0  0  0
  153.3660  142.6178  159.6335 N   0  0  0  0  0  0  0  0  0  0  0  0
  153.8468  141.6781  160.5528 C   0  0  0  0  0  0  0  0  0  0  0  0
  154.6684  140.5139  160.0798 C   0  0  0  0  0  0  0  0  0  0  0  0
  153.7471  139.3808  159.6275 C   0  0  0  0  0  0  0  0  0  0  0  0
  153.6557  138.3534  160.2993 O   0  0  0  0  0  0  0  0  0  0  0  0
  153.0567  139.5913  158.4963 N   0  0  0  0  0  0  0  0  0  0  0  0
  152.0491  138.6935  157.9456 C   0  0  0  0  0  0  0  0  0  0  0  0
  151.1470  139.4116  156.9195 C   0  0  2  0  0  0  0  0  0  0  0  0
  150.1351  138.4923  156.2039 C   0  0  0  0  0  0  0  0  0  0  0  0
  150.3515  138.8378  154.7178 C   0  0  2  0  0  0  0  0  0  0  0  0
  151.6823  138.2229  154.2469 C   0  0  0  0  0  0  0  0  0  0  0  0
  152.7298  139.1196  154.9317 C   0  0  0  0  0  0  0  0  0  0  0  0
  151.8607  140.1091  155.7354 C   0  0  1  0  0  0  0  0  0  0  0  0
  150.6944  140.3229  154.7762 C   0  0  0  0  0  0  0  0  0  0  0  0
  153.4788  141.9526  161.8468 C   0  0  0  0  0  0  0  0  0  0  0  0
  152.5021  143.3906  161.9548 S   0  0  0  0  0  0  0  0  0  0  0  0
  151.8346  145.4756  157.4333 H   0  0  0  0  0  0  0  0  0  0  0  0
  152.0295  143.7252  157.4993 H   0  0  0  0  0  0  0  0  0  0  0  0
  153.4079  144.7799  157.8068 H   0  0  0  0  0  0  0  0  0  0  0  0
  152.2833  145.6424  159.8895 H   0  0  0  0  0  0  0  0  0  0  0  0
  150.9097  144.6028  159.5858 H   0  0  0  0  0  0  0  0  0  0  0  0
  155.3225  140.8054  159.2569 H   0  0  0  0  0  0  0  0  0  0  0  0
  155.3184  140.1519  160.8773 H   0  0  0  0  0  0  0  0  0  0  0  0
  153.1978  140.4673  158.0139 H   0  0  0  0  0  0  0  0  0  0  0  0
  152.5608  137.8478  157.4871 H   0  0  0  0  0  0  0  0  0  0  0  0
  151.4424  138.2742  158.7498 H   0  0  0  0  0  0  0  0  0  0  0  0
  150.5815  140.1753  157.4565 H   0  0  0  0  0  0  0  0  0  0  0  0
  150.3049  137.4334  156.4043 H   0  0  0  0  0  0  0  0  0  0  0  0
  149.1170  138.7283  156.5162 H   0  0  0  0  0  0  0  0  0  0  0  0
  149.5034  138.5836  154.0815 H   0  0  0  0  0  0  0  0  0  0  0  0
  151.7792  137.1754  154.5346 H   0  0  0  0  0  0  0  0  0  0  0  0
  151.7774  138.2826  153.1618 H   0  0  0  0  0  0  0  0  0  0  0  0
  153.4302  138.5582  155.5487 H   0  0  0  0  0  0  0  0  0  0  0  0
  153.3163  139.6498  154.1805 H   0  0  0  0  0  0  0  0  0  0  0  0
  152.3852  141.0219  156.0203 H   0  0  0  0  0  0  0  0  0  0  0  0
  150.9952  140.7368  153.8119 H   0  0  0  0  0  0  0  0  0  0  0  0
  149.8937  140.9358  155.1938 H   0  0  0  0  0  0  0  0  0  0  0  0
  153.7142  141.3908  162.7386 H   0  0  0  0  0  0  0  0  0  0  0  0
  1  2  1  0  0  0  0
  1 20  1  0  0  0  0
  1 21  1  0  0  0  0
  1 22  1  0  0  0  0
  2  3  1  0  0  0  0
  2 23  1  0  0  0  0
  2 24  1  0  0  0  0
  3 19  1  0  0  0  0
  3  4  2  0  0  0  0
  4  5  1  0  0  0  0
  5  6  1  0  0  0  0
  5 18  2  0  0  0  0
  6  7  1  0  0  0  0
  6 25  1  0  0  0  0
  6 26  1  0  0  0  0
  7  8  2  0  0  0  0
  7  9  1  0  0  0  0
  9 10  1  0  0  0  0
  9 27  1  0  0  0  0
 10 11  1  0  0  0  0
 10 28  1  0  0  0  0
 10 29  1  0  0  0  0
 11 16  1  0  0  0  0
 11 12  1  0  0  0  0
 11 30  1  0  0  0  0
 12 13  1  0  0  0  0
 12 31  1  0  0  0  0
 12 32  1  0  0  0  0
 13 17  1  0  0  0  0
 13 14  1  0  0  0  0
 13 33  1  0  0  0  0
 14 15  1  0  0  0  0
 14 34  1  0  0  0  0
 14 35  1  0  0  0  0
 15 16  1  0  0  0  0
 15 36  1  0  0  0  0
 15 37  1  0  0  0  0
 16 17  1  0  0  0  0
 16 38  1  0  0  0  0
 17 39  1  0  0  0  0
 17 40  1  0  0  0  0
 18 19  1  0  0  0  0
 18 41  1  0  0  0  0
M  END
> <s_m_source_file>
AV-unprocessed.smi

> <i_m_source_file_index>
3333

> <i_lp_mmshare_version>
43012

> <i_f3d_flags>
0

> <s_epik_input>
W0NIM11bQ0gyXWMxbmMoW2NIXXMxKVtDSDJdQyg9TylbTkhdW0NIMl1bQ0BIXShbQ0gyXVtDQEBIXTIzKVtDQEBIXShbQ0gyXTMpW0NIMl1bQ0gyXTI=

> <s_epik_cmdline>
J2VwaWtfcHl0aG9uJywgJy1waCcsICc3LjAnLCAnLXRuJywgJzgnLCAnLW1hJywgJzIwMCcsICctbWV0YWxfYmluZGluZycsICctaW1hZScsICc8aW5maWxlLm1hZT4nLCAnLW9tYWUnLCAnPG91dGZpbGUubWFlPic=

> <r_lp_tautomer_probability>
1

> <r_epik_Ionization_Penalty>
6.68371e-05

> <r_epik_Ionization_Penalty_Charging>
0

> <r_epik_Ionization_Penalty_Neutral>
6.68371e-05

> <r_epik_State_Penalty>
-0

> <r_epik_Charging_Adjusted_Penalty>
0

> <i_epik_Tot_Q>
0

> <i_epik_Tot_abs_Q>
0

> <r_epik_Metal_State_Penalty>
-0

> <b_epik_Metal_Only>
0

> <s_lp_Force_Field>
OPLS_2005

> <r_lp_Energy>
42.1731

> <b_lp_Chiralities_Consistent>
1

> <s_lp_Variant>
AV-unprocessed.smi:3333-3

> <Gold.Version>
5.8.1

> <Gold.Id.Protein>
6NUR|6NUR_protein|mol2

> <Gold.PLP.Fitness>
45.3021

> <Gold.PLP.PLP>
-46.4747

> <Gold.PLP.part.hbond>
0.0000

> <Gold.PLP.part.metal>
0.0000

> <Gold.PLP.part.buried>
-3.9582

> <Gold.PLP.part.nonpolar>
-42.5701

> <Gold.PLP.part.repulsive>
0.0953

> <Gold.PLP.ligand.clash>
0.0000

> <Gold.PLP.ligand.torsion>
0.6104

> <Gold.PLP.Chemscore.Hbond>
0.0000

> <Gold.PLP.Chemscore.CHOScore>
0.0000

> <Gold.PLP.Chemscore.Metal>
0.0000

> <Gold.PLP.Chemscore.Internal.Correction>
0.0482

> <Gold.Rescore>
     Score         DG    S(hbond)    S(metal)    S(lipo)     H(rot)  DE(clash)    DE(int)     intcor
     16.51     -17.29       0.00        0.00     132.06       1.42       0.23       0.54       ----

> <Gold.Chemscore.Fitness>
16.5145

> <Gold.Chemscore.DG>
-17.2892

> <Gold.Chemscore.ZeroCoef>
-5.4800

> <Gold.Chemscore.Hbond>
0.0000

> <Gold.Chemscore.Metal>
0.0000

> <Gold.Chemscore.Lipo>
132.0620

> <Gold.Chemscore.Internal_Hbond>
0.0000

> <Gold.Chemscore.DEClash>
0.2338

> <Gold.Chemscore.DEInternal>
0.5408

> <Gold.Chemscore.Rot>
1.4227

> <Gold.Chemscore.Internal.Correction>
   9.000000E+99

> <Gold.Chemscore.Hbond.Weighted>
-0.0000

> <Gold.Chemscore.Metal.Weighted>
-0.0000

> <Gold.Chemscore.Lipo.Weighted>
-15.4513

> <Gold.Chemscore.Internal_Hbond.Weighted>
0.0000

> <Gold.Chemscore.DEClash.Weighted>
0.2338

> <Gold.Chemscore.DEInternal.Weighted>
0.5408

> <Gold.Chemscore.Rot.Weighted>
3.6421

> <Gold.Chemscore.Internal.Correction.Weighted>
   9.000000E+99

> <Gold.Protein.RotatedTorsions>
[ 6907 6896 6895 6894 ] final  151.01 input  -60.11 | X-H torsion
[ 7974 7965 7964 7962 ] final  164.38 input  175.53 | X-H torsion
[ 8008 7997 7996 7995 ] final  106.06 input   59.86 | X-H torsion
[ 10167 10162 10161 10158 ] final  -24.97 input  -65.29 | X-H torsion
[ 10718 10713 10712 10709 ] final  -44.90 input   66.30 | X-H torsion
[ 10763 10752 10751 10750 ] final  168.88 input  -60.55 | X-H torsion
[ 11005 11000 10999 10996 ] final   27.27 input  -57.11 | X-H torsion

> <Gold.Protein.ActiveResidues>
 VAL166  LYS551  ARG553  GLY616  TRP617  ASP618  TYR619  PRO620  LYS621  CYS622 
 ASP623  PHE694  ASN695  SER759  ASP760  ASP761  ALA762  ILE779  LEU786  VAL792 
 PHE793  MET794  SER795  GLU796  ALA797  LYS798  CYS799  TRP800  GLU811  SER814 

> <Gold.Protein.RotatedAtoms>
  152.1066  133.4278  159.4611 H   0  0  0  0  0  0  0  0  0  0  0  0  # atno 6907 bound_to 6896
  150.6865  134.2698  159.4592 H   0  0  0  0  0  0  0  0  0  0  0  0  # atno 6908 bound_to 6896
  152.0563  134.9622  160.0625 H   0  0  0  0  0  0  0  0  0  0  0  0  # atno 6909 bound_to 6896
  144.7548  139.8317  143.6354 H   0  0  0  0  0  0  0  0  0  0  0  0  # atno 7974 bound_to 7965
  156.1711  140.3119  155.8976 H   0  0  0  0  0  0  0  0  0  0  0  0  # atno 8008 bound_to 7997
  155.3584  140.0475  157.3063 H   0  0  0  0  0  0  0  0  0  0  0  0  # atno 8009 bound_to 7997
  154.5242  140.2208  155.8930 H   0  0  0  0  0  0  0  0  0  0  0  0  # atno 8010 bound_to 7997
  140.7287  143.4306  151.0808 H   0  0  0  0  0  0  0  0  0  0  0  0  # atno 10167 bound_to 10162
  156.2338  130.4174  149.8843 H   0  0  0  0  0  0  0  0  0  0  0  0  # atno 10718 bound_to 10713
  154.3750  135.2753  155.2244 H   0  0  0  0  0  0  0  0  0  0  0  0  # atno 10763 bound_to 10752
  154.4376  135.5962  153.6112 H   0  0  0  0  0  0  0  0  0  0  0  0  # atno 10764 bound_to 10752
  152.9837  135.6011  154.3986 H   0  0  0  0  0  0  0  0  0  0  0  0  # atno 10765 bound_to 10752
  140.3281  134.2468  155.7706 H   0  0  0  0  0  0  0  0  0  0  0  0  # atno 11005 bound_to 11000
  146.1544  139.4637  143.0028 LP  0  0  0  0  0  0  0  0  0  0  0  0  # atno 17320 bound_to 7965
  145.6818  141.0189  143.1602 LP  0  0  0  0  0  0  0  0  0  0  0  0  # atno 17321 bound_to 7965
  139.7962  143.8148  152.3158 LP  0  0  0  0  0  0  0  0  0  0  0  0  # atno 17342 bound_to 10162
  139.8149  144.7320  150.9649 LP  0  0  0  0  0  0  0  0  0  0  0  0  # atno 17343 bound_to 10162
  156.6448  130.8719  151.3520 LP  0  0  0  0  0  0  0  0  0  0  0  0  # atno 17370 bound_to 10713
  157.7145  130.9480  150.1205 LP  0  0  0  0  0  0  0  0  0  0  0  0  # atno 17371 bound_to 10713
  141.2070  133.7817  157.0144 LP  0  0  0  0  0  0  0  0  0  0  0  0  # atno 17394 bound_to 11000
  140.0884  134.9607  157.1737 LP  0  0  0  0  0  0  0  0  0  0  0  0  # atno 17395 bound_to 11000

$$$$
