#       Name:                AV-unprocessed.smi:2100
#       Creating user name   scv26
#       Creation time:       Fri Mar 27 11:30:56 2020


#       File generated by GOLD software.
#

@<TRIPOS>MOLECULE
AV-unprocessed.smi:2100
    45    46     1
SMALL
NO_CHARGES


@<TRIPOS>ATOM
      1 ****        -0.1280   2.7186   0.6497 C.3            1 S1                 0.0000
      2 ****        -1.0715   2.1835  -0.4425 C.3            1 S1                 0.0000
      3 ****        -0.9616   0.6617  -0.6436 C.3            1 S1                 0.0000
      4 ****        -1.6264  -0.0753   0.4483 N.3            1 S1                 0.0000
      5 ****        -1.3019  -1.7747   0.5911 S.o2           1 S1                 0.0000
      6 ****        -2.0984  -2.2655   1.7275 O.2            1 S1                 0.0000
      7 ****        -1.5733  -2.3464  -0.7382 O.2            1 S1                 0.0000
      8 ****         0.2724  -1.6414   0.9465 N.pl3          1 S1                -1.0000
      9 ****         1.0972  -2.8351   1.0158 C.3            1 S1                 0.0000
     10 ****         2.5936  -2.4462   0.9871 C.3            1 S1                 0.0000
     11 ****         3.0711  -1.8040  -0.3143 C.ar           1 S1                 0.0000
     12 ****         3.0967  -0.3972  -0.4553 C.ar           1 S1                 0.0000
     13 ****         3.5427   0.1525  -1.6717 C.ar           1 S1                 0.0000
     14 ****         3.9567  -0.7181  -2.6977 C.ar           1 S1                 0.0000
     15 ****         3.9051  -2.1059  -2.4595 C.ar           1 S1                 0.0000
     16 ****         3.4780  -2.6443  -1.2972 N.ar           1 S1                 0.0000
     17 ****        -3.0053   0.3777   0.6800 C.3            1 S1                 0.0000
     18 ****        -3.0544   1.9039   0.8744 C.3            1 S1                 0.0000
     19 ****        -4.4941   2.4199   0.9727 C.3            1 S1                 0.0000
     20 ****        -2.4286   2.5610  -0.2223 O.3            1 S1                 0.0000
     21 ****         0.9132   2.5376   0.3813 H              1 S1                 0.0000
     22 ****        -0.2975   2.2384   1.6131 H              1 S1                 0.0000
     23 ****        -0.2536   3.7932   0.7818 H              1 S1                 0.0000
     24 ****        -0.7740   2.6624  -1.3759 H              1 S1                 0.0000
     25 ****        -1.4329   0.3798  -1.5857 H              1 S1                 0.0000
     26 ****         0.0863   0.3741  -0.7251 H              1 S1                 0.0000
     27 ****         0.8959  -3.3964   1.9285 H              1 S1                 0.0000
     28 ****         0.8945  -3.5227   0.1940 H              1 S1                 0.0000
     29 ****         2.8169  -1.7735   1.8166 H              1 S1                 0.0000
     30 ****         3.1935  -3.3395   1.1656 H              1 S1                 0.0000
     31 ****         2.7646   0.2444   0.3479 H              1 S1                 0.0000
     32 ****         3.5655   1.2226  -1.8152 H              1 S1                 0.0000
     33 ****         4.3044  -0.3318  -3.6442 H              1 S1                 0.0000
     34 ****         4.2163  -2.8028  -3.2233 H              1 S1                 0.0000
     35 ****        -3.6213   0.0762  -0.1682 H              1 S1                 0.0000
     36 ****        -3.4136  -0.1120   1.5639 H              1 S1                 0.0000
     37 ****        -2.5419   2.1679   1.7995 H              1 S1                 0.0000
     38 ****        -5.0174   1.9637   1.8133 H              1 S1                 0.0000
     39 ****        -5.0563   2.1954   0.0659 H              1 S1                 0.0000
     40 ****        -4.5117   3.5002   1.1172 H              1 S1                 0.0000
     41 ****        -1.1319   0.2063   1.2706 LP             1 S1                 0.0000
     42 ****         0.6746  -0.7420   1.1173 LP             1 S1                 0.0000
     43 ****         3.4623  -3.6355  -1.1652 LP             1 S1                 0.0000
     44 ****        -2.9492   2.3515  -1.0501 LP             1 S1                 0.0000
     45 ****        -2.4550   3.5460  -0.0524 LP             1 S1                 0.0000
@<TRIPOS>BOND
    1    1    2 1     
    2    1   21 1     
    3    1   22 1     
    4    1   23 1     
    5    2   20 1     
    6    2    3 1     
    7    2   24 1     
    8    3    4 1     
    9    3   25 1     
   10    3   26 1     
   11    4    5 1     
   12    4   17 1     
   13    5    6 2     
   14    5    7 2     
   15    5    8 1     
   16    8    9 1     
   17    9   10 1     
   18    9   27 1     
   19    9   28 1     
   20   10   11 1     
   21   10   29 1     
   22   10   30 1     
   23   11   16 ar    
   24   11   12 ar    
   25   12   13 ar    
   26   12   31 1     
   27   13   14 ar    
   28   13   32 1     
   29   14   15 ar    
   30   14   33 1     
   31   15   16 ar    
   32   15   34 1     
   33   17   18 1     
   34   17   35 1     
   35   17   36 1     
   36   18   19 1     
   37   18   20 1     
   38   18   37 1     
   39   19   38 1     
   40   19   39 1     
   41   19   40 1     
   42    4   41 1     
   43    8   42 1     
   44   16   43 1     
   45   20   44 1     
   46   20   45 1     
@<TRIPOS>SUBSTRUCTURE
      1 S1             1
@<TRIPOS>SET
LONE_PAIRS      STATIC     ATOMS    <user>   **** ""
7 41 6 7 42 43 44 45
ATOM$BLUE        STATIC     ATOMS    COLORGROUP SYSTEM
7 41 6 7 42 43 44 45
