AV-unprocessed.smi:1140|AV-procd|sdf|4871|dock7
  -GOLD-   22720 3443D 1   1.00000     0.00000
 Structure written by MMmdl.
 48 50  0  0  0  0  0  0  0  0  1 V2000
  144.5369  133.9172  151.5441 C   0  0  0  0  0  0  0  0  0  0  0  0
  145.9685  133.4733  151.8544 C   0  0  0  0  0  0  0  0  0  0  0  0
  146.5888  134.4654  152.6669 O   0  0  0  0  0  0  0  0  0  0  0  0
  146.3253  134.4723  154.0237 C   0  0  0  0  0  0  0  0  0  0  0  0
  145.4436  133.5652  154.5147 N   0  0  0  0  0  0  0  0  0  0  0  0
  145.1885  133.5679  155.8391 C   0  0  0  0  0  0  0  0  0  0  0  0
  145.7968  134.4619  156.7388 C   0  0  0  0  0  0  0  0  0  0  0  0
  146.7116  135.4032  156.2325 C   0  0  0  0  0  0  0  0  0  0  0  0
  146.9792  135.4228  154.8420 C   0  0  0  0  0  0  0  0  0  0  0  0
  147.9030  136.3158  154.2327 N   0  0  0  0  0  0  0  0  0  0  0  0
  148.6367  137.2818  154.8108 C   0  0  0  0  0  0  0  0  0  0  0  0
  148.5755  137.6078  155.9962 O   0  0  0  0  0  0  0  0  0  0  0  0
  149.4462  137.8740  153.9213 N   0  0  0  0  0  0  0  0  0  0  0  0
  150.3692  138.9657  154.2181 C   0  0  0  0  0  0  0  0  0  0  0  0
  151.6786  138.3921  154.8003 C   0  0  0  0  0  0  0  0  0  0  0  0
  152.6075  139.5136  155.2995 C   0  0  0  0  0  0  0  0  0  0  0  0
  151.8851  140.3273  156.2851 N   0  0  0  0  0  0  0  0  0  0  0  0
  152.1576  140.2728  157.6130 C   0  0  0  0  0  0  0  0  0  0  0  0
  153.0426  139.5499  158.0735 O   0  0  0  0  0  0  0  0  0  0  0  0
  151.3473  141.1547  158.5119 C   0  0  0  0  0  0  0  0  0  0  0  0
  151.3164  142.6440  158.2192 C   0  0  0  0  0  0  0  0  0  0  0  0
  152.1098  142.1252  159.3895 C   0  0  0  0  0  0  0  0  0  0  0  0
  150.7502  141.0280  155.6671 C   0  0  0  0  0  0  0  0  0  0  0  0
  149.7250  139.9852  155.1867 C   0  0  0  0  0  0  0  0  0  0  0  0
  144.0250  133.1783  150.9273 H   0  0  0  0  0  0  0  0  0  0  0  0
  144.5280  134.8656  151.0066 H   0  0  0  0  0  0  0  0  0  0  0  0
  143.9599  134.0449  152.4603 H   0  0  0  0  0  0  0  0  0  0  0  0
  145.9479  132.5135  152.3732 H   0  0  0  0  0  0  0  0  0  0  0  0
  146.5221  133.3428  150.9232 H   0  0  0  0  0  0  0  0  0  0  0  0
  144.4833  132.8310  156.1942 H   0  0  0  0  0  0  0  0  0  0  0  0
  145.5718  134.4228  157.7943 H   0  0  0  0  0  0  0  0  0  0  0  0
  147.1997  136.0765  156.9199 H   0  0  0  0  0  0  0  0  0  0  0  0
  147.9821  136.2355  153.2293 H   0  0  0  0  0  0  0  0  0  0  0  0
  149.4228  137.5468  152.9666 H   0  0  0  0  0  0  0  0  0  0  0  0
  150.6176  139.4809  153.2881 H   0  0  0  0  0  0  0  0  0  0  0  0
  151.4533  137.7205  155.6305 H   0  0  0  0  0  0  0  0  0  0  0  0
  152.1918  137.7922  154.0480 H   0  0  0  0  0  0  0  0  0  0  0  0
  153.5278  139.0847  155.6981 H   0  0  0  0  0  0  0  0  0  0  0  0
  152.9155  140.1452  154.4649 H   0  0  0  0  0  0  0  0  0  0  0  0
  150.4212  140.7326  158.8981 H   0  0  0  0  0  0  0  0  0  0  0  0
  151.8807  143.0314  157.3729 H   0  0  0  0  0  0  0  0  0  0  0  0
  150.3856  143.1679  158.4268 H   0  0  0  0  0  0  0  0  0  0  0  0
  151.7198  142.2947  160.3910 H   0  0  0  0  0  0  0  0  0  0  0  0
  153.1952  142.1457  159.3076 H   0  0  0  0  0  0  0  0  0  0  0  0
  150.2570  141.7425  156.3239 H   0  0  0  0  0  0  0  0  0  0  0  0
  151.1088  141.6145  154.8198 H   0  0  0  0  0  0  0  0  0  0  0  0
  148.8872  140.4891  154.7037 H   0  0  0  0  0  0  0  0  0  0  0  0
  149.3134  139.4639  156.0525 H   0  0  0  0  0  0  0  0  0  0  0  0
  1  2  1  0  0  0  0
  1 25  1  0  0  0  0
  1 26  1  0  0  0  0
  1 27  1  0  0  0  0
  2  3  1  0  0  0  0
  2 28  1  0  0  0  0
  2 29  1  0  0  0  0
  3  4  1  0  0  0  0
  4  9  1  0  0  0  0
  4  5  2  0  0  0  0
  5  6  1  0  0  0  0
  6  7  2  0  0  0  0
  6 30  1  0  0  0  0
  7  8  1  0  0  0  0
  7 31  1  0  0  0  0
  8  9  2  0  0  0  0
  8 32  1  0  0  0  0
  9 10  1  0  0  0  0
 10 11  1  0  0  0  0
 10 33  1  0  0  0  0
 11 12  2  0  0  0  0
 11 13  1  0  0  0  0
 13 14  1  0  0  0  0
 13 34  1  0  0  0  0
 14 24  1  0  0  0  0
 14 15  1  0  0  0  0
 14 35  1  0  0  0  0
 15 16  1  0  0  0  0
 15 36  1  0  0  0  0
 15 37  1  0  0  0  0
 16 17  1  0  0  0  0
 16 38  1  0  0  0  0
 16 39  1  0  0  0  0
 17 18  1  0  0  0  0
 17 23  1  0  0  0  0
 18 19  2  0  0  0  0
 18 20  1  0  0  0  0
 20 22  1  0  0  0  0
 20 21  1  0  0  0  0
 20 40  1  0  0  0  0
 21 22  1  0  0  0  0
 21 41  1  0  0  0  0
 21 42  1  0  0  0  0
 22 43  1  0  0  0  0
 22 44  1  0  0  0  0
 23 24  1  0  0  0  0
 23 45  1  0  0  0  0
 23 46  1  0  0  0  0
 24 47  1  0  0  0  0
 24 48  1  0  0  0  0
M  END
> <s_m_source_file>
AV-unprocessed.smi

> <i_m_source_file_index>
1140

> <i_lp_mmshare_version>
43012

> <i_f3d_flags>
0

> <s_epik_input>
W0NIM11bQ0gyXU9jMW5bY0hdW2NIXVtjSF1jMVtOSF1DKD1PKVtOSF1bQ0hdMltDSDJdW0NIMl1OKFtDSDJdW0NIMl0yKUMoPU8pW0NIXTNbQ0gyXVtDSDJdMw==

> <s_epik_cmdline>
J2VwaWtfcHl0aG9uJywgJy1waCcsICc3LjAnLCAnLXRuJywgJzgnLCAnLW1hJywgJzIwMCcsICctbWV0YWxfYmluZGluZycsICctaW1hZScsICc8aW5maWxlLm1hZT4nLCAnLW9tYWUnLCAnPG91dGZpbGUubWFlPic=

> <r_lp_tautomer_probability>
1

> <r_epik_Ionization_Penalty>
0.00011541

> <r_epik_Ionization_Penalty_Charging>
0

> <r_epik_Ionization_Penalty_Neutral>
0.00011541

> <r_epik_State_Penalty>
-0

> <r_epik_Charging_Adjusted_Penalty>
0

> <i_epik_Tot_Q>
0

> <i_epik_Tot_abs_Q>
0

> <r_epik_Metal_State_Penalty>
-0

> <b_epik_Metal_Only>
0

> <s_lp_Force_Field>
OPLS_2005

> <r_lp_Energy>
31.5236

> <b_lp_Chiralities_Consistent>
1

> <s_lp_Variant>
AV-unprocessed.smi:1140-1

> <Gold.Version>
5.8.1

> <Gold.Id.Protein>
6NUR|6NUR_protein|mol2

> <Gold.PLP.Fitness>
40.8910

> <Gold.PLP.PLP>
-30.2560

> <Gold.PLP.part.hbond>
-3.0000

> <Gold.PLP.part.metal>
0.0000

> <Gold.PLP.part.buried>
-0.8532

> <Gold.PLP.part.nonpolar>
-26.2472

> <Gold.PLP.part.repulsive>
0.5222

> <Gold.PLP.ligand.clash>
0.0000

> <Gold.PLP.ligand.torsion>
0.4576

> <Gold.PLP.Chemscore.Hbond>
2.9200

> <Gold.PLP.Chemscore.CHOScore>
0.8931

> <Gold.PLP.Chemscore.Metal>
0.0000

> <Gold.Chemscore.Hbonds>
donor molecule, donor type, donor heavy atom, donor atom, acceptor molecule, acceptor atom, score
      L1  H    10    33       P1  7948  0.98
      L1  H    13    34       P1  7948  0.96
      P1  H  7997  8008       L1    19  1.00
      L1  C     6    30       P1 10957  0.92

> <Gold.PLP.Chemscore.Internal.Correction>
0.1109

> <Gold.Rescore>
     Score         DG    S(hbond)    S(metal)    S(lipo)     H(rot)  DE(clash)    DE(int)     intcor
     15.97     -19.67       2.81        0.00      75.34       1.56       0.40       3.30       ----

> <Gold.Chemscore.Fitness>
15.9705

> <Gold.Chemscore.DG>
-19.6715

> <Gold.Chemscore.ZeroCoef>
-5.4800

> <Gold.Chemscore.Hbond>
2.8085

> <Gold.Chemscore.Metal>
0.0000

> <Gold.Chemscore.Lipo>
75.3427

> <Gold.Chemscore.Internal_Hbond>
0.0000

> <Gold.Chemscore.DEClash>
0.3991

> <Gold.Chemscore.DEInternal>
3.3019

> <Gold.Chemscore.Rot>
1.5640

> <Gold.Chemscore.Internal.Correction>
   9.000000E+99

> <Gold.Chemscore.Hbonds>
donor molecule, donor type, donor heavy atom, donor atom, acceptor molecule, acceptor atom, score
      L1  H    10    33       P1  7948  0.93
      L1  H    13    34       P1  7948  0.84
      P1  H  7997  8008       L1    19  0.30

> <Gold.Chemscore.Hbond.Weighted>
-9.3802

> <Gold.Chemscore.Metal.Weighted>
-0.0000

> <Gold.Chemscore.Lipo.Weighted>
-8.8151

> <Gold.Chemscore.Internal_Hbond.Weighted>
0.0000

> <Gold.Chemscore.DEClash.Weighted>
0.3991

> <Gold.Chemscore.DEInternal.Weighted>
3.3019

> <Gold.Chemscore.Rot.Weighted>
4.0038

> <Gold.Chemscore.Internal.Correction.Weighted>
   9.000000E+99

> <Gold.Protein.RotatedTorsions>
[ 6907 6896 6895 6894 ] final -132.09 input  -60.11 | X-H torsion
[ 7974 7965 7964 7962 ] final  126.82 input  175.53 | X-H torsion
[ 8008 7997 7996 7995 ] final  -81.70 input   59.86 | X-H torsion
[ 10167 10162 10161 10158 ] final   28.48 input  -65.29 | X-H torsion
[ 10718 10713 10712 10709 ] final  125.25 input   66.30 | X-H torsion
[ 10763 10752 10751 10750 ] final   92.71 input  -60.55 | X-H torsion
[ 11005 11000 10999 10996 ] final   52.08 input  -57.11 | X-H torsion

> <Gold.Protein.ActiveResidues>
 VAL166  LYS551  ARG553  GLY616  TRP617  ASP618  TYR619  PRO620  LYS621  CYS622 
 ASP623  PHE694  ASN695  SER759  ASP760  ASP761  ALA762  ILE779  LEU786  VAL792 
 PHE793  MET794  SER795  GLU796  ALA797  LYS798  CYS799  TRP800  GLU811  SER814 

> <Gold.Protein.RotatedAtoms>
  150.9584  133.6472  159.2758 H   0  0  0  0  0  0  0  0  0  0  0  0  # atno 6907 bound_to 6896
  151.3804  135.0937  159.9504 H   0  0  0  0  0  0  0  0  0  0  0  0  # atno 6908 bound_to 6896
  152.5138  133.9119  159.7547 H   0  0  0  0  0  0  0  0  0  0  0  0  # atno 6909 bound_to 6896
  145.0574  139.3833  143.5023 H   0  0  0  0  0  0  0  0  0  0  0  0  # atno 7974 bound_to 7965
  154.6010  140.0644  156.9369 H   0  0  0  0  0  0  0  0  0  0  0  0  # atno 8008 bound_to 7997
  155.2132  140.3324  155.4307 H   0  0  0  0  0  0  0  0  0  0  0  0  # atno 8009 bound_to 7997
  156.2318  140.1844  156.7206 H   0  0  0  0  0  0  0  0  0  0  0  0  # atno 8010 bound_to 7997
  140.4848  144.0559  150.6277 H   0  0  0  0  0  0  0  0  0  0  0  0  # atno 10167 bound_to 10162
  157.5518  131.1093  150.8689 H   0  0  0  0  0  0  0  0  0  0  0  0  # atno 10718 bound_to 10713
  153.2222  135.4351  155.0502 H   0  0  0  0  0  0  0  0  0  0  0  0  # atno 10763 bound_to 10752
  154.8255  135.3359  154.6910 H   0  0  0  0  0  0  0  0  0  0  0  0  # atno 10764 bound_to 10752
  153.7342  135.7009  153.5038 H   0  0  0  0  0  0  0  0  0  0  0  0  # atno 10765 bound_to 10752
  140.0879  134.5250  155.8881 H   0  0  0  0  0  0  0  0  0  0  0  0  # atno 11005 bound_to 11000
  146.3522  140.0255  142.8655 LP  0  0  0  0  0  0  0  0  0  0  0  0  # atno 17320 bound_to 7965
  145.1451  140.9593  143.4465 LP  0  0  0  0  0  0  0  0  0  0  0  0  # atno 17321 bound_to 7965
  140.3811  143.2802  152.0169 LP  0  0  0  0  0  0  0  0  0  0  0  0  # atno 17342 bound_to 10162
  139.4840  144.6154  151.7356 LP  0  0  0  0  0  0  0  0  0  0  0  0  # atno 17343 bound_to 10162
  156.9211  130.5315  149.5279 LP  0  0  0  0  0  0  0  0  0  0  0  0  # atno 17370 bound_to 10713
  156.0583  130.5641  150.9139 LP  0  0  0  0  0  0  0  0  0  0  0  0  # atno 17371 bound_to 10713
  141.2068  133.6659  156.6267 LP  0  0  0  0  0  0  0  0  0  0  0  0  # atno 17394 bound_to 11000
  140.3394  134.7861  157.4387 LP  0  0  0  0  0  0  0  0  0  0  0  0  # atno 17395 bound_to 11000

$$$$
