AV-unprocessed.smi:1880|AV-procd|sdf|7638|dock5
  -GOLD-   22720 9363D 1   1.00000     0.00000
 Structure written by MMmdl.
 37 39  0  0  0  0  0  0  0  0  2 V2000
  153.7696  138.6215  155.3323 O   0  0  0  0  0  0  0  0  0  0  0  0
  152.4535  139.0501  155.0418 C   0  0  1  0  0  0  0  0  0  0  0  0
  151.7567  137.9566  154.2178 C   0  0  0  0  0  0  0  0  0  0  0  0
  151.6474  136.7893  155.0143 O   0  0  0  0  0  0  0  0  0  0  0  0
  150.5100  136.0048  154.6922 C   0  0  0  0  0  0  0  0  0  0  0  0
  150.7589  134.6167  155.1895 C   0  0  0  0  0  0  0  0  0  0  0  0
  150.2051  133.4040  154.8825 C   0  0  0  0  0  0  0  0  0  0  0  0
  150.8741  132.4396  155.6859 C   0  0  0  0  0  0  0  0  0  0  0  0
  151.7939  133.1334  156.4190 C   0  0  0  0  0  0  0  0  0  0  0  0
  151.7396  134.4612  156.1263 O   0  0  0  0  0  0  0  0  0  0  0  0
  151.7193  139.3329  156.3673 C   0  0  0  0  0  0  0  0  0  0  0  0
  151.1634  140.6913  156.4297 N   0  0  0  0  0  0  0  0  0  0  0  0
  150.3578  141.3476  155.5510 C   0  0  0  0  0  0  0  0  0  0  0  0
  150.1091  142.5836  156.0665 N   0  3  0  0  0  0  0  0  0  0  0  0
  150.7653  142.7184  157.2924 C   0  0  0  0  0  0  0  0  0  0  0  0
  150.8149  143.7805  158.1895 C   0  0  0  0  0  0  0  0  0  0  0  0
  151.5807  143.5894  159.3585 C   0  0  0  0  0  0  0  0  0  0  0  0
  151.6627  144.5916  160.2652 F   0  0  0  0  0  0  0  0  0  0  0  0
  152.2609  142.3770  159.6007 C   0  0  0  0  0  0  0  0  0  0  0  0
  152.9842  142.2351  160.7364 F   0  0  0  0  0  0  0  0  0  0  0  0
  152.2031  141.3066  158.6836 C   0  0  0  0  0  0  0  0  0  0  0  0
  151.4447  141.5056  157.5312 C   0  0  0  0  0  0  0  0  0  0  0  0
  153.8004  137.6800  155.2511 H   0  0  0  0  0  0  0  0  0  0  0  0
  152.5038  139.9694  154.4572 H   0  0  0  0  0  0  0  0  0  0  0  0
  150.7810  138.2919  153.8607 H   0  0  0  0  0  0  0  0  0  0  0  0
  152.3582  137.7158  153.3398 H   0  0  0  0  0  0  0  0  0  0  0  0
  149.6167  136.4180  155.1625 H   0  0  0  0  0  0  0  0  0  0  0  0
  150.3476  135.9907  153.6138 H   0  0  0  0  0  0  0  0  0  0  0  0
  149.4130  133.2326  154.1684 H   0  0  0  0  0  0  0  0  0  0  0  0
  150.7059  131.3734  155.7207 H   0  0  0  0  0  0  0  0  0  0  0  0
  152.5315  132.8538  157.1567 H   0  0  0  0  0  0  0  0  0  0  0  0
  150.9085  138.6210  156.5270 H   0  0  0  0  0  0  0  0  0  0  0  0
  152.4016  139.2192  157.2111 H   0  0  0  0  0  0  0  0  0  0  0  0
  149.9793  140.9556  154.6179 H   0  0  0  0  0  0  0  0  0  0  0  0
  150.2952  144.7098  158.0088 H   0  0  0  0  0  0  0  0  0  0  0  0
  152.7257  140.3821  158.8786 H   0  0  0  0  0  0  0  0  0  0  0  0
  149.5308  143.2798  155.6133 H   0  0  0  0  0  0  0  0  0  0  0  0
  1  2  1  0  0  0  0
  1 23  1  0  0  0  0
  2  3  1  0  0  0  0
  2 11  1  0  0  0  0
  2 24  1  0  0  0  0
  3  4  1  0  0  0  0
  3 25  1  0  0  0  0
  3 26  1  0  0  0  0
  4  5  1  0  0  0  0
  5  6  1  0  0  0  0
  5 27  1  0  0  0  0
  5 28  1  0  0  0  0
  6 10  1  0  0  0  0
  6  7  2  0  0  0  0
  7  8  1  0  0  0  0
  7 29  1  0  0  0  0
  8  9  2  0  0  0  0
  8 30  1  0  0  0  0
  9 10  1  0  0  0  0
  9 31  1  0  0  0  0
 11 12  1  0  0  0  0
 11 32  1  0  0  0  0
 11 33  1  0  0  0  0
 12 22  1  0  0  0  0
 12 13  1  0  0  0  0
 13 14  2  0  0  0  0
 13 34  1  0  0  0  0
 14 15  1  0  0  0  0
 14 37  1  0  0  0  0
 15 22  2  0  0  0  0
 15 16  1  0  0  0  0
 16 17  2  0  0  0  0
 16 35  1  0  0  0  0
 17 18  1  0  0  0  0
 17 19  1  0  0  0  0
 19 20  1  0  0  0  0
 19 21  2  0  0  0  0
 21 22  1  0  0  0  0
 21 36  1  0  0  0  0
M  CHG  1  14   1
M  END
> <s_m_source_file>
AV-unprocessed.smi

> <i_m_source_file_index>
1880

> <i_lp_mmshare_version>
43012

> <i_f3d_flags>
0

> <s_epik_input>
W2NIXTFjKEYpYyhGKVtjSF1jKGMxMiluKFtjSF1uMilbQ0gyXVtDQEhdKFtPSF0pW0NIMl1PW0NIMl1jM1tjSF1bY0hdW2NIXW8z

> <s_epik_cmdline>
J2VwaWtfcHl0aG9uJywgJy1waCcsICc3LjAnLCAnLXRuJywgJzgnLCAnLW1hJywgJzIwMCcsICctbWV0YWxfYmluZGluZycsICctaW1hZScsICc8aW5maWxlLm1hZT4nLCAnLW9tYWUnLCAnPG91dGZpbGUubWFlPic=

> <r_epik_Ionization_Penalty>
2.17656

> <r_epik_Ionization_Penalty_Charging>
2.17656

> <r_epik_Ionization_Penalty_Neutral>
9.34185e-07

> <r_epik_State_Penalty>
2.31826

> <r_epik_Charging_Adjusted_Penalty>
4.49482

> <i_epik_Tot_Q>
1

> <i_epik_Tot_abs_Q>
1

> <r_epik_Metal_State_Penalty>
6.39906

> <b_epik_Metal_Only>
0

> <s_lp_Force_Field>
OPLS_2005

> <r_lp_Energy>
11.8532

> <b_lp_Chiralities_Consistent>
1

> <s_lp_Variant>
AV-unprocessed.smi:1880-4

> <Gold.Version>
5.8.1

> <Gold.Id.Protein>
6NUR|6NUR_protein|mol2

> <Gold.PLP.Fitness>
59.6483

> <Gold.PLP.PLP>
-50.8555

> <Gold.PLP.part.hbond>
-3.9537

> <Gold.PLP.part.metal>
0.0000

> <Gold.PLP.part.buried>
-4.7964

> <Gold.PLP.part.nonpolar>
-41.6912

> <Gold.PLP.part.repulsive>
0.2402

> <Gold.PLP.ligand.clash>
0.0000

> <Gold.PLP.ligand.torsion>
1.3571

> <Gold.PLP.Chemscore.Hbond>
3.8160

> <Gold.PLP.Chemscore.CHOScore>
0.0000

> <Gold.PLP.Chemscore.Metal>
0.0000

> <Gold.Chemscore.Hbonds>
donor molecule, donor type, donor heavy atom, donor atom, acceptor molecule, acceptor atom, score
      L1  H    14    37       P1  8028  1.95
      P1  H  7997  8010       L1     1  0.75
      P1  H 10752 10765       L1     4  1.00

> <Gold.PLP.Chemscore.Internal.Correction>
0.0591

> <Gold.Rescore>
     Score         DG    S(hbond)    S(metal)    S(lipo)     H(rot)  DE(clash)    DE(int)     intcor
     14.04     -15.16       1.36        0.00     108.11       2.94       0.05       1.07       ----

> <Gold.Chemscore.Fitness>
14.0352

> <Gold.Chemscore.DG>
-15.1628

> <Gold.Chemscore.ZeroCoef>
-5.4800

> <Gold.Chemscore.Hbond>
1.3631

> <Gold.Chemscore.Metal>
0.0000

> <Gold.Chemscore.Lipo>
108.1071

> <Gold.Chemscore.Internal_Hbond>
0.0000

> <Gold.Chemscore.DEClash>
0.0537

> <Gold.Chemscore.DEInternal>
1.0739

> <Gold.Chemscore.Rot>
2.9369

> <Gold.Chemscore.Internal.Correction>
   9.000000E+99

> <Gold.Chemscore.Hbonds>
donor molecule, donor type, donor heavy atom, donor atom, acceptor molecule, acceptor atom, score
      L1  H    14    37       P1  8028  0.90
      P1  H  7997  8010       L1     1  0.23
      P1  H 10752 10765       L1     4  0.26

> <Gold.Chemscore.Hbond.Weighted>
-4.5528

> <Gold.Chemscore.Metal.Weighted>
-0.0000

> <Gold.Chemscore.Lipo.Weighted>
-12.6485

> <Gold.Chemscore.Internal_Hbond.Weighted>
0.0000

> <Gold.Chemscore.DEClash.Weighted>
0.0537

> <Gold.Chemscore.DEInternal.Weighted>
1.0739

> <Gold.Chemscore.Rot.Weighted>
7.5185

> <Gold.Chemscore.Internal.Correction.Weighted>
   9.000000E+99

> <Gold.Protein.RotatedTorsions>
[ 6907 6896 6895 6894 ] final   74.86 input  -60.11 | X-H torsion
[ 7974 7965 7964 7962 ] final -111.07 input  175.53 | X-H torsion
[ 8008 7997 7996 7995 ] final  107.55 input   59.86 | X-H torsion
[ 10167 10162 10161 10158 ] final   46.54 input  -65.29 | X-H torsion
[ 10718 10713 10712 10709 ] final  160.02 input   66.30 | X-H torsion
[ 10763 10752 10751 10750 ] final -169.10 input  -60.55 | X-H torsion
[ 11005 11000 10999 10996 ] final  -50.55 input  -57.11 | X-H torsion

> <Gold.Protein.ActiveResidues>
 VAL166  LYS551  ARG553  GLY616  TRP617  ASP618  TYR619  PRO620  LYS621  CYS622 
 ASP623  PHE694  ASN695  SER759  ASP760  ASP761  ALA762  ILE779  LEU786  VAL792 
 PHE793  MET794  SER795  GLU796  ALA797  LYS798  CYS799  TRP800  GLU811  SER814 

> <Gold.Protein.RotatedAtoms>
  152.4997  134.4207  159.9479 H   0  0  0  0  0  0  0  0  0  0  0  0  # atno 6907 bound_to 6896
  151.4180  133.3701  159.2760 H   0  0  0  0  0  0  0  0  0  0  0  0  # atno 6908 bound_to 6896
  150.9243  134.8682  159.7569 H   0  0  0  0  0  0  0  0  0  0  0  0  # atno 6909 bound_to 6896
  145.1606  140.8876  143.3593 H   0  0  0  0  0  0  0  0  0  0  0  0  # atno 7974 bound_to 7965
  156.1833  140.3092  155.9190 H   0  0  0  0  0  0  0  0  0  0  0  0  # atno 8008 bound_to 7997
  155.3336  140.0462  157.3060 H   0  0  0  0  0  0  0  0  0  0  0  0  # atno 8009 bound_to 7997
  154.5367  140.2248  155.8720 H   0  0  0  0  0  0  0  0  0  0  0  0  # atno 8010 bound_to 7997
  140.3128  144.2799  150.6196 H   0  0  0  0  0  0  0  0  0  0  0  0  # atno 10167 bound_to 10162
  157.1561  131.0576  151.2256 H   0  0  0  0  0  0  0  0  0  0  0  0  # atno 10718 bound_to 10713
  154.6558  135.2918  154.9929 H   0  0  0  0  0  0  0  0  0  0  0  0  # atno 10763 bound_to 10752
  154.1006  135.6577  153.4871 H   0  0  0  0  0  0  0  0  0  0  0  0  # atno 10764 bound_to 10752
  153.0402  135.5241  154.7487 H   0  0  0  0  0  0  0  0  0  0  0  0  # atno 10765 bound_to 10752
  141.0822  133.6651  156.3747 H   0  0  0  0  0  0  0  0  0  0  0  0  # atno 11005 bound_to 11000
  145.0335  139.3320  143.6012 LP  0  0  0  0  0  0  0  0  0  0  0  0  # atno 17320 bound_to 7965
  146.3483  139.9682  142.8709 LP  0  0  0  0  0  0  0  0  0  0  0  0  # atno 17321 bound_to 7965
  140.5553  143.2200  151.7858 LP  0  0  0  0  0  0  0  0  0  0  0  0  # atno 17342 bound_to 10162
  139.4890  144.4422  151.9751 LP  0  0  0  0  0  0  0  0  0  0  0  0  # atno 17343 bound_to 10162
  157.4175  130.7419  149.6887 LP  0  0  0  0  0  0  0  0  0  0  0  0  # atno 17370 bound_to 10713
  155.9762  130.4079  150.3797 LP  0  0  0  0  0  0  0  0  0  0  0  0  # atno 17371 bound_to 10713
  140.5443  134.6089  157.5389 LP  0  0  0  0  0  0  0  0  0  0  0  0  # atno 17394 bound_to 11000
  139.9637  134.7410  156.0184 LP  0  0  0  0  0  0  0  0  0  0  0  0  # atno 17395 bound_to 11000

$$$$
