AV-unprocessed.smi:1601|AV-procd|sdf|6437|dock9
  -GOLD-   22720 7 83D 1   1.00000     0.00000
 Structure written by MMmdl.
 42 43  0  0  0  0  0  0  0  0  2 V2000
  151.1928  137.8880  158.9586 C   0  0  0  0  0  0  0  0  0  0  0  0
  149.7735  137.9856  158.3474 C   0  0  2  0  0  0  0  0  0  0  0  0
  149.0825  136.5913  158.3733 C   0  0  0  0  0  0  0  0  0  0  0  0
  148.8661  136.0789  159.7238 N   0  0  0  0  0  0  0  0  0  0  0  0
  147.9740  136.5696  160.5993 C   0  0  0  0  0  0  0  0  0  0  0  0
  147.2319  137.5170  160.3376 O   0  0  0  0  0  0  0  0  0  0  0  0
  147.9244  135.8902  161.9768 C   0  0  1  0  0  0  0  0  0  0  0  0
  147.4250  136.8388  163.0859 C   0  0  0  0  0  0  0  0  0  0  0  0
  147.1457  134.6587  161.9091 N   0  0  0  0  0  0  0  0  0  0  0  0
  145.9772  134.3565  162.5786 C   0  0  0  0  0  0  0  0  0  0  0  0
  145.6246  133.0825  162.2367 C   0  0  0  0  0  0  0  0  0  0  0  0
  146.6587  132.6722  161.3506 C   0  0  0  0  0  0  0  0  0  0  0  0
  147.5711  133.6114  161.1643 N   0  0  0  0  0  0  0  0  0  0  0  0
  149.8173  138.5942  156.9753 N   0  3  0  0  0  0  0  0  0  0  0  0
  150.3107  140.0000  156.9356 C   0  0  0  0  0  0  0  0  0  0  0  0
  150.3339  140.5524  155.4999 C   0  0  0  0  0  0  0  0  0  0  0  0
  151.1262  139.7161  154.6725 O   0  0  0  0  0  0  0  0  0  0  0  0
  150.5851  138.4072  154.5989 C   0  0  0  0  0  0  0  0  0  0  0  0
  150.5840  137.7704  155.9981 C   0  0  0  0  0  0  0  0  0  0  0  0
  151.1881  137.4000  159.9327 H   0  0  0  0  0  0  0  0  0  0  0  0
  151.6414  138.8643  159.1336 H   0  0  0  0  0  0  0  0  0  0  0  0
  151.8623  137.3197  158.3123 H   0  0  0  0  0  0  0  0  0  0  0  0
  149.1832  138.6553  158.9748 H   0  0  0  0  0  0  0  0  0  0  0  0
  148.1060  136.6154  157.8895 H   0  0  0  0  0  0  0  0  0  0  0  0
  149.6851  135.8647  157.8277 H   0  0  0  0  0  0  0  0  0  0  0  0
  149.4375  135.2988  160.0149 H   0  0  0  0  0  0  0  0  0  0  0  0
  148.9461  135.6077  162.2370 H   0  0  0  0  0  0  0  0  0  0  0  0
  148.0537  137.7273  163.1554 H   0  0  0  0  0  0  0  0  0  0  0  0
  147.4493  136.3455  164.0579 H   0  0  0  0  0  0  0  0  0  0  0  0
  146.4015  137.1733  162.9119 H   0  0  0  0  0  0  0  0  0  0  0  0
  145.4969  135.0669  163.2351 H   0  0  0  0  0  0  0  0  0  0  0  0
  144.7612  132.5266  162.5707 H   0  0  0  0  0  0  0  0  0  0  0  0
  146.7745  131.7255  160.8440 H   0  0  0  0  0  0  0  0  0  0  0  0
  149.6647  140.6574  157.5153 H   0  0  0  0  0  0  0  0  0  0  0  0
  151.3090  140.0498  157.3731 H   0  0  0  0  0  0  0  0  0  0  0  0
  149.3229  140.6327  155.0966 H   0  0  0  0  0  0  0  0  0  0  0  0
  150.7576  141.5568  155.4921 H   0  0  0  0  0  0  0  0  0  0  0  0
  149.5774  138.4351  154.1809 H   0  0  0  0  0  0  0  0  0  0  0  0
  151.1947  137.8128  153.9181 H   0  0  0  0  0  0  0  0  0  0  0  0
  151.6099  137.6482  156.3495 H   0  0  0  0  0  0  0  0  0  0  0  0
  150.1578  136.7742  155.9016 H   0  0  0  0  0  0  0  0  0  0  0  0
  148.8634  138.6235  156.6449 H   0  0  0  0  0  0  0  0  0  0  0  0
  1  2  1  0  0  0  0
  1 20  1  0  0  0  0
  1 21  1  0  0  0  0
  1 22  1  0  0  0  0
  2  3  1  0  0  0  0
  2 14  1  0  0  0  0
  2 23  1  0  0  0  0
  3  4  1  0  0  0  0
  3 24  1  0  0  0  0
  3 25  1  0  0  0  0
  4  5  1  0  0  0  0
  4 26  1  0  0  0  0
  5  6  2  0  0  0  0
  5  7  1  0  0  0  0
  7  8  1  0  0  0  0
  7  9  1  0  0  0  0
  7 27  1  0  0  0  0
  8 28  1  0  0  0  0
  8 29  1  0  0  0  0
  8 30  1  0  0  0  0
  9 13  1  0  0  0  0
  9 10  1  0  0  0  0
 10 11  2  0  0  0  0
 10 31  1  0  0  0  0
 11 12  1  0  0  0  0
 11 32  1  0  0  0  0
 12 13  2  0  0  0  0
 12 33  1  0  0  0  0
 14 19  1  0  0  0  0
 14 15  1  0  0  0  0
 14 42  1  0  0  0  0
 15 16  1  0  0  0  0
 15 34  1  0  0  0  0
 15 35  1  0  0  0  0
 16 17  1  0  0  0  0
 16 36  1  0  0  0  0
 16 37  1  0  0  0  0
 17 18  1  0  0  0  0
 18 19  1  0  0  0  0
 18 38  1  0  0  0  0
 18 39  1  0  0  0  0
 19 40  1  0  0  0  0
 19 41  1  0  0  0  0
M  CHG  1  14   1
M  END
> <s_m_source_file>
AV-unprocessed.smi

> <i_m_source_file_index>
1601

> <i_lp_mmshare_version>
43012

> <i_f3d_flags>
0

> <s_epik_input>
W0NIMl0xW0NIMl1PW0NIMl1bQ0gyXU4xW0NASF0oW0NIM10pW0NIMl1bTkhdQyg9TylbQ0BIXShbQ0gzXSluMltjSF1bY0hdW2NIXW4y

> <s_epik_cmdline>
J2VwaWtfcHl0aG9uJywgJy1waCcsICc3LjAnLCAnLXRuJywgJzgnLCAnLW1hJywgJzIwMCcsICctbWV0YWxfYmluZGluZycsICctaW1hZScsICc8aW5maWxlLm1hZT4nLCAnLW9tYWUnLCAnPG91dGZpbGUubWFlPic=

> <r_lp_tautomer_probability>
1

> <r_epik_Ionization_Penalty>
0.732551

> <r_epik_Ionization_Penalty_Charging>
0.732531

> <r_epik_Ionization_Penalty_Neutral>
2.04647e-05

> <r_epik_State_Penalty>
0.757939

> <r_epik_Charging_Adjusted_Penalty>
1.49047

> <i_epik_Tot_Q>
1

> <i_epik_Tot_abs_Q>
1

> <r_epik_Metal_State_Penalty>
0.757952

> <b_epik_Metal_Only>
0

> <s_lp_Force_Field>
OPLS_2005

> <r_lp_Energy>
24.7345

> <b_lp_Chiralities_Consistent>
1

> <s_lp_Variant>
AV-unprocessed.smi:1601-7

> <Gold.Version>
5.8.1

> <Gold.Id.Protein>
6NUR|6NUR_protein|mol2

> <Gold.PLP.Fitness>
39.8402

> <Gold.PLP.PLP>
-35.3987

> <Gold.PLP.part.hbond>
-2.5258

> <Gold.PLP.part.metal>
0.0000

> <Gold.PLP.part.buried>
-5.0008

> <Gold.PLP.part.nonpolar>
-28.3768

> <Gold.PLP.part.repulsive>
0.2604

> <Gold.PLP.ligand.clash>
0.0000

> <Gold.PLP.ligand.torsion>
0.8528

> <Gold.PLP.Chemscore.Hbond>
2.0000

> <Gold.PLP.Chemscore.CHOScore>
0.0000

> <Gold.PLP.Chemscore.Metal>
0.0000

> <Gold.Chemscore.Hbonds>
donor molecule, donor type, donor heavy atom, donor atom, acceptor molecule, acceptor atom, score
      P1  H  6934  6947       L1     6  1.00
      P1  H  7989  7998       L1    17  1.00

> <Gold.PLP.Chemscore.Internal.Correction>
0.1470

> <Gold.Rescore>
     Score         DG    S(hbond)    S(metal)    S(lipo)     H(rot)  DE(clash)    DE(int)     intcor
     15.10     -16.07       1.97        0.00      75.02       1.86       0.00       0.96       ----

> <Gold.Chemscore.Fitness>
15.0997

> <Gold.Chemscore.DG>
-16.0672

> <Gold.Chemscore.ZeroCoef>
-5.4800

> <Gold.Chemscore.Hbond>
1.9699

> <Gold.Chemscore.Metal>
0.0000

> <Gold.Chemscore.Lipo>
75.0197

> <Gold.Chemscore.Internal_Hbond>
0.0000

> <Gold.Chemscore.DEClash>
0.0038

> <Gold.Chemscore.DEInternal>
0.9636

> <Gold.Chemscore.Rot>
1.8631

> <Gold.Chemscore.Internal.Correction>
   9.000000E+99

> <Gold.Chemscore.Hbonds>
donor molecule, donor type, donor heavy atom, donor atom, acceptor molecule, acceptor atom, score
      P1  H  6934  6947       L1     6  0.97
      P1  H  7989  7998       L1    17  0.26

> <Gold.Chemscore.Hbond.Weighted>
-6.5795

> <Gold.Chemscore.Metal.Weighted>
-0.0000

> <Gold.Chemscore.Lipo.Weighted>
-8.7773

> <Gold.Chemscore.Internal_Hbond.Weighted>
0.0000

> <Gold.Chemscore.DEClash.Weighted>
0.0038

> <Gold.Chemscore.DEInternal.Weighted>
0.9636

> <Gold.Chemscore.Rot.Weighted>
4.7697

> <Gold.Chemscore.Internal.Correction.Weighted>
   9.000000E+99

> <Gold.Protein.RotatedTorsions>
[ 6907 6896 6895 6894 ] final   27.96 input  -60.11 | X-H torsion
[ 7974 7965 7964 7962 ] final    5.48 input  175.53 | X-H torsion
[ 8008 7997 7996 7995 ] final   36.29 input   59.86 | X-H torsion
[ 10167 10162 10161 10158 ] final  143.79 input  -65.29 | X-H torsion
[ 10718 10713 10712 10709 ] final  143.45 input   66.30 | X-H torsion
[ 10763 10752 10751 10750 ] final   27.51 input  -60.55 | X-H torsion
[ 11005 11000 10999 10996 ] final -133.08 input  -57.11 | X-H torsion

> <Gold.Protein.ActiveResidues>
 VAL166  LYS551  ARG553  GLY616  TRP617  ASP618  TYR619  PRO620  LYS621  CYS622 
 ASP623  PHE694  ASN695  SER759  ASP760  ASP761  ALA762  ILE779  LEU786  VAL792 
 PHE793  MET794  SER795  GLU796  ALA797  LYS798  CYS799  TRP800  GLU811  SER814 

> <Gold.Protein.RotatedAtoms>
  152.0099  134.9882  160.0567 H   0  0  0  0  0  0  0  0  0  0  0  0  # atno 6907 bound_to 6896
  152.1439  133.4476  159.4788 H   0  0  0  0  0  0  0  0  0  0  0  0  # atno 6908 bound_to 6896
  150.6868  134.2190  159.4432 H   0  0  0  0  0  0  0  0  0  0  0  0  # atno 6909 bound_to 6896
  146.2440  140.0377  142.8384 H   0  0  0  0  0  0  0  0  0  0  0  0  # atno 7974 bound_to 7965
  155.1849  140.3303  155.4368 H   0  0  0  0  0  0  0  0  0  0  0  0  # atno 8008 bound_to 7997
  156.2463  140.1920  156.6895 H   0  0  0  0  0  0  0  0  0  0  0  0  # atno 8009 bound_to 7997
  154.6245  140.0591  156.9643 H   0  0  0  0  0  0  0  0  0  0  0  0  # atno 8010 bound_to 7997
  139.4961  144.6016  151.6468 H   0  0  0  0  0  0  0  0  0  0  0  0  # atno 10167 bound_to 10162
  157.3688  131.0976  151.0847 H   0  0  0  0  0  0  0  0  0  0  0  0  # atno 10718 bound_to 10713
  153.0551  135.6535  154.0598 H   0  0  0  0  0  0  0  0  0  0  0  0  # atno 10763 bound_to 10752
  154.0278  135.2914  155.3374 H   0  0  0  0  0  0  0  0  0  0  0  0  # atno 10764 bound_to 10752
  154.6861  135.5301  153.8396 H   0  0  0  0  0  0  0  0  0  0  0  0  # atno 10765 bound_to 10752
  140.9113  134.1565  157.4387 H   0  0  0  0  0  0  0  0  0  0  0  0  # atno 11005 bound_to 11000
  145.1098  140.9398  143.4663 LP  0  0  0  0  0  0  0  0  0  0  0  0  # atno 17320 bound_to 7965
  145.0588  139.3122  143.5891 LP  0  0  0  0  0  0  0  0  0  0  0  0  # atno 17321 bound_to 7965
  140.5667  144.0177  150.6196 LP  0  0  0  0  0  0  0  0  0  0  0  0  # atno 17342 bound_to 10162
  140.3281  143.3094  152.0715 LP  0  0  0  0  0  0  0  0  0  0  0  0  # atno 17343 bound_to 10162
  157.1959  130.6373  149.5721 LP  0  0  0  0  0  0  0  0  0  0  0  0  # atno 17370 bound_to 10713
  155.9751  130.4707  150.6438 LP  0  0  0  0  0  0  0  0  0  0  0  0  # atno 17371 bound_to 10713
  139.8758  134.9936  156.5655 LP  0  0  0  0  0  0  0  0  0  0  0  0  # atno 17394 bound_to 11000
  140.8107  133.8431  155.8807 LP  0  0  0  0  0  0  0  0  0  0  0  0  # atno 17395 bound_to 11000

$$$$
