#       Name:                AV-unprocessed.smi:3158
#       Creating user name   scv26
#       Creation time:       Fri Mar 27 17:46:33 2020


#       File generated by GOLD software.
#

@<TRIPOS>MOLECULE
AV-unprocessed.smi:3158
    43    43     1
SMALL
NO_CHARGES


@<TRIPOS>ATOM
      1 ****        -2.4173   2.2385   1.8630 C.3            1 S1                 0.0000
      2 ****        -2.7083   2.8646   0.4911 C.3            1 S1                 0.0000
      3 ****        -2.2333   2.0023  -0.6930 C.3            1 S1                 0.0000
      4 ****        -2.6348   2.6145  -2.0431 C.3            1 S1                 0.0000
      5 ****        -0.7828   1.8329  -0.6413 N.am           1 S1                 0.0000
      6 ****        -0.1177   0.7000  -0.9147 C.2            1 S1                 0.0000
      7 ****        -0.6678  -0.3432  -1.2694 O.2            1 S1                 0.0000
      8 ****         1.4091   0.7545  -0.7726 C.3            1 S1                 0.0000
      9 ****         2.0563   0.9868  -2.1461 C.3            1 S1                 0.0000
     10 ****         1.9351  -0.4923  -0.1747 N.4            1 S1                 1.0000
     11 ****         1.7471  -0.6116   1.2881 C.3            1 S1                 0.0000
     12 ****         2.1488  -2.0084   1.7922 C.3            1 S1                 0.0000
     13 ****         1.3524  -3.0730   1.2035 N.pl3          1 S1                 0.0000
     14 ****         1.7900  -4.2360   0.6047 C.2            1 S1                 0.0000
     15 ****         0.6834  -4.9389   0.2227 C.2            1 S1                 0.0000
     16 ****        -0.4006  -4.1215   0.6481 C.2            1 S1                 0.0000
     17 ****         0.0031  -3.0104   1.2423 N.2            1 S1                 0.0000
     18 ****        -2.8141   2.8623   2.6641 H              1 S1                 0.0000
     19 ****        -1.3467   2.1246   2.0353 H              1 S1                 0.0000
     20 ****        -2.8774   1.2538   1.9506 H              1 S1                 0.0000
     21 ****        -3.7833   3.0281   0.4058 H              1 S1                 0.0000
     22 ****        -2.2478   3.8521   0.4397 H              1 S1                 0.0000
     23 ****        -2.7217   1.0297  -0.6075 H              1 S1                 0.0000
     24 ****        -3.7163   2.7318  -2.1143 H              1 S1                 0.0000
     25 ****        -2.3194   1.9802  -2.8723 H              1 S1                 0.0000
     26 ****        -2.1834   3.5972  -2.1843 H              1 S1                 0.0000
     27 ****        -0.2457   2.6423  -0.3648 H              1 S1                 0.0000
     28 ****         1.6833   1.5880  -0.1232 H              1 S1                 0.0000
     29 ****         1.7002   1.9121  -2.6009 H              1 S1                 0.0000
     30 ****         1.8367   0.1713  -2.8369 H              1 S1                 0.0000
     31 ****         3.1406   1.0633  -2.0595 H              1 S1                 0.0000
     32 ****         1.4753  -1.2709  -0.6259 H              1 S1                 0.0000
     33 ****         2.3527   0.1479   1.7835 H              1 S1                 0.0000
     34 ****         0.7100  -0.4043   1.5553 H              1 S1                 0.0000
     35 ****         3.2013  -2.1982   1.5770 H              1 S1                 0.0000
     36 ****         2.0352  -2.0609   2.8754 H              1 S1                 0.0000
     37 ****         2.8405  -4.4648   0.4991 H              1 S1                 0.0000
     38 ****         0.6521  -5.8944  -0.2796 H              1 S1                 0.0000
     39 ****        -1.4606  -4.3031   0.5469 H              1 S1                 0.0000
     40 ****         2.9253  -0.5464  -0.3646 H              1 S1                 0.0000
     41 ****        -1.6625  -0.3758  -1.3670 LP             1 S1                 0.0000
     42 ****        -0.1198  -1.1577  -1.4598 LP             1 S1                 0.0000
     43 ****        -0.5641  -2.2855   1.6332 LP             1 S1                 0.0000
@<TRIPOS>BOND
    1    1    2 1     
    2    1   18 1     
    3    1   19 1     
    4    1   20 1     
    5    2    3 1     
    6    2   21 1     
    7    2   22 1     
    8    3    4 1     
    9    3    5 1     
   10    3   23 1     
   11    4   24 1     
   12    4   25 1     
   13    4   26 1     
   14    5    6 am    
   15    5   27 1     
   16    6    7 2     
   17    6    8 1     
   18    8    9 1     
   19    8   10 1     
   20    8   28 1     
   21    9   29 1     
   22    9   30 1     
   23    9   31 1     
   24   10   11 1     
   25   10   32 1     
   26   10   40 1     
   27   11   12 1     
   28   11   33 1     
   29   11   34 1     
   30   12   13 1     
   31   12   35 1     
   32   12   36 1     
   33   13   17 1     
   34   13   14 1     
   35   14   15 2     
   36   14   37 1     
   37   15   16 1     
   38   15   38 1     
   39   16   17 2     
   40   16   39 1     
   41    7   41 1     
   42    7   42 1     
   43   17   43 1     
@<TRIPOS>SUBSTRUCTURE
      1 S1             1
@<TRIPOS>SET
LONE_PAIRS      STATIC     ATOMS    <user>   **** ""
3 41 42 43
DONOR_HYDROGENS      STATIC     ATOMS    <user>   **** ""
3 27 32 40
ATOM$BLUE        STATIC     ATOMS    COLORGROUP SYSTEM
3 41 42 43
ATOM$RED        STATIC     ATOMS    COLORGROUP SYSTEM
3 27 32 40
